MODEL 1
REMARK VINA RESULT:      -8.9      0.000      0.000
REMARK  4 active torsions:
REMARK  status: ('A' for Active; 'I' for Inactive)
REMARK    1  A    between atoms: C_4  and  S_7 
REMARK    2  A    between atoms: S_7  and  N_10 
REMARK    3  A    between atoms: C_21  and  C_26 
REMARK    4  A    between atoms: C_30  and  C_32 
ROOT
ATOM      1  N   LIG d   1       4.086  -2.106 -11.432  0.00  0.00    -0.176 N 
ATOM      2  C   LIG d   1       4.151  -3.573 -11.430  0.00  0.00     0.025 C 
ATOM      3  C   LIG d   1       3.199  -4.141 -10.386  0.00  0.00    -0.008 C 
ATOM      4  H   LIG d   1       3.122  -5.213 -10.562  0.00  0.00     0.033 H 
ATOM      5  C   LIG d   1       1.802  -3.535 -10.529  0.00  0.00    -0.038 C 
ATOM      6  C   LIG d   1       1.913  -2.018 -10.357  0.00  0.00     0.014 C 
ATOM      7  H   LIG d   1       0.921  -1.567 -10.357  0.00  0.00     0.038 H 
ATOM      8  C   LIG d   1       2.765  -1.461 -11.510  0.00  0.00     0.029 C 
ATOM      9  C   LIG d   1       2.628  -1.703  -9.063  0.00  0.00     0.026 A 
ATOM     10  C   LIG d   1       2.359  -0.501  -8.483  0.00  0.00    -0.041 A 
ATOM     11  C   LIG d   1       3.060  -0.081  -7.350  0.00  0.00    -0.047 A 
ATOM     12  C   LIG d   1       4.036  -0.914  -6.826  0.00  0.00     0.047 A 
ATOM     13  C   LIG d   1       4.265  -2.162  -7.446  0.00  0.00     0.259 A 
ATOM     14  O   LIG d   1       5.145  -2.894  -7.021  0.00  0.00    -0.267 OA
ATOM     15  N   LIG d   1       3.521  -2.556  -8.507  0.00  0.00    -0.311 N 
ATOM     16  C   LIG d   1       3.711  -3.929  -8.973  0.00  0.00     0.030 C 
ATOM     17  H   LIG d   1       5.168  -3.889 -11.201  0.00  0.00     0.045 H 
ATOM     18  H   LIG d   1       3.872  -3.947 -12.415  0.00  0.00     0.045 H 
ATOM     19  H   LIG d   1       1.402  -3.763 -11.517  0.00  0.00     0.028 H 
ATOM     20  H   LIG d   1       1.144  -3.945  -9.762  0.00  0.00     0.028 H 
ATOM     21  H   LIG d   1       2.294  -1.694 -12.465  0.00  0.00     0.045 H 
ATOM     22  H   LIG d   1       2.873  -0.381 -11.403  0.00  0.00     0.045 H 
ATOM     23  H   LIG d   1       1.598   0.138  -8.906  0.00  0.00     0.064 H 
ATOM     24  H   LIG d   1       2.842   0.871  -6.890  0.00  0.00     0.063 H 
ATOM     25  H   LIG d   1       4.774  -4.168  -8.944  0.00  0.00     0.050 H 
ATOM     26  H   LIG d   1       3.181  -4.606  -8.303  0.00  0.00     0.050 H 
ENDROOT
BRANCH   1  27
ATOM     27  S   LIG d   1       5.468  -1.198 -11.348  0.00  0.00     0.061 S 
ATOM     28  O   LIG d   1       6.350  -1.883 -10.469  0.00  0.00    -0.153 OA
ATOM     29  O   LIG d   1       5.824  -0.876 -12.684  0.00  0.00    -0.153 OA
BRANCH  27  30
ATOM     30  C   LIG d   1       5.047   0.319 -10.558  0.00  0.00     0.105 A 
ATOM     31  C   LIG d   1       5.803   0.779  -9.496  0.00  0.00    -0.035 A 
ATOM     32  C   LIG d   1       5.473   1.970  -8.876  0.00  0.00    -0.060 A 
ATOM     33  H   LIG d   1       6.651   0.207  -9.148  0.00  0.00     0.064 H 
ATOM     34  C   LIG d   1       4.388   2.702  -9.320  0.00  0.00    -0.062 A 
ATOM     35  H   LIG d   1       6.063   2.328  -8.045  0.00  0.00     0.062 H 
ATOM     36  C   LIG d   1       3.633   2.244 -10.383  0.00  0.00    -0.060 A 
ATOM     37  H   LIG d   1       4.129   3.632  -8.836  0.00  0.00     0.062 H 
ATOM     38  C   LIG d   1       3.965   1.054 -11.005  0.00  0.00    -0.035 A 
ATOM     39  H   LIG d   1       2.784   2.815 -10.730  0.00  0.00     0.062 H 
ATOM     40  H   LIG d   1       3.379   0.698 -11.839  0.00  0.00     0.064 H 
ENDBRANCH  27  30
ENDBRANCH   1  27
BRANCH  12  41
ATOM     41  C   LIG d   1       4.821  -0.503  -5.640  0.00  0.00    -0.012 A 
ATOM     42  C   LIG d   1       4.200  -0.378  -4.397  0.00  0.00    -0.042 A 
ATOM     43  C   LIG d   1       4.937   0.000  -3.295  0.00  0.00     0.055 A 
ATOM     44  H   LIG d   1       3.142  -0.582  -4.299  0.00  0.00     0.063 H 
ATOM     45  C   LIG d   1       6.288   0.266  -3.420  0.00  0.00    -0.050 A 
ATOM     46  C   LIG d   1       6.910   0.149  -4.652  0.00  0.00    -0.061 A 
ATOM     47  H   LIG d   1       6.860   0.567  -2.555  0.00  0.00     0.062 H 
ATOM     48  C   LIG d   1       6.184  -0.233  -5.761  0.00  0.00    -0.054 A 
ATOM     49  H   LIG d   1       7.965   0.359  -4.743  0.00  0.00     0.062 H 
ATOM     50  H   LIG d   1       6.671  -0.323  -6.720  0.00  0.00     0.062 H 
BRANCH  43  51
ATOM     51  C   LIG d   1       4.267   0.130  -1.950  0.00  0.00     0.417 C 
ATOM     52  F   LIG d   1       2.916   0.442  -2.130  0.00  0.00    -0.166 F 
ATOM     53  F   LIG d   1       4.378  -1.080  -1.256  0.00  0.00    -0.166 F 
ATOM     54  F   LIG d   1       4.887   1.147  -1.216  0.00  0.00    -0.166 F 
ENDBRANCH  43  51
ENDBRANCH  12  41
TORSDOF 4
ENDMDL
MODEL 2
REMARK VINA RESULT:      -8.0      4.282      7.301
REMARK  4 active torsions:
REMARK  status: ('A' for Active; 'I' for Inactive)
REMARK    1  A    between atoms: C_4  and  S_7 
REMARK    2  A    between atoms: S_7  and  N_10 
REMARK    3  A    between atoms: C_21  and  C_26 
REMARK    4  A    between atoms: C_30  and  C_32 
ROOT
ATOM      1  N   LIG d   1       6.288  -0.252  -3.276  0.00  0.00    -0.176 N 
ATOM      2  C   LIG d   1       5.359   0.584  -2.505  0.00  0.00     0.025 C 
ATOM      3  C   LIG d   1       3.942   0.038  -2.615  0.00  0.00    -0.008 C 
ATOM      4  H   LIG d   1       3.334   0.552  -1.872  0.00  0.00     0.033 H 
ATOM      5  C   LIG d   1       3.906  -1.459  -2.307  0.00  0.00    -0.038 C 
ATOM      6  C   LIG d   1       4.817  -2.181  -3.302  0.00  0.00     0.014 C 
ATOM      7  H   LIG d   1       4.737  -3.259  -3.169  0.00  0.00     0.038 H 
ATOM      8  C   LIG d   1       6.262  -1.708  -3.065  0.00  0.00     0.029 C 
ATOM      9  C   LIG d   1       4.435  -1.800  -4.713  0.00  0.00     0.026 A 
ATOM     10  C   LIG d   1       4.729  -2.692  -5.699  0.00  0.00    -0.041 A 
ATOM     11  C   LIG d   1       4.516  -2.372  -7.041  0.00  0.00    -0.047 A 
ATOM     12  C   LIG d   1       3.995  -1.126  -7.352  0.00  0.00     0.047 A 
ATOM     13  C   LIG d   1       3.681  -0.240  -6.297  0.00  0.00     0.259 A 
ATOM     14  O   LIG d   1       3.255   0.875  -6.552  0.00  0.00    -0.267 OA
ATOM     15  N   LIG d   1       3.849  -0.615  -5.006  0.00  0.00    -0.311 N 
ATOM     16  C   LIG d   1       3.337   0.298  -3.983  0.00  0.00     0.030 C 
ATOM     17  H   LIG d   1       5.385   1.603  -2.891  0.00  0.00     0.045 H 
ATOM     18  H   LIG d   1       5.664   0.590  -1.458  0.00  0.00     0.045 H 
ATOM     19  H   LIG d   1       4.260  -1.633  -1.291  0.00  0.00     0.028 H 
ATOM     20  H   LIG d   1       2.884  -1.830  -2.409  0.00  0.00     0.028 H 
ATOM     21  H   LIG d   1       6.565  -1.941  -2.045  0.00  0.00     0.045 H 
ATOM     22  H   LIG d   1       6.932  -2.197  -3.773  0.00  0.00     0.045 H 
ATOM     23  H   LIG d   1       5.138  -3.658  -5.440  0.00  0.00     0.064 H 
ATOM     24  H   LIG d   1       4.748  -3.083  -7.820  0.00  0.00     0.063 H 
ATOM     25  H   LIG d   1       3.562   1.322  -4.279  0.00  0.00     0.050 H 
ATOM     26  H   LIG d   1       2.255   0.182  -3.916  0.00  0.00     0.050 H 
ENDROOT
BRANCH   1  27
ATOM     27  S   LIG d   1       7.341   0.429  -4.357  0.00  0.00     0.061 S 
ATOM     28  O   LIG d   1       6.576   1.310  -5.169  0.00  0.00    -0.153 OA
ATOM     29  O   LIG d   1       8.465   0.868  -3.608  0.00  0.00    -0.153 OA
BRANCH  27  30
ATOM     30  C   LIG d   1       7.910  -0.861  -5.412  0.00  0.00     0.105 A 
ATOM     31  C   LIG d   1       7.678  -0.795  -6.773  0.00  0.00    -0.035 A 
ATOM     32  C   LIG d   1       8.125  -1.807  -7.601  0.00  0.00    -0.060 A 
ATOM     33  H   LIG d   1       7.145   0.048  -7.190  0.00  0.00     0.064 H 
ATOM     34  C   LIG d   1       8.806  -2.886  -7.069  0.00  0.00    -0.062 A 
ATOM     35  H   LIG d   1       7.941  -1.756  -8.664  0.00  0.00     0.062 H 
ATOM     36  C   LIG d   1       9.040  -2.952  -5.708  0.00  0.00    -0.060 A 
ATOM     37  H   LIG d   1       9.155  -3.677  -7.716  0.00  0.00     0.062 H 
ATOM     38  C   LIG d   1       8.596  -1.937  -4.880  0.00  0.00    -0.035 A 
ATOM     39  H   LIG d   1       9.571  -3.795  -5.291  0.00  0.00     0.062 H 
ATOM     40  H   LIG d   1       8.783  -1.986  -3.818  0.00  0.00     0.064 H 
ENDBRANCH  27  30
ENDBRANCH   1  27
BRANCH  12  41
ATOM     41  C   LIG d   1       3.771  -0.731  -8.761  0.00  0.00    -0.012 A 
ATOM     42  C   LIG d   1       2.703  -1.270  -9.478  0.00  0.00    -0.042 A 
ATOM     43  C   LIG d   1       2.498  -0.896 -10.790  0.00  0.00     0.055 A 
ATOM     44  H   LIG d   1       2.036  -1.977  -9.005  0.00  0.00     0.063 H 
ATOM     45  C   LIG d   1       3.353   0.004 -11.399  0.00  0.00    -0.050 A 
ATOM     46  C   LIG d   1       4.418   0.538 -10.694  0.00  0.00    -0.061 A 
ATOM     47  H   LIG d   1       3.191   0.290 -12.427  0.00  0.00     0.062 H 
ATOM     48  C   LIG d   1       4.632   0.176  -9.380  0.00  0.00    -0.054 A 
ATOM     49  H   LIG d   1       5.084   1.240 -11.175  0.00  0.00     0.062 H 
ATOM     50  H   LIG d   1       5.464   0.592  -8.833  0.00  0.00     0.062 H 
BRANCH  43  51
ATOM     51  C   LIG d   1       1.339  -1.473 -11.564  0.00  0.00     0.417 C 
ATOM     52  F   LIG d   1       1.755  -1.785 -12.862  0.00  0.00    -0.166 F 
ATOM     53  F   LIG d   1       0.886  -2.634 -10.928  0.00  0.00    -0.166 F 
ATOM     54  F   LIG d   1       0.302  -0.536 -11.619  0.00  0.00    -0.166 F 
ENDBRANCH  43  51
ENDBRANCH  12  41
TORSDOF 4
ENDMDL
MODEL 3
REMARK VINA RESULT:      -7.7      4.387      7.571
REMARK  4 active torsions:
REMARK  status: ('A' for Active; 'I' for Inactive)
REMARK    1  A    between atoms: C_4  and  S_7 
REMARK    2  A    between atoms: S_7  and  N_10 
REMARK    3  A    between atoms: C_21  and  C_26 
REMARK    4  A    between atoms: C_30  and  C_32 
ROOT
ATOM      1  N   LIG d   1       6.885  -0.331  -3.807  0.00  0.00    -0.176 N 
ATOM      2  C   LIG d   1       6.131   0.596  -2.953  0.00  0.00     0.025 C 
ATOM      3  C   LIG d   1       4.702   0.103  -2.773  0.00  0.00    -0.008 C 
ATOM      4  H   LIG d   1       4.249   0.694  -1.977  0.00  0.00     0.033 H 
ATOM      5  C   LIG d   1       4.677  -1.366  -2.348  0.00  0.00    -0.038 C 
ATOM      6  C   LIG d   1       5.378  -2.193  -3.427  0.00  0.00     0.014 C 
ATOM      7  H   LIG d   1       5.291  -3.256  -3.200  0.00  0.00     0.038 H 
ATOM      8  C   LIG d   1       6.855  -1.767  -3.483  0.00  0.00     0.029 C 
ATOM      9  C   LIG d   1       4.763  -1.898  -4.776  0.00  0.00     0.026 A 
ATOM     10  C   LIG d   1       4.853  -2.870  -5.725  0.00  0.00    -0.041 A 
ATOM     11  C   LIG d   1       4.415  -2.637  -7.030  0.00  0.00    -0.047 A 
ATOM     12  C   LIG d   1       3.884  -1.396  -7.342  0.00  0.00     0.047 A 
ATOM     13  C   LIG d   1       3.786  -0.425  -6.320  0.00  0.00     0.259 A 
ATOM     14  O   LIG d   1       3.355   0.687  -6.582  0.00  0.00    -0.267 OA
ATOM     15  N   LIG d   1       4.169  -0.713  -5.052  0.00  0.00    -0.311 N 
ATOM     16  C   LIG d   1       3.873   0.290  -4.030  0.00  0.00     0.030 C 
ATOM     17  H   LIG d   1       6.118   1.583  -3.416  0.00  0.00     0.045 H 
ATOM     18  H   LIG d   1       6.616   0.664  -1.979  0.00  0.00     0.045 H 
ATOM     19  H   LIG d   1       5.201  -1.482  -1.399  0.00  0.00     0.028 H 
ATOM     20  H   LIG d   1       3.644  -1.699  -2.241  0.00  0.00     0.028 H 
ATOM     21  H   LIG d   1       7.327  -1.939  -2.516  0.00  0.00     0.045 H 
ATOM     22  H   LIG d   1       7.375  -2.331  -4.257  0.00  0.00     0.045 H 
ATOM     23  H   LIG d   1       5.273  -3.831  -5.468  0.00  0.00     0.064 H 
ATOM     24  H   LIG d   1       4.485  -3.411  -7.781  0.00  0.00     0.063 H 
ATOM     25  H   LIG d   1       4.071   1.280  -4.439  0.00  0.00     0.050 H 
ATOM     26  H   LIG d   1       2.817   0.224  -3.767  0.00  0.00     0.050 H 
ENDROOT
BRANCH   1  27
ATOM     27  S   LIG d   1       7.749   0.227  -5.104  0.00  0.00     0.061 S 
ATOM     28  O   LIG d   1       8.233  -0.919  -5.792  0.00  0.00    -0.153 OA
ATOM     29  O   LIG d   1       6.943   1.211  -5.737  0.00  0.00    -0.153 OA
BRANCH  27  30
ATOM     30  C   LIG d   1       9.162   1.065  -4.467  0.00  0.00     0.105 A 
ATOM     31  C   LIG d   1       9.001   2.181  -3.668  0.00  0.00    -0.035 A 
ATOM     32  C   LIG d   1      10.110   2.839  -3.168  0.00  0.00    -0.060 A 
ATOM     33  H   LIG d   1       8.010   2.542  -3.435  0.00  0.00     0.064 H 
ATOM     34  C   LIG d   1      11.379   2.379  -3.466  0.00  0.00    -0.062 A 
ATOM     35  H   LIG d   1       9.984   3.712  -2.545  0.00  0.00     0.062 H 
ATOM     36  C   LIG d   1      11.540   1.262  -4.264  0.00  0.00    -0.060 A 
ATOM     37  H   LIG d   1      12.245   2.893  -3.076  0.00  0.00     0.062 H 
ATOM     38  C   LIG d   1      10.431   0.602  -4.761  0.00  0.00    -0.035 A 
ATOM     39  H   LIG d   1      12.531   0.902  -4.498  0.00  0.00     0.062 H 
ATOM     40  H   LIG d   1      10.556  -0.273  -5.381  0.00  0.00     0.064 H 
ENDBRANCH  27  30
ENDBRANCH   1  27
BRANCH  12  41
ATOM     41  C   LIG d   1       3.426  -1.094  -8.717  0.00  0.00    -0.012 A 
ATOM     42  C   LIG d   1       4.340  -1.060  -9.769  0.00  0.00    -0.042 A 
ATOM     43  C   LIG d   1       3.907  -0.782 -11.048  0.00  0.00     0.055 A 
ATOM     44  H   LIG d   1       5.387  -1.255  -9.581  0.00  0.00     0.063 H 
ATOM     45  C   LIG d   1       2.570  -0.527 -11.290  0.00  0.00    -0.050 A 
ATOM     46  C   LIG d   1       1.657  -0.553 -10.249  0.00  0.00    -0.061 A 
ATOM     47  H   LIG d   1       2.236  -0.305 -12.292  0.00  0.00     0.062 H 
ATOM     48  C   LIG d   1       2.077  -0.835  -8.965  0.00  0.00    -0.054 A 
ATOM     49  H   LIG d   1       0.614  -0.352 -10.443  0.00  0.00     0.062 H 
ATOM     50  H   LIG d   1       1.364  -0.854  -8.155  0.00  0.00     0.062 H 
BRANCH  43  51
ATOM     51  C   LIG d   1       4.895  -0.751 -12.187  0.00  0.00     0.417 C 
ATOM     52  F   LIG d   1       4.388   0.039 -13.223  0.00  0.00    -0.166 F 
ATOM     53  F   LIG d   1       6.106  -0.213 -11.739  0.00  0.00    -0.166 F 
ATOM     54  F   LIG d   1       5.108  -2.053 -12.655  0.00  0.00    -0.166 F 
ENDBRANCH  43  51
ENDBRANCH  12  41
TORSDOF 4
ENDMDL
MODEL 4
REMARK VINA RESULT:      -7.7      2.022      3.079
REMARK  4 active torsions:
REMARK  status: ('A' for Active; 'I' for Inactive)
REMARK    1  A    between atoms: C_4  and  S_7 
REMARK    2  A    between atoms: S_7  and  N_10 
REMARK    3  A    between atoms: C_21  and  C_26 
REMARK    4  A    between atoms: C_30  and  C_32 
ROOT
ATOM      1  N   LIG d   1       4.365  -2.072 -11.060  0.00  0.00    -0.176 N 
ATOM      2  C   LIG d   1       4.964  -1.031 -11.906  0.00  0.00     0.025 C 
ATOM      3  C   LIG d   1       6.446  -0.883 -11.588  0.00  0.00    -0.008 C 
ATOM      4  H   LIG d   1       6.889  -0.265 -12.369  0.00  0.00     0.033 H 
ATOM      5  C   LIG d   1       7.149  -2.242 -11.602  0.00  0.00    -0.038 C 
ATOM      6  C   LIG d   1       6.484  -3.141 -10.558  0.00  0.00     0.014 C 
ATOM      7  H   LIG d   1       7.024  -4.083 -10.475  0.00  0.00     0.038 H 
ATOM      8  C   LIG d   1       5.026  -3.385 -10.986  0.00  0.00     0.029 C 
ATOM      9  C   LIG d   1       6.458  -2.437  -9.220  0.00  0.00     0.026 A 
ATOM     10  C   LIG d   1       6.418  -3.220  -8.107  0.00  0.00    -0.041 A 
ATOM     11  C   LIG d   1       6.276  -2.654  -6.839  0.00  0.00    -0.047 A 
ATOM     12  C   LIG d   1       6.177  -1.276  -6.734  0.00  0.00     0.047 A 
ATOM     13  C   LIG d   1       6.247  -0.499  -7.912  0.00  0.00     0.259 A 
ATOM     14  O   LIG d   1       6.126   0.713  -7.844  0.00  0.00    -0.267 OA
ATOM     15  N   LIG d   1       6.446  -1.087  -9.117  0.00  0.00    -0.311 N 
ATOM     16  C   LIG d   1       6.676  -0.196 -10.255  0.00  0.00     0.030 C 
ATOM     17  H   LIG d   1       4.459  -0.083 -11.724  0.00  0.00     0.045 H 
ATOM     18  H   LIG d   1       4.845  -1.306 -12.954  0.00  0.00     0.045 H 
ATOM     19  H   LIG d   1       7.055  -2.694 -12.589  0.00  0.00     0.028 H 
ATOM     20  H   LIG d   1       8.204  -2.111 -11.356  0.00  0.00     0.028 H 
ATOM     21  H   LIG d   1       5.004  -3.867 -11.963  0.00  0.00     0.045 H 
ATOM     22  H   LIG d   1       4.523  -4.011 -10.250  0.00  0.00     0.045 H 
ATOM     23  H   LIG d   1       6.493  -4.293  -8.206  0.00  0.00     0.064 H 
ATOM     24  H   LIG d   1       6.248  -3.278  -5.958  0.00  0.00     0.063 H 
ATOM     25  H   LIG d   1       6.004   0.657 -10.177  0.00  0.00     0.050 H 
ATOM     26  H   LIG d   1       7.705   0.163 -10.218  0.00  0.00     0.050 H 
ENDROOT
BRANCH   1  27
ATOM     27  S   LIG d   1       2.976  -1.774 -10.210  0.00  0.00     0.061 S 
ATOM     28  O   LIG d   1       1.910  -1.811 -11.149  0.00  0.00    -0.153 OA
ATOM     29  O   LIG d   1       3.011  -2.614  -9.066  0.00  0.00    -0.153 OA
BRANCH  27  30
ATOM     30  C   LIG d   1       3.071  -0.116  -9.621  0.00  0.00     0.105 A 
ATOM     31  C   LIG d   1       2.798   0.164  -8.295  0.00  0.00    -0.035 A 
ATOM     32  C   LIG d   1       2.873   1.465  -7.834  0.00  0.00    -0.060 A 
ATOM     33  H   LIG d   1       2.525  -0.634  -7.620  0.00  0.00     0.064 H 
ATOM     34  C   LIG d   1       3.223   2.486  -8.697  0.00  0.00    -0.062 A 
ATOM     35  H   LIG d   1       2.659   1.683  -6.798  0.00  0.00     0.062 H 
ATOM     36  C   LIG d   1       3.497   2.206 -10.023  0.00  0.00    -0.060 A 
ATOM     37  H   LIG d   1       3.280   3.502  -8.337  0.00  0.00     0.062 H 
ATOM     38  C   LIG d   1       3.425   0.905 -10.484  0.00  0.00    -0.035 A 
ATOM     39  H   LIG d   1       3.769   3.004 -10.699  0.00  0.00     0.062 H 
ATOM     40  H   LIG d   1       3.644   0.685 -11.518  0.00  0.00     0.064 H 
ENDBRANCH  27  30
ENDBRANCH   1  27
BRANCH  12  41
ATOM     41  C   LIG d   1       6.003  -0.630  -5.413  0.00  0.00    -0.012 A 
ATOM     42  C   LIG d   1       4.724  -0.359  -4.928  0.00  0.00    -0.042 A 
ATOM     43  C   LIG d   1       4.569   0.239  -3.695  0.00  0.00     0.055 A 
ATOM     44  H   LIG d   1       3.856  -0.621  -5.517  0.00  0.00     0.063 H 
ATOM     45  C   LIG d   1       5.678   0.580  -2.943  0.00  0.00    -0.050 A 
ATOM     46  C   LIG d   1       6.950   0.319  -3.421  0.00  0.00    -0.061 A 
ATOM     47  H   LIG d   1       5.551   1.053  -1.980  0.00  0.00     0.062 H 
ATOM     48  C   LIG d   1       7.119  -0.283  -4.650  0.00  0.00    -0.054 A 
ATOM     49  H   LIG d   1       7.813   0.589  -2.829  0.00  0.00     0.062 H 
ATOM     50  H   LIG d   1       8.112  -0.485  -5.022  0.00  0.00     0.062 H 
BRANCH  43  51
ATOM     51  C   LIG d   1       3.186   0.527  -3.168  0.00  0.00     0.417 C 
ATOM     52  F   LIG d   1       2.387   1.027  -4.201  0.00  0.00    -0.166 F 
ATOM     53  F   LIG d   1       2.622  -0.653  -2.671  0.00  0.00    -0.166 F 
ATOM     54  F   LIG d   1       3.266   1.474  -2.141  0.00  0.00    -0.166 F 
ENDBRANCH  43  51
ENDBRANCH  12  41
TORSDOF 4
ENDMDL
MODEL 5
REMARK VINA RESULT:      -7.6      4.260      7.506
REMARK  4 active torsions:
REMARK  status: ('A' for Active; 'I' for Inactive)
REMARK    1  A    between atoms: C_4  and  S_7 
REMARK    2  A    between atoms: S_7  and  N_10 
REMARK    3  A    between atoms: C_21  and  C_26 
REMARK    4  A    between atoms: C_30  and  C_32 
ROOT
ATOM      1  N   LIG d   1       6.863  -0.231  -3.866  0.00  0.00    -0.176 N 
ATOM      2  C   LIG d   1       6.061   0.656  -3.014  0.00  0.00     0.025 C 
ATOM      3  C   LIG d   1       4.646   0.112  -2.870  0.00  0.00    -0.008 C 
ATOM      4  H   LIG d   1       4.158   0.674  -2.075  0.00  0.00     0.033 H 
ATOM      5  C   LIG d   1       4.664  -1.363  -2.467  0.00  0.00    -0.038 C 
ATOM      6  C   LIG d   1       5.414  -2.150  -3.545  0.00  0.00     0.014 C 
ATOM      7  H   LIG d   1       5.360  -3.218  -3.335  0.00  0.00     0.038 H 
ATOM      8  C   LIG d   1       6.876  -1.672  -3.565  0.00  0.00     0.029 C 
ATOM      9  C   LIG d   1       4.816  -1.855  -4.901  0.00  0.00     0.026 A 
ATOM     10  C   LIG d   1       4.958  -2.808  -5.863  0.00  0.00    -0.041 A 
ATOM     11  C   LIG d   1       4.538  -2.570  -7.173  0.00  0.00    -0.047 A 
ATOM     12  C   LIG d   1       3.970  -1.342  -7.476  0.00  0.00     0.047 A 
ATOM     13  C   LIG d   1       3.819  -0.391  -6.442  0.00  0.00     0.259 A 
ATOM     14  O   LIG d   1       3.355   0.708  -6.697  0.00  0.00    -0.267 OA
ATOM     15  N   LIG d   1       4.186  -0.687  -5.172  0.00  0.00    -0.311 N 
ATOM     16  C   LIG d   1       3.836   0.290  -4.141  0.00  0.00     0.030 C 
ATOM     17  H   LIG d   1       6.022   1.649  -3.462  0.00  0.00     0.045 H 
ATOM     18  H   LIG d   1       6.524   0.725  -2.029  0.00  0.00     0.045 H 
ATOM     19  H   LIG d   1       5.173  -1.476  -1.510  0.00  0.00     0.028 H 
ATOM     20  H   LIG d   1       3.641  -1.734  -2.387  0.00  0.00     0.028 H 
ATOM     21  H   LIG d   1       7.335  -1.842  -2.591  0.00  0.00     0.045 H 
ATOM     22  H   LIG d   1       7.430  -2.206  -4.336  0.00  0.00     0.045 H 
ATOM     23  H   LIG d   1       5.406  -3.758  -5.611  0.00  0.00     0.064 H 
ATOM     24  H   LIG d   1       4.649  -3.329  -7.933  0.00  0.00     0.063 H 
ATOM     25  H   LIG d   1       4.008   1.293  -4.531  0.00  0.00     0.050 H 
ATOM     26  H   LIG d   1       2.778   0.184  -3.900  0.00  0.00     0.050 H 
ENDROOT
BRANCH   1  27
ATOM     27  S   LIG d   1       7.732   0.377  -5.137  0.00  0.00     0.061 S 
ATOM     28  O   LIG d   1       8.241  -0.742  -5.852  0.00  0.00    -0.153 OA
ATOM     29  O   LIG d   1       6.919   1.366  -5.751  0.00  0.00    -0.153 OA
BRANCH  27  30
ATOM     30  C   LIG d   1       9.125   1.217  -4.461  0.00  0.00     0.105 A 
ATOM     31  C   LIG d   1      10.403   0.756  -4.718  0.00  0.00    -0.035 A 
ATOM     32  C   LIG d   1      11.496   1.415  -4.187  0.00  0.00    -0.060 A 
ATOM     33  H   LIG d   1      10.548  -0.121  -5.332  0.00  0.00     0.064 H 
ATOM     34  C   LIG d   1      11.311   2.537  -3.401  0.00  0.00    -0.062 A 
ATOM     35  H   LIG d   1      12.494   1.054  -4.386  0.00  0.00     0.062 H 
ATOM     36  C   LIG d   1      10.034   2.999  -3.145  0.00  0.00    -0.060 A 
ATOM     37  H   LIG d   1      12.165   3.052  -2.985  0.00  0.00     0.062 H 
ATOM     38  C   LIG d   1       8.941   2.342  -3.679  0.00  0.00    -0.035 A 
ATOM     39  H   LIG d   1       9.889   3.875  -2.530  0.00  0.00     0.062 H 
ATOM     40  H   LIG d   1       7.943   2.705  -3.483  0.00  0.00     0.064 H 
ENDBRANCH  27  30
ENDBRANCH   1  27
BRANCH  12  41
ATOM     41  C   LIG d   1       3.529  -1.035  -8.856  0.00  0.00    -0.012 A 
ATOM     42  C   LIG d   1       2.565  -1.828  -9.477  0.00  0.00    -0.042 A 
ATOM     43  C   LIG d   1       2.155  -1.534 -10.760  0.00  0.00     0.055 A 
ATOM     44  H   LIG d   1       2.137  -2.670  -8.950  0.00  0.00     0.063 H 
ATOM     45  C   LIG d   1       2.705  -0.461 -11.437  0.00  0.00    -0.050 A 
ATOM     46  C   LIG d   1       3.666   0.327 -10.829  0.00  0.00    -0.061 A 
ATOM     47  H   LIG d   1       2.384  -0.238 -12.444  0.00  0.00     0.062 H 
ATOM     48  C   LIG d   1       4.081   0.047  -9.543  0.00  0.00    -0.054 A 
ATOM     49  H   LIG d   1       4.093   1.164 -11.362  0.00  0.00     0.062 H 
ATOM     50  H   LIG d   1       4.832   0.662  -9.071  0.00  0.00     0.062 H 
BRANCH  43  51
ATOM     51  C   LIG d   1       1.108  -2.388 -11.430  0.00  0.00     0.417 C 
ATOM     52  F   LIG d   1       0.466  -3.177 -10.471  0.00  0.00    -0.166 F 
ATOM     53  F   LIG d   1       0.170  -1.565 -12.062  0.00  0.00    -0.166 F 
ATOM     54  F   LIG d   1       1.718  -3.215 -12.380  0.00  0.00    -0.166 F 
ENDBRANCH  43  51
ENDBRANCH  12  41
TORSDOF 4
ENDMDL
MODEL 6
REMARK VINA RESULT:      -7.5      1.969      2.616
REMARK  4 active torsions:
REMARK  status: ('A' for Active; 'I' for Inactive)
REMARK    1  A    between atoms: C_4  and  S_7 
REMARK    2  A    between atoms: S_7  and  N_10 
REMARK    3  A    between atoms: C_21  and  C_26 
REMARK    4  A    between atoms: C_30  and  C_32 
ROOT
ATOM      1  N   LIG d   1       3.816  -1.665 -11.579  0.00  0.00    -0.176 N 
ATOM      2  C   LIG d   1       3.646  -3.122 -11.634  0.00  0.00     0.025 C 
ATOM      3  C   LIG d   1       2.604  -3.569 -10.617  0.00  0.00    -0.008 C 
ATOM      4  H   LIG d   1       2.359  -4.609 -10.834  0.00  0.00     0.033 H 
ATOM      5  C   LIG d   1       1.324  -2.743 -10.743  0.00  0.00    -0.038 C 
ATOM      6  C   LIG d   1       1.673  -1.271 -10.512  0.00  0.00     0.014 C 
ATOM      7  H   LIG d   1       0.766  -0.668 -10.500  0.00  0.00     0.038 H 
ATOM      8  C   LIG d   1       2.616  -0.814 -11.639  0.00  0.00     0.029 C 
ATOM      9  C   LIG d   1       2.415  -1.122  -9.204  0.00  0.00     0.026 A 
ATOM     10  C   LIG d   1       2.335   0.085  -8.579  0.00  0.00    -0.041 A 
ATOM     11  C   LIG d   1       3.081   0.345  -7.429  0.00  0.00    -0.047 A 
ATOM     12  C   LIG d   1       3.907  -0.651  -6.932  0.00  0.00     0.047 A 
ATOM     13  C   LIG d   1       3.941  -1.897  -7.598  0.00  0.00     0.259 A 
ATOM     14  O   LIG d   1       4.688  -2.775  -7.197  0.00  0.00    -0.267 OA
ATOM     15  N   LIG d   1       3.154  -2.126  -8.677  0.00  0.00    -0.311 N 
ATOM     16  C   LIG d   1       3.128  -3.495  -9.195  0.00  0.00     0.030 C 
ATOM     17  H   LIG d   1       4.597  -3.605 -11.412  0.00  0.00     0.045 H 
ATOM     18  H   LIG d   1       3.321  -3.410 -12.634  0.00  0.00     0.045 H 
ATOM     19  H   LIG d   1       0.903  -2.868 -11.740  0.00  0.00     0.028 H 
ATOM     20  H   LIG d   1       0.600  -3.071  -9.995  0.00  0.00     0.028 H 
ATOM     21  H   LIG d   1       2.124  -0.934 -12.605  0.00  0.00     0.045 H 
ATOM     22  H   LIG d   1       2.893   0.229 -11.490  0.00  0.00     0.045 H 
ATOM     23  H   LIG d   1       1.690   0.853  -8.981  0.00  0.00     0.064 H 
ATOM     24  H   LIG d   1       3.014   1.303  -6.933  0.00  0.00     0.063 H 
ATOM     25  H   LIG d   1       4.139  -3.901  -9.170  0.00  0.00     0.050 H 
ATOM     26  H   LIG d   1       2.490  -4.102  -8.553  0.00  0.00     0.050 H 
ENDROOT
BRANCH   1  27
ATOM     27  S   LIG d   1       5.324  -0.993 -11.455  0.00  0.00     0.061 S 
ATOM     28  O   LIG d   1       5.137   0.343 -11.008  0.00  0.00    -0.153 OA
ATOM     29  O   LIG d   1       6.127  -1.927 -10.748  0.00  0.00    -0.153 OA
BRANCH  27  30
ATOM     30  C   LIG d   1       5.985  -0.891 -13.084  0.00  0.00     0.105 A 
ATOM     31  C   LIG d   1       5.136  -0.762 -14.168  0.00  0.00    -0.035 A 
ATOM     32  C   LIG d   1       5.655  -0.682 -15.447  0.00  0.00    -0.060 A 
ATOM     33  H   LIG d   1       4.067  -0.726 -14.016  0.00  0.00     0.064 H 
ATOM     34  C   LIG d   1       7.022  -0.729 -15.642  0.00  0.00    -0.062 A 
ATOM     35  H   LIG d   1       4.992  -0.583 -16.293  0.00  0.00     0.062 H 
ATOM     36  C   LIG d   1       7.872  -0.856 -14.559  0.00  0.00    -0.060 A 
ATOM     37  H   LIG d   1       7.428  -0.667 -16.641  0.00  0.00     0.062 H 
ATOM     38  C   LIG d   1       7.353  -0.933 -13.279  0.00  0.00    -0.035 A 
ATOM     39  H   LIG d   1       8.940  -0.894 -14.711  0.00  0.00     0.062 H 
ATOM     40  H   LIG d   1       8.016  -1.027 -12.433  0.00  0.00     0.064 H 
ENDBRANCH  27  30
ENDBRANCH   1  27
BRANCH  12  41
ATOM     41  C   LIG d   1       4.734  -0.416  -5.727  0.00  0.00    -0.012 A 
ATOM     42  C   LIG d   1       4.130  -0.280  -4.478  0.00  0.00    -0.042 A 
ATOM     43  C   LIG d   1       4.906  -0.065  -3.358  0.00  0.00     0.055 A 
ATOM     44  H   LIG d   1       3.055  -0.347  -4.387  0.00  0.00     0.063 H 
ATOM     45  C   LIG d   1       6.281   0.027  -3.472  0.00  0.00    -0.050 A 
ATOM     46  C   LIG d   1       6.887  -0.102  -4.711  0.00  0.00    -0.061 A 
ATOM     47  H   LIG d   1       6.885   0.200  -2.594  0.00  0.00     0.062 H 
ATOM     48  C   LIG d   1       6.122  -0.322  -5.837  0.00  0.00    -0.054 A 
ATOM     49  H   LIG d   1       7.961  -0.029  -4.794  0.00  0.00     0.062 H 
ATOM     50  H   LIG d   1       6.596  -0.421  -6.802  0.00  0.00     0.062 H 
BRANCH  43  51
ATOM     51  C   LIG d   1       4.254   0.076  -2.006  0.00  0.00     0.417 C 
ATOM     52  F   LIG d   1       2.890   0.335  -2.170  0.00  0.00    -0.166 F 
ATOM     53  F   LIG d   1       4.420  -1.110  -1.282  0.00  0.00    -0.166 F 
ATOM     54  F   LIG d   1       4.848   1.134  -1.309  0.00  0.00    -0.166 F 
ENDBRANCH  43  51
ENDBRANCH  12  41
TORSDOF 4
ENDMDL
MODEL 7
REMARK VINA RESULT:      -7.4      4.594      6.999
REMARK  4 active torsions:
REMARK  status: ('A' for Active; 'I' for Inactive)
REMARK    1  A    between atoms: C_4  and  S_7 
REMARK    2  A    between atoms: S_7  and  N_10 
REMARK    3  A    between atoms: C_21  and  C_26 
REMARK    4  A    between atoms: C_30  and  C_32 
ROOT
ATOM      1  N   LIG d   1       5.761  -0.819  -5.874  0.00  0.00    -0.176 N 
ATOM      2  C   LIG d   1       4.799  -0.466  -4.822  0.00  0.00     0.025 C 
ATOM      3  C   LIG d   1       5.052  -1.302  -3.575  0.00  0.00    -0.008 C 
ATOM      4  H   LIG d   1       4.467  -0.868  -2.765  0.00  0.00     0.033 H 
ATOM      5  C   LIG d   1       6.527  -1.257  -3.173  0.00  0.00    -0.038 C 
ATOM      6  C   LIG d   1       7.362  -1.797  -4.336  0.00  0.00     0.014 C 
ATOM      7  H   LIG d   1       8.409  -1.868  -4.045  0.00  0.00     0.038 H 
ATOM      8  C   LIG d   1       7.193  -0.849  -5.536  0.00  0.00     0.029 C 
ATOM      9  C   LIG d   1       6.843  -3.155  -4.749  0.00  0.00     0.026 A 
ATOM     10  C   LIG d   1       7.725  -4.000  -5.351  0.00  0.00    -0.041 A 
ATOM     11  C   LIG d   1       7.302  -5.227  -5.865  0.00  0.00    -0.047 A 
ATOM     12  C   LIG d   1       5.964  -5.570  -5.751  0.00  0.00     0.047 A 
ATOM     13  C   LIG d   1       5.089  -4.675  -5.098  0.00  0.00     0.259 A 
ATOM     14  O   LIG d   1       3.900  -4.942  -5.019  0.00  0.00    -0.267 OA
ATOM     15  N   LIG d   1       5.553  -3.521  -4.560  0.00  0.00    -0.311 N 
ATOM     16  C   LIG d   1       4.611  -2.742  -3.756  0.00  0.00     0.030 C 
ATOM     17  H   LIG d   1       3.788  -0.650  -5.181  0.00  0.00     0.045 H 
ATOM     18  H   LIG d   1       4.906   0.591  -4.576  0.00  0.00     0.045 H 
ATOM     19  H   LIG d   1       6.818  -0.228  -2.960  0.00  0.00     0.028 H 
ATOM     20  H   LIG d   1       6.686  -1.875  -2.289  0.00  0.00     0.028 H 
ATOM     21  H   LIG d   1       7.532   0.152  -5.267  0.00  0.00     0.045 H 
ATOM     22  H   LIG d   1       7.767  -1.219  -6.385  0.00  0.00     0.045 H 
ATOM     23  H   LIG d   1       8.764  -3.716  -5.435  0.00  0.00     0.064 H 
ATOM     24  H   LIG d   1       8.005  -5.897  -6.340  0.00  0.00     0.063 H 
ATOM     25  H   LIG d   1       3.637  -2.754  -4.244  0.00  0.00     0.050 H 
ATOM     26  H   LIG d   1       4.517  -3.207  -2.774  0.00  0.00     0.050 H 
ENDROOT
BRANCH   1  27
ATOM     27  S   LIG d   1       5.245  -1.175  -7.406  0.00  0.00     0.061 S 
ATOM     28  O   LIG d   1       6.400  -1.541  -8.148  0.00  0.00    -0.153 OA
ATOM     29  O   LIG d   1       4.125  -2.036  -7.268  0.00  0.00    -0.153 OA
BRANCH  27  30
ATOM     30  C   LIG d   1       4.645   0.323  -8.115  0.00  0.00     0.105 A 
ATOM     31  C   LIG d   1       3.295   0.617  -8.070  0.00  0.00    -0.035 A 
ATOM     32  C   LIG d   1       2.825   1.792  -8.626  0.00  0.00    -0.060 A 
ATOM     33  H   LIG d   1       2.607  -0.073  -7.603  0.00  0.00     0.064 H 
ATOM     34  C   LIG d   1       3.704   2.674  -9.224  0.00  0.00    -0.062 A 
ATOM     35  H   LIG d   1       1.770   2.020  -8.593  0.00  0.00     0.062 H 
ATOM     36  C   LIG d   1       5.055   2.381  -9.268  0.00  0.00    -0.060 A 
ATOM     37  H   LIG d   1       3.337   3.592  -9.659  0.00  0.00     0.062 H 
ATOM     38  C   LIG d   1       5.526   1.208  -8.709  0.00  0.00    -0.035 A 
ATOM     39  H   LIG d   1       5.743   3.070  -9.736  0.00  0.00     0.062 H 
ATOM     40  H   LIG d   1       6.581   0.981  -8.738  0.00  0.00     0.064 H 
ENDBRANCH  27  30
ENDBRANCH   1  27
BRANCH  12  41
ATOM     41  C   LIG d   1       5.464  -6.851  -6.301  0.00  0.00    -0.012 A 
ATOM     42  C   LIG d   1       5.233  -7.935  -5.455  0.00  0.00    -0.042 A 
ATOM     43  C   LIG d   1       4.763  -9.123  -5.972  0.00  0.00     0.055 A 
ATOM     44  H   LIG d   1       5.420  -7.841  -4.394  0.00  0.00     0.063 H 
ATOM     45  C   LIG d   1       4.529  -9.247  -7.330  0.00  0.00    -0.050 A 
ATOM     46  C   LIG d   1       4.760  -8.176  -8.176  0.00  0.00    -0.061 A 
ATOM     47  H   LIG d   1       4.165 -10.181  -7.731  0.00  0.00     0.062 H 
ATOM     48  C   LIG d   1       5.226  -6.980  -7.670  0.00  0.00    -0.054 A 
ATOM     49  H   LIG d   1       4.576  -8.278  -9.236  0.00  0.00     0.062 H 
ATOM     50  H   LIG d   1       5.407  -6.147  -8.332  0.00  0.00     0.062 H 
BRANCH  43  51
ATOM     51  C   LIG d   1       4.508 -10.294  -5.057  0.00  0.00     0.417 C 
ATOM     52  F   LIG d   1       3.773 -11.269  -5.739  0.00  0.00    -0.166 F 
ATOM     53  F   LIG d   1       5.730 -10.836  -4.642  0.00  0.00    -0.166 F 
ATOM     54  F   LIG d   1       3.786  -9.863  -3.939  0.00  0.00    -0.166 F 
ENDBRANCH  43  51
ENDBRANCH  12  41
TORSDOF 4
ENDMDL
MODEL 8
REMARK VINA RESULT:      -7.4      3.969      6.198
REMARK  4 active torsions:
REMARK  status: ('A' for Active; 'I' for Inactive)
REMARK    1  A    between atoms: C_4  and  S_7 
REMARK    2  A    between atoms: S_7  and  N_10 
REMARK    3  A    between atoms: C_21  and  C_26 
REMARK    4  A    between atoms: C_30  and  C_32 
ROOT
ATOM      1  N   LIG d   1       4.078  -1.525  -5.602  0.00  0.00    -0.176 N 
ATOM      2  C   LIG d   1       4.646  -2.877  -5.540  0.00  0.00     0.025 C 
ATOM      3  C   LIG d   1       5.386  -3.078  -4.225  0.00  0.00    -0.008 C 
ATOM      4  H   LIG d   1       5.605  -4.141  -4.131  0.00  0.00     0.033 H 
ATOM      5  C   LIG d   1       4.516  -2.665  -3.037  0.00  0.00    -0.038 C 
ATOM      6  C   LIG d   1       4.143  -1.190  -3.200  0.00  0.00     0.014 C 
ATOM      7  H   LIG d   1       3.604  -0.840  -2.320  0.00  0.00     0.038 H 
ATOM      8  C   LIG d   1       3.277  -1.047  -4.463  0.00  0.00     0.029 C 
ATOM      9  C   LIG d   1       5.394  -0.367  -3.405  0.00  0.00     0.026 A 
ATOM     10  C   LIG d   1       5.342   0.944  -3.039  0.00  0.00    -0.041 A 
ATOM     11  C   LIG d   1       6.411   1.802  -3.300  0.00  0.00    -0.047 A 
ATOM     12  C   LIG d   1       7.531   1.293  -3.938  0.00  0.00     0.047 A 
ATOM     13  C   LIG d   1       7.553  -0.078  -4.278  0.00  0.00     0.259 A 
ATOM     14  O   LIG d   1       8.515  -0.537  -4.873  0.00  0.00    -0.267 OA
ATOM     15  N   LIG d   1       6.517  -0.888  -3.953  0.00  0.00    -0.311 N 
ATOM     16  C   LIG d   1       6.701  -2.320  -4.190  0.00  0.00     0.030 C 
ATOM     17  H   LIG d   1       5.340  -3.015  -6.370  0.00  0.00     0.045 H 
ATOM     18  H   LIG d   1       3.843  -3.610  -5.619  0.00  0.00     0.045 H 
ATOM     19  H   LIG d   1       3.612  -3.272  -3.016  0.00  0.00     0.028 H 
ATOM     20  H   LIG d   1       5.073  -2.803  -2.109  0.00  0.00     0.028 H 
ATOM     21  H   LIG d   1       2.375  -1.651  -4.364  0.00  0.00     0.045 H 
ATOM     22  H   LIG d   1       3.009  -0.000  -4.612  0.00  0.00     0.045 H 
ATOM     23  H   LIG d   1       4.460   1.325  -2.546  0.00  0.00     0.064 H 
ATOM     24  H   LIG d   1       6.368   2.840  -3.006  0.00  0.00     0.063 H 
ATOM     25  H   LIG d   1       7.213  -2.458  -5.141  0.00  0.00     0.050 H 
ATOM     26  H   LIG d   1       7.322  -2.732  -3.394  0.00  0.00     0.050 H 
ENDROOT
BRANCH   1  27
ATOM     27  S   LIG d   1       4.332  -0.560  -6.923  0.00  0.00     0.061 S 
ATOM     28  O   LIG d   1       3.852   0.733  -6.579  0.00  0.00    -0.153 OA
ATOM     29  O   LIG d   1       5.669  -0.789  -7.343  0.00  0.00    -0.153 OA
BRANCH  27  30
ATOM     30  C   LIG d   1       3.289  -1.157  -8.212  0.00  0.00     0.105 A 
ATOM     31  C   LIG d   1       3.457  -2.440  -8.698  0.00  0.00    -0.035 A 
ATOM     32  C   LIG d   1       2.638  -2.908  -9.709  0.00  0.00    -0.060 A 
ATOM     33  H   LIG d   1       4.228  -3.077  -8.289  0.00  0.00     0.064 H 
ATOM     34  C   LIG d   1       1.652  -2.095 -10.233  0.00  0.00    -0.062 A 
ATOM     35  H   LIG d   1       2.771  -3.910 -10.090  0.00  0.00     0.062 H 
ATOM     36  C   LIG d   1       1.483  -0.812  -9.746  0.00  0.00    -0.060 A 
ATOM     37  H   LIG d   1       1.013  -2.460 -11.024  0.00  0.00     0.062 H 
ATOM     38  C   LIG d   1       2.299  -0.344  -8.732  0.00  0.00    -0.035 A 
ATOM     39  H   LIG d   1       0.713  -0.175 -10.156  0.00  0.00     0.062 H 
ATOM     40  H   LIG d   1       2.165   0.656  -8.349  0.00  0.00     0.064 H 
ENDBRANCH  27  30
ENDBRANCH   1  27
BRANCH  12  41
ATOM     41  C   LIG d   1       8.682   2.169  -4.256  0.00  0.00    -0.012 A 
ATOM     42  C   LIG d   1       8.738   2.837  -5.478  0.00  0.00    -0.042 A 
ATOM     43  C   LIG d   1       9.811   3.655  -5.767  0.00  0.00     0.055 A 
ATOM     44  H   LIG d   1       7.939   2.717  -6.197  0.00  0.00     0.063 H 
ATOM     45  C   LIG d   1      10.836   3.806  -4.851  0.00  0.00    -0.050 A 
ATOM     46  C   LIG d   1      10.789   3.140  -3.638  0.00  0.00    -0.061 A 
ATOM     47  H   LIG d   1      11.676   4.443  -5.084  0.00  0.00     0.062 H 
ATOM     48  C   LIG d   1       9.720   2.324  -3.336  0.00  0.00    -0.054 A 
ATOM     49  H   LIG d   1      11.594   3.261  -2.927  0.00  0.00     0.062 H 
ATOM     50  H   LIG d   1       9.686   1.805  -2.390  0.00  0.00     0.062 H 
BRANCH  43  51
ATOM     51  C   LIG d   1       9.869   4.383  -7.086  0.00  0.00     0.417 C 
ATOM     52  F   LIG d   1       9.008   3.765  -7.998  0.00  0.00    -0.166 F 
ATOM     53  F   LIG d   1       9.477   5.713  -6.902  0.00  0.00    -0.166 F 
ATOM     54  F   LIG d   1      11.176   4.346  -7.582  0.00  0.00    -0.166 F 
ENDBRANCH  43  51
ENDBRANCH  12  41
TORSDOF 4
ENDMDL
MODEL 9
REMARK VINA RESULT:      -7.3      1.501      2.407
REMARK  4 active torsions:
REMARK  status: ('A' for Active; 'I' for Inactive)
REMARK    1  A    between atoms: C_4  and  S_7 
REMARK    2  A    between atoms: S_7  and  N_10 
REMARK    3  A    between atoms: C_21  and  C_26 
REMARK    4  A    between atoms: C_30  and  C_32 
ROOT
ATOM      1  N   LIG d   1       3.906  -1.478 -11.572  0.00  0.00    -0.176 N 
ATOM      2  C   LIG d   1       3.681  -2.927 -11.647  0.00  0.00     0.025 C 
ATOM      3  C   LIG d   1       2.602  -3.345 -10.657  0.00  0.00    -0.008 C 
ATOM      4  H   LIG d   1       2.322  -4.371 -10.891  0.00  0.00     0.033 H 
ATOM      5  C   LIG d   1       1.357  -2.468 -10.800  0.00  0.00    -0.038 C 
ATOM      6  C   LIG d   1       1.758  -1.014 -10.544  0.00  0.00     0.014 C 
ATOM      7  H   LIG d   1       0.874  -0.376 -10.543  0.00  0.00     0.038 H 
ATOM      8  C   LIG d   1       2.741  -0.581 -11.646  0.00  0.00     0.029 C 
ATOM      9  C   LIG d   1       2.477  -0.908  -9.220  0.00  0.00     0.026 A 
ATOM     10  C   LIG d   1       2.431   0.294  -8.582  0.00  0.00    -0.041 A 
ATOM     11  C   LIG d   1       3.162   0.512  -7.413  0.00  0.00    -0.047 A 
ATOM     12  C   LIG d   1       3.938  -0.521  -6.912  0.00  0.00     0.047 A 
ATOM     13  C   LIG d   1       3.938  -1.759  -7.591  0.00  0.00     0.259 A 
ATOM     14  O   LIG d   1       4.642  -2.670  -7.186  0.00  0.00    -0.267 OA
ATOM     15  N   LIG d   1       3.166  -1.946  -8.689  0.00  0.00    -0.311 N 
ATOM     16  C   LIG d   1       3.099  -3.307  -9.224  0.00  0.00     0.030 C 
ATOM     17  H   LIG d   1       4.608  -3.448 -11.412  0.00  0.00     0.045 H 
ATOM     18  H   LIG d   1       3.367  -3.191 -12.657  0.00  0.00     0.045 H 
ATOM     19  H   LIG d   1       0.953  -2.566 -11.807  0.00  0.00     0.028 H 
ATOM     20  H   LIG d   1       0.606  -2.776 -10.071  0.00  0.00     0.028 H 
ATOM     21  H   LIG d   1       2.265  -0.671 -12.623  0.00  0.00     0.045 H 
ATOM     22  H   LIG d   1       3.055   0.449 -11.479  0.00  0.00     0.045 H 
ATOM     23  H   LIG d   1       1.824   1.090  -8.988  0.00  0.00     0.064 H 
ATOM     24  H   LIG d   1       3.121   1.466  -6.908  0.00  0.00     0.063 H 
ATOM     25  H   LIG d   1       4.092  -3.752  -9.183  0.00  0.00     0.050 H 
ATOM     26  H   LIG d   1       2.424  -3.896  -8.602  0.00  0.00     0.050 H 
ENDROOT
BRANCH   1  27
ATOM     27  S   LIG d   1       5.436  -0.867 -11.408  0.00  0.00     0.061 S 
ATOM     28  O   LIG d   1       6.035  -0.923 -12.695  0.00  0.00    -0.153 OA
ATOM     29  O   LIG d   1       5.313   0.345 -10.678  0.00  0.00    -0.153 OA
BRANCH  27  30
ATOM     30  C   LIG d   1       6.336  -1.983 -10.385  0.00  0.00     0.105 A 
ATOM     31  C   LIG d   1       7.019  -1.511  -9.280  0.00  0.00    -0.035 A 
ATOM     32  C   LIG d   1       7.725  -2.387  -8.477  0.00  0.00    -0.060 A 
ATOM     33  H   LIG d   1       7.003  -0.456  -9.044  0.00  0.00     0.064 H 
ATOM     34  C   LIG d   1       7.746  -3.736  -8.777  0.00  0.00    -0.062 A 
ATOM     35  H   LIG d   1       8.260  -2.018  -7.614  0.00  0.00     0.062 H 
ATOM     36  C   LIG d   1       7.062  -4.209  -9.881  0.00  0.00    -0.060 A 
ATOM     37  H   LIG d   1       8.298  -4.421  -8.150  0.00  0.00     0.062 H 
ATOM     38  C   LIG d   1       6.353  -3.333 -10.682  0.00  0.00    -0.035 A 
ATOM     39  H   LIG d   1       7.079  -5.263 -10.117  0.00  0.00     0.062 H 
ATOM     40  H   LIG d   1       5.814  -3.703 -11.542  0.00  0.00     0.064 H 
ENDBRANCH  27  30
ENDBRANCH   1  27
BRANCH  12  41
ATOM     41  C   LIG d   1       4.749  -0.331  -5.687  0.00  0.00    -0.012 A 
ATOM     42  C   LIG d   1       4.127  -0.239  -4.442  0.00  0.00    -0.042 A 
ATOM     43  C   LIG d   1       4.887  -0.066  -3.305  0.00  0.00     0.055 A 
ATOM     44  H   LIG d   1       3.050  -0.307  -4.370  0.00  0.00     0.063 H 
ATOM     45  C   LIG d   1       6.264   0.026  -3.396  0.00  0.00    -0.050 A 
ATOM     46  C   LIG d   1       6.887  -0.059  -4.630  0.00  0.00    -0.061 A 
ATOM     47  H   LIG d   1       6.855   0.166  -2.504  0.00  0.00     0.062 H 
ATOM     48  C   LIG d   1       6.138  -0.237  -5.774  0.00  0.00    -0.054 A 
ATOM     49  H   LIG d   1       7.963   0.015  -4.695  0.00  0.00     0.062 H 
ATOM     50  H   LIG d   1       6.625  -0.302  -6.735  0.00  0.00     0.062 H 
BRANCH  43  51
ATOM     51  C   LIG d   1       4.216   0.027  -1.958  0.00  0.00     0.417 C 
ATOM     52  F   LIG d   1       2.843   0.230  -2.134  0.00  0.00    -0.166 F 
ATOM     53  F   LIG d   1       4.425  -1.162  -1.250  0.00  0.00    -0.166 F 
ATOM     54  F   LIG d   1       4.757   1.099  -1.240  0.00  0.00    -0.166 F 
ENDBRANCH  43  51
ENDBRANCH  12  41
TORSDOF 4
ENDMDL
