MODEL 1
REMARK VINA RESULT:      -3.7      0.000      0.000
REMARK  4 active torsions:
REMARK  status: ('A' for Active; 'I' for Inactive)
REMARK    1  A    between atoms: C_1  and  C_2 
REMARK    2  A    between atoms: C_2  and  C_4 
REMARK    3  A    between atoms: C_2  and  N_16 
REMARK    4  A    between atoms: C_7  and  N_16 
ROOT
ATOM      1  C   LIG d   1       4.095  -1.462  -2.213  0.00  0.00     0.077 C 
ATOM      2  C   LIG d   1       4.287  -2.474  -3.264  0.00  0.00     0.068 C 
ATOM      3  N   LIG d   1       4.436  -3.254  -4.076  0.00  0.00    -0.196 NA
ATOM      4  H   LIG d   1       5.032  -0.934  -2.041  0.00  0.00     0.047 H 
ATOM      5  H   LIG d   1       3.778  -1.950  -1.292  0.00  0.00     0.047 H 
ENDROOT
BRANCH   1   6
ATOM      6  C   LIG d   1       3.022  -0.464  -2.656  0.00  0.00    -0.013 C 
ATOM      7  H   LIG d   1       2.141  -0.573  -2.024  0.00  0.00     0.086 H 
BRANCH   6   8
ATOM      8  C   LIG d   1       3.567   0.960  -2.531  0.00  0.00    -0.021 C 
ATOM      9  H   LIG d   1       2.810   1.669  -2.863  0.00  0.00     0.028 H 
ATOM     10  H   LIG d   1       3.822   1.161  -1.491  0.00  0.00     0.028 H 
ATOM     11  H   LIG d   1       4.457   1.064  -3.151  0.00  0.00     0.028 H 
ENDBRANCH   6   8
BRANCH   6  12
ATOM     12  N   LIG d   1       2.663  -0.733  -4.061  0.00  0.00     0.228 N 
ATOM     13  H   LIG d   1       1.770  -1.237  -4.093  0.00  0.00     0.201 HD
ATOM     14  H   LIG d   1       3.396  -1.306  -4.494  0.00  0.00     0.201 HD
BRANCH  12  15
ATOM     15  C   LIG d   1       2.533   0.533  -4.807  0.00  0.00    -0.045 C 
ATOM     16  H   LIG d   1       2.693   1.374  -4.132  0.00  0.00     0.078 H 
ATOM     17  H   LIG d   1       1.536   0.601  -5.242  0.00  0.00     0.078 H 
ATOM     18  H   LIG d   1       3.279   0.558  -5.601  0.00  0.00     0.078 H 
ENDBRANCH  12  15
ENDBRANCH   6  12
ENDBRANCH   1   6
TORSDOF 4
ENDMDL
MODEL 2
REMARK VINA RESULT:      -3.6      1.841      2.807
REMARK  4 active torsions:
REMARK  status: ('A' for Active; 'I' for Inactive)
REMARK    1  A    between atoms: C_1  and  C_2 
REMARK    2  A    between atoms: C_2  and  C_4 
REMARK    3  A    between atoms: C_2  and  N_16 
REMARK    4  A    between atoms: C_7  and  N_16 
ROOT
ATOM      1  C   LIG d   1       4.001   0.395  -2.288  0.00  0.00     0.077 C 
ATOM      2  C   LIG d   1       5.231   1.066  -2.740  0.00  0.00     0.068 C 
ATOM      3  N   LIG d   1       6.179   1.584  -3.088  0.00  0.00    -0.196 NA
ATOM      4  H   LIG d   1       3.165   1.092  -2.344  0.00  0.00     0.047 H 
ATOM      5  H   LIG d   1       4.127   0.059  -1.259  0.00  0.00     0.047 H 
ENDROOT
BRANCH   1   6
ATOM      6  C   LIG d   1       3.720  -0.812  -3.187  0.00  0.00    -0.013 C 
ATOM      7  H   LIG d   1       4.454  -0.846  -3.991  0.00  0.00     0.086 H 
BRANCH   6   8
ATOM      8  C   LIG d   1       3.810  -2.095  -2.359  0.00  0.00    -0.021 C 
ATOM      9  H   LIG d   1       3.608  -1.867  -1.313  0.00  0.00     0.028 H 
ATOM     10  H   LIG d   1       3.077  -2.815  -2.723  0.00  0.00     0.028 H 
ATOM     11  H   LIG d   1       4.811  -2.517  -2.451  0.00  0.00     0.028 H 
ENDBRANCH   6   8
BRANCH   6  12
ATOM     12  N   LIG d   1       2.364  -0.686  -3.755  0.00  0.00     0.228 N 
ATOM     13  H   LIG d   1       1.707  -0.428  -3.010  0.00  0.00     0.201 HD
ATOM     14  H   LIG d   1       2.084  -1.585  -4.164  0.00  0.00     0.201 HD
BRANCH  12  15
ATOM     15  C   LIG d   1       2.343   0.352  -4.803  0.00  0.00    -0.045 C 
ATOM     16  H   LIG d   1       3.301   0.872  -4.824  0.00  0.00     0.078 H 
ATOM     17  H   LIG d   1       1.546   1.067  -4.594  0.00  0.00     0.078 H 
ATOM     18  H   LIG d   1       2.164  -0.119  -5.769  0.00  0.00     0.078 H 
ENDBRANCH  12  15
ENDBRANCH   6  12
ENDBRANCH   1   6
TORSDOF 4
ENDMDL
MODEL 3
REMARK VINA RESULT:      -3.6      1.660      2.144
REMARK  4 active torsions:
REMARK  status: ('A' for Active; 'I' for Inactive)
REMARK    1  A    between atoms: C_1  and  C_2 
REMARK    2  A    between atoms: C_2  and  C_4 
REMARK    3  A    between atoms: C_2  and  N_16 
REMARK    4  A    between atoms: C_7  and  N_16 
ROOT
ATOM      1  C   LIG d   1       2.864  -0.377  -2.956  0.00  0.00     0.077 C 
ATOM      2  C   LIG d   1       3.548  -1.671  -3.117  0.00  0.00     0.068 C 
ATOM      3  N   LIG d   1       4.075  -2.669  -3.240  0.00  0.00    -0.196 NA
ATOM      4  H   LIG d   1       2.350  -0.354  -1.996  0.00  0.00     0.047 H 
ATOM      5  H   LIG d   1       2.140  -0.246  -3.759  0.00  0.00     0.047 H 
ENDROOT
BRANCH   1   6
ATOM      6  C   LIG d   1       3.895   0.753  -3.010  0.00  0.00    -0.013 C 
ATOM      7  H   LIG d   1       3.405   1.677  -3.316  0.00  0.00     0.086 H 
BRANCH   6   8
ATOM      8  C   LIG d   1       4.518   0.941  -1.625  0.00  0.00    -0.021 C 
ATOM      9  H   LIG d   1       3.859   1.553  -1.010  0.00  0.00     0.028 H 
ATOM     10  H   LIG d   1       4.655  -0.032  -1.153  0.00  0.00     0.028 H 
ATOM     11  H   LIG d   1       5.484   1.436  -1.725  0.00  0.00     0.028 H 
ENDBRANCH   6   8
BRANCH   6  12
ATOM     12  N   LIG d   1       4.947   0.402  -3.981  0.00  0.00     0.228 N 
ATOM     13  H   LIG d   1       4.795   0.924  -4.851  0.00  0.00     0.201 HD
ATOM     14  H   LIG d   1       4.907  -0.606  -4.174  0.00  0.00     0.201 HD
BRANCH  12  15
ATOM     15  C   LIG d   1       6.277   0.739  -3.438  0.00  0.00    -0.045 C 
ATOM     16  H   LIG d   1       6.601  -0.041  -2.749  0.00  0.00     0.078 H 
ATOM     17  H   LIG d   1       6.227   1.692  -2.911  0.00  0.00     0.078 H 
ATOM     18  H   LIG d   1       6.989   0.816  -4.260  0.00  0.00     0.078 H 
ENDBRANCH  12  15
ENDBRANCH   6  12
ENDBRANCH   1   6
TORSDOF 4
ENDMDL
MODEL 4
REMARK VINA RESULT:      -3.5      1.907      3.290
REMARK  4 active torsions:
REMARK  status: ('A' for Active; 'I' for Inactive)
REMARK    1  A    between atoms: C_1  and  C_2 
REMARK    2  A    between atoms: C_2  and  C_4 
REMARK    3  A    between atoms: C_2  and  N_16 
REMARK    4  A    between atoms: C_7  and  N_16 
ROOT
ATOM      1  C   LIG d   1       4.499   0.299  -1.746  0.00  0.00     0.077 C 
ATOM      2  C   LIG d   1       3.996   1.323  -2.676  0.00  0.00     0.068 C 
ATOM      3  N   LIG d   1       3.607   2.114  -3.392  0.00  0.00    -0.196 NA
ATOM      4  H   LIG d   1       3.718   0.038  -1.034  0.00  0.00     0.047 H 
ATOM      5  H   LIG d   1       5.365   0.688  -1.211  0.00  0.00     0.047 H 
ENDROOT
BRANCH   1   6
ATOM      6  C   LIG d   1       4.907  -0.948  -2.535  0.00  0.00    -0.013 C 
ATOM      7  H   LIG d   1       5.868  -1.310  -2.172  0.00  0.00     0.086 H 
BRANCH   6   8
ATOM      8  C   LIG d   1       3.848  -2.037  -2.349  0.00  0.00    -0.021 C 
ATOM      9  H   LIG d   1       4.114  -2.908  -2.947  0.00  0.00     0.028 H 
ATOM     10  H   LIG d   1       3.797  -2.319  -1.298  0.00  0.00     0.028 H 
ATOM     11  H   LIG d   1       2.878  -1.659  -2.672  0.00  0.00     0.028 H 
ENDBRANCH   6   8
BRANCH   6  12
ATOM     12  N   LIG d   1       5.012  -0.602  -3.965  0.00  0.00     0.228 N 
ATOM     13  H   LIG d   1       5.993  -0.411  -4.197  0.00  0.00     0.201 HD
ATOM     14  H   LIG d   1       4.446   0.233  -4.154  0.00  0.00     0.201 HD
BRANCH  12  15
ATOM     15  C   LIG d   1       4.524  -1.717  -4.799  0.00  0.00    -0.045 C 
ATOM     16  H   LIG d   1       3.549  -2.046  -4.438  0.00  0.00     0.078 H 
ATOM     17  H   LIG d   1       5.228  -2.548  -4.749  0.00  0.00     0.078 H 
ATOM     18  H   LIG d   1       4.434  -1.379  -5.831  0.00  0.00     0.078 H 
ENDBRANCH  12  15
ENDBRANCH   6  12
ENDBRANCH   1   6
TORSDOF 4
ENDMDL
MODEL 5
REMARK VINA RESULT:      -3.5      2.218      3.071
REMARK  4 active torsions:
REMARK  status: ('A' for Active; 'I' for Inactive)
REMARK    1  A    between atoms: C_1  and  C_2 
REMARK    2  A    between atoms: C_2  and  C_4 
REMARK    3  A    between atoms: C_2  and  N_16 
REMARK    4  A    between atoms: C_7  and  N_16 
ROOT
ATOM      1  C   LIG d   1       2.580  -0.367  -3.548  0.00  0.00     0.077 C 
ATOM      2  C   LIG d   1       2.756   0.268  -4.864  0.00  0.00     0.068 C 
ATOM      3  N   LIG d   1       2.892   0.758  -5.880  0.00  0.00    -0.196 NA
ATOM      4  H   LIG d   1       2.843  -1.422  -3.615  0.00  0.00     0.047 H 
ATOM      5  H   LIG d   1       1.542  -0.270  -3.234  0.00  0.00     0.047 H 
ENDROOT
BRANCH   1   6
ATOM      6  C   LIG d   1       3.488   0.320  -2.525  0.00  0.00    -0.013 C 
ATOM      7  H   LIG d   1       2.877   0.814  -1.770  0.00  0.00     0.086 H 
BRANCH   6   8
ATOM      8  C   LIG d   1       4.383  -0.724  -1.855  0.00  0.00    -0.021 C 
ATOM      9  H   LIG d   1       4.104  -1.718  -2.203  0.00  0.00     0.028 H 
ATOM     10  H   LIG d   1       5.424  -0.529  -2.109  0.00  0.00     0.028 H 
ATOM     11  H   LIG d   1       4.256  -0.671  -0.773  0.00  0.00     0.028 H 
ENDBRANCH   6   8
BRANCH   6  12
ATOM     12  N   LIG d   1       4.328   1.317  -3.217  0.00  0.00     0.228 N 
ATOM     13  H   LIG d   1       4.085   2.256  -2.882  0.00  0.00     0.201 HD
ATOM     14  H   LIG d   1       4.158   1.259  -4.228  0.00  0.00     0.201 HD
BRANCH  12  15
ATOM     15  C   LIG d   1       5.755   1.058  -2.949  0.00  0.00    -0.045 C 
ATOM     16  H   LIG d   1       6.369   1.646  -3.631  0.00  0.00     0.078 H 
ATOM     17  H   LIG d   1       5.968  -0.002  -3.090  0.00  0.00     0.078 H 
ATOM     18  H   LIG d   1       5.983   1.340  -1.921  0.00  0.00     0.078 H 
ENDBRANCH  12  15
ENDBRANCH   6  12
ENDBRANCH   1   6
TORSDOF 4
ENDMDL
MODEL 6
REMARK VINA RESULT:      -3.2      1.813      2.499
REMARK  4 active torsions:
REMARK  status: ('A' for Active; 'I' for Inactive)
REMARK    1  A    between atoms: C_1  and  C_2 
REMARK    2  A    between atoms: C_2  and  C_4 
REMARK    3  A    between atoms: C_2  and  N_16 
REMARK    4  A    between atoms: C_7  and  N_16 
ROOT
ATOM      1  C   LIG d   1       5.673  -2.173  -3.912  0.00  0.00     0.077 C 
ATOM      2  C   LIG d   1       5.731  -0.923  -4.687  0.00  0.00     0.068 C 
ATOM      3  N   LIG d   1       5.776   0.041  -5.286  0.00  0.00    -0.196 NA
ATOM      4  H   LIG d   1       6.486  -2.190  -3.188  0.00  0.00     0.047 H 
ATOM      5  H   LIG d   1       5.767  -3.024  -4.585  0.00  0.00     0.047 H 
ENDROOT
BRANCH   1   6
ATOM      6  C   LIG d   1       4.333  -2.253  -3.175  0.00  0.00    -0.013 C 
ATOM      7  H   LIG d   1       4.106  -3.294  -2.946  0.00  0.00     0.086 H 
BRANCH   6   8
ATOM      8  C   LIG d   1       4.418  -1.451  -1.874  0.00  0.00    -0.021 C 
ATOM      9  H   LIG d   1       3.550  -0.798  -1.794  0.00  0.00     0.028 H 
ATOM     10  H   LIG d   1       4.439  -2.134  -1.026  0.00  0.00     0.028 H 
ATOM     11  H   LIG d   1       5.326  -0.848  -1.879  0.00  0.00     0.028 H 
ENDBRANCH   6   8
BRANCH   6  12
ATOM     12  N   LIG d   1       3.275  -1.689  -4.033  0.00  0.00     0.228 N 
ATOM     13  H   LIG d   1       2.644  -2.441  -4.333  0.00  0.00     0.201 HD
ATOM     14  H   LIG d   1       3.704  -1.253  -4.858  0.00  0.00     0.201 HD
BRANCH  12  15
ATOM     15  C   LIG d   1       2.503  -0.673  -3.294  0.00  0.00    -0.045 C 
ATOM     16  H   LIG d   1       1.791  -1.164  -2.630  0.00  0.00     0.078 H 
ATOM     17  H   LIG d   1       1.963  -0.038  -3.997  0.00  0.00     0.078 H 
ATOM     18  H   LIG d   1       3.187  -0.062  -2.705  0.00  0.00     0.078 H 
ENDBRANCH  12  15
ENDBRANCH   6  12
ENDBRANCH   1   6
TORSDOF 4
ENDMDL
MODEL 7
REMARK VINA RESULT:      -3.0      2.335      3.078
REMARK  4 active torsions:
REMARK  status: ('A' for Active; 'I' for Inactive)
REMARK    1  A    between atoms: C_1  and  C_2 
REMARK    2  A    between atoms: C_2  and  C_4 
REMARK    3  A    between atoms: C_2  and  N_16 
REMARK    4  A    between atoms: C_7  and  N_16 
ROOT
ATOM      1  C   LIG d   1       6.094  -1.095  -3.119  0.00  0.00     0.077 C 
ATOM      2  C   LIG d   1       5.896   0.361  -3.028  0.00  0.00     0.068 C 
ATOM      3  N   LIG d   1       5.744   1.484  -2.957  0.00  0.00    -0.196 NA
ATOM      4  H   LIG d   1       6.336  -1.492  -2.134  0.00  0.00     0.047 H 
ATOM      5  H   LIG d   1       6.910  -1.308  -3.808  0.00  0.00     0.047 H 
ENDROOT
BRANCH   1   6
ATOM      6  C   LIG d   1       4.810  -1.752  -3.632  0.00  0.00    -0.013 C 
ATOM      7  H   LIG d   1       5.058  -2.674  -4.157  0.00  0.00     0.086 H 
BRANCH   6   8
ATOM      8  C   LIG d   1       3.892  -2.069  -2.449  0.00  0.00    -0.021 C 
ATOM      9  H   LIG d   1       4.371  -2.806  -1.806  0.00  0.00     0.028 H 
ATOM     10  H   LIG d   1       3.703  -1.158  -1.882  0.00  0.00     0.028 H 
ATOM     11  H   LIG d   1       2.948  -2.470  -2.819  0.00  0.00     0.028 H 
ENDBRANCH   6   8
BRANCH   6  12
ATOM     12  N   LIG d   1       4.126  -0.823  -4.551  0.00  0.00     0.228 N 
ATOM     13  H   LIG d   1       4.460   0.131  -4.381  0.00  0.00     0.201 HD
ATOM     14  H   LIG d   1       3.113  -0.867  -4.385  0.00  0.00     0.201 HD
BRANCH  12  15
ATOM     15  C   LIG d   1       4.404  -1.193  -5.952  0.00  0.00    -0.045 C 
ATOM     16  H   LIG d   1       3.563  -0.902  -6.582  0.00  0.00     0.078 H 
ATOM     17  H   LIG d   1       4.556  -2.270  -6.024  0.00  0.00     0.078 H 
ATOM     18  H   LIG d   1       5.303  -0.676  -6.287  0.00  0.00     0.078 H 
ENDBRANCH  12  15
ENDBRANCH   6  12
ENDBRANCH   1   6
TORSDOF 4
ENDMDL
MODEL 8
REMARK VINA RESULT:      -2.8      2.266      3.424
REMARK  4 active torsions:
REMARK  status: ('A' for Active; 'I' for Inactive)
REMARK    1  A    between atoms: C_1  and  C_2 
REMARK    2  A    between atoms: C_2  and  C_4 
REMARK    3  A    between atoms: C_2  and  N_16 
REMARK    4  A    between atoms: C_7  and  N_16 
ROOT
ATOM      1  C   LIG d   1       4.907  -1.325  -2.478  0.00  0.00     0.077 C 
ATOM      2  C   LIG d   1       3.508  -1.047  -2.840  0.00  0.00     0.068 C 
ATOM      3  N   LIG d   1       2.428  -0.834  -3.119  0.00  0.00    -0.196 NA
ATOM      4  H   LIG d   1       5.120  -2.383  -2.629  0.00  0.00     0.047 H 
ATOM      5  H   LIG d   1       5.071  -1.066  -1.433  0.00  0.00     0.047 H 
ENDROOT
BRANCH   1   6
ATOM      6  C   LIG d   1       5.837  -0.488  -3.361  0.00  0.00    -0.013 C 
ATOM      7  H   LIG d   1       5.538  -0.589  -4.404  0.00  0.00     0.086 H 
BRANCH   6   8
ATOM      8  C   LIG d   1       5.746   0.982  -2.945  0.00  0.00    -0.021 C 
ATOM      9  H   LIG d   1       5.234   1.057  -1.987  0.00  0.00     0.028 H 
ATOM     10  H   LIG d   1       6.750   1.397  -2.854  0.00  0.00     0.028 H 
ATOM     11  H   LIG d   1       5.190   1.539  -3.699  0.00  0.00     0.028 H 
ENDBRANCH   6   8
BRANCH   6  12
ATOM     12  N   LIG d   1       7.222  -0.963  -3.191  0.00  0.00     0.228 N 
ATOM     13  H   LIG d   1       7.469  -0.943  -2.195  0.00  0.00     0.201 HD
ATOM     14  H   LIG d   1       7.858  -0.349  -3.714  0.00  0.00     0.201 HD
BRANCH  12  15
ATOM     15  C   LIG d   1       7.356  -2.343  -3.697  0.00  0.00    -0.045 C 
ATOM     16  H   LIG d   1       7.626  -3.009  -2.878  0.00  0.00     0.078 H 
ATOM     17  H   LIG d   1       8.129  -2.379  -4.465  0.00  0.00     0.078 H 
ATOM     18  H   LIG d   1       6.405  -2.660  -4.124  0.00  0.00     0.078 H 
ENDBRANCH  12  15
ENDBRANCH   6  12
ENDBRANCH   1   6
TORSDOF 4
ENDMDL
MODEL 9
REMARK VINA RESULT:      -2.7     13.004     14.183
REMARK  4 active torsions:
REMARK  status: ('A' for Active; 'I' for Inactive)
REMARK    1  A    between atoms: C_1  and  C_2 
REMARK    2  A    between atoms: C_2  and  C_4 
REMARK    3  A    between atoms: C_2  and  N_16 
REMARK    4  A    between atoms: C_7  and  N_16 
ROOT
ATOM      1  C   LIG d   1       9.922  11.828  -6.105  0.00  0.00     0.077 C 
ATOM      2  C   LIG d   1       9.491  12.644  -7.252  0.00  0.00     0.068 C 
ATOM      3  N   LIG d   1       9.158  13.274  -8.136  0.00  0.00    -0.196 NA
ATOM      4  H   LIG d   1       9.172  11.883  -5.317  0.00  0.00     0.047 H 
ATOM      5  H   LIG d   1      10.873  12.203  -5.729  0.00  0.00     0.047 H 
ENDROOT
BRANCH   1   6
ATOM      6  C   LIG d   1      10.089  10.373  -6.550  0.00  0.00    -0.013 C 
ATOM      7  H   LIG d   1      11.149  10.143  -6.652  0.00  0.00     0.086 H 
BRANCH   6   8
ATOM      8  C   LIG d   1       9.464   9.446  -5.506  0.00  0.00    -0.021 C 
ATOM      9  H   LIG d   1       9.732   8.414  -5.729  0.00  0.00     0.028 H 
ATOM     10  H   LIG d   1       9.834   9.712  -4.516  0.00  0.00     0.028 H 
ATOM     11  H   LIG d   1       8.379   9.551  -5.530  0.00  0.00     0.028 H 
ENDBRANCH   6   8
BRANCH   6  12
ATOM     12  N   LIG d   1       9.412  10.183  -7.846  0.00  0.00     0.228 N 
ATOM     13  H   LIG d   1      10.017  10.528  -8.600  0.00  0.00     0.201 HD
ATOM     14  H   LIG d   1       8.529  10.707  -7.847  0.00  0.00     0.201 HD
BRANCH  12  15
ATOM     15  C   LIG d   1       9.126   8.753  -8.070  0.00  0.00    -0.045 C 
ATOM     16  H   LIG d   1       8.180   8.646  -8.601  0.00  0.00     0.078 H 
ATOM     17  H   LIG d   1       9.065   8.237  -7.112  0.00  0.00     0.078 H 
ATOM     18  H   LIG d   1       9.928   8.317  -8.666  0.00  0.00     0.078 H 
ENDBRANCH  12  15
ENDBRANCH   6  12
ENDBRANCH   1   6
TORSDOF 4
ENDMDL
MODEL 10
REMARK VINA RESULT:      -2.6     14.868     15.665
REMARK  4 active torsions:
REMARK  status: ('A' for Active; 'I' for Inactive)
REMARK    1  A    between atoms: C_1  and  C_2 
REMARK    2  A    between atoms: C_2  and  C_4 
REMARK    3  A    between atoms: C_2  and  N_16 
REMARK    4  A    between atoms: C_7  and  N_16 
ROOT
ATOM      1  C   LIG d   1      -2.612   8.773 -15.020  0.00  0.00     0.077 C 
ATOM      2  C   LIG d   1      -1.220   8.304 -14.932  0.00  0.00     0.068 C 
ATOM      3  N   LIG d   1      -0.145   7.942 -14.865  0.00  0.00    -0.196 NA
ATOM      4  H   LIG d   1      -2.927   8.787 -16.062  0.00  0.00     0.047 H 
ATOM      5  H   LIG d   1      -2.684   9.778 -14.604  0.00  0.00     0.047 H 
ENDROOT
BRANCH   1   6
ATOM      6  C   LIG d   1      -3.519   7.829 -14.226  0.00  0.00    -0.013 C 
ATOM      7  H   LIG d   1      -3.674   8.230 -13.225  0.00  0.00     0.086 H 
BRANCH   6   8
ATOM      8  C   LIG d   1      -4.866   7.698 -14.939  0.00  0.00    -0.021 C 
ATOM      9  H   LIG d   1      -5.042   8.584 -15.548  0.00  0.00     0.028 H 
ATOM     10  H   LIG d   1      -4.856   6.815 -15.576  0.00  0.00     0.028 H 
ATOM     11  H   LIG d   1      -5.661   7.604 -14.198  0.00  0.00     0.028 H 
ENDBRANCH   6   8
BRANCH   6  12
ATOM     12  N   LIG d   1      -2.877   6.504 -14.138  0.00  0.00     0.228 N 
ATOM     13  H   LIG d   1      -2.530   6.358 -13.184  0.00  0.00     0.201 HD
ATOM     14  H   LIG d   1      -2.092   6.463 -14.799  0.00  0.00     0.201 HD
BRANCH  12  15
ATOM     15  C   LIG d   1      -3.847   5.443 -14.470  0.00  0.00    -0.045 C 
ATOM     16  H   LIG d   1      -3.864   5.286 -15.549  0.00  0.00     0.078 H 
ATOM     17  H   LIG d   1      -4.841   5.735 -14.130  0.00  0.00     0.078 H 
ATOM     18  H   LIG d   1      -3.550   4.519 -13.973  0.00  0.00     0.078 H 
ENDBRANCH  12  15
ENDBRANCH   6  12
ENDBRANCH   1   6
TORSDOF 4
ENDMDL
