MODEL 1
REMARK VINA RESULT:      -5.8      0.000      0.000
REMARK  7 active torsions:
REMARK  status: ('A' for Active; 'I' for Inactive)
REMARK    1  A    between atoms: C_1  and  N_2 
REMARK    2  A    between atoms: C_7  and  O_25 
REMARK    3  A    between atoms: C_8  and  O_23 
REMARK    4  A    between atoms: C_17  and  O_21 
REMARK    5  A    between atoms: C_18  and  O_20 
REMARK    6  A    between atoms: O_21  and  C_22 
REMARK    7  A    between atoms: O_23  and  C_24 
ROOT
ATOM      1  N   LIG d   1       9.790   5.574  -2.598  0.00  0.00    -0.298 N 
ATOM      2  C   LIG d   1      10.663   5.544  -1.423  0.00  0.00     0.003 C 
ATOM      3  C   LIG d   1      10.445   6.771  -0.555  0.00  0.00    -0.014 C 
ATOM      4  C   LIG d   1      10.214   8.013  -1.369  0.00  0.00    -0.037 A 
ATOM      5  C   LIG d   1      10.153   9.230  -0.699  0.00  0.00    -0.013 A 
ATOM      6  C   LIG d   1       9.966  10.412  -1.390  0.00  0.00     0.159 A 
ATOM      7  C   LIG d   1       9.832  10.390  -2.774  0.00  0.00     0.169 A 
ATOM      8  C   LIG d   1       9.872   9.170  -3.445  0.00  0.00     0.033 A 
ATOM      9  C   LIG d   1      10.074   7.980  -2.740  0.00  0.00    -0.015 A 
ATOM     10  C   LIG d   1      10.159   6.680  -3.495  0.00  0.00     0.040 C 
ATOM     11  H   LIG d   1      11.179   6.533  -3.848  0.00  0.00     0.052 H 
ATOM     12  C   LIG d   1       9.210   6.680  -4.692  0.00  0.00    -0.007 C 
ATOM     13  C   LIG d   1       9.418   7.909  -5.534  0.00  0.00    -0.034 A 
ATOM     14  C   LIG d   1       9.725   9.122  -4.920  0.00  0.00    -0.007 A 
ATOM     15  C   LIG d   1       9.893  10.272  -5.687  0.00  0.00    -0.008 A 
ATOM     16  C   LIG d   1       9.768  10.201  -7.064  0.00  0.00     0.162 A 
ATOM     17  C   LIG d   1       9.477   8.985  -7.675  0.00  0.00     0.159 A 
ATOM     18  C   LIG d   1       9.302   7.843  -6.908  0.00  0.00    -0.013 A 
ATOM     19  H   LIG d   1      10.446   4.649  -0.839  0.00  0.00     0.043 H 
ATOM     20  H   LIG d   1      11.703   5.515  -1.749  0.00  0.00     0.043 H 
ATOM     21  H   LIG d   1       9.578   6.602   0.084  0.00  0.00     0.033 H 
ATOM     22  H   LIG d   1      11.322   6.919   0.074  0.00  0.00     0.033 H 
ATOM     23  H   LIG d   1      10.254   9.251   0.376  0.00  0.00     0.066 H 
ATOM     24  H   LIG d   1       9.397   5.794  -5.298  0.00  0.00     0.033 H 
ATOM     25  H   LIG d   1       8.181   6.659  -4.333  0.00  0.00     0.033 H 
ATOM     26  H   LIG d   1      10.121  11.213  -5.210  0.00  0.00     0.066 H 
ATOM     27  H   LIG d   1       9.077   6.901  -7.385  0.00  0.00     0.066 H 
ENDROOT
BRANCH   7  28
ATOM     28  O   LIG d   1       9.662  11.548  -3.465  0.00  0.00    -0.491 OA
BRANCH  28  29
ATOM     29  C   LIG d   1       8.395  12.197  -3.341  0.00  0.00     0.079 C 
ATOM     30  H   LIG d   1       7.609  11.447  -3.255  0.00  0.00     0.066 H 
ATOM     31  H   LIG d   1       8.395  12.828  -2.452  0.00  0.00     0.066 H 
ATOM     32  H   LIG d   1       8.214  12.812  -4.223  0.00  0.00     0.066 H 
ENDBRANCH  28  29
ENDBRANCH   7  28
BRANCH   6  33
ATOM     33  O   LIG d   1       9.914  11.595  -0.719  0.00  0.00    -0.503 OA
ATOM     34  H   LIG d   1       9.737  12.359  -1.283  0.00  0.00     0.292 HD
ENDBRANCH   6  33
BRANCH  16  35
ATOM     35  O   LIG d   1       9.930  11.320  -7.819  0.00  0.00    -0.491 OA
BRANCH  35  36
ATOM     36  C   LIG d   1       9.636  12.572  -7.196  0.00  0.00     0.079 C 
ATOM     37  H   LIG d   1      10.552  13.157  -7.107  0.00  0.00     0.066 H 
ATOM     38  H   LIG d   1       8.913  13.119  -7.801  0.00  0.00     0.066 H 
ATOM     39  H   LIG d   1       9.220  12.395  -6.204  0.00  0.00     0.066 H 
ENDBRANCH  35  36
ENDBRANCH  16  35
BRANCH   1  40
ATOM     40  C   LIG d   1       9.817   4.288  -3.308  0.00  0.00    -0.012 C 
ATOM     41  H   LIG d   1       9.269   3.544  -2.730  0.00  0.00     0.039 H 
ATOM     42  H   LIG d   1       9.350   4.404  -4.286  0.00  0.00     0.039 H 
ATOM     43  H   LIG d   1      10.850   3.963  -3.433  0.00  0.00     0.039 H 
ENDBRANCH   1  40
BRANCH  17  44
ATOM     44  O   LIG d   1       9.362   8.915  -9.028  0.00  0.00    -0.503 OA
ATOM     45  H   LIG d   1      10.154   8.585  -9.474  0.00  0.00     0.292 HD
ENDBRANCH  17  44
TORSDOF 7
ENDMDL
MODEL 2
REMARK VINA RESULT:      -5.6      2.463      5.666
REMARK  7 active torsions:
REMARK  status: ('A' for Active; 'I' for Inactive)
REMARK    1  A    between atoms: C_1  and  N_2 
REMARK    2  A    between atoms: C_7  and  O_25 
REMARK    3  A    between atoms: C_8  and  O_23 
REMARK    4  A    between atoms: C_17  and  O_21 
REMARK    5  A    between atoms: C_18  and  O_20 
REMARK    6  A    between atoms: O_21  and  C_22 
REMARK    7  A    between atoms: O_23  and  C_24 
ROOT
ATOM      1  N   LIG d   1      10.392   3.812  -6.877  0.00  0.00    -0.298 N 
ATOM      2  C   LIG d   1       9.513   3.939  -8.040  0.00  0.00     0.003 C 
ATOM      3  C   LIG d   1       9.529   5.359  -8.579  0.00  0.00    -0.014 C 
ATOM      4  C   LIG d   1       9.587   6.386  -7.484  0.00  0.00    -0.037 A 
ATOM      5  C   LIG d   1       9.454   7.724  -7.837  0.00  0.00    -0.013 A 
ATOM      6  C   LIG d   1       9.475   8.717  -6.875  0.00  0.00     0.159 A 
ATOM      7  C   LIG d   1       9.635   8.379  -5.537  0.00  0.00     0.169 A 
ATOM      8  C   LIG d   1       9.790   7.040  -5.182  0.00  0.00     0.033 A 
ATOM      9  C   LIG d   1       9.755   6.042  -6.160  0.00  0.00    -0.015 A 
ATOM     10  C   LIG d   1       9.879   4.599  -5.745  0.00  0.00     0.040 C 
ATOM     11  H   LIG d   1       8.899   4.221  -5.457  0.00  0.00     0.052 H 
ATOM     12  C   LIG d   1      10.839   4.450  -4.566  0.00  0.00    -0.007 C 
ATOM     13  C   LIG d   1      10.465   5.393  -3.454  0.00  0.00    -0.034 A 
ATOM     14  C   LIG d   1       9.970   6.658  -3.761  0.00  0.00    -0.007 A 
ATOM     15  C   LIG d   1       9.646   7.549  -2.741  0.00  0.00    -0.008 A 
ATOM     16  C   LIG d   1       9.805   7.165  -1.421  0.00  0.00     0.162 A 
ATOM     17  C   LIG d   1      10.285   5.894  -1.118  0.00  0.00     0.159 A 
ATOM     18  C   LIG d   1      10.615   5.012  -2.136  0.00  0.00    -0.013 A 
ATOM     19  H   LIG d   1       9.850   3.255  -8.820  0.00  0.00     0.043 H 
ATOM     20  H   LIG d   1       8.495   3.677  -7.750  0.00  0.00     0.043 H 
ATOM     21  H   LIG d   1      10.400   5.482  -9.224  0.00  0.00     0.033 H 
ATOM     22  H   LIG d   1       8.629   5.523  -9.170  0.00  0.00     0.033 H 
ATOM     23  H   LIG d   1       9.331   7.991  -8.876  0.00  0.00     0.066 H 
ATOM     24  H   LIG d   1      10.798   3.426  -4.198  0.00  0.00     0.033 H 
ATOM     25  H   LIG d   1      11.853   4.671  -4.899  0.00  0.00     0.033 H 
ATOM     26  H   LIG d   1       9.272   8.533  -2.979  0.00  0.00     0.066 H 
ATOM     27  H   LIG d   1      10.986   4.026  -1.898  0.00  0.00     0.066 H 
ENDROOT
BRANCH   7  28
ATOM     28  O   LIG d   1       9.643   9.346  -4.581  0.00  0.00    -0.491 OA
BRANCH  28  29
ATOM     29  C   LIG d   1      10.810  10.168  -4.500  0.00  0.00     0.079 C 
ATOM     30  H   LIG d   1      11.490   9.915  -5.313  0.00  0.00     0.066 H 
ATOM     31  H   LIG d   1      10.523  11.217  -4.579  0.00  0.00     0.066 H 
ATOM     32  H   LIG d   1      11.307   9.999  -3.545  0.00  0.00     0.066 H 
ENDBRANCH  28  29
ENDBRANCH   7  28
BRANCH   6  33
ATOM     33  O   LIG d   1       9.337  10.021  -7.238  0.00  0.00    -0.503 OA
ATOM     34  H   LIG d   1       9.558  10.198  -8.162  0.00  0.00     0.292 HD
ENDBRANCH   6  33
BRANCH  16  35
ATOM     35  O   LIG d   1       9.491   8.030  -0.419  0.00  0.00    -0.491 OA
BRANCH  35  36
ATOM     36  C   LIG d   1       8.943   9.293  -0.800  0.00  0.00     0.079 C 
ATOM     37  H   LIG d   1       8.090   9.526  -0.162  0.00  0.00     0.066 H 
ATOM     38  H   LIG d   1       9.702  10.068  -0.689  0.00  0.00     0.066 H 
ATOM     39  H   LIG d   1       8.618   9.249  -1.840  0.00  0.00     0.066 H 
ENDBRANCH  35  36
ENDBRANCH  16  35
BRANCH   1  40
ATOM     40  C   LIG d   1      10.571   2.403  -6.501  0.00  0.00    -0.012 C 
ATOM     41  H   LIG d   1       9.623   2.001  -6.144  0.00  0.00     0.039 H 
ATOM     42  H   LIG d   1      10.902   1.835  -7.370  0.00  0.00     0.039 H 
ATOM     43  H   LIG d   1      11.318   2.330  -5.710  0.00  0.00     0.039 H 
ENDBRANCH   1  40
BRANCH  17  44
ATOM     44  O   LIG d   1      10.434   5.516   0.179  0.00  0.00    -0.503 OA
ATOM     45  H   LIG d   1       9.614   5.221   0.600  0.00  0.00     0.292 HD
ENDBRANCH  17  44
TORSDOF 7
ENDMDL
MODEL 3
REMARK VINA RESULT:      -5.4      2.927      6.787
REMARK  7 active torsions:
REMARK  status: ('A' for Active; 'I' for Inactive)
REMARK    1  A    between atoms: C_1  and  N_2 
REMARK    2  A    between atoms: C_7  and  O_25 
REMARK    3  A    between atoms: C_8  and  O_23 
REMARK    4  A    between atoms: C_17  and  O_21 
REMARK    5  A    between atoms: C_18  and  O_20 
REMARK    6  A    between atoms: O_21  and  C_22 
REMARK    7  A    between atoms: O_23  and  C_24 
ROOT
ATOM      1  N   LIG d   1       9.430  10.487  -5.069  0.00  0.00    -0.298 N 
ATOM      2  C   LIG d   1       9.832  10.035  -6.402  0.00  0.00     0.003 C 
ATOM      3  C   LIG d   1       9.392   8.601  -6.644  0.00  0.00    -0.014 C 
ATOM      4  C   LIG d   1       9.529   7.746  -5.416  0.00  0.00    -0.037 A 
ATOM      5  C   LIG d   1       9.304   6.380  -5.544  0.00  0.00    -0.013 A 
ATOM      6  C   LIG d   1       9.436   5.534  -4.459  0.00  0.00     0.159 A 
ATOM      7  C   LIG d   1       9.794   6.052  -3.220  0.00  0.00     0.169 A 
ATOM      8  C   LIG d   1       9.999   7.423  -3.084  0.00  0.00     0.033 A 
ATOM      9  C   LIG d   1       9.876   8.269  -4.189  0.00  0.00    -0.015 A 
ATOM     10  C   LIG d   1      10.149   9.741  -4.025  0.00  0.00     0.040 C 
ATOM     11  H   LIG d   1      11.218   9.924  -4.123  0.00  0.00     0.052 H 
ATOM     12  C   LIG d   1       9.681  10.234  -2.657  0.00  0.00    -0.007 C 
ATOM     13  C   LIG d   1      10.237   9.368  -1.561  0.00  0.00    -0.034 A 
ATOM     14  C   LIG d   1      10.375   7.997  -1.770  0.00  0.00    -0.007 A 
ATOM     15  C   LIG d   1      10.864   7.181  -0.753  0.00  0.00    -0.008 A 
ATOM     16  C   LIG d   1      11.225   7.740   0.461  0.00  0.00     0.162 A 
ATOM     17  C   LIG d   1      11.100   9.112   0.660  0.00  0.00     0.159 A 
ATOM     18  C   LIG d   1      10.606   9.921  -0.352  0.00  0.00    -0.013 A 
ATOM     19  H   LIG d   1       9.377  10.682  -7.153  0.00  0.00     0.043 H 
ATOM     20  H   LIG d   1      10.918  10.097  -6.489  0.00  0.00     0.043 H 
ATOM     21  H   LIG d   1       8.349   8.601  -6.960  0.00  0.00     0.033 H 
ATOM     22  H   LIG d   1      10.000   8.175  -7.441  0.00  0.00     0.033 H 
ATOM     23  H   LIG d   1       9.023   5.975  -6.505  0.00  0.00     0.066 H 
ATOM     24  H   LIG d   1      10.019  11.260  -2.511  0.00  0.00     0.033 H 
ATOM     25  H   LIG d   1       8.592  10.207  -2.620  0.00  0.00     0.033 H 
ATOM     26  H   LIG d   1      10.961   6.117  -0.911  0.00  0.00     0.066 H 
ATOM     27  H   LIG d   1      10.511  10.985  -0.195  0.00  0.00     0.066 H 
ENDROOT
BRANCH   7  28
ATOM     28  O   LIG d   1       9.940   5.227  -2.149  0.00  0.00    -0.491 OA
BRANCH  28  29
ATOM     29  C   LIG d   1      11.022   4.294  -2.192  0.00  0.00     0.079 C 
ATOM     30  H   LIG d   1      11.753   4.619  -2.930  0.00  0.00     0.066 H 
ATOM     31  H   LIG d   1      11.494   4.239  -1.211  0.00  0.00     0.066 H 
ATOM     32  H   LIG d   1      10.642   3.310  -2.467  0.00  0.00     0.066 H 
ENDBRANCH  28  29
ENDBRANCH   7  28
BRANCH   6  33
ATOM     33  O   LIG d   1       9.217   4.199  -4.604  0.00  0.00    -0.503 OA
ATOM     34  H   LIG d   1       9.259   3.702  -3.776  0.00  0.00     0.292 HD
ENDBRANCH   6  33
BRANCH  16  35
ATOM     35  O   LIG d   1      11.702   6.948   1.458  0.00  0.00    -0.491 OA
BRANCH  35  36
ATOM     36  C   LIG d   1      11.020   5.714   1.690  0.00  0.00     0.079 C 
ATOM     37  H   LIG d   1      10.118   5.677   1.079  0.00  0.00     0.066 H 
ATOM     38  H   LIG d   1      11.673   4.882   1.425  0.00  0.00     0.066 H 
ATOM     39  H   LIG d   1      10.748   5.642   2.743  0.00  0.00     0.066 H 
ENDBRANCH  35  36
ENDBRANCH  16  35
BRANCH   1  40
ATOM     40  C   LIG d   1       9.633  11.934  -4.919  0.00  0.00    -0.012 C 
ATOM     41  H   LIG d   1       8.671  12.420  -4.759  0.00  0.00     0.039 H 
ATOM     42  H   LIG d   1      10.282  12.123  -4.064  0.00  0.00     0.039 H 
ATOM     43  H   LIG d   1      10.095  12.331  -5.823  0.00  0.00     0.039 H 
ENDBRANCH   1  40
BRANCH  17  44
ATOM     44  O   LIG d   1      11.462   9.660   1.850  0.00  0.00    -0.503 OA
ATOM     45  H   LIG d   1      11.710  10.594   1.793  0.00  0.00     0.292 HD
ENDBRANCH  17  44
TORSDOF 7
ENDMDL
MODEL 4
REMARK VINA RESULT:      -5.4     10.298     11.817
REMARK  7 active torsions:
REMARK  status: ('A' for Active; 'I' for Inactive)
REMARK    1  A    between atoms: C_1  and  N_2 
REMARK    2  A    between atoms: C_7  and  O_25 
REMARK    3  A    between atoms: C_8  and  O_23 
REMARK    4  A    between atoms: C_17  and  O_21 
REMARK    5  A    between atoms: C_18  and  O_20 
REMARK    6  A    between atoms: O_21  and  C_22 
REMARK    7  A    between atoms: O_23  and  C_24 
ROOT
ATOM      1  N   LIG d   1       7.126  -4.545  -5.314  0.00  0.00    -0.298 N 
ATOM      2  C   LIG d   1       8.376  -4.140  -4.669  0.00  0.00     0.003 C 
ATOM      3  C   LIG d   1       8.112  -3.141  -3.555  0.00  0.00    -0.014 C 
ATOM      4  C   LIG d   1       7.022  -2.167  -3.907  0.00  0.00    -0.037 A 
ATOM      5  C   LIG d   1       6.788  -1.108  -3.037  0.00  0.00    -0.013 A 
ATOM      6  C   LIG d   1       5.816  -0.165  -3.314  0.00  0.00     0.159 A 
ATOM      7  C   LIG d   1       5.056  -0.275  -4.472  0.00  0.00     0.169 A 
ATOM      8  C   LIG d   1       5.274  -1.347  -5.335  0.00  0.00     0.033 A 
ATOM      9  C   LIG d   1       6.268  -2.289  -5.054  0.00  0.00    -0.015 A 
ATOM     10  C   LIG d   1       6.515  -3.413  -6.027  0.00  0.00     0.040 C 
ATOM     11  H   LIG d   1       7.191  -3.072  -6.809  0.00  0.00     0.052 H 
ATOM     12  C   LIG d   1       5.208  -3.880  -6.664  0.00  0.00    -0.007 C 
ATOM     13  C   LIG d   1       4.447  -2.714  -7.234  0.00  0.00    -0.034 A 
ATOM     14  C   LIG d   1       4.471  -1.487  -6.573  0.00  0.00    -0.007 A 
ATOM     15  C   LIG d   1       3.750  -0.408  -7.076  0.00  0.00    -0.008 A 
ATOM     16  C   LIG d   1       3.020  -0.556  -8.243  0.00  0.00     0.162 A 
ATOM     17  C   LIG d   1       3.011  -1.778  -8.909  0.00  0.00     0.159 A 
ATOM     18  C   LIG d   1       3.725  -2.854  -8.401  0.00  0.00    -0.013 A 
ATOM     19  H   LIG d   1       8.865  -5.020  -4.251  0.00  0.00     0.043 H 
ATOM     20  H   LIG d   1       9.032  -3.685  -5.412  0.00  0.00     0.043 H 
ATOM     21  H   LIG d   1       7.823  -3.683  -2.655  0.00  0.00     0.033 H 
ATOM     22  H   LIG d   1       9.028  -2.587  -3.353  0.00  0.00     0.033 H 
ATOM     23  H   LIG d   1       7.374  -1.021  -2.134  0.00  0.00     0.066 H 
ATOM     24  H   LIG d   1       5.431  -4.588  -7.462  0.00  0.00     0.033 H 
ATOM     25  H   LIG d   1       4.596  -4.374  -5.908  0.00  0.00     0.033 H 
ATOM     26  H   LIG d   1       3.760   0.540  -6.559  0.00  0.00     0.066 H 
ATOM     27  H   LIG d   1       3.717  -3.801  -8.920  0.00  0.00     0.066 H 
ENDROOT
BRANCH   7  28
ATOM     28  O   LIG d   1       4.107   0.655  -4.761  0.00  0.00    -0.491 OA
BRANCH  28  29
ATOM     29  C   LIG d   1       2.885   0.585  -4.022  0.00  0.00     0.079 C 
ATOM     30  H   LIG d   1       2.068   0.965  -4.635  0.00  0.00     0.066 H 
ATOM     31  H   LIG d   1       2.684  -0.451  -3.749  0.00  0.00     0.066 H 
ATOM     32  H   LIG d   1       2.972   1.188  -3.119  0.00  0.00     0.066 H 
ENDBRANCH  28  29
ENDBRANCH   7  28
BRANCH   6  33
ATOM     33  O   LIG d   1       5.604   0.868  -2.454  0.00  0.00    -0.503 OA
ATOM     34  H   LIG d   1       6.411   1.319  -2.174  0.00  0.00     0.292 HD
ENDBRANCH   6  33
BRANCH  16  35
ATOM     35  O   LIG d   1       2.312   0.494  -8.739  0.00  0.00    -0.491 OA
BRANCH  35  36
ATOM     36  C   LIG d   1       2.846   1.800  -8.517  0.00  0.00     0.079 C 
ATOM     37  H   LIG d   1       2.027   2.514  -8.411  0.00  0.00     0.066 H 
ATOM     38  H   LIG d   1       3.445   1.799  -7.605  0.00  0.00     0.066 H 
ATOM     39  H   LIG d   1       3.471   2.087  -9.362  0.00  0.00     0.066 H 
ENDBRANCH  35  36
ENDBRANCH  16  35
BRANCH   1  40
ATOM     40  C   LIG d   1       7.343  -5.682  -6.218  0.00  0.00    -0.012 C 
ATOM     41  H   LIG d   1       8.314  -5.579  -6.702  0.00  0.00     0.039 H 
ATOM     42  H   LIG d   1       7.318  -6.610  -5.647  0.00  0.00     0.039 H 
ATOM     43  H   LIG d   1       6.559  -5.698  -6.975  0.00  0.00     0.039 H 
ENDBRANCH   1  40
BRANCH  17  44
ATOM     44  O   LIG d   1       2.300  -1.920 -10.059  0.00  0.00    -0.503 OA
ATOM     45  H   LIG d   1       2.703  -2.523 -10.699  0.00  0.00     0.292 HD
ENDBRANCH  17  44
TORSDOF 7
ENDMDL
MODEL 5
REMARK VINA RESULT:      -5.4      1.675      2.736
REMARK  7 active torsions:
REMARK  status: ('A' for Active; 'I' for Inactive)
REMARK    1  A    between atoms: C_1  and  N_2 
REMARK    2  A    between atoms: C_7  and  O_25 
REMARK    3  A    between atoms: C_8  and  O_23 
REMARK    4  A    between atoms: C_17  and  O_21 
REMARK    5  A    between atoms: C_18  and  O_20 
REMARK    6  A    between atoms: O_21  and  C_22 
REMARK    7  A    between atoms: O_23  and  C_24 
ROOT
ATOM      1  N   LIG d   1      10.026   3.931  -4.837  0.00  0.00    -0.298 N 
ATOM      2  C   LIG d   1      10.945   3.152  -4.006  0.00  0.00     0.003 C 
ATOM      3  C   LIG d   1      10.801   3.525  -2.541  0.00  0.00    -0.014 C 
ATOM      4  C   LIG d   1      10.574   4.998  -2.346  0.00  0.00    -0.037 A 
ATOM      5  C   LIG d   1      10.577   5.492  -1.046  0.00  0.00    -0.013 A 
ATOM      6  C   LIG d   1      10.397   6.840  -0.799  0.00  0.00     0.159 A 
ATOM      7  C   LIG d   1      10.204   7.717  -1.860  0.00  0.00     0.169 A 
ATOM      8  C   LIG d   1      10.179   7.222  -3.162  0.00  0.00     0.033 A 
ATOM      9  C   LIG d   1      10.375   5.859  -3.404  0.00  0.00    -0.015 A 
ATOM     10  C   LIG d   1      10.389   5.357  -4.823  0.00  0.00     0.040 C 
ATOM     11  H   LIG d   1      11.388   5.478  -5.240  0.00  0.00     0.052 H 
ATOM     12  C   LIG d   1       9.391   6.127  -5.686  0.00  0.00    -0.007 C 
ATOM     13  C   LIG d   1       9.600   7.610  -5.543  0.00  0.00    -0.034 A 
ATOM     14  C   LIG d   1       9.968   8.138  -4.308  0.00  0.00    -0.007 A 
ATOM     15  C   LIG d   1      10.138   9.512  -4.157  0.00  0.00    -0.008 A 
ATOM     16  C   LIG d   1       9.954  10.349  -5.244  0.00  0.00     0.162 A 
ATOM     17  C   LIG d   1       9.601   9.815  -6.481  0.00  0.00     0.159 A 
ATOM     18  C   LIG d   1       9.424   8.447  -6.626  0.00  0.00    -0.013 A 
ATOM     19  H   LIG d   1      10.727   2.091  -4.129  0.00  0.00     0.043 H 
ATOM     20  H   LIG d   1      11.969   3.346  -4.327  0.00  0.00     0.043 H 
ATOM     21  H   LIG d   1       9.957   2.979  -2.119  0.00  0.00     0.033 H 
ATOM     22  H   LIG d   1      11.708   3.235  -2.012  0.00  0.00     0.033 H 
ATOM     23  H   LIG d   1      10.724   4.813  -0.219  0.00  0.00     0.066 H 
ATOM     24  H   LIG d   1       9.525   5.844  -6.729  0.00  0.00     0.033 H 
ATOM     25  H   LIG d   1       8.377   5.875  -5.373  0.00  0.00     0.033 H 
ATOM     26  H   LIG d   1      10.414   9.923  -3.197  0.00  0.00     0.066 H 
ATOM     27  H   LIG d   1       9.151   8.037  -7.587  0.00  0.00     0.066 H 
ENDROOT
BRANCH   7  28
ATOM     28  O   LIG d   1      10.040   9.047  -1.629  0.00  0.00    -0.491 OA
BRANCH  28  29
ATOM     29  C   LIG d   1       8.834   9.447  -0.975  0.00  0.00     0.079 C 
ATOM     30  H   LIG d   1       8.585   8.725  -0.198  0.00  0.00     0.066 H 
ATOM     31  H   LIG d   1       8.972  10.431  -0.526  0.00  0.00     0.066 H 
ATOM     32  H   LIG d   1       8.023   9.491  -1.702  0.00  0.00     0.066 H 
ENDBRANCH  28  29
ENDBRANCH   7  28
BRANCH   6  33
ATOM     33  O   LIG d   1      10.409   7.307   0.479  0.00  0.00    -0.503 OA
ATOM     34  H   LIG d   1      10.806   6.699   1.116  0.00  0.00     0.292 HD
ENDBRANCH   6  33
BRANCH  16  35
ATOM     35  O   LIG d   1      10.117  11.691  -5.104  0.00  0.00    -0.491 OA
BRANCH  35  36
ATOM     36  C   LIG d   1       9.291  12.349  -4.141  0.00  0.00     0.079 C 
ATOM     37  H   LIG d   1       8.251  12.060  -4.297  0.00  0.00     0.066 H 
ATOM     38  H   LIG d   1       9.602  12.059  -3.137  0.00  0.00     0.066 H 
ATOM     39  H   LIG d   1       9.389  13.428  -4.255  0.00  0.00     0.066 H 
ENDBRANCH  35  36
ENDBRANCH  16  35
BRANCH   1  40
ATOM     40  C   LIG d   1       9.984   3.411  -6.209  0.00  0.00    -0.012 C 
ATOM     41  H   LIG d   1      10.839   2.755  -6.375  0.00  0.00     0.039 H 
ATOM     42  H   LIG d   1       9.062   2.848  -6.356  0.00  0.00     0.039 H 
ATOM     43  H   LIG d   1      10.021   4.241  -6.914  0.00  0.00     0.039 H 
ENDBRANCH   1  40
BRANCH  17  44
ATOM     44  O   LIG d   1       9.426  10.637  -7.550  0.00  0.00    -0.503 OA
ATOM     45  H   LIG d   1       8.523  10.647  -7.895  0.00  0.00     0.292 HD
ENDBRANCH  17  44
TORSDOF 7
ENDMDL
MODEL 6
REMARK VINA RESULT:      -5.3      2.418      4.205
REMARK  7 active torsions:
REMARK  status: ('A' for Active; 'I' for Inactive)
REMARK    1  A    between atoms: C_1  and  N_2 
REMARK    2  A    between atoms: C_7  and  O_25 
REMARK    3  A    between atoms: C_8  and  O_23 
REMARK    4  A    between atoms: C_17  and  O_21 
REMARK    5  A    between atoms: C_18  and  O_20 
REMARK    6  A    between atoms: O_21  and  C_22 
REMARK    7  A    between atoms: O_23  and  C_24 
ROOT
ATOM      1  N   LIG d   1      11.325   9.934  -0.934  0.00  0.00    -0.298 N 
ATOM      2  C   LIG d   1      10.722   9.409   0.292  0.00  0.00     0.003 C 
ATOM      3  C   LIG d   1      10.727   7.889   0.290  0.00  0.00    -0.014 C 
ATOM      4  C   LIG d   1      10.441   7.318  -1.071  0.00  0.00    -0.037 A 
ATOM      5  C   LIG d   1      10.267   5.943  -1.177  0.00  0.00    -0.013 A 
ATOM      6  C   LIG d   1       9.978   5.356  -2.395  0.00  0.00     0.159 A 
ATOM      7  C   LIG d   1       9.865   6.147  -3.533  0.00  0.00     0.169 A 
ATOM      8  C   LIG d   1      10.060   7.523  -3.433  0.00  0.00     0.033 A 
ATOM      9  C   LIG d   1      10.339   8.109  -2.195  0.00  0.00    -0.015 A 
ATOM     10  C   LIG d   1      10.500   9.604  -2.106  0.00  0.00     0.040 C 
ATOM     11  H   LIG d   1       9.520  10.068  -1.999  0.00  0.00     0.052 H 
ATOM     12  C   LIG d   1      11.180  10.155  -3.358  0.00  0.00    -0.007 C 
ATOM     13  C   LIG d   1      10.480   9.672  -4.599  0.00  0.00    -0.034 A 
ATOM     14  C   LIG d   1       9.951   8.384  -4.634  0.00  0.00    -0.007 A 
ATOM     15  C   LIG d   1       9.324   7.917  -5.787  0.00  0.00    -0.008 A 
ATOM     16  C   LIG d   1       9.217   8.743  -6.892  0.00  0.00     0.162 A 
ATOM     17  C   LIG d   1       9.734  10.035  -6.847  0.00  0.00     0.159 A 
ATOM     18  C   LIG d   1      10.364  10.495  -5.701  0.00  0.00    -0.013 A 
ATOM     19  H   LIG d   1      11.288   9.768   1.152  0.00  0.00     0.043 H 
ATOM     20  H   LIG d   1       9.694   9.764   0.366  0.00  0.00     0.043 H 
ATOM     21  H   LIG d   1      11.705   7.539   0.621  0.00  0.00     0.033 H 
ATOM     22  H   LIG d   1       9.971   7.533   0.989  0.00  0.00     0.033 H 
ATOM     23  H   LIG d   1      10.357   5.325  -0.296  0.00  0.00     0.066 H 
ATOM     24  H   LIG d   1      11.153  11.244  -3.331  0.00  0.00     0.033 H 
ATOM     25  H   LIG d   1      12.218   9.823  -3.378  0.00  0.00     0.033 H 
ATOM     26  H   LIG d   1       8.923   6.914  -5.818  0.00  0.00     0.066 H 
ATOM     27  H   LIG d   1      10.763  11.498  -5.669  0.00  0.00     0.066 H 
ENDROOT
BRANCH   7  28
ATOM     28  O   LIG d   1       9.568   5.582  -4.733  0.00  0.00    -0.491 OA
BRANCH  28  29
ATOM     29  C   LIG d   1      10.602   4.828  -5.369  0.00  0.00     0.079 C 
ATOM     30  H   LIG d   1      10.176   3.927  -5.809  0.00  0.00     0.066 H 
ATOM     31  H   LIG d   1      11.065   5.431  -6.149  0.00  0.00     0.066 H 
ATOM     32  H   LIG d   1      11.355   4.550  -4.631  0.00  0.00     0.066 H 
ENDBRANCH  28  29
ENDBRANCH   7  28
BRANCH   6  33
ATOM     33  O   LIG d   1       9.805   4.010  -2.480  0.00  0.00    -0.503 OA
ATOM     34  H   LIG d   1       9.955   3.540  -1.649  0.00  0.00     0.292 HD
ENDBRANCH   6  33
BRANCH  16  35
ATOM     35  O   LIG d   1       8.608   8.293  -8.021  0.00  0.00    -0.491 OA
BRANCH  35  36
ATOM     36  C   LIG d   1       9.338   7.367  -8.828  0.00  0.00     0.079 C 
ATOM     37  H   LIG d   1      10.283   7.819  -9.134  0.00  0.00     0.066 H 
ATOM     38  H   LIG d   1       9.539   6.462  -8.253  0.00  0.00     0.066 H 
ATOM     39  H   LIG d   1       8.752   7.115  -9.712  0.00  0.00     0.066 H 
ENDBRANCH  35  36
ENDBRANCH  16  35
BRANCH   1  40
ATOM     40  C   LIG d   1      11.545  11.383  -0.835  0.00  0.00    -0.012 C 
ATOM     41  H   LIG d   1      12.195  11.593   0.014  0.00  0.00     0.039 H 
ATOM     42  H   LIG d   1      12.016  11.742  -1.750  0.00  0.00     0.039 H 
ATOM     43  H   LIG d   1      10.589  11.886  -0.695  0.00  0.00     0.039 H 
ENDBRANCH   1  40
BRANCH  17  44
ATOM     44  O   LIG d   1       9.622  10.849  -7.931  0.00  0.00    -0.503 OA
ATOM     45  H   LIG d   1      10.162  10.575  -8.685  0.00  0.00     0.292 HD
ENDBRANCH  17  44
TORSDOF 7
ENDMDL
MODEL 7
REMARK VINA RESULT:      -5.2      3.865      7.775
REMARK  7 active torsions:
REMARK  status: ('A' for Active; 'I' for Inactive)
REMARK    1  A    between atoms: C_1  and  N_2 
REMARK    2  A    between atoms: C_7  and  O_25 
REMARK    3  A    between atoms: C_8  and  O_23 
REMARK    4  A    between atoms: C_17  and  O_21 
REMARK    5  A    between atoms: C_18  and  O_20 
REMARK    6  A    between atoms: O_21  and  C_22 
REMARK    7  A    between atoms: O_23  and  C_24 
ROOT
ATOM      1  N   LIG d   1       9.277   8.733  -6.324  0.00  0.00    -0.298 N 
ATOM      2  C   LIG d   1       9.738   9.242  -7.617  0.00  0.00     0.003 C 
ATOM      3  C   LIG d   1       9.309   8.322  -8.746  0.00  0.00    -0.014 C 
ATOM      4  C   LIG d   1       9.391   6.871  -8.364  0.00  0.00    -0.037 A 
ATOM      5  C   LIG d   1       9.170   5.922  -9.356  0.00  0.00    -0.013 A 
ATOM      6  C   LIG d   1       9.254   4.571  -9.077  0.00  0.00     0.159 A 
ATOM      7  C   LIG d   1       9.557   4.150  -7.787  0.00  0.00     0.169 A 
ATOM      8  C   LIG d   1       9.757   5.098  -6.786  0.00  0.00     0.033 A 
ATOM      9  C   LIG d   1       9.683   6.463  -7.081  0.00  0.00    -0.015 A 
ATOM     10  C   LIG d   1       9.949   7.468  -5.991  0.00  0.00     0.040 C 
ATOM     11  H   LIG d   1      11.022   7.639  -5.911  0.00  0.00     0.052 H 
ATOM     12  C   LIG d   1       9.421   6.969  -4.647  0.00  0.00    -0.007 C 
ATOM     13  C   LIG d   1       9.928   5.582  -4.358  0.00  0.00    -0.034 A 
ATOM     14  C   LIG d   1      10.074   4.671  -5.403  0.00  0.00    -0.007 A 
ATOM     15  C   LIG d   1      10.517   3.377  -5.144  0.00  0.00    -0.008 A 
ATOM     16  C   LIG d   1      10.824   3.004  -3.847  0.00  0.00     0.162 A 
ATOM     17  C   LIG d   1      10.692   3.922  -2.809  0.00  0.00     0.159 A 
ATOM     18  C   LIG d   1      10.243   5.208  -3.068  0.00  0.00    -0.013 A 
ATOM     19  H   LIG d   1       9.317  10.234  -7.782  0.00  0.00     0.043 H 
ATOM     20  H   LIG d   1      10.827   9.314  -7.606  0.00  0.00     0.043 H 
ATOM     21  H   LIG d   1       8.280   8.557  -9.021  0.00  0.00     0.033 H 
ATOM     22  H   LIG d   1       9.951   8.497  -9.609  0.00  0.00     0.033 H 
ATOM     23  H   LIG d   1       8.932   6.245 -10.359  0.00  0.00     0.066 H 
ATOM     24  H   LIG d   1       9.752   7.644  -3.859  0.00  0.00     0.033 H 
ATOM     25  H   LIG d   1       8.331   6.956  -4.673  0.00  0.00     0.033 H 
ATOM     26  H   LIG d   1      10.621   2.667  -5.952  0.00  0.00     0.066 H 
ATOM     27  H   LIG d   1      10.142   5.918  -2.261  0.00  0.00     0.066 H 
ENDROOT
BRANCH   7  28
ATOM     28  O   LIG d   1       9.655   2.824  -7.504  0.00  0.00    -0.491 OA
BRANCH  28  29
ATOM     29  C   LIG d   1       8.437   2.076  -7.468  0.00  0.00     0.079 C 
ATOM     30  H   LIG d   1       7.999   2.143  -6.473  0.00  0.00     0.066 H 
ATOM     31  H   LIG d   1       7.739   2.482  -8.201  0.00  0.00     0.066 H 
ATOM     32  H   LIG d   1       8.644   1.033  -7.704  0.00  0.00     0.066 H 
ENDBRANCH  28  29
ENDBRANCH   7  28
BRANCH   6  33
ATOM     33  O   LIG d   1       9.041   3.656 -10.061  0.00  0.00    -0.503 OA
ATOM     34  H   LIG d   1       9.272   2.751  -9.813  0.00  0.00     0.292 HD
ENDBRANCH   6  33
BRANCH  16  35
ATOM     35  O   LIG d   1      11.256   1.741  -3.588  0.00  0.00    -0.491 OA
BRANCH  35  36
ATOM     36  C   LIG d   1      12.620   1.445  -3.891  0.00  0.00     0.079 C 
ATOM     37  H   LIG d   1      12.687   0.449  -4.330  0.00  0.00     0.066 H 
ATOM     38  H   LIG d   1      13.003   2.180  -4.599  0.00  0.00     0.066 H 
ATOM     39  H   LIG d   1      13.212   1.480  -2.976  0.00  0.00     0.066 H 
ENDBRANCH  35  36
ENDBRANCH  16  35
BRANCH   1  40
ATOM     40  C   LIG d   1       9.474   9.730  -5.263  0.00  0.00    -0.012 C 
ATOM     41  H   LIG d   1      10.090  10.545  -5.642  0.00  0.00     0.039 H 
ATOM     42  H   LIG d   1       8.507  10.121  -4.949  0.00  0.00     0.039 H 
ATOM     43  H   LIG d   1       9.972   9.262  -4.414  0.00  0.00     0.039 H 
ENDBRANCH   1  40
BRANCH  17  44
ATOM     44  O   LIG d   1      11.001   3.556  -1.537  0.00  0.00    -0.503 OA
ATOM     45  H   LIG d   1      10.933   4.276  -0.893  0.00  0.00     0.292 HD
ENDBRANCH  17  44
TORSDOF 7
ENDMDL
MODEL 8
REMARK VINA RESULT:      -5.2      3.398      6.004
REMARK  7 active torsions:
REMARK  status: ('A' for Active; 'I' for Inactive)
REMARK    1  A    between atoms: C_1  and  N_2 
REMARK    2  A    between atoms: C_7  and  O_25 
REMARK    3  A    between atoms: C_8  and  O_23 
REMARK    4  A    between atoms: C_17  and  O_21 
REMARK    5  A    between atoms: C_18  and  O_20 
REMARK    6  A    between atoms: O_21  and  C_22 
REMARK    7  A    between atoms: O_23  and  C_24 
ROOT
ATOM      1  N   LIG d   1      10.164  10.534  -4.628  0.00  0.00    -0.298 N 
ATOM      2  C   LIG d   1       9.299  11.712  -4.549  0.00  0.00     0.003 C 
ATOM      3  C   LIG d   1       9.687  12.592  -3.374  0.00  0.00    -0.014 C 
ATOM      4  C   LIG d   1      10.088  11.791  -2.167  0.00  0.00    -0.037 A 
ATOM      5  C   LIG d   1      10.320  12.474  -0.978  0.00  0.00    -0.013 A 
ATOM      6  C   LIG d   1      10.669  11.795   0.174  0.00  0.00     0.159 A 
ATOM      7  C   LIG d   1      10.796  10.411   0.148  0.00  0.00     0.169 A 
ATOM      8  C   LIG d   1      10.584   9.726  -1.047  0.00  0.00     0.033 A 
ATOM      9  C   LIG d   1      10.220  10.419  -2.204  0.00  0.00    -0.015 A 
ATOM     10  C   LIG d   1       9.952   9.650  -3.471  0.00  0.00     0.040 C 
ATOM     11  H   LIG d   1       8.921   9.299  -3.470  0.00  0.00     0.052 H 
ATOM     12  C   LIG d   1      10.889   8.450  -3.590  0.00  0.00    -0.007 C 
ATOM     13  C   LIG d   1      10.854   7.622  -2.335  0.00  0.00    -0.034 A 
ATOM     14  C   LIG d   1      10.721   8.251  -1.098  0.00  0.00    -0.007 A 
ATOM     15  C   LIG d   1      10.714   7.496   0.072  0.00  0.00    -0.008 A 
ATOM     16  C   LIG d   1      10.824   6.119   0.000  0.00  0.00     0.162 A 
ATOM     17  C   LIG d   1      10.942   5.493  -1.238  0.00  0.00     0.159 A 
ATOM     18  C   LIG d   1      10.957   6.247  -2.402  0.00  0.00    -0.013 A 
ATOM     19  H   LIG d   1       9.389  12.285  -5.472  0.00  0.00     0.043 H 
ATOM     20  H   LIG d   1       8.264  11.388  -4.429  0.00  0.00     0.043 H 
ATOM     21  H   LIG d   1      10.523  13.227  -3.670  0.00  0.00     0.033 H 
ATOM     22  H   LIG d   1       8.841  13.226  -3.112  0.00  0.00     0.033 H 
ATOM     23  H   LIG d   1      10.225  13.550  -0.955  0.00  0.00     0.066 H 
ATOM     24  H   LIG d   1      10.580   7.836  -4.435  0.00  0.00     0.033 H 
ATOM     25  H   LIG d   1      11.906   8.805  -3.759  0.00  0.00     0.033 H 
ATOM     26  H   LIG d   1      10.621   7.984   1.031  0.00  0.00     0.066 H 
ATOM     27  H   LIG d   1      11.046   5.759  -3.360  0.00  0.00     0.066 H 
ENDROOT
BRANCH   7  28
ATOM     28  O   LIG d   1      11.125   9.731   1.279  0.00  0.00    -0.491 OA
BRANCH  28  29
ATOM     29  C   LIG d   1      12.483   9.816   1.714  0.00  0.00     0.079 C 
ATOM     30  H   LIG d   1      12.765  10.863   1.826  0.00  0.00     0.066 H 
ATOM     31  H   LIG d   1      12.591   9.307   2.672  0.00  0.00     0.066 H 
ATOM     32  H   LIG d   1      13.132   9.343   0.977  0.00  0.00     0.066 H 
ENDBRANCH  28  29
ENDBRANCH   7  28
BRANCH   6  33
ATOM     33  O   LIG d   1      10.887  12.478   1.330  0.00  0.00    -0.503 OA
ATOM     34  H   LIG d   1      10.764  11.949   2.129  0.00  0.00     0.292 HD
ENDBRANCH   6  33
BRANCH  16  35
ATOM     35  O   LIG d   1      10.819   5.376   1.140  0.00  0.00    -0.491 OA
BRANCH  35  36
ATOM     36  C   LIG d   1      10.971   6.080   2.374  0.00  0.00     0.079 C 
ATOM     37  H   LIG d   1      11.991   6.460   2.452  0.00  0.00     0.066 H 
ATOM     38  H   LIG d   1      10.269   6.914   2.406  0.00  0.00     0.066 H 
ATOM     39  H   LIG d   1      10.771   5.404   3.205  0.00  0.00     0.066 H 
ENDBRANCH  35  36
ENDBRANCH  16  35
BRANCH   1  40
ATOM     40  C   LIG d   1       9.957   9.810  -5.889  0.00  0.00    -0.012 C 
ATOM     41  H   LIG d   1      10.323  10.415  -6.718  0.00  0.00     0.039 H 
ATOM     42  H   LIG d   1      10.501   8.866  -5.860  0.00  0.00     0.039 H 
ATOM     43  H   LIG d   1       8.893   9.614  -6.025  0.00  0.00     0.039 H 
ENDBRANCH   1  40
BRANCH  17  44
ATOM     44  O   LIG d   1      11.044   4.139  -1.307  0.00  0.00    -0.503 OA
ATOM     45  H   LIG d   1      11.885   3.826  -1.668  0.00  0.00     0.292 HD
ENDBRANCH  17  44
TORSDOF 7
ENDMDL
MODEL 9
REMARK VINA RESULT:      -5.1      2.763      6.499
REMARK  7 active torsions:
REMARK  status: ('A' for Active; 'I' for Inactive)
REMARK    1  A    between atoms: C_1  and  N_2 
REMARK    2  A    between atoms: C_7  and  O_25 
REMARK    3  A    between atoms: C_8  and  O_23 
REMARK    4  A    between atoms: C_17  and  O_21 
REMARK    5  A    between atoms: C_18  and  O_20 
REMARK    6  A    between atoms: O_21  and  C_22 
REMARK    7  A    between atoms: O_23  and  C_24 
ROOT
ATOM      1  N   LIG d   1       9.761  11.663  -3.410  0.00  0.00    -0.298 N 
ATOM      2  C   LIG d   1      10.363  12.328  -4.567  0.00  0.00     0.003 C 
ATOM      3  C   LIG d   1       9.907  11.679  -5.862  0.00  0.00    -0.014 C 
ATOM      4  C   LIG d   1       9.797  10.184  -5.745  0.00  0.00    -0.037 A 
ATOM      5  C   LIG d   1       9.536   9.457  -6.901  0.00  0.00    -0.013 A 
ATOM      6  C   LIG d   1       9.446   8.078  -6.867  0.00  0.00     0.159 A 
ATOM      7  C   LIG d   1       9.612   7.405  -5.662  0.00  0.00     0.169 A 
ATOM      8  C   LIG d   1       9.852   8.133  -4.498  0.00  0.00     0.033 A 
ATOM      9  C   LIG d   1       9.954   9.526  -4.545  0.00  0.00    -0.015 A 
ATOM     10  C   LIG d   1      10.260  10.285  -3.280  0.00  0.00     0.040 C 
ATOM     11  H   LIG d   1      11.338  10.305  -3.122  0.00  0.00     0.052 H 
ATOM     12  C   LIG d   1       9.590   9.630  -2.074  0.00  0.00    -0.007 C 
ATOM     13  C   LIG d   1       9.915   8.162  -2.018  0.00  0.00    -0.034 A 
ATOM     14  C   LIG d   1      10.025   7.436  -3.202  0.00  0.00    -0.007 A 
ATOM     15  C   LIG d   1      10.299   6.071  -3.161  0.00  0.00    -0.008 A 
ATOM     16  C   LIG d   1      10.475   5.443  -1.940  0.00  0.00     0.162 A 
ATOM     17  C   LIG d   1      10.379   6.176  -0.761  0.00  0.00     0.159 A 
ATOM     18  C   LIG d   1      10.098   7.534  -0.804  0.00  0.00    -0.013 A 
ATOM     19  H   LIG d   1      10.069  13.378  -4.569  0.00  0.00     0.043 H 
ATOM     20  H   LIG d   1      11.449  12.261  -4.494  0.00  0.00     0.043 H 
ATOM     21  H   LIG d   1       8.932  12.084  -6.136  0.00  0.00     0.033 H 
ATOM     22  H   LIG d   1      10.621  11.920  -6.649  0.00  0.00     0.033 H 
ATOM     23  H   LIG d   1       9.404   9.977  -7.839  0.00  0.00     0.066 H 
ATOM     24  H   LIG d   1       9.943  10.111  -1.163  0.00  0.00     0.033 H 
ATOM     25  H   LIG d   1       8.510   9.758  -2.151  0.00  0.00     0.033 H 
ATOM     26  H   LIG d   1      10.374   5.506  -4.079  0.00  0.00     0.066 H 
ATOM     27  H   LIG d   1      10.026   8.099   0.113  0.00  0.00     0.066 H 
ENDROOT
BRANCH   7  28
ATOM     28  O   LIG d   1       9.538   6.048  -5.619  0.00  0.00    -0.491 OA
BRANCH  28  29
ATOM     29  C   LIG d   1      10.554   5.322  -6.314  0.00  0.00     0.079 C 
ATOM     30  H   LIG d   1      10.836   4.444  -5.733  0.00  0.00     0.066 H 
ATOM     31  H   LIG d   1      10.176   5.008  -7.287  0.00  0.00     0.066 H 
ATOM     32  H   LIG d   1      11.427   5.960  -6.454  0.00  0.00     0.066 H 
ENDBRANCH  28  29
ENDBRANCH   7  28
BRANCH   6  33
ATOM     33  O   LIG d   1       9.196   7.382  -8.009  0.00  0.00    -0.503 OA
ATOM     34  H   LIG d   1       9.828   7.552  -8.719  0.00  0.00     0.292 HD
ENDBRANCH   6  33
BRANCH  16  35
ATOM     35  O   LIG d   1      10.741   4.111  -1.894  0.00  0.00    -0.491 OA
BRANCH  35  36
ATOM     36  C   LIG d   1      10.305   3.322  -3.003  0.00  0.00     0.079 C 
ATOM     37  H   LIG d   1      11.170   2.864  -3.485  0.00  0.00     0.066 H 
ATOM     38  H   LIG d   1       9.629   2.542  -2.651  0.00  0.00     0.066 H 
ATOM     39  H   LIG d   1       9.785   3.958  -3.719  0.00  0.00     0.066 H 
ENDBRANCH  35  36
ENDBRANCH  16  35
BRANCH   1  40
ATOM     40  C   LIG d   1      10.000  12.428  -2.179  0.00  0.00    -0.012 C 
ATOM     41  H   LIG d   1       9.362  12.042  -1.383  0.00  0.00     0.039 H 
ATOM     42  H   LIG d   1      11.045  12.330  -1.887  0.00  0.00     0.039 H 
ATOM     43  H   LIG d   1       9.767  13.479  -2.354  0.00  0.00     0.039 H 
ENDBRANCH   1  40
BRANCH  17  44
ATOM     44  O   LIG d   1      10.559   5.560   0.438  0.00  0.00    -0.503 OA
ATOM     45  H   LIG d   1      11.487   5.437   0.682  0.00  0.00     0.292 HD
ENDBRANCH  17  44
TORSDOF 7
ENDMDL
MODEL 10
REMARK VINA RESULT:      -5.1      2.877      5.797
REMARK  7 active torsions:
REMARK  status: ('A' for Active; 'I' for Inactive)
REMARK    1  A    between atoms: C_1  and  N_2 
REMARK    2  A    between atoms: C_7  and  O_25 
REMARK    3  A    between atoms: C_8  and  O_23 
REMARK    4  A    between atoms: C_17  and  O_21 
REMARK    5  A    between atoms: C_18  and  O_20 
REMARK    6  A    between atoms: O_21  and  C_22 
REMARK    7  A    between atoms: O_23  and  C_24 
ROOT
ATOM      1  N   LIG d   1       9.883   9.995  -1.411  0.00  0.00    -0.298 N 
ATOM      2  C   LIG d   1      10.431  11.236  -1.960  0.00  0.00     0.003 C 
ATOM      3  C   LIG d   1       9.918  11.477  -3.370  0.00  0.00    -0.014 C 
ATOM      4  C   LIG d   1       9.814  10.206  -4.166  0.00  0.00    -0.037 A 
ATOM      5  C   LIG d   1       9.502  10.307  -5.517  0.00  0.00    -0.013 A 
ATOM      6  C   LIG d   1       9.415   9.179  -6.311  0.00  0.00     0.159 A 
ATOM      7  C   LIG d   1       9.636   7.924  -5.755  0.00  0.00     0.169 A 
ATOM      8  C   LIG d   1       9.928   7.819  -4.397  0.00  0.00     0.033 A 
ATOM      9  C   LIG d   1      10.027   8.966  -3.604  0.00  0.00    -0.015 A 
ATOM     10  C   LIG d   1      10.389   8.827  -2.149  0.00  0.00     0.040 C 
ATOM     11  H   LIG d   1      11.473   8.779  -2.049  0.00  0.00     0.052 H 
ATOM     12  C   LIG d   1       9.775   7.563  -1.551  0.00  0.00    -0.007 C 
ATOM     13  C   LIG d   1      10.103   6.362  -2.396  0.00  0.00    -0.034 A 
ATOM     14  C   LIG d   1      10.160   6.490  -3.782  0.00  0.00    -0.007 A 
ATOM     15  C   LIG d   1      10.437   5.380  -4.576  0.00  0.00    -0.008 A 
ATOM     16  C   LIG d   1      10.669   4.153  -3.980  0.00  0.00     0.162 A 
ATOM     17  C   LIG d   1      10.625   4.032  -2.594  0.00  0.00     0.159 A 
ATOM     18  C   LIG d   1      10.342   5.138  -1.806  0.00  0.00    -0.013 A 
ATOM     19  H   LIG d   1      10.137  12.070  -1.324  0.00  0.00     0.043 H 
ATOM     20  H   LIG d   1      11.519  11.169  -1.982  0.00  0.00     0.043 H 
ATOM     21  H   LIG d   1       8.931  11.938  -3.312  0.00  0.00     0.033 H 
ATOM     22  H   LIG d   1      10.596  12.160  -3.881  0.00  0.00     0.033 H 
ATOM     23  H   LIG d   1       9.327  11.280  -5.952  0.00  0.00     0.066 H 
ATOM     24  H   LIG d   1      10.168   7.414  -0.546  0.00  0.00     0.033 H 
ATOM     25  H   LIG d   1       8.692   7.681  -1.498  0.00  0.00     0.033 H 
ATOM     26  H   LIG d   1      10.472   5.477  -5.651  0.00  0.00     0.066 H 
ATOM     27  H   LIG d   1      10.310   5.041  -0.732  0.00  0.00     0.066 H 
ENDROOT
BRANCH   7  28
ATOM     28  O   LIG d   1       9.566   6.810  -6.530  0.00  0.00    -0.491 OA
BRANCH  28  29
ATOM     29  C   LIG d   1      10.572   6.653  -7.533  0.00  0.00     0.079 C 
ATOM     30  H   LIG d   1      10.098   6.524  -8.506  0.00  0.00     0.066 H 
ATOM     31  H   LIG d   1      11.208   7.538  -7.552  0.00  0.00     0.066 H 
ATOM     32  H   LIG d   1      11.178   5.776  -7.306  0.00  0.00     0.066 H 
ENDBRANCH  28  29
ENDBRANCH   7  28
BRANCH   6  33
ATOM     33  O   LIG d   1       9.114   9.297  -7.633  0.00  0.00    -0.503 OA
ATOM     34  H   LIG d   1       9.570   8.658  -8.198  0.00  0.00     0.292 HD
ENDBRANCH   6  33
BRANCH  16  35
ATOM     35  O   LIG d   1      10.938   3.064  -4.750  0.00  0.00    -0.491 OA
BRANCH  35  36
ATOM     36  C   LIG d   1      10.242   2.960  -5.993  0.00  0.00     0.079 C 
ATOM     37  H   LIG d   1      10.952   2.725  -6.788  0.00  0.00     0.066 H 
ATOM     38  H   LIG d   1       9.496   2.168  -5.928  0.00  0.00     0.066 H 
ATOM     39  H   LIG d   1       9.750   3.907  -6.215  0.00  0.00     0.066 H 
ENDBRANCH  35  36
ENDBRANCH  16  35
BRANCH   1  40
ATOM     40  C   LIG d   1      10.176   9.879   0.024  0.00  0.00    -0.012 C 
ATOM     41  H   LIG d   1      10.651   8.918   0.220  0.00  0.00     0.039 H 
ATOM     42  H   LIG d   1      10.848  10.683   0.324  0.00  0.00     0.039 H 
ATOM     43  H   LIG d   1       9.248   9.948   0.591  0.00  0.00     0.039 H 
ENDBRANCH   1  40
BRANCH  17  44
ATOM     44  O   LIG d   1      10.860   2.827  -2.010  0.00  0.00    -0.503 OA
ATOM     45  H   LIG d   1      11.373   2.880  -1.192  0.00  0.00     0.292 HD
ENDBRANCH  17  44
TORSDOF 7
ENDMDL
