MODEL 1
REMARK VINA RESULT:      -6.2      0.000      0.000
REMARK  4 active torsions:
REMARK  status: ('A' for Active; 'I' for Inactive)
REMARK    1  A    between atoms: C_1  and  C_2 
REMARK    2  A    between atoms: C_13  and  O_15 
REMARK    3  A    between atoms: C_19  and  C_26 
REMARK    4  A    between atoms: C_22  and  O_25 
ROOT
ATOM      1  C   LIG d   1       6.382  -5.287  -6.329  0.00  0.00    -0.003 C 
ATOM      2  C   LIG d   1       5.028  -5.487  -5.673  0.00  0.00    -0.045 C 
ATOM      3  C   LIG d   1       4.527  -4.102  -5.236  0.00  0.00    -0.049 C 
ATOM      4  C   LIG d   1       5.508  -3.419  -4.287  0.00  0.00    -0.029 C 
ATOM      5  H   LIG d   1       5.558  -4.001  -3.367  0.00  0.00     0.031 H 
ATOM      6  C   LIG d   1       6.919  -3.340  -4.887  0.00  0.00    -0.031 C 
ATOM      7  H   LIG d   1       6.914  -2.712  -5.778  0.00  0.00     0.031 H 
ATOM      8  C   LIG d   1       7.342  -4.768  -5.226  0.00  0.00    -0.030 C 
ATOM      9  H   LIG d   1       7.273  -5.409  -4.348  0.00  0.00     0.031 H 
ATOM     10  C   LIG d   1       8.721  -4.915  -5.860  0.00  0.00    -0.047 C 
ATOM     11  C   LIG d   1       8.594  -6.108  -6.840  0.00  0.00    -0.026 C 
ATOM     12  C   LIG d   1       7.108  -6.554  -6.799  0.00  0.00     0.061 C 
ATOM     13  H   LIG d   1       6.968  -7.365  -6.085  0.00  0.00     0.060 H 
ATOM     14  C   LIG d   1       7.855  -2.748  -3.828  0.00  0.00    -0.031 C 
ATOM     15  C   LIG d   1       7.320  -1.419  -3.383  0.00  0.00    -0.084 C 
ATOM     16  C   LIG d   1       6.058  -1.108  -3.437  0.00  0.00    -0.065 C 
ATOM     17  C   LIG d   1       5.008  -2.025  -3.945  0.00  0.00    -0.008 C 
ATOM     18  C   LIG d   1       3.869  -2.112  -2.926  0.00  0.00    -0.041 C 
ATOM     19  C   LIG d   1       3.388  -0.700  -2.582  0.00  0.00    -0.026 C 
ATOM     20  C   LIG d   1       4.523   0.084  -1.923  0.00  0.00     0.059 C 
ATOM     21  H   LIG d   1       4.879  -0.457  -1.046  0.00  0.00     0.060 H 
ATOM     22  C   LIG d   1       5.633   0.266  -2.950  0.00  0.00    -0.005 C 
ATOM     23  H   LIG d   1       4.331  -5.926  -6.388  0.00  0.00     0.027 H 
ATOM     24  H   LIG d   1       5.129  -6.138  -4.804  0.00  0.00     0.027 H 
ATOM     25  H   LIG d   1       4.393  -3.477  -6.119  0.00  0.00     0.027 H 
ATOM     26  H   LIG d   1       3.566  -4.215  -4.732  0.00  0.00     0.027 H 
ATOM     27  H   LIG d   1       8.987  -4.008  -6.401  0.00  0.00     0.027 H 
ATOM     28  H   LIG d   1       9.468  -5.132  -5.096  0.00  0.00     0.027 H 
ATOM     29  H   LIG d   1       8.863  -5.793  -7.849  0.00  0.00     0.029 H 
ATOM     30  H   LIG d   1       9.239  -6.926  -6.520  0.00  0.00     0.029 H 
ATOM     31  H   LIG d   1       7.912  -3.422  -2.974  0.00  0.00     0.031 H 
ATOM     32  H   LIG d   1       8.850  -2.615  -4.255  0.00  0.00     0.031 H 
ATOM     33  H   LIG d   1       8.014  -0.685  -3.001  0.00  0.00     0.057 H 
ATOM     34  H   LIG d   1       3.043  -2.684  -3.351  0.00  0.00     0.027 H 
ATOM     35  H   LIG d   1       4.226  -2.604  -2.022  0.00  0.00     0.027 H 
ATOM     36  H   LIG d   1       3.076  -0.191  -3.495  0.00  0.00     0.029 H 
ATOM     37  H   LIG d   1       2.543  -0.762  -1.896  0.00  0.00     0.029 H 
ATOM     38  H   LIG d   1       6.475   0.760  -2.464  0.00  0.00     0.034 H 
ATOM     39  H   LIG d   1       5.293   0.866  -3.794  0.00  0.00     0.034 H 
ENDROOT
BRANCH   1  40
ATOM     40  C   LIG d   1       6.278  -4.275  -7.472  0.00  0.00    -0.057 C 
ATOM     41  H   LIG d   1       5.324  -3.749  -7.406  0.00  0.00     0.024 H 
ATOM     42  H   LIG d   1       7.094  -3.557  -7.398  0.00  0.00     0.024 H 
ATOM     43  H   LIG d   1       6.338  -4.797  -8.427  0.00  0.00     0.024 H 
ENDBRANCH   1  40
BRANCH  12  44
ATOM     44  O   LIG d   1       6.659  -6.940  -8.100  0.00  0.00    -0.391 OA
ATOM     45  H   LIG d   1       6.963  -6.357  -8.809  0.00  0.00     0.210 HD
ENDBRANCH  12  44
BRANCH  17  46
ATOM     46  C   LIG d   1       4.441  -1.397  -5.220  0.00  0.00    -0.056 C 
ATOM     47  H   LIG d   1       3.360  -1.298  -5.127  0.00  0.00     0.024 H 
ATOM     48  H   LIG d   1       4.884  -0.411  -5.367  0.00  0.00     0.024 H 
ATOM     49  H   LIG d   1       4.677  -2.031  -6.075  0.00  0.00     0.024 H 
ENDBRANCH  17  46
BRANCH  20  50
ATOM     50  O   LIG d   1       4.044   1.371  -1.525  0.00  0.00    -0.392 OA
ATOM     51  H   LIG d   1       3.679   1.897  -2.251  0.00  0.00     0.210 HD
ENDBRANCH  20  50
TORSDOF 4
ENDMDL
MODEL 2
REMARK VINA RESULT:      -6.0      3.079      4.858
REMARK  4 active torsions:
REMARK  status: ('A' for Active; 'I' for Inactive)
REMARK    1  A    between atoms: C_1  and  C_2 
REMARK    2  A    between atoms: C_13  and  O_15 
REMARK    3  A    between atoms: C_19  and  C_26 
REMARK    4  A    between atoms: C_22  and  O_25 
ROOT
ATOM      1  C   LIG d   1       4.187  -1.853  -9.092  0.00  0.00    -0.003 C 
ATOM      2  C   LIG d   1       5.627  -1.601  -8.682  0.00  0.00    -0.045 C 
ATOM      3  C   LIG d   1       5.658  -1.548  -7.147  0.00  0.00    -0.049 C 
ATOM      4  C   LIG d   1       4.728  -0.469  -6.599  0.00  0.00    -0.029 C 
ATOM      5  H   LIG d   1       5.102   0.503  -6.920  0.00  0.00     0.031 H 
ATOM      6  C   LIG d   1       3.294  -0.632  -7.124  0.00  0.00    -0.031 C 
ATOM      7  H   LIG d   1       2.868  -1.571  -6.769  0.00  0.00     0.031 H 
ATOM      8  C   LIG d   1       3.371  -0.609  -8.650  0.00  0.00    -0.030 C 
ATOM      9  H   LIG d   1       3.866   0.297  -8.997  0.00  0.00     0.031 H 
ATOM     10  C   LIG d   1       2.044  -0.780  -9.381  0.00  0.00    -0.047 C 
ATOM     11  C   LIG d   1       2.387  -1.559 -10.674  0.00  0.00    -0.026 C 
ATOM     12  C   LIG d   1       3.903  -1.889 -10.599  0.00  0.00     0.061 C 
ATOM     13  H   LIG d   1       4.489  -1.132 -11.119  0.00  0.00     0.060 H 
ATOM     14  C   LIG d   1       2.463   0.551  -6.619  0.00  0.00    -0.031 C 
ATOM     15  C   LIG d   1       2.547   0.610  -5.121  0.00  0.00    -0.084 C 
ATOM     16  C   LIG d   1       3.557   0.141  -4.449  0.00  0.00    -0.065 C 
ATOM     17  C   LIG d   1       4.733  -0.507  -5.080  0.00  0.00    -0.008 C 
ATOM     18  C   LIG d   1       6.016   0.133  -4.544  0.00  0.00    -0.041 C 
ATOM     19  C   LIG d   1       5.999   0.099  -3.014  0.00  0.00    -0.026 C 
ATOM     20  C   LIG d   1       4.828   0.935  -2.494  0.00  0.00     0.059 C 
ATOM     21  H   LIG d   1       4.903   1.950  -2.885  0.00  0.00     0.060 H 
ATOM     22  C   LIG d   1       3.534   0.265  -2.935  0.00  0.00    -0.005 C 
ATOM     23  H   LIG d   1       6.262  -2.413  -9.038  0.00  0.00     0.027 H 
ATOM     24  H   LIG d   1       5.970  -0.651  -9.094  0.00  0.00     0.027 H 
ATOM     25  H   LIG d   1       5.351  -2.516  -6.751  0.00  0.00     0.027 H 
ATOM     26  H   LIG d   1       6.676  -1.338  -6.819  0.00  0.00     0.027 H 
ATOM     27  H   LIG d   1       1.347  -1.352  -8.769  0.00  0.00     0.027 H 
ATOM     28  H   LIG d   1       1.620   0.194  -9.627  0.00  0.00     0.027 H 
ATOM     29  H   LIG d   1       1.806  -2.481 -10.721  0.00  0.00     0.029 H 
ATOM     30  H   LIG d   1       2.182  -0.942 -11.548  0.00  0.00     0.029 H 
ATOM     31  H   LIG d   1       2.851   1.477  -7.042  0.00  0.00     0.031 H 
ATOM     32  H   LIG d   1       1.422   0.420  -6.920  0.00  0.00     0.031 H 
ATOM     33  H   LIG d   1       1.732   1.062  -4.577  0.00  0.00     0.057 H 
ATOM     34  H   LIG d   1       6.881  -0.423  -4.909  0.00  0.00     0.027 H 
ATOM     35  H   LIG d   1       6.077   1.166  -4.884  0.00  0.00     0.027 H 
ATOM     36  H   LIG d   1       5.889  -0.931  -2.675  0.00  0.00     0.029 H 
ATOM     37  H   LIG d   1       6.935   0.508  -2.631  0.00  0.00     0.029 H 
ATOM     38  H   LIG d   1       2.698   0.894  -2.631  0.00  0.00     0.034 H 
ATOM     39  H   LIG d   1       3.431  -0.724  -2.487  0.00  0.00     0.034 H 
ENDROOT
BRANCH   1  40
ATOM     40  C   LIG d   1       3.652  -3.117  -8.416  0.00  0.00    -0.057 C 
ATOM     41  H   LIG d   1       2.584  -3.212  -8.616  0.00  0.00     0.024 H 
ATOM     42  H   LIG d   1       4.175  -3.989  -8.809  0.00  0.00     0.024 H 
ATOM     43  H   LIG d   1       3.815  -3.050  -7.340  0.00  0.00     0.024 H 
ENDBRANCH   1  40
BRANCH  12  44
ATOM     44  O   LIG d   1       4.165  -3.189 -11.132  0.00  0.00    -0.391 OA
ATOM     45  H   LIG d   1       4.609  -3.179 -11.990  0.00  0.00     0.210 HD
ENDBRANCH  12  44
BRANCH  17  46
ATOM     46  C   LIG d   1       4.729  -1.972  -4.640  0.00  0.00    -0.056 C 
ATOM     47  H   LIG d   1       5.459  -2.115  -3.843  0.00  0.00     0.024 H 
ATOM     48  H   LIG d   1       3.736  -2.240  -4.274  0.00  0.00     0.024 H 
ATOM     49  H   LIG d   1       4.986  -2.608  -5.487  0.00  0.00     0.024 H 
ENDBRANCH  17  46
BRANCH  20  50
ATOM     50  O   LIG d   1       4.868   0.972  -1.066  0.00  0.00    -0.392 OA
ATOM     51  H   LIG d   1       4.787   1.862  -0.693  0.00  0.00     0.210 HD
ENDBRANCH  20  50
TORSDOF 4
ENDMDL
MODEL 3
REMARK VINA RESULT:      -5.9      3.804      6.921
REMARK  4 active torsions:
REMARK  status: ('A' for Active; 'I' for Inactive)
REMARK    1  A    between atoms: C_1  and  C_2 
REMARK    2  A    between atoms: C_13  and  O_15 
REMARK    3  A    between atoms: C_19  and  C_26 
REMARK    4  A    between atoms: C_22  and  O_25 
ROOT
ATOM      1  C   LIG d   1       4.385  -1.209  -4.503  0.00  0.00    -0.003 C 
ATOM      2  C   LIG d   1       4.574  -2.492  -5.292  0.00  0.00    -0.045 C 
ATOM      3  C   LIG d   1       5.034  -2.092  -6.702  0.00  0.00    -0.049 C 
ATOM      4  C   LIG d   1       4.032  -1.165  -7.384  0.00  0.00    -0.029 C 
ATOM      5  H   LIG d   1       3.104  -1.714  -7.538  0.00  0.00     0.031 H 
ATOM      6  C   LIG d   1       3.725   0.071  -6.524  0.00  0.00    -0.031 C 
ATOM      7  H   LIG d   1       4.623   0.676  -6.401  0.00  0.00     0.031 H 
ATOM      8  C   LIG d   1       3.219  -0.437  -5.176  0.00  0.00    -0.030 C 
ATOM      9  H   LIG d   1       2.366  -1.103  -5.309  0.00  0.00     0.031 H 
ATOM     10  C   LIG d   1       2.872   0.639  -4.153  0.00  0.00    -0.047 C 
ATOM     11  C   LIG d   1       3.235   0.027  -2.777  0.00  0.00    -0.026 C 
ATOM     12  C   LIG d   1       3.867  -1.361  -3.067  0.00  0.00     0.061 C 
ATOM     13  H   LIG d   1       3.114  -2.147  -3.010  0.00  0.00     0.060 H 
ATOM     14  C   LIG d   1       2.632   0.882  -7.228  0.00  0.00    -0.031 C 
ATOM     15  C   LIG d   1       3.086   1.219  -8.618  0.00  0.00    -0.084 C 
ATOM     16  C   LIG d   1       3.941   0.496  -9.280  0.00  0.00    -0.065 C 
ATOM     17  C   LIG d   1       4.567  -0.735  -8.740  0.00  0.00    -0.008 C 
ATOM     18  C   LIG d   1       4.408  -1.874  -9.750  0.00  0.00    -0.041 C 
ATOM     19  C   LIG d   1       4.937  -1.421 -11.113  0.00  0.00    -0.026 C 
ATOM     20  C   LIG d   1       4.102  -0.246 -11.624  0.00  0.00     0.059 C 
ATOM     21  H   LIG d   1       3.052  -0.535 -11.663  0.00  0.00     0.060 H 
ATOM     22  C   LIG d   1       4.318   0.934 -10.685  0.00  0.00    -0.005 C 
ATOM     23  H   LIG d   1       5.333  -3.113  -4.815  0.00  0.00     0.027 H 
ATOM     24  H   LIG d   1       3.630  -3.036  -5.349  0.00  0.00     0.027 H 
ATOM     25  H   LIG d   1       5.997  -1.586  -6.632  0.00  0.00     0.027 H 
ATOM     26  H   LIG d   1       5.151  -2.993  -7.306  0.00  0.00     0.027 H 
ATOM     27  H   LIG d   1       3.461   1.537  -4.335  0.00  0.00     0.027 H 
ATOM     28  H   LIG d   1       1.807   0.870  -4.193  0.00  0.00     0.027 H 
ATOM     29  H   LIG d   1       3.955   0.665  -2.262  0.00  0.00     0.029 H 
ATOM     30  H   LIG d   1       2.338  -0.090  -2.170  0.00  0.00     0.029 H 
ATOM     31  H   LIG d   1       1.716   0.294  -7.277  0.00  0.00     0.031 H 
ATOM     32  H   LIG d   1       2.447   1.802  -6.672  0.00  0.00     0.031 H 
ATOM     33  H   LIG d   1       2.684   2.103  -9.091  0.00  0.00     0.057 H 
ATOM     34  H   LIG d   1       4.973  -2.743  -9.412  0.00  0.00     0.027 H 
ATOM     35  H   LIG d   1       3.354  -2.138  -9.839  0.00  0.00     0.027 H 
ATOM     36  H   LIG d   1       5.977  -1.111 -11.013  0.00  0.00     0.029 H 
ATOM     37  H   LIG d   1       4.871  -2.248 -11.821  0.00  0.00     0.029 H 
ATOM     38  H   LIG d   1       3.670   1.750 -11.002  0.00  0.00     0.034 H 
ATOM     39  H   LIG d   1       5.357   1.263 -10.701  0.00  0.00     0.034 H 
ENDROOT
BRANCH   1  40
ATOM     40  C   LIG d   1       5.667  -0.374  -4.524  0.00  0.00    -0.057 C 
ATOM     41  H   LIG d   1       5.587   0.394  -5.294  0.00  0.00     0.024 H 
ATOM     42  H   LIG d   1       5.810   0.098  -3.553  0.00  0.00     0.024 H 
ATOM     43  H   LIG d   1       6.517  -1.021  -4.743  0.00  0.00     0.024 H 
ENDBRANCH   1  40
BRANCH  12  44
ATOM     44  O   LIG d   1       4.945  -1.625  -2.167  0.00  0.00    -0.391 OA
ATOM     45  H   LIG d   1       5.130  -0.901  -1.552  0.00  0.00     0.210 HD
ENDBRANCH  12  44
BRANCH  17  46
ATOM     46  C   LIG d   1       6.063  -0.452  -8.594  0.00  0.00    -0.056 C 
ATOM     47  H   LIG d   1       6.604  -0.924  -9.415  0.00  0.00     0.024 H 
ATOM     48  H   LIG d   1       6.234   0.625  -8.619  0.00  0.00     0.024 H 
ATOM     49  H   LIG d   1       6.419  -0.854  -7.646  0.00  0.00     0.024 H 
ENDBRANCH  17  46
BRANCH  20  50
ATOM     50  O   LIG d   1       4.544   0.117 -12.934  0.00  0.00    -0.392 OA
ATOM     51  H   LIG d   1       3.871   0.009 -13.621  0.00  0.00     0.210 HD
ENDBRANCH  20  50
TORSDOF 4
ENDMDL
MODEL 4
REMARK VINA RESULT:      -5.5     10.278     12.244
REMARK  4 active torsions:
REMARK  status: ('A' for Active; 'I' for Inactive)
REMARK    1  A    between atoms: C_1  and  C_2 
REMARK    2  A    between atoms: C_13  and  O_15 
REMARK    3  A    between atoms: C_19  and  C_26 
REMARK    4  A    between atoms: C_22  and  O_25 
ROOT
ATOM      1  C   LIG d   1       9.991   8.722  -6.177  0.00  0.00    -0.003 C 
ATOM      2  C   LIG d   1       9.561   9.717  -5.113  0.00  0.00    -0.045 C 
ATOM      3  C   LIG d   1      10.262   9.314  -3.807  0.00  0.00    -0.049 C 
ATOM      4  C   LIG d   1       9.921   7.884  -3.399  0.00  0.00    -0.029 C 
ATOM      5  H   LIG d   1       8.856   7.835  -3.171  0.00  0.00     0.031 H 
ATOM      6  C   LIG d   1      10.220   6.884  -4.526  0.00  0.00    -0.031 C 
ATOM      7  H   LIG d   1      11.290   6.864  -4.736  0.00  0.00     0.031 H 
ATOM      8  C   LIG d   1       9.430   7.339  -5.750  0.00  0.00    -0.030 C 
ATOM      9  H   LIG d   1       8.370   7.430  -5.513  0.00  0.00     0.031 H 
ATOM     10  C   LIG d   1       9.603   6.487  -7.003  0.00  0.00    -0.047 C 
ATOM     11  C   LIG d   1       9.504   7.479  -8.189  0.00  0.00    -0.026 C 
ATOM     12  C   LIG d   1       9.364   8.894  -7.566  0.00  0.00     0.061 C 
ATOM     13  H   LIG d   1       8.315   9.177  -7.483  0.00  0.00     0.060 H 
ATOM     14  C   LIG d   1       9.744   5.499  -4.074  0.00  0.00    -0.031 C 
ATOM     15  C   LIG d   1      10.406   5.149  -2.773  0.00  0.00    -0.084 C 
ATOM     16  C   LIG d   1      10.823   6.044  -1.926  0.00  0.00    -0.065 C 
ATOM     17  C   LIG d   1      10.697   7.506  -2.148  0.00  0.00    -0.008 C 
ATOM     18  C   LIG d   1      10.057   8.156  -0.919  0.00  0.00    -0.041 C 
ATOM     19  C   LIG d   1      10.840   7.754   0.333  0.00  0.00    -0.026 C 
ATOM     20  C   LIG d   1      10.757   6.239   0.529  0.00  0.00     0.059 C 
ATOM     21  H   LIG d   1       9.711   5.936   0.580  0.00  0.00     0.060 H 
ATOM     22  C   LIG d   1      11.471   5.569  -0.637  0.00  0.00    -0.005 C 
ATOM     23  H   LIG d   1       9.864  10.723  -5.403  0.00  0.00     0.027 H 
ATOM     24  H   LIG d   1       8.479   9.676  -4.983  0.00  0.00     0.027 H 
ATOM     25  H   LIG d   1      11.340   9.398  -3.942  0.00  0.00     0.027 H 
ATOM     26  H   LIG d   1       9.950   9.993  -3.013  0.00  0.00     0.027 H 
ATOM     27  H   LIG d   1      10.577   6.000  -6.997  0.00  0.00     0.027 H 
ATOM     28  H   LIG d   1       8.808   5.743  -7.066  0.00  0.00     0.027 H 
ATOM     29  H   LIG d   1      10.408   7.425  -8.797  0.00  0.00     0.029 H 
ATOM     30  H   LIG d   1       8.630   7.249  -8.797  0.00  0.00     0.029 H 
ATOM     31  H   LIG d   1       8.663   5.511  -3.940  0.00  0.00     0.031 H 
ATOM     32  H   LIG d   1      10.011   4.758  -4.829  0.00  0.00     0.031 H 
ATOM     33  H   LIG d   1      10.543   4.107  -2.529  0.00  0.00     0.057 H 
ATOM     34  H   LIG d   1      10.078   9.240  -1.027  0.00  0.00     0.027 H 
ATOM     35  H   LIG d   1       9.025   7.819  -0.825  0.00  0.00     0.027 H 
ATOM     36  H   LIG d   1      11.884   8.047   0.218  0.00  0.00     0.029 H 
ATOM     37  H   LIG d   1      10.417   8.256   1.204  0.00  0.00     0.029 H 
ATOM     38  H   LIG d   1      11.351   4.491  -0.542  0.00  0.00     0.034 H 
ATOM     39  H   LIG d   1      12.532   5.821  -0.645  0.00  0.00     0.034 H 
ENDROOT
BRANCH   1  40
ATOM     40  C   LIG d   1      11.517   8.676  -6.280  0.00  0.00    -0.057 C 
ATOM     41  H   LIG d   1      11.858   9.445  -6.974  0.00  0.00     0.024 H 
ATOM     42  H   LIG d   1      11.953   8.854  -5.297  0.00  0.00     0.024 H 
ATOM     43  H   LIG d   1      11.826   7.696  -6.643  0.00  0.00     0.024 H 
ENDBRANCH   1  40
BRANCH  12  44
ATOM     44  O   LIG d   1      10.091   9.858  -8.332  0.00  0.00    -0.391 OA
ATOM     45  H   LIG d   1       9.531  10.501  -8.788  0.00  0.00     0.210 HD
ENDBRANCH  12  44
BRANCH  17  46
ATOM     46  C   LIG d   1      12.115   8.064  -2.280  0.00  0.00    -0.056 C 
ATOM     47  H   LIG d   1      12.456   7.954  -3.309  0.00  0.00     0.024 H 
ATOM     48  H   LIG d   1      12.117   9.121  -2.009  0.00  0.00     0.024 H 
ATOM     49  H   LIG d   1      12.784   7.519  -1.614  0.00  0.00     0.024 H 
ENDBRANCH  17  46
BRANCH  20  50
ATOM     50  O   LIG d   1      11.416   5.879   1.745  0.00  0.00    -0.392 OA
ATOM     51  H   LIG d   1      11.287   4.956   2.004  0.00  0.00     0.210 HD
ENDBRANCH  20  50
TORSDOF 4
ENDMDL
MODEL 5
REMARK VINA RESULT:      -5.4      1.200      2.663
REMARK  4 active torsions:
REMARK  status: ('A' for Active; 'I' for Inactive)
REMARK    1  A    between atoms: C_1  and  C_2 
REMARK    2  A    between atoms: C_13  and  O_15 
REMARK    3  A    between atoms: C_19  and  C_26 
REMARK    4  A    between atoms: C_22  and  O_25 
ROOT
ATOM      1  C   LIG d   1       6.423  -4.520  -6.676  0.00  0.00    -0.003 C 
ATOM      2  C   LIG d   1       7.345  -4.105  -5.544  0.00  0.00    -0.045 C 
ATOM      3  C   LIG d   1       6.494  -3.326  -4.529  0.00  0.00    -0.049 C 
ATOM      4  C   LIG d   1       5.819  -2.115  -5.167  0.00  0.00    -0.029 C 
ATOM      5  H   LIG d   1       6.593  -1.414  -5.479  0.00  0.00     0.031 H 
ATOM      6  C   LIG d   1       4.996  -2.508  -6.403  0.00  0.00    -0.031 C 
ATOM      7  H   LIG d   1       4.174  -3.163  -6.115  0.00  0.00     0.031 H 
ATOM      8  C   LIG d   1       5.946  -3.215  -7.368  0.00  0.00    -0.030 C 
ATOM      9  H   LIG d   1       6.806  -2.584  -7.594  0.00  0.00     0.031 H 
ATOM     10  C   LIG d   1       5.320  -3.712  -8.666  0.00  0.00    -0.047 C 
ATOM     11  C   LIG d   1       6.083  -5.014  -9.015  0.00  0.00    -0.026 C 
ATOM     12  C   LIG d   1       7.072  -5.270  -7.846  0.00  0.00     0.061 C 
ATOM     13  H   LIG d   1       8.053  -4.853  -8.073  0.00  0.00     0.060 H 
ATOM     14  C   LIG d   1       4.452  -1.226  -7.042  0.00  0.00    -0.031 C 
ATOM     15  C   LIG d   1       3.665  -0.460  -6.018  0.00  0.00    -0.084 C 
ATOM     16  C   LIG d   1       3.885  -0.553  -4.740  0.00  0.00    -0.065 C 
ATOM     17  C   LIG d   1       4.929  -1.425  -4.147  0.00  0.00    -0.008 C 
ATOM     18  C   LIG d   1       5.784  -0.608  -3.174  0.00  0.00    -0.041 C 
ATOM     19  C   LIG d   1       4.872   0.092  -2.164  0.00  0.00    -0.026 C 
ATOM     20  C   LIG d   1       3.956   1.076  -2.892  0.00  0.00     0.059 C 
ATOM     21  H   LIG d   1       4.559   1.781  -3.464  0.00  0.00     0.060 H 
ATOM     22  C   LIG d   1       3.028   0.278  -3.800  0.00  0.00    -0.005 C 
ATOM     23  H   LIG d   1       7.772  -4.989  -5.070  0.00  0.00     0.027 H 
ATOM     24  H   LIG d   1       8.141  -3.467  -5.929  0.00  0.00     0.027 H 
ATOM     25  H   LIG d   1       5.728  -3.988  -4.125  0.00  0.00     0.027 H 
ATOM     26  H   LIG d   1       7.135  -2.987  -3.715  0.00  0.00     0.027 H 
ATOM     27  H   LIG d   1       4.261  -3.922  -8.519  0.00  0.00     0.027 H 
ATOM     28  H   LIG d   1       5.453  -2.973  -9.457  0.00  0.00     0.027 H 
ATOM     29  H   LIG d   1       5.383  -5.846  -9.101  0.00  0.00     0.029 H 
ATOM     30  H   LIG d   1       6.631  -4.888  -9.948  0.00  0.00     0.029 H 
ATOM     31  H   LIG d   1       5.281  -0.614  -7.395  0.00  0.00     0.031 H 
ATOM     32  H   LIG d   1       3.805  -1.483  -7.881  0.00  0.00     0.031 H 
ATOM     33  H   LIG d   1       2.880   0.199  -6.359  0.00  0.00     0.057 H 
ATOM     34  H   LIG d   1       6.469  -1.272  -2.646  0.00  0.00     0.027 H 
ATOM     35  H   LIG d   1       6.353   0.138  -3.728  0.00  0.00     0.027 H 
ATOM     36  H   LIG d   1       4.267  -0.652  -1.645  0.00  0.00     0.029 H 
ATOM     37  H   LIG d   1       5.482   0.633  -1.439  0.00  0.00     0.029 H 
ATOM     38  H   LIG d   1       2.424   0.977  -4.376  0.00  0.00     0.034 H 
ATOM     39  H   LIG d   1       2.379  -0.377  -3.219  0.00  0.00     0.034 H 
ENDROOT
BRANCH   1  40
ATOM     40  C   LIG d   1       5.229  -5.308  -6.132  0.00  0.00    -0.057 C 
ATOM     41  H   LIG d   1       5.587  -6.097  -5.469  0.00  0.00     0.024 H 
ATOM     42  H   LIG d   1       4.573  -4.637  -5.578  0.00  0.00     0.024 H 
ATOM     43  H   LIG d   1       4.679  -5.753  -6.961  0.00  0.00     0.024 H 
ENDBRANCH   1  40
BRANCH  12  44
ATOM     44  O   LIG d   1       7.167  -6.667  -7.560  0.00  0.00    -0.391 OA
ATOM     45  H   LIG d   1       6.322  -7.135  -7.602  0.00  0.00     0.210 HD
ENDBRANCH  12  44
BRANCH  17  46
ATOM     46  C   LIG d   1       4.208  -2.503  -3.336  0.00  0.00    -0.056 C 
ATOM     47  H   LIG d   1       4.908  -2.965  -2.641  0.00  0.00     0.024 H 
ATOM     48  H   LIG d   1       3.388  -2.050  -2.777  0.00  0.00     0.024 H 
ATOM     49  H   LIG d   1       3.811  -3.261  -4.011  0.00  0.00     0.024 H 
ENDBRANCH  17  46
BRANCH  20  50
ATOM     50  O   LIG d   1       3.168   1.790  -1.937  0.00  0.00    -0.392 OA
ATOM     51  H   LIG d   1       3.059   2.730  -2.140  0.00  0.00     0.210 HD
ENDBRANCH  20  50
TORSDOF 4
ENDMDL
MODEL 6
REMARK VINA RESULT:      -5.4      8.376     12.214
REMARK  4 active torsions:
REMARK  status: ('A' for Active; 'I' for Inactive)
REMARK    1  A    between atoms: C_1  and  C_2 
REMARK    2  A    between atoms: C_13  and  O_15 
REMARK    3  A    between atoms: C_19  and  C_26 
REMARK    4  A    between atoms: C_22  and  O_25 
ROOT
ATOM      1  C   LIG d   1      11.520   7.360   0.182  0.00  0.00    -0.003 C 
ATOM      2  C   LIG d   1      11.523   5.907   0.623  0.00  0.00    -0.045 C 
ATOM      3  C   LIG d   1      11.690   5.051  -0.642  0.00  0.00    -0.049 C 
ATOM      4  C   LIG d   1      10.583   5.319  -1.658  0.00  0.00    -0.029 C 
ATOM      5  H   LIG d   1       9.635   4.999  -1.227  0.00  0.00     0.031 H 
ATOM      6  C   LIG d   1      10.478   6.812  -2.003  0.00  0.00    -0.031 C 
ATOM      7  H   LIG d   1      11.392   7.150  -2.493  0.00  0.00     0.031 H 
ATOM      8  C   LIG d   1      10.252   7.560  -0.691  0.00  0.00    -0.030 C 
ATOM      9  H   LIG d   1       9.380   7.168  -0.169  0.00  0.00     0.031 H 
ATOM     10  C   LIG d   1      10.140   9.077  -0.807  0.00  0.00    -0.047 C 
ATOM     11  C   LIG d   1      10.769   9.633   0.495  0.00  0.00    -0.026 C 
ATOM     12  C   LIG d   1      11.306   8.407   1.281  0.00  0.00     0.061 C 
ATOM     13  H   LIG d   1      10.569   8.060   2.006  0.00  0.00     0.060 H 
ATOM     14  C   LIG d   1       9.277   7.003  -2.935  0.00  0.00    -0.031 C 
ATOM     15  C   LIG d   1       9.440   6.121  -4.138  0.00  0.00    -0.084 C 
ATOM     16  C   LIG d   1      10.129   5.019  -4.121  0.00  0.00    -0.065 C 
ATOM     17  C   LIG d   1      10.834   4.510  -2.919  0.00  0.00    -0.008 C 
ATOM     18  C   LIG d   1      10.453   3.045  -2.686  0.00  0.00    -0.041 C 
ATOM     19  C   LIG d   1      10.698   2.247  -3.969  0.00  0.00    -0.026 C 
ATOM     20  C   LIG d   1       9.794   2.775  -5.084  0.00  0.00     0.059 C 
ATOM     21  H   LIG d   1       8.754   2.732  -4.761  0.00  0.00     0.060 H 
ATOM     22  C   LIG d   1      10.217   4.204  -5.401  0.00  0.00    -0.005 C 
ATOM     23  H   LIG d   1      12.354   5.729   1.305  0.00  0.00     0.027 H 
ATOM     24  H   LIG d   1      10.579   5.666   1.114  0.00  0.00     0.027 H 
ATOM     25  H   LIG d   1      12.654   5.274  -1.098  0.00  0.00     0.027 H 
ATOM     26  H   LIG d   1      11.666   3.997  -0.362  0.00  0.00     0.027 H 
ATOM     27  H   LIG d   1      10.693   9.431  -1.676  0.00  0.00     0.027 H 
ATOM     28  H   LIG d   1       9.093   9.374  -0.877  0.00  0.00     0.027 H 
ATOM     29  H   LIG d   1      11.588  10.311   0.254  0.00  0.00     0.029 H 
ATOM     30  H   LIG d   1      10.013  10.153   1.083  0.00  0.00     0.029 H 
ATOM     31  H   LIG d   1       8.361   6.735  -2.409  0.00  0.00     0.031 H 
ATOM     32  H   LIG d   1       9.223   8.045  -3.252  0.00  0.00     0.031 H 
ATOM     33  H   LIG d   1       8.963   6.416  -5.061  0.00  0.00     0.057 H 
ATOM     34  H   LIG d   1      11.063   2.634  -1.881  0.00  0.00     0.027 H 
ATOM     35  H   LIG d   1       9.400   2.982  -2.414  0.00  0.00     0.027 H 
ATOM     36  H   LIG d   1      11.741   2.351  -4.267  0.00  0.00     0.029 H 
ATOM     37  H   LIG d   1      10.476   1.195  -3.790  0.00  0.00     0.029 H 
ATOM     38  H   LIG d   1       9.530   4.611  -6.142  0.00  0.00     0.034 H 
ATOM     39  H   LIG d   1      11.235   4.236  -5.788  0.00  0.00     0.034 H 
ENDROOT
BRANCH   1  40
ATOM     40  C   LIG d   1      12.783   7.678  -0.622  0.00  0.00    -0.057 C 
ATOM     41  H   LIG d   1      12.511   8.228  -1.523  0.00  0.00     0.024 H 
ATOM     42  H   LIG d   1      13.457   8.282  -0.015  0.00  0.00     0.024 H 
ATOM     43  H   LIG d   1      13.279   6.748  -0.900  0.00  0.00     0.024 H 
ENDBRANCH   1  40
BRANCH  12  44
ATOM     44  O   LIG d   1      12.542   8.722   1.927  0.00  0.00    -0.391 OA
ATOM     45  H   LIG d   1      12.855   8.035   2.530  0.00  0.00     0.210 HD
ENDBRANCH  12  44
BRANCH  17  46
ATOM     46  C   LIG d   1      12.333   4.554  -3.224  0.00  0.00    -0.056 C 
ATOM     47  H   LIG d   1      12.543   3.946  -4.104  0.00  0.00     0.024 H 
ATOM     48  H   LIG d   1      12.635   5.585  -3.414  0.00  0.00     0.024 H 
ATOM     49  H   LIG d   1      12.890   4.165  -2.371  0.00  0.00     0.024 H 
ENDBRANCH  17  46
BRANCH  20  50
ATOM     50  O   LIG d   1       9.963   1.972  -6.254  0.00  0.00    -0.392 OA
ATOM     51  H   LIG d   1      10.569   2.349  -6.907  0.00  0.00     0.210 HD
ENDBRANCH  20  50
TORSDOF 4
ENDMDL
MODEL 7
REMARK VINA RESULT:      -5.3      9.026     11.590
REMARK  4 active torsions:
REMARK  status: ('A' for Active; 'I' for Inactive)
REMARK    1  A    between atoms: C_1  and  C_2 
REMARK    2  A    between atoms: C_13  and  O_15 
REMARK    3  A    between atoms: C_19  and  C_26 
REMARK    4  A    between atoms: C_22  and  O_25 
ROOT
ATOM      1  C   LIG d   1      10.119   5.230  -4.141  0.00  0.00    -0.003 C 
ATOM      2  C   LIG d   1       9.188   6.391  -4.443  0.00  0.00    -0.045 C 
ATOM      3  C   LIG d   1       9.739   7.618  -3.699  0.00  0.00    -0.049 C 
ATOM      4  C   LIG d   1       9.846   7.369  -2.198  0.00  0.00    -0.029 C 
ATOM      5  H   LIG d   1       8.842   7.229  -1.799  0.00  0.00     0.031 H 
ATOM      6  C   LIG d   1      10.670   6.110  -1.887  0.00  0.00    -0.031 C 
ATOM      7  H   LIG d   1      11.699   6.243  -2.220  0.00  0.00     0.031 H 
ATOM      8  C   LIG d   1      10.003   4.947  -2.619  0.00  0.00    -0.030 C 
ATOM      9  H   LIG d   1       8.953   4.866  -2.339  0.00  0.00     0.031 H 
ATOM     10  C   LIG d   1      10.682   3.591  -2.460  0.00  0.00    -0.047 C 
ATOM     11  C   LIG d   1      10.461   2.863  -3.809  0.00  0.00    -0.026 C 
ATOM     12  C   LIG d   1       9.731   3.871  -4.737  0.00  0.00     0.061 C 
ATOM     13  H   LIG d   1       8.652   3.725  -4.693  0.00  0.00     0.060 H 
ATOM     14  C   LIG d   1      10.629   5.875  -0.373  0.00  0.00    -0.031 C 
ATOM     15  C   LIG d   1      11.127   7.104   0.331  0.00  0.00    -0.084 C 
ATOM     16  C   LIG d   1      11.049   8.296  -0.183  0.00  0.00    -0.065 C 
ATOM     17  C   LIG d   1      10.467   8.578  -1.518  0.00  0.00    -0.008 C 
ATOM     18  C   LIG d   1       9.433   9.700  -1.398  0.00  0.00    -0.041 C 
ATOM     19  C   LIG d   1      10.069  10.904  -0.699  0.00  0.00    -0.026 C 
ATOM     20  C   LIG d   1      10.480  10.516   0.722  0.00  0.00     0.059 C 
ATOM     21  H   LIG d   1       9.613  10.135   1.261  0.00  0.00     0.060 H 
ATOM     22  C   LIG d   1      11.579   9.466   0.628  0.00  0.00    -0.005 C 
ATOM     23  H   LIG d   1       9.171   6.583  -5.516  0.00  0.00     0.027 H 
ATOM     24  H   LIG d   1       8.182   6.162  -4.089  0.00  0.00     0.027 H 
ATOM     25  H   LIG d   1      10.727   7.857  -4.092  0.00  0.00     0.027 H 
ATOM     26  H   LIG d   1       9.075   8.465  -3.872  0.00  0.00     0.027 H 
ATOM     27  H   LIG d   1      11.747   3.722  -2.270  0.00  0.00     0.027 H 
ATOM     28  H   LIG d   1      10.219   3.030  -1.648  0.00  0.00     0.027 H 
ATOM     29  H   LIG d   1      11.421   2.582  -4.244  0.00  0.00     0.029 H 
ATOM     30  H   LIG d   1       9.844   1.978  -3.660  0.00  0.00     0.029 H 
ATOM     31  H   LIG d   1       9.605   5.668  -0.064  0.00  0.00     0.031 H 
ATOM     32  H   LIG d   1      11.266   5.027  -0.119  0.00  0.00     0.031 H 
ATOM     33  H   LIG d   1      11.570   6.993   1.309  0.00  0.00     0.057 H 
ATOM     34  H   LIG d   1       9.096   9.994  -2.393  0.00  0.00     0.027 H 
ATOM     35  H   LIG d   1       8.582   9.350  -0.814  0.00  0.00     0.027 H 
ATOM     36  H   LIG d   1      10.949  11.224  -1.257  0.00  0.00     0.029 H 
ATOM     37  H   LIG d   1       9.349  11.722  -0.658  0.00  0.00     0.029 H 
ATOM     38  H   LIG d   1      11.825   9.132   1.636  0.00  0.00     0.034 H 
ATOM     39  H   LIG d   1      12.471   9.872   0.149  0.00  0.00     0.034 H 
ENDROOT
BRANCH   1  40
ATOM     40  C   LIG d   1      11.559   5.588  -4.515  0.00  0.00    -0.057 C 
ATOM     41  H   LIG d   1      12.217   4.757  -4.260  0.00  0.00     0.024 H 
ATOM     42  H   LIG d   1      11.618   5.784  -5.585  0.00  0.00     0.024 H 
ATOM     43  H   LIG d   1      11.866   6.477  -3.964  0.00  0.00     0.024 H 
ENDBRANCH   1  40
BRANCH  12  44
ATOM     44  O   LIG d   1      10.205   3.756  -6.081  0.00  0.00    -0.391 OA
ATOM     45  H   LIG d   1      11.167   3.801  -6.164  0.00  0.00     0.210 HD
ENDBRANCH  12  44
BRANCH  17  46
ATOM     46  C   LIG d   1      11.604   9.092  -2.404  0.00  0.00    -0.056 C 
ATOM     47  H   LIG d   1      11.782  10.146  -2.193  0.00  0.00     0.024 H 
ATOM     48  H   LIG d   1      12.511   8.522  -2.198  0.00  0.00     0.024 H 
ATOM     49  H   LIG d   1      11.331   8.971  -3.453  0.00  0.00     0.024 H 
ENDBRANCH  17  46
BRANCH  20  50
ATOM     50  O   LIG d   1      10.994  11.665   1.399  0.00  0.00    -0.392 OA
ATOM     51  H   LIG d   1      10.398  12.026   2.071  0.00  0.00     0.210 HD
ENDBRANCH  20  50
TORSDOF 4
ENDMDL
MODEL 8
REMARK VINA RESULT:      -5.3      8.932     11.354
REMARK  4 active torsions:
REMARK  status: ('A' for Active; 'I' for Inactive)
REMARK    1  A    between atoms: C_1  and  C_2 
REMARK    2  A    between atoms: C_13  and  O_15 
REMARK    3  A    between atoms: C_19  and  C_26 
REMARK    4  A    between atoms: C_22  and  O_25 
ROOT
ATOM      1  C   LIG d   1      10.532   5.085  -3.294  0.00  0.00    -0.003 C 
ATOM      2  C   LIG d   1      10.082   3.858  -4.066  0.00  0.00    -0.045 C 
ATOM      3  C   LIG d   1      10.367   4.128  -5.551  0.00  0.00    -0.049 C 
ATOM      4  C   LIG d   1       9.656   5.384  -6.045  0.00  0.00    -0.029 C 
ATOM      5  H   LIG d   1       8.581   5.215  -5.993  0.00  0.00     0.031 H 
ATOM      6  C   LIG d   1       9.995   6.607  -5.179  0.00  0.00    -0.031 C 
ATOM      7  H   LIG d   1      11.057   6.841  -5.258  0.00  0.00     0.031 H 
ATOM      8  C   LIG d   1       9.617   6.256  -3.742  0.00  0.00    -0.030 C 
ATOM      9  H   LIG d   1       8.573   5.950  -3.681  0.00  0.00     0.031 H 
ATOM     10  C   LIG d   1       9.895   7.337  -2.703  0.00  0.00    -0.047 C 
ATOM     11  C   LIG d   1      10.276   6.574  -1.411  0.00  0.00    -0.026 C 
ATOM     12  C   LIG d   1      10.290   5.066  -1.780  0.00  0.00     0.061 C 
ATOM     13  H   LIG d   1       9.331   4.603  -1.549  0.00  0.00     0.060 H 
ATOM     14  C   LIG d   1       9.154   7.789  -5.673  0.00  0.00    -0.031 C 
ATOM     15  C   LIG d   1       9.414   8.003  -7.136  0.00  0.00    -0.084 C 
ATOM     16  C   LIG d   1       9.799   7.051  -7.934  0.00  0.00    -0.065 C 
ATOM     17  C   LIG d   1      10.029   5.653  -7.493  0.00  0.00    -0.008 C 
ATOM     18  C   LIG d   1       9.271   4.695  -8.416  0.00  0.00    -0.041 C 
ATOM     19  C   LIG d   1       9.647   4.988  -9.870  0.00  0.00    -0.026 C 
ATOM     20  C   LIG d   1       9.212   6.407 -10.239  0.00  0.00     0.059 C 
ATOM     21  H   LIG d   1       8.143   6.519 -10.056  0.00  0.00     0.060 H 
ATOM     22  C   LIG d   1      10.023   7.385  -9.399  0.00  0.00    -0.005 C 
ATOM     23  H   LIG d   1      10.643   2.984  -3.733  0.00  0.00     0.027 H 
ATOM     24  H   LIG d   1       9.014   3.695  -3.915  0.00  0.00     0.027 H 
ATOM     25  H   LIG d   1      11.441   4.248  -5.692  0.00  0.00     0.027 H 
ATOM     26  H   LIG d   1      10.027   3.274  -6.139  0.00  0.00     0.027 H 
ATOM     27  H   LIG d   1      10.721   7.969  -3.027  0.00  0.00     0.027 H 
ATOM     28  H   LIG d   1       9.001   7.939  -2.536  0.00  0.00     0.027 H 
ATOM     29  H   LIG d   1      11.265   6.885  -1.071  0.00  0.00     0.029 H 
ATOM     30  H   LIG d   1       9.537   6.762  -0.633  0.00  0.00     0.029 H 
ATOM     31  H   LIG d   1       8.097   7.575  -5.519  0.00  0.00     0.031 H 
ATOM     32  H   LIG d   1       9.429   8.688  -5.120  0.00  0.00     0.031 H 
ATOM     33  H   LIG d   1       9.275   8.992  -7.545  0.00  0.00     0.057 H 
ATOM     34  H   LIG d   1       9.538   3.666  -8.172  0.00  0.00     0.027 H 
ATOM     35  H   LIG d   1       8.198   4.834  -8.283  0.00  0.00     0.027 H 
ATOM     36  H   LIG d   1      10.726   4.896  -9.992  0.00  0.00     0.029 H 
ATOM     37  H   LIG d   1       9.147   4.274 -10.526  0.00  0.00     0.029 H 
ATOM     38  H   LIG d   1       9.665   8.394  -9.603  0.00  0.00     0.034 H 
ATOM     39  H   LIG d   1      11.085   7.317  -9.633  0.00  0.00     0.034 H 
ENDROOT
BRANCH   1  40
ATOM     40  C   LIG d   1      11.998   5.400  -3.598  0.00  0.00    -0.057 C 
ATOM     41  H   LIG d   1      12.635   4.919  -2.855  0.00  0.00     0.024 H 
ATOM     42  H   LIG d   1      12.252   5.028  -4.591  0.00  0.00     0.024 H 
ATOM     43  H   LIG d   1      12.152   6.479  -3.564  0.00  0.00     0.024 H 
ENDBRANCH   1  40
BRANCH  12  44
ATOM     44  O   LIG d   1      11.355   4.390  -1.107  0.00  0.00    -0.391 OA
ATOM     45  H   LIG d   1      12.097   4.158  -1.681  0.00  0.00     0.210 HD
ENDBRANCH  12  44
BRANCH  17  46
ATOM     46  C   LIG d   1      11.523   5.369  -7.661  0.00  0.00    -0.056 C 
ATOM     47  H   LIG d   1      11.845   5.688  -8.652  0.00  0.00     0.024 H 
ATOM     48  H   LIG d   1      12.085   5.917  -6.903  0.00  0.00     0.024 H 
ATOM     49  H   LIG d   1      11.706   4.301  -7.545  0.00  0.00     0.024 H 
ENDBRANCH  17  46
BRANCH  20  50
ATOM     50  O   LIG d   1       9.486   6.645 -11.621  0.00  0.00    -0.392 OA
ATOM     51  H   LIG d   1       9.142   5.962 -12.214  0.00  0.00     0.210 HD
ENDBRANCH  20  50
TORSDOF 4
ENDMDL
MODEL 9
REMARK VINA RESULT:      -5.2     11.462     13.682
REMARK  4 active torsions:
REMARK  status: ('A' for Active; 'I' for Inactive)
REMARK    1  A    between atoms: C_1  and  C_2 
REMARK    2  A    between atoms: C_13  and  O_15 
REMARK    3  A    between atoms: C_19  and  C_26 
REMARK    4  A    between atoms: C_22  and  O_25 
ROOT
ATOM      1  C   LIG d   1      11.160   8.030  -1.048  0.00  0.00    -0.003 C 
ATOM      2  C   LIG d   1      10.705   6.716  -1.657  0.00  0.00    -0.045 C 
ATOM      3  C   LIG d   1      10.820   6.859  -3.182  0.00  0.00    -0.049 C 
ATOM      4  C   LIG d   1       9.992   8.029  -3.706  0.00  0.00    -0.029 C 
ATOM      5  H   LIG d   1       8.939   7.814  -3.524  0.00  0.00     0.031 H 
ATOM      6  C   LIG d   1      10.347   9.342  -2.992  0.00  0.00    -0.031 C 
ATOM      7  H   LIG d   1      11.381   9.618  -3.204  0.00  0.00     0.031 H 
ATOM      8  C   LIG d   1      10.139   9.109  -1.497  0.00  0.00    -0.030 C 
ATOM      9  H   LIG d   1       9.125   8.761  -1.298  0.00  0.00     0.031 H 
ATOM     10  C   LIG d   1      10.459  10.295  -0.593  0.00  0.00    -0.047 C 
ATOM     11  C   LIG d   1      11.014   9.674   0.713  0.00  0.00    -0.026 C 
ATOM     12  C   LIG d   1      11.076   8.141   0.479  0.00  0.00     0.061 C 
ATOM     13  H   LIG d   1      10.173   7.656   0.851  0.00  0.00     0.060 H 
ATOM     14  C   LIG d   1       9.395  10.431  -3.495  0.00  0.00    -0.031 C 
ATOM     15  C   LIG d   1       9.491  10.519  -4.990  0.00  0.00    -0.084 C 
ATOM     16  C   LIG d   1       9.846   9.517  -5.738  0.00  0.00    -0.065 C 
ATOM     17  C   LIG d   1      10.200   8.178  -5.203  0.00  0.00    -0.008 C 
ATOM     18  C   LIG d   1       9.407   7.104  -5.952  0.00  0.00    -0.041 C 
ATOM     19  C   LIG d   1       9.616   7.277  -7.458  0.00  0.00    -0.026 C 
ATOM     20  C   LIG d   1       9.065   8.633  -7.902  0.00  0.00     0.059 C 
ATOM     21  H   LIG d   1       8.015   8.711  -7.617  0.00  0.00     0.060 H 
ATOM     22  C   LIG d   1       9.900   9.723  -7.242  0.00  0.00    -0.005 C 
ATOM     23  H   LIG d   1      11.346   5.904  -1.310  0.00  0.00     0.027 H 
ATOM     24  H   LIG d   1       9.669   6.517  -1.379  0.00  0.00     0.027 H 
ATOM     25  H   LIG d   1      11.866   7.017  -3.446  0.00  0.00     0.027 H 
ATOM     26  H   LIG d   1      10.472   5.939  -3.653  0.00  0.00     0.027 H 
ATOM     27  H   LIG d   1      11.210  10.932  -1.058  0.00  0.00     0.027 H 
ATOM     28  H   LIG d   1       9.554  10.866  -0.385  0.00  0.00     0.027 H 
ATOM     29  H   LIG d   1      12.012  10.062   0.917  0.00  0.00     0.029 H 
ATOM     30  H   LIG d   1      10.348   9.898   1.546  0.00  0.00     0.029 H 
ATOM     31  H   LIG d   1       8.373  10.183  -3.210  0.00  0.00     0.031 H 
ATOM     32  H   LIG d   1       9.673  11.390  -3.055  0.00  0.00     0.031 H 
ATOM     33  H   LIG d   1       9.255  11.459  -5.468  0.00  0.00     0.057 H 
ATOM     34  H   LIG d   1       9.756   6.116  -5.649  0.00  0.00     0.027 H 
ATOM     35  H   LIG d   1       8.348   7.204  -5.718  0.00  0.00     0.027 H 
ATOM     36  H   LIG d   1      10.681   7.226  -7.686  0.00  0.00     0.029 H 
ATOM     37  H   LIG d   1       9.093   6.482  -7.991  0.00  0.00     0.029 H 
ATOM     38  H   LIG d   1       9.467  10.690  -7.495  0.00  0.00     0.034 H 
ATOM     39  H   LIG d   1      10.935   9.684  -7.582  0.00  0.00     0.034 H 
ENDROOT
BRANCH   1  40
ATOM     40  C   LIG d   1      12.567   8.385  -1.534  0.00  0.00    -0.057 C 
ATOM     41  H   LIG d   1      13.290   8.156  -0.751  0.00  0.00     0.024 H 
ATOM     42  H   LIG d   1      12.801   7.804  -2.426  0.00  0.00     0.024 H 
ATOM     43  H   LIG d   1      12.612   9.448  -1.770  0.00  0.00     0.024 H 
ENDBRANCH   1  40
BRANCH  12  44
ATOM     44  O   LIG d   1      12.240   7.582   1.091  0.00  0.00    -0.391 OA
ATOM     45  H   LIG d   1      12.300   7.744   2.042  0.00  0.00     0.210 HD
ENDBRANCH  12  44
BRANCH  17  46
ATOM     46  C   LIG d   1      11.683   7.952  -5.504  0.00  0.00    -0.056 C 
ATOM     47  H   LIG d   1      12.274   8.184  -4.618  0.00  0.00     0.024 H 
ATOM     48  H   LIG d   1      11.843   6.909  -5.783  0.00  0.00     0.024 H 
ATOM     49  H   LIG d   1      11.991   8.598  -6.326  0.00  0.00     0.024 H 
ENDBRANCH  17  46
BRANCH  20  50
ATOM     50  O   LIG d   1       9.183   8.754  -9.321  0.00  0.00    -0.392 OA
ATOM     51  H   LIG d   1       8.553   8.211  -9.816  0.00  0.00     0.210 HD
ENDBRANCH  20  50
TORSDOF 4
ENDMDL
MODEL 10
REMARK VINA RESULT:      -5.2     10.999     13.517
REMARK  4 active torsions:
REMARK  status: ('A' for Active; 'I' for Inactive)
REMARK    1  A    between atoms: C_1  and  C_2 
REMARK    2  A    between atoms: C_13  and  O_15 
REMARK    3  A    between atoms: C_19  and  C_26 
REMARK    4  A    between atoms: C_22  and  O_25 
ROOT
ATOM      1  C   LIG d   1      11.169   8.497  -1.124  0.00  0.00    -0.003 C 
ATOM      2  C   LIG d   1      12.136   9.398  -1.871  0.00  0.00    -0.045 C 
ATOM      3  C   LIG d   1      11.475   9.760  -3.210  0.00  0.00    -0.049 C 
ATOM      4  C   LIG d   1      11.131   8.518  -4.026  0.00  0.00    -0.029 C 
ATOM      5  H   LIG d   1      12.060   8.017  -4.300  0.00  0.00     0.031 H 
ATOM      6  C   LIG d   1      10.269   7.531  -3.225  0.00  0.00    -0.031 C 
ATOM      7  H   LIG d   1       9.305   7.982  -2.988  0.00  0.00     0.031 H 
ATOM      8  C   LIG d   1      11.042   7.191  -1.953  0.00  0.00    -0.030 C 
ATOM      9  H   LIG d   1      12.035   6.811  -2.195  0.00  0.00     0.031 H 
ATOM     10  C   LIG d   1      10.347   6.231  -0.994  0.00  0.00    -0.047 C 
ATOM     11  C   LIG d   1      10.778   6.684   0.422  0.00  0.00    -0.026 C 
ATOM     12  C   LIG d   1      11.646   7.957   0.230  0.00  0.00     0.061 C 
ATOM     13  H   LIG d   1      12.704   7.701   0.192  0.00  0.00     0.060 H 
ATOM     14  C   LIG d   1      10.070   6.272  -4.076  0.00  0.00    -0.031 C 
ATOM     15  C   LIG d   1       9.467   6.658  -5.395  0.00  0.00    -0.084 C 
ATOM     16  C   LIG d   1       9.626   7.832  -5.931  0.00  0.00    -0.065 C 
ATOM     17  C   LIG d   1      10.412   8.922  -5.302  0.00  0.00    -0.008 C 
ATOM     18  C   LIG d   1      11.414   9.479  -6.315  0.00  0.00    -0.041 C 
ATOM     19  C   LIG d   1      10.676   9.868  -7.598  0.00  0.00    -0.026 C 
ATOM     20  C   LIG d   1      10.045   8.624  -8.226  0.00  0.00     0.059 C 
ATOM     21  H   LIG d   1      10.816   7.874  -8.403  0.00  0.00     0.060 H 
ATOM     22  C   LIG d   1       8.974   8.104  -7.276  0.00  0.00    -0.005 C 
ATOM     23  H   LIG d   1      12.323  10.302  -1.292  0.00  0.00     0.027 H 
ATOM     24  H   LIG d   1      13.074   8.869  -2.050  0.00  0.00     0.027 H 
ATOM     25  H   LIG d   1      10.562  10.322  -3.015  0.00  0.00     0.027 H 
ATOM     26  H   LIG d   1      12.159  10.385  -3.786  0.00  0.00     0.027 H 
ATOM     27  H   LIG d   1       9.265   6.306  -1.103  0.00  0.00     0.027 H 
ATOM     28  H   LIG d   1      10.675   5.208  -1.179  0.00  0.00     0.027 H 
ATOM     29  H   LIG d   1       9.899   6.918   1.024  0.00  0.00     0.029 H 
ATOM     30  H   LIG d   1      11.363   5.902   0.904  0.00  0.00     0.029 H 
ATOM     31  H   LIG d   1      11.031   5.788  -4.242  0.00  0.00     0.031 H 
ATOM     32  H   LIG d   1       9.400   5.584  -3.557  0.00  0.00     0.031 H 
ATOM     33  H   LIG d   1       8.875   5.926  -5.925  0.00  0.00     0.057 H 
ATOM     34  H   LIG d   1      11.904  10.359  -5.897  0.00  0.00     0.027 H 
ATOM     35  H   LIG d   1      12.162   8.720  -6.543  0.00  0.00     0.027 H 
ATOM     36  H   LIG d   1       9.895  10.592  -7.362  0.00  0.00     0.029 H 
ATOM     37  H   LIG d   1      11.380  10.312  -8.303  0.00  0.00     0.029 H 
ATOM     38  H   LIG d   1       8.572   7.177  -7.683  0.00  0.00     0.034 H 
ATOM     39  H   LIG d   1       8.170   8.831  -7.154  0.00  0.00     0.034 H 
ENDROOT
BRANCH   1  40
ATOM     40  C   LIG d   1       9.807   9.178  -0.980  0.00  0.00    -0.057 C 
ATOM     41  H   LIG d   1       9.810   9.812  -0.093  0.00  0.00     0.024 H 
ATOM     42  H   LIG d   1       9.610   9.787  -1.862  0.00  0.00     0.024 H 
ATOM     43  H   LIG d   1       9.030   8.419  -0.881  0.00  0.00     0.024 H 
ENDBRANCH   1  40
BRANCH  12  44
ATOM     44  O   LIG d   1      11.391   8.905   1.269  0.00  0.00    -0.391 OA
ATOM     45  H   LIG d   1      10.884   8.548   2.011  0.00  0.00     0.210 HD
ENDBRANCH  12  44
BRANCH  17  46
ATOM     46  C   LIG d   1       9.429  10.044  -4.959  0.00  0.00    -0.056 C 
ATOM     47  H   LIG d   1       9.906  10.751  -4.280  0.00  0.00     0.024 H 
ATOM     48  H   LIG d   1       9.135  10.562  -5.873  0.00  0.00     0.024 H 
ATOM     49  H   LIG d   1       8.545   9.621  -4.482  0.00  0.00     0.024 H 
ENDBRANCH  17  46
BRANCH  20  50
ATOM     50  O   LIG d   1       9.431   8.977  -9.468  0.00  0.00    -0.392 OA
ATOM     51  H   LIG d   1       8.472   8.850  -9.483  0.00  0.00     0.210 HD
ENDBRANCH  20  50
TORSDOF 4
ENDMDL
