MODEL 1
REMARK VINA RESULT:      -8.3      0.000      0.000
REMARK  6 active torsions:
REMARK  status: ('A' for Active; 'I' for Inactive)
REMARK    1  A    between atoms: C_4  and  C_7 
REMARK    2  A    between atoms: C_7  and  C_8 
REMARK       I    between atoms: C_8  and  N_10 
REMARK    3  A    between atoms: N_10  and  N_11 
REMARK    4  A    between atoms: N_19  and  C_22 
REMARK    5  A    between atoms: C_22  and  N_23 
REMARK    6  A    between atoms: C_28  and  C_30 
ROOT
ATOM      1  N   LIG d   1       3.960  -3.854  -7.901  0.00  0.00    -0.174 NA
ATOM      2  C   LIG d   1       4.899  -3.706  -6.998  0.00  0.00     0.153 A 
ATOM      3  C   LIG d   1       5.875  -4.720  -6.538  0.00  0.00     0.029 A 
ATOM      4  C   LIG d   1       6.100  -6.049  -6.880  0.00  0.00    -0.051 A 
ATOM      5  C   LIG d   1       7.113  -6.754  -6.260  0.00  0.00    -0.061 A 
ATOM      6  C   LIG d   1       7.900  -6.139  -5.302  0.00  0.00    -0.060 A 
ATOM      7  C   LIG d   1       7.685  -4.820  -4.956  0.00  0.00    -0.039 A 
ATOM      8  C   LIG d   1       6.670  -4.094  -5.569  0.00  0.00     0.051 A 
ATOM      9  N   LIG d   1       6.248  -2.779  -5.409  0.00  0.00    -0.227 N 
ATOM     10  C   LIG d   1       5.219  -2.490  -6.223  0.00  0.00     0.275 A 
ATOM     11  O   LIG d   1       4.649  -1.417  -6.305  0.00  0.00    -0.268 OA
ATOM     12  H   LIG d   1       5.485  -6.528  -7.628  0.00  0.00     0.062 H 
ATOM     13  H   LIG d   1       7.291  -7.787  -6.522  0.00  0.00     0.062 H 
ATOM     14  H   LIG d   1       8.691  -6.696  -4.821  0.00  0.00     0.062 H 
ATOM     15  H   LIG d   1       8.305  -4.352  -4.207  0.00  0.00     0.064 H 
ENDROOT
BRANCH   9  16
ATOM     16  C   LIG d   1       6.854  -1.826  -4.476  0.00  0.00     0.046 C 
ATOM     17  H   LIG d   1       7.370  -2.370  -3.685  0.00  0.00     0.105 H 
ATOM     18  H   LIG d   1       7.567  -1.198  -5.010  0.00  0.00     0.105 H 
BRANCH  16  19
ATOM     19  N   LIG d   1       5.805  -0.983  -3.886  0.00  0.00     0.254 N 
ATOM     20  C   LIG d   1       6.421   0.182  -3.239  0.00  0.00     0.008 C 
ATOM     21  C   LIG d   1       5.329   1.104  -2.694  0.00  0.00    -0.005 C 
ATOM     22  H   LIG d   1       7.056  -0.152  -2.420  0.00  0.00     0.090 H 
ATOM     23  C   LIG d   1       4.484   0.337  -1.672  0.00  0.00    -0.043 C 
ATOM     24  H   LIG d   1       4.692   1.438  -3.513  0.00  0.00     0.032 H 
ATOM     25  H   LIG d   1       5.787   1.967  -2.213  0.00  0.00     0.032 H 
ATOM     26  C   LIG d   1       3.907  -0.915  -2.337  0.00  0.00    -0.012 C 
ATOM     27  H   LIG d   1       3.670   0.972  -1.322  0.00  0.00     0.027 H 
ATOM     28  H   LIG d   1       5.109   0.046  -0.828  0.00  0.00     0.027 H 
ATOM     29  C   LIG d   1       5.052  -1.763  -2.896  0.00  0.00    -0.030 C 
ATOM     30  H   LIG d   1       3.242  -0.623  -3.149  0.00  0.00     0.032 H 
ATOM     31  H   LIG d   1       3.350  -1.496  -1.601  0.00  0.00     0.032 H 
ATOM     32  H   LIG d   1       4.645  -2.655  -3.371  0.00  0.00     0.082 H 
ATOM     33  H   LIG d   1       5.717  -2.056  -2.083  0.00  0.00     0.082 H 
ATOM     34  H   LIG d   1       5.178  -0.671  -4.613  0.00  0.00     0.206 HD
BRANCH  20  35
ATOM     35  C   LIG d   1       7.255   0.932  -4.246  0.00  0.00     0.018 A 
ATOM     36  C   LIG d   1       6.963   0.852  -5.594  0.00  0.00     0.036 A 
ATOM     37  N   LIG d   1       7.684   1.510  -6.480  0.00  0.00    -0.263 NA
ATOM     38  H   LIG d   1       6.132   0.247  -5.926  0.00  0.00     0.083 H 
ATOM     39  C   LIG d   1       8.712   2.256  -6.122  0.00  0.00     0.028 A 
ATOM     40  C   LIG d   1       9.066   2.379  -4.792  0.00  0.00    -0.043 A 
ATOM     41  H   LIG d   1       9.282   2.776  -6.877  0.00  0.00     0.083 H 
ATOM     42  C   LIG d   1       8.327   1.707  -3.831  0.00  0.00    -0.050 A 
ATOM     43  H   LIG d   1       9.908   2.992  -4.505  0.00  0.00     0.063 H 
ATOM     44  H   LIG d   1       8.581   1.784  -2.785  0.00  0.00     0.062 H 
ENDBRANCH  20  35
ENDBRANCH  16  19
ENDBRANCH   9  16
BRANCH   1  45
ATOM     45  N   LIG d   1       3.121  -2.778  -8.222  0.00  0.00    -0.206 N 
ATOM     46  C   LIG d   1       2.634  -2.652  -9.472  0.00  0.00     0.236 C 
ATOM     47  O   LIG d   1       2.922  -3.470 -10.320  0.00  0.00    -0.274 OA
ATOM     48  H   LIG d   1       2.891  -2.124  -7.543  0.00  0.00     0.177 HD
BRANCH  46  49
ATOM     49  C   LIG d   1       1.732  -1.495  -9.817  0.00  0.00     0.051 C 
ATOM     50  H   LIG d   1       0.934  -1.424  -9.077  0.00  0.00     0.041 H 
ATOM     51  H   LIG d   1       1.300  -1.653 -10.804  0.00  0.00     0.041 H 
BRANCH  49  52
ATOM     52  C   LIG d   1       2.532  -0.218  -9.817  0.00  0.00    -0.039 A 
ATOM     53  C   LIG d   1       2.453   0.648  -8.743  0.00  0.00    -0.058 A 
ATOM     54  C   LIG d   1       3.188   1.819  -8.743  0.00  0.00    -0.061 A 
ATOM     55  H   LIG d   1       1.817   0.410  -7.904  0.00  0.00     0.062 H 
ATOM     56  C   LIG d   1       4.003   2.123  -9.818  0.00  0.00    -0.062 A 
ATOM     57  H   LIG d   1       3.126   2.495  -7.904  0.00  0.00     0.062 H 
ATOM     58  C   LIG d   1       4.083   1.256 -10.891  0.00  0.00    -0.061 A 
ATOM     59  H   LIG d   1       4.574   3.039  -9.819  0.00  0.00     0.062 H 
ATOM     60  C   LIG d   1       3.347   0.086 -10.892  0.00  0.00    -0.058 A 
ATOM     61  H   LIG d   1       4.720   1.494 -11.731  0.00  0.00     0.062 H 
ATOM     62  H   LIG d   1       3.409  -0.591 -11.731  0.00  0.00     0.062 H 
ENDBRANCH  49  52
ENDBRANCH  46  49
ENDBRANCH   1  45
TORSDOF 6
ENDMDL
MODEL 2
REMARK VINA RESULT:      -8.3      2.275      6.220
REMARK  6 active torsions:
REMARK  status: ('A' for Active; 'I' for Inactive)
REMARK    1  A    between atoms: C_4  and  C_7 
REMARK    2  A    between atoms: C_7  and  C_8 
REMARK       I    between atoms: C_8  and  N_10 
REMARK    3  A    between atoms: N_10  and  N_11 
REMARK    4  A    between atoms: N_19  and  C_22 
REMARK    5  A    between atoms: C_22  and  N_23 
REMARK    6  A    between atoms: C_28  and  C_30 
ROOT
ATOM      1  N   LIG d   1       6.671   1.623  -9.192  0.00  0.00    -0.174 NA
ATOM      2  C   LIG d   1       5.699   0.944  -8.634  0.00  0.00     0.153 A 
ATOM      3  C   LIG d   1       4.399   0.570  -9.238  0.00  0.00     0.029 A 
ATOM      4  C   LIG d   1       3.829   0.795 -10.486  0.00  0.00    -0.051 A 
ATOM      5  C   LIG d   1       2.566   0.308 -10.760  0.00  0.00    -0.061 A 
ATOM      6  C   LIG d   1       1.872  -0.402  -9.795  0.00  0.00    -0.060 A 
ATOM      7  C   LIG d   1       2.430  -0.631  -8.553  0.00  0.00    -0.039 A 
ATOM      8  C   LIG d   1       3.700  -0.148  -8.259  0.00  0.00     0.051 A 
ATOM      9  N   LIG d   1       4.478  -0.236  -7.110  0.00  0.00    -0.227 N 
ATOM     10  C   LIG d   1       5.663   0.379  -7.270  0.00  0.00     0.275 A 
ATOM     11  O   LIG d   1       6.547   0.458  -6.438  0.00  0.00    -0.268 OA
ATOM     12  H   LIG d   1       4.371   1.349 -11.238  0.00  0.00     0.062 H 
ATOM     13  H   LIG d   1       2.119   0.481 -11.728  0.00  0.00     0.062 H 
ATOM     14  H   LIG d   1       0.885  -0.780 -10.016  0.00  0.00     0.062 H 
ATOM     15  H   LIG d   1       1.878  -1.185  -7.809  0.00  0.00     0.064 H 
ENDROOT
BRANCH   9  16
ATOM     16  C   LIG d   1       4.062  -0.918  -5.882  0.00  0.00     0.046 C 
ATOM     17  H   LIG d   1       2.986  -1.087  -5.907  0.00  0.00     0.105 H 
ATOM     18  H   LIG d   1       4.579  -1.875  -5.805  0.00  0.00     0.105 H 
BRANCH  16  19
ATOM     19  N   LIG d   1       4.401  -0.085  -4.720  0.00  0.00     0.254 N 
ATOM     20  C   LIG d   1       4.743  -0.948  -3.583  0.00  0.00     0.008 C 
ATOM     21  C   LIG d   1       5.174  -0.087  -2.395  0.00  0.00    -0.005 C 
ATOM     22  H   LIG d   1       3.873  -1.542  -3.304  0.00  0.00     0.090 H 
ATOM     23  C   LIG d   1       4.024   0.845  -2.003  0.00  0.00    -0.043 C 
ATOM     24  H   LIG d   1       6.044   0.508  -2.673  0.00  0.00     0.032 H 
ATOM     25  H   LIG d   1       5.426  -0.729  -1.552  0.00  0.00     0.032 H 
ATOM     26  C   LIG d   1       3.626   1.689  -3.217  0.00  0.00    -0.012 C 
ATOM     27  H   LIG d   1       4.345   1.500  -1.193  0.00  0.00     0.027 H 
ATOM     28  H   LIG d   1       3.170   0.252  -1.676  0.00  0.00     0.027 H 
ATOM     29  C   LIG d   1       3.252   0.761  -4.375  0.00  0.00    -0.030 C 
ATOM     30  H   LIG d   1       4.464   2.319  -3.512  0.00  0.00     0.032 H 
ATOM     31  H   LIG d   1       2.771   2.315  -2.961  0.00  0.00     0.032 H 
ATOM     32  H   LIG d   1       2.969   1.358  -5.242  0.00  0.00     0.082 H 
ATOM     33  H   LIG d   1       2.413   0.131  -4.079  0.00  0.00     0.082 H 
ATOM     34  H   LIG d   1       5.191   0.501  -4.946  0.00  0.00     0.206 HD
BRANCH  20  35
ATOM     35  C   LIG d   1       5.872  -1.867  -3.973  0.00  0.00     0.018 A 
ATOM     36  C   LIG d   1       5.606  -3.126  -4.479  0.00  0.00     0.036 A 
ATOM     37  N   LIG d   1       6.589  -3.933  -4.829  0.00  0.00    -0.263 NA
ATOM     38  H   LIG d   1       4.583  -3.450  -4.594  0.00  0.00     0.083 H 
ATOM     39  C   LIG d   1       7.854  -3.582  -4.700  0.00  0.00     0.028 A 
ATOM     40  C   LIG d   1       8.196  -2.341  -4.195  0.00  0.00    -0.043 A 
ATOM     41  H   LIG d   1       8.631  -4.272  -4.992  0.00  0.00     0.083 H 
ATOM     42  C   LIG d   1       7.190  -1.463  -3.824  0.00  0.00    -0.050 A 
ATOM     43  H   LIG d   1       9.233  -2.059  -4.093  0.00  0.00     0.063 H 
ATOM     44  H   LIG d   1       7.427  -0.487  -3.427  0.00  0.00     0.062 H 
ENDBRANCH  20  35
ENDBRANCH  16  19
ENDBRANCH   9  16
BRANCH   1  45
ATOM     45  N   LIG d   1       7.846   1.885  -8.472  0.00  0.00    -0.206 N 
ATOM     46  C   LIG d   1       8.497   3.052  -8.646  0.00  0.00     0.236 C 
ATOM     47  O   LIG d   1       8.068   3.876  -9.425  0.00  0.00    -0.274 OA
ATOM     48  H   LIG d   1       8.188   1.226  -7.849  0.00  0.00     0.177 HD
BRANCH  46  49
ATOM     49  C   LIG d   1       9.760   3.332  -7.872  0.00  0.00     0.051 C 
ATOM     50  H   LIG d   1       9.927   4.409  -7.828  0.00  0.00     0.041 H 
ATOM     51  H   LIG d   1      10.603   2.853  -8.368  0.00  0.00     0.041 H 
BRANCH  49  52
ATOM     52  C   LIG d   1       9.623   2.787  -6.474  0.00  0.00    -0.039 A 
ATOM     53  C   LIG d   1       9.021   3.548  -5.490  0.00  0.00    -0.058 A 
ATOM     54  C   LIG d   1       8.894   3.047  -4.208  0.00  0.00    -0.061 A 
ATOM     55  H   LIG d   1       8.650   4.535  -5.724  0.00  0.00     0.062 H 
ATOM     56  C   LIG d   1       9.369   1.783  -3.911  0.00  0.00    -0.062 A 
ATOM     57  H   LIG d   1       8.425   3.642  -3.440  0.00  0.00     0.062 H 
ATOM     58  C   LIG d   1       9.969   1.021  -4.895  0.00  0.00    -0.061 A 
ATOM     59  H   LIG d   1       9.274   1.393  -2.909  0.00  0.00     0.062 H 
ATOM     60  C   LIG d   1      10.097   1.522  -6.177  0.00  0.00    -0.058 A 
ATOM     61  H   LIG d   1      10.340   0.033  -4.662  0.00  0.00     0.062 H 
ATOM     62  H   LIG d   1      10.567   0.927  -6.946  0.00  0.00     0.062 H 
ENDBRANCH  49  52
ENDBRANCH  46  49
ENDBRANCH   1  45
TORSDOF 6
ENDMDL
MODEL 3
REMARK VINA RESULT:      -8.2      2.370      5.836
REMARK  6 active torsions:
REMARK  status: ('A' for Active; 'I' for Inactive)
REMARK    1  A    between atoms: C_4  and  C_7 
REMARK    2  A    between atoms: C_7  and  C_8 
REMARK       I    between atoms: C_8  and  N_10 
REMARK    3  A    between atoms: N_10  and  N_11 
REMARK    4  A    between atoms: N_19  and  C_22 
REMARK    5  A    between atoms: C_22  and  N_23 
REMARK    6  A    between atoms: C_28  and  C_30 
ROOT
ATOM      1  N   LIG d   1       3.199   0.713  -6.536  0.00  0.00    -0.174 NA
ATOM      2  C   LIG d   1       3.697  -0.120  -5.655  0.00  0.00     0.153 A 
ATOM      3  C   LIG d   1       3.879   0.107  -4.203  0.00  0.00     0.029 A 
ATOM      4  C   LIG d   1       3.606   1.183  -3.365  0.00  0.00    -0.051 A 
ATOM      5  C   LIG d   1       3.895   1.093  -2.018  0.00  0.00    -0.061 A 
ATOM      6  C   LIG d   1       4.454  -0.065  -1.505  0.00  0.00    -0.060 A 
ATOM      7  C   LIG d   1       4.728  -1.139  -2.328  0.00  0.00    -0.039 A 
ATOM      8  C   LIG d   1       4.445  -1.067  -3.687  0.00  0.00     0.051 A 
ATOM      9  N   LIG d   1       4.618  -1.985  -4.717  0.00  0.00    -0.227 N 
ATOM     10  C   LIG d   1       4.193  -1.491  -5.892  0.00  0.00     0.275 A 
ATOM     11  O   LIG d   1       4.215  -2.069  -6.963  0.00  0.00    -0.268 OA
ATOM     12  H   LIG d   1       3.170   2.086  -3.767  0.00  0.00     0.062 H 
ATOM     13  H   LIG d   1       3.686   1.926  -1.364  0.00  0.00     0.062 H 
ATOM     14  H   LIG d   1       4.678  -0.129  -0.450  0.00  0.00     0.062 H 
ATOM     15  H   LIG d   1       5.165  -2.036  -1.915  0.00  0.00     0.064 H 
ENDROOT
BRANCH   9  16
ATOM     16  C   LIG d   1       5.186  -3.324  -4.542  0.00  0.00     0.046 C 
ATOM     17  H   LIG d   1       5.217  -3.569  -3.480  0.00  0.00     0.105 H 
ATOM     18  H   LIG d   1       4.566  -4.052  -5.065  0.00  0.00     0.105 H 
BRANCH  16  19
ATOM     19  N   LIG d   1       6.548  -3.353  -5.092  0.00  0.00     0.254 N 
ATOM     20  C   LIG d   1       6.941  -4.745  -5.346  0.00  0.00     0.008 C 
ATOM     21  C   LIG d   1       8.326  -4.777  -5.994  0.00  0.00    -0.005 C 
ATOM     22  H   LIG d   1       6.968  -5.292  -4.404  0.00  0.00     0.090 H 
ATOM     23  C   LIG d   1       9.340  -4.123  -5.052  0.00  0.00    -0.043 C 
ATOM     24  H   LIG d   1       8.300  -4.230  -6.936  0.00  0.00     0.032 H 
ATOM     25  H   LIG d   1       8.617  -5.810  -6.180  0.00  0.00     0.032 H 
ATOM     26  C   LIG d   1       8.881  -2.697  -4.735  0.00  0.00    -0.012 C 
ATOM     27  H   LIG d   1      10.318  -4.092  -5.532  0.00  0.00     0.027 H 
ATOM     28  H   LIG d   1       9.404  -4.698  -4.129  0.00  0.00     0.027 H 
ATOM     29  C   LIG d   1       7.475  -2.741  -4.133  0.00  0.00    -0.030 C 
ATOM     30  H   LIG d   1       8.866  -2.107  -5.650  0.00  0.00     0.032 H 
ATOM     31  H   LIG d   1       9.569  -2.243  -4.020  0.00  0.00     0.032 H 
ATOM     32  H   LIG d   1       7.145  -1.728  -3.906  0.00  0.00     0.082 H 
ATOM     33  H   LIG d   1       7.491  -3.331  -3.216  0.00  0.00     0.082 H 
ATOM     34  H   LIG d   1       6.571  -2.835  -5.958  0.00  0.00     0.206 HD
BRANCH  20  35
ATOM     35  C   LIG d   1       5.939  -5.389  -6.270  0.00  0.00     0.018 A 
ATOM     36  C   LIG d   1       5.064  -6.347  -5.795  0.00  0.00     0.036 A 
ATOM     37  N   LIG d   1       4.181  -6.910  -6.596  0.00  0.00    -0.263 NA
ATOM     38  H   LIG d   1       5.102  -6.636  -4.755  0.00  0.00     0.083 H 
ATOM     39  C   LIG d   1       4.103  -6.594  -7.874  0.00  0.00     0.028 A 
ATOM     40  C   LIG d   1       4.950  -5.648  -8.421  0.00  0.00    -0.043 A 
ATOM     41  H   LIG d   1       3.370  -7.080  -8.500  0.00  0.00     0.083 H 
ATOM     42  C   LIG d   1       5.887  -5.030  -7.608  0.00  0.00    -0.050 A 
ATOM     43  H   LIG d   1       4.880  -5.393  -9.468  0.00  0.00     0.063 H 
ATOM     44  H   LIG d   1       6.561  -4.287  -8.008  0.00  0.00     0.062 H 
ENDBRANCH  20  35
ENDBRANCH  16  19
ENDBRANCH   9  16
BRANCH   1  45
ATOM     45  N   LIG d   1       3.093   0.330  -7.881  0.00  0.00    -0.206 N 
ATOM     46  C   LIG d   1       3.432   1.195  -8.857  0.00  0.00     0.236 C 
ATOM     47  O   LIG d   1       3.830   2.304  -8.572  0.00  0.00    -0.274 OA
ATOM     48  H   LIG d   1       2.774  -0.558  -8.107  0.00  0.00     0.177 HD
BRANCH  46  49
ATOM     49  C   LIG d   1       3.318   0.782 -10.302  0.00  0.00     0.051 C 
ATOM     50  H   LIG d   1       4.269   0.957 -10.806  0.00  0.00     0.041 H 
ATOM     51  H   LIG d   1       2.536   1.368 -10.785  0.00  0.00     0.041 H 
BRANCH  49  52
ATOM     52  C   LIG d   1       2.969  -0.682 -10.379  0.00  0.00    -0.039 A 
ATOM     53  C   LIG d   1       3.971  -1.626 -10.497  0.00  0.00    -0.058 A 
ATOM     54  C   LIG d   1       3.651  -2.969 -10.567  0.00  0.00    -0.061 A 
ATOM     55  H   LIG d   1       5.004  -1.314 -10.534  0.00  0.00     0.062 H 
ATOM     56  C   LIG d   1       2.328  -3.367 -10.519  0.00  0.00    -0.062 A 
ATOM     57  H   LIG d   1       4.433  -3.707 -10.659  0.00  0.00     0.062 H 
ATOM     58  C   LIG d   1       1.325  -2.423 -10.400  0.00  0.00    -0.061 A 
ATOM     59  H   LIG d   1       2.077  -4.416 -10.577  0.00  0.00     0.062 H 
ATOM     60  C   LIG d   1       1.645  -1.080 -10.331  0.00  0.00    -0.058 A 
ATOM     61  H   LIG d   1       0.292  -2.734 -10.362  0.00  0.00     0.062 H 
ATOM     62  H   LIG d   1       0.862  -0.342 -10.238  0.00  0.00     0.062 H 
ENDBRANCH  49  52
ENDBRANCH  46  49
ENDBRANCH   1  45
TORSDOF 6
ENDMDL
MODEL 4
REMARK VINA RESULT:      -7.8      5.324      9.437
REMARK  6 active torsions:
REMARK  status: ('A' for Active; 'I' for Inactive)
REMARK    1  A    between atoms: C_4  and  C_7 
REMARK    2  A    between atoms: C_7  and  C_8 
REMARK       I    between atoms: C_8  and  N_10 
REMARK    3  A    between atoms: N_10  and  N_11 
REMARK    4  A    between atoms: N_19  and  C_22 
REMARK    5  A    between atoms: C_22  and  N_23 
REMARK    6  A    between atoms: C_28  and  C_30 
ROOT
ATOM      1  N   LIG d   1       8.650   3.084  -4.924  0.00  0.00    -0.174 NA
ATOM      2  C   LIG d   1       9.568   3.997  -4.721  0.00  0.00     0.153 A 
ATOM      3  C   LIG d   1      10.019   5.047  -5.664  0.00  0.00     0.029 A 
ATOM      4  C   LIG d   1       9.650   5.384  -6.962  0.00  0.00    -0.051 A 
ATOM      5  C   LIG d   1      10.268   6.443  -7.596  0.00  0.00    -0.061 A 
ATOM      6  C   LIG d   1      11.250   7.167  -6.941  0.00  0.00    -0.060 A 
ATOM      7  C   LIG d   1      11.622   6.841  -5.652  0.00  0.00    -0.039 A 
ATOM      8  C   LIG d   1      11.012   5.777  -4.998  0.00  0.00     0.051 A 
ATOM      9  N   LIG d   1      11.195   5.248  -3.724  0.00  0.00    -0.227 N 
ATOM     10  C   LIG d   1      10.374   4.208  -3.502  0.00  0.00     0.275 A 
ATOM     11  O   LIG d   1      10.308   3.554  -2.477  0.00  0.00    -0.268 OA
ATOM     12  H   LIG d   1       8.884   4.818  -7.472  0.00  0.00     0.062 H 
ATOM     13  H   LIG d   1       9.985   6.708  -8.605  0.00  0.00     0.062 H 
ATOM     14  H   LIG d   1      11.729   7.995  -7.443  0.00  0.00     0.062 H 
ATOM     15  H   LIG d   1      12.389   7.413  -5.153  0.00  0.00     0.064 H 
ENDROOT
BRANCH   9  16
ATOM     16  C   LIG d   1      12.157   5.764  -2.748  0.00  0.00     0.046 C 
ATOM     17  H   LIG d   1      12.899   4.996  -2.527  0.00  0.00     0.105 H 
ATOM     18  H   LIG d   1      12.655   6.643  -3.158  0.00  0.00     0.105 H 
BRANCH  16  19
ATOM     19  N   LIG d   1      11.451   6.133  -1.513  0.00  0.00     0.254 N 
ATOM     20  C   LIG d   1      11.806   7.508  -1.140  0.00  0.00     0.008 C 
ATOM     21  C   LIG d   1      11.012   7.925   0.099  0.00  0.00    -0.005 C 
ATOM     22  H   LIG d   1      12.872   7.561  -0.923  0.00  0.00     0.090 H 
ATOM     23  C   LIG d   1      11.347   6.979   1.255  0.00  0.00    -0.043 C 
ATOM     24  H   LIG d   1       9.945   7.872  -0.117  0.00  0.00     0.032 H 
ATOM     25  H   LIG d   1      11.278   8.945   0.375  0.00  0.00     0.032 H 
ATOM     26  C   LIG d   1      11.043   5.540   0.829  0.00  0.00    -0.012 C 
ATOM     27  H   LIG d   1      10.743   7.237   2.125  0.00  0.00     0.027 H 
ATOM     28  H   LIG d   1      12.404   7.069   1.506  0.00  0.00     0.027 H 
ATOM     29  C   LIG d   1      11.836   5.210  -0.437  0.00  0.00    -0.030 C 
ATOM     30  H   LIG d   1       9.977   5.437   0.628  0.00  0.00     0.032 H 
ATOM     31  H   LIG d   1      11.331   4.855   1.627  0.00  0.00     0.032 H 
ATOM     32  H   LIG d   1      11.621   4.187  -0.745  0.00  0.00     0.082 H 
ATOM     33  H   LIG d   1      12.902   5.313  -0.236  0.00  0.00     0.082 H 
ATOM     34  H   LIG d   1      10.456   6.073  -1.666  0.00  0.00     0.206 HD
BRANCH  20  35
ATOM     35  C   LIG d   1      11.480   8.437  -2.281  0.00  0.00     0.018 A 
ATOM     36  C   LIG d   1      12.483   9.152  -2.909  0.00  0.00     0.036 A 
ATOM     37  N   LIG d   1      12.206   9.962  -3.913  0.00  0.00    -0.263 NA
ATOM     38  H   LIG d   1      13.504   9.044  -2.577  0.00  0.00     0.083 H 
ATOM     39  C   LIG d   1      10.972  10.131  -4.347  0.00  0.00     0.028 A 
ATOM     40  C   LIG d   1       9.918   9.453  -3.764  0.00  0.00    -0.043 A 
ATOM     41  H   LIG d   1      10.784  10.807  -5.169  0.00  0.00     0.083 H 
ATOM     42  C   LIG d   1      10.171   8.588  -2.712  0.00  0.00    -0.050 A 
ATOM     43  H   LIG d   1       8.910   9.595  -4.126  0.00  0.00     0.063 H 
ATOM     44  H   LIG d   1       9.367   8.045  -2.237  0.00  0.00     0.062 H 
ENDBRANCH  20  35
ENDBRANCH  16  19
ENDBRANCH   9  16
BRANCH   1  45
ATOM     45  N   LIG d   1       8.342   2.164  -3.912  0.00  0.00    -0.206 N 
ATOM     46  C   LIG d   1       7.485   1.153  -4.159  0.00  0.00     0.236 C 
ATOM     47  O   LIG d   1       6.980   1.040  -5.256  0.00  0.00    -0.274 OA
ATOM     48  H   LIG d   1       8.746   2.255  -3.035  0.00  0.00     0.177 HD
BRANCH  46  49
ATOM     49  C   LIG d   1       7.153   0.164  -3.071  0.00  0.00     0.051 C 
ATOM     50  H   LIG d   1       7.580   0.506  -2.127  0.00  0.00     0.041 H 
ATOM     51  H   LIG d   1       7.569  -0.810  -3.327  0.00  0.00     0.041 H 
BRANCH  49  52
ATOM     52  C   LIG d   1       5.657   0.051  -2.934  0.00  0.00    -0.039 A 
ATOM     53  C   LIG d   1       4.916   1.143  -2.522  0.00  0.00    -0.058 A 
ATOM     54  C   LIG d   1       3.543   1.040  -2.398  0.00  0.00    -0.061 A 
ATOM     55  H   LIG d   1       5.410   2.076  -2.297  0.00  0.00     0.062 H 
ATOM     56  C   LIG d   1       2.911  -0.156  -2.687  0.00  0.00    -0.062 A 
ATOM     57  H   LIG d   1       2.964   1.891  -2.076  0.00  0.00     0.062 H 
ATOM     58  C   LIG d   1       3.652  -1.247  -3.100  0.00  0.00    -0.061 A 
ATOM     59  H   LIG d   1       1.839  -0.238  -2.586  0.00  0.00     0.062 H 
ATOM     60  C   LIG d   1       5.025  -1.144  -3.223  0.00  0.00    -0.058 A 
ATOM     61  H   LIG d   1       3.158  -2.181  -3.326  0.00  0.00     0.062 H 
ATOM     62  H   LIG d   1       5.604  -1.997  -3.546  0.00  0.00     0.062 H 
ENDBRANCH  49  52
ENDBRANCH  46  49
ENDBRANCH   1  45
TORSDOF 6
ENDMDL
MODEL 5
REMARK VINA RESULT:      -7.8      4.633      8.435
REMARK  6 active torsions:
REMARK  status: ('A' for Active; 'I' for Inactive)
REMARK    1  A    between atoms: C_4  and  C_7 
REMARK    2  A    between atoms: C_7  and  C_8 
REMARK       I    between atoms: C_8  and  N_10 
REMARK    3  A    between atoms: N_10  and  N_11 
REMARK    4  A    between atoms: N_19  and  C_22 
REMARK    5  A    between atoms: C_22  and  N_23 
REMARK    6  A    between atoms: C_28  and  C_30 
ROOT
ATOM      1  N   LIG d   1       8.047   1.941  -5.887  0.00  0.00    -0.174 NA
ATOM      2  C   LIG d   1       8.968   2.872  -5.913  0.00  0.00     0.153 A 
ATOM      3  C   LIG d   1       9.476   3.604  -7.097  0.00  0.00     0.029 A 
ATOM      4  C   LIG d   1       9.171   3.552  -8.452  0.00  0.00    -0.051 A 
ATOM      5  C   LIG d   1       9.831   4.382  -9.336  0.00  0.00    -0.061 A 
ATOM      6  C   LIG d   1      10.794   5.263  -8.873  0.00  0.00    -0.060 A 
ATOM      7  C   LIG d   1      11.104   5.323  -7.528  0.00  0.00    -0.039 A 
ATOM      8  C   LIG d   1      10.449   4.494  -6.624  0.00  0.00     0.051 A 
ATOM      9  N   LIG d   1      10.568   4.355  -5.245  0.00  0.00    -0.227 N 
ATOM     10  C   LIG d   1       9.723   3.425  -4.770  0.00  0.00     0.275 A 
ATOM     11  O   LIG d   1       9.602   3.095  -3.605  0.00  0.00    -0.268 OA
ATOM     12  H   LIG d   1       8.420   2.864  -8.813  0.00  0.00     0.062 H 
ATOM     13  H   LIG d   1       9.598   4.344 -10.390  0.00  0.00     0.062 H 
ATOM     14  H   LIG d   1      11.307   5.909  -9.569  0.00  0.00     0.062 H 
ATOM     15  H   LIG d   1      11.857   6.013  -7.180  0.00  0.00     0.064 H 
ENDROOT
BRANCH   9  16
ATOM     16  C   LIG d   1      11.494   5.130  -4.415  0.00  0.00     0.046 C 
ATOM     17  H   LIG d   1      12.228   4.459  -3.967  0.00  0.00     0.105 H 
ATOM     18  H   LIG d   1      12.005   5.868  -5.033  0.00  0.00     0.105 H 
BRANCH  16  19
ATOM     19  N   LIG d   1      10.744   5.815  -3.354  0.00  0.00     0.254 N 
ATOM     20  C   LIG d   1      11.043   7.252  -3.394  0.00  0.00     0.008 C 
ATOM     21  C   LIG d   1      10.203   7.981  -2.344  0.00  0.00    -0.005 C 
ATOM     22  H   LIG d   1      12.101   7.407  -3.185  0.00  0.00     0.090 H 
ATOM     23  C   LIG d   1      10.538   7.427  -0.956  0.00  0.00    -0.043 C 
ATOM     24  H   LIG d   1       9.145   7.825  -2.552  0.00  0.00     0.032 H 
ATOM     25  H   LIG d   1      10.428   9.046  -2.374  0.00  0.00     0.032 H 
ATOM     26  C   LIG d   1      10.292   5.915  -0.947  0.00  0.00    -0.012 C 
ATOM     27  H   LIG d   1       9.902   7.903  -0.210  0.00  0.00     0.027 H 
ATOM     28  H   LIG d   1      11.584   7.627  -0.726  0.00  0.00     0.027 H 
ATOM     29  C   LIG d   1      11.129   5.262  -2.049  0.00  0.00    -0.030 C 
ATOM     30  H   LIG d   1       9.236   5.717  -1.127  0.00  0.00     0.032 H 
ATOM     31  H   LIG d   1      10.581   5.504   0.021  0.00  0.00     0.032 H 
ATOM     32  H   LIG d   1      10.956   4.186  -2.047  0.00  0.00     0.082 H 
ATOM     33  H   LIG d   1      12.186   5.460  -1.869  0.00  0.00     0.082 H 
ATOM     34  H   LIG d   1       9.755   5.674  -3.498  0.00  0.00     0.206 HD
BRANCH  20  35
ATOM     35  C   LIG d   1      10.718   7.794  -4.762  0.00  0.00     0.018 A 
ATOM     36  C   LIG d   1      11.708   8.356  -5.545  0.00  0.00     0.036 A 
ATOM     37  N   LIG d   1      11.433   8.826  -6.746  0.00  0.00    -0.263 NA
ATOM     38  H   LIG d   1      12.720   8.406  -5.171  0.00  0.00     0.083 H 
ATOM     39  C   LIG d   1      10.210   8.792  -7.240  0.00  0.00     0.028 A 
ATOM     40  C   LIG d   1       9.168   8.250  -6.512  0.00  0.00    -0.043 A 
ATOM     41  H   LIG d   1      10.022   9.192  -8.226  0.00  0.00     0.083 H 
ATOM     42  C   LIG d   1       9.421   7.739  -5.249  0.00  0.00    -0.050 A 
ATOM     43  H   LIG d   1       8.170   8.223  -6.923  0.00  0.00     0.063 H 
ATOM     44  H   LIG d   1       8.627   7.309  -4.657  0.00  0.00     0.062 H 
ENDBRANCH  20  35
ENDBRANCH  16  19
ENDBRANCH   9  16
BRANCH   1  45
ATOM     45  N   LIG d   1       7.680   1.352  -4.668  0.00  0.00    -0.206 N 
ATOM     46  C   LIG d   1       7.366   0.042  -4.619  0.00  0.00     0.236 C 
ATOM     47  O   LIG d   1       7.401  -0.628  -5.630  0.00  0.00    -0.274 OA
ATOM     48  H   LIG d   1       7.653   1.889  -3.860  0.00  0.00     0.177 HD
BRANCH  46  49
ATOM     49  C   LIG d   1       6.972  -0.589  -3.309  0.00  0.00     0.051 C 
ATOM     50  H   LIG d   1       7.522  -0.113  -2.496  0.00  0.00     0.041 H 
ATOM     51  H   LIG d   1       7.208  -1.653  -3.334  0.00  0.00     0.041 H 
BRANCH  49  52
ATOM     52  C   LIG d   1       5.492  -0.407  -3.090  0.00  0.00    -0.039 A 
ATOM     53  C   LIG d   1       4.611  -1.408  -3.454  0.00  0.00    -0.058 A 
ATOM     54  C   LIG d   1       3.254  -1.242  -3.251  0.00  0.00    -0.061 A 
ATOM     55  H   LIG d   1       4.984  -2.320  -3.896  0.00  0.00     0.062 H 
ATOM     56  C   LIG d   1       2.778  -0.074  -2.684  0.00  0.00    -0.062 A 
ATOM     57  H   LIG d   1       2.566  -2.023  -3.536  0.00  0.00     0.062 H 
ATOM     58  C   LIG d   1       3.659   0.927  -2.319  0.00  0.00    -0.061 A 
ATOM     59  H   LIG d   1       1.718   0.058  -2.530  0.00  0.00     0.062 H 
ATOM     60  C   LIG d   1       5.016   0.761  -2.523  0.00  0.00    -0.058 A 
ATOM     61  H   LIG d   1       3.288   1.839  -1.876  0.00  0.00     0.062 H 
ATOM     62  H   LIG d   1       5.705   1.542  -2.238  0.00  0.00     0.062 H 
ENDBRANCH  49  52
ENDBRANCH  46  49
ENDBRANCH   1  45
TORSDOF 6
ENDMDL
MODEL 6
REMARK VINA RESULT:      -7.7      2.551      7.518
REMARK  6 active torsions:
REMARK  status: ('A' for Active; 'I' for Inactive)
REMARK    1  A    between atoms: C_4  and  C_7 
REMARK    2  A    between atoms: C_7  and  C_8 
REMARK       I    between atoms: C_8  and  N_10 
REMARK    3  A    between atoms: N_10  and  N_11 
REMARK    4  A    between atoms: N_19  and  C_22 
REMARK    5  A    between atoms: C_22  and  N_23 
REMARK    6  A    between atoms: C_28  and  C_30 
ROOT
ATOM      1  N   LIG d   1       7.122   1.759  -3.935  0.00  0.00    -0.174 NA
ATOM      2  C   LIG d   1       6.639   0.590  -4.275  0.00  0.00     0.153 A 
ATOM      3  C   LIG d   1       5.683  -0.247  -3.514  0.00  0.00     0.029 A 
ATOM      4  C   LIG d   1       5.037  -0.084  -2.293  0.00  0.00    -0.051 A 
ATOM      5  C   LIG d   1       4.179  -1.065  -1.835  0.00  0.00    -0.061 A 
ATOM      6  C   LIG d   1       3.965  -2.206  -2.590  0.00  0.00    -0.060 A 
ATOM      7  C   LIG d   1       4.600  -2.376  -3.804  0.00  0.00    -0.039 A 
ATOM      8  C   LIG d   1       5.467  -1.400  -4.281  0.00  0.00     0.051 A 
ATOM      9  N   LIG d   1       6.221  -1.323  -5.447  0.00  0.00    -0.227 N 
ATOM     10  C   LIG d   1       6.923  -0.179  -5.504  0.00  0.00     0.275 A 
ATOM     11  O   LIG d   1       7.664   0.163  -6.407  0.00  0.00    -0.268 OA
ATOM     12  H   LIG d   1       5.205   0.806  -1.705  0.00  0.00     0.062 H 
ATOM     13  H   LIG d   1       3.676  -0.943  -0.887  0.00  0.00     0.062 H 
ATOM     14  H   LIG d   1       3.293  -2.969  -2.227  0.00  0.00     0.062 H 
ATOM     15  H   LIG d   1       4.425  -3.271  -4.382  0.00  0.00     0.064 H 
ENDROOT
BRANCH   9  16
ATOM     16  C   LIG d   1       6.241  -2.356  -6.485  0.00  0.00     0.046 C 
ATOM     17  H   LIG d   1       6.977  -2.094  -7.245  0.00  0.00     0.105 H 
ATOM     18  H   LIG d   1       6.507  -3.315  -6.038  0.00  0.00     0.105 H 
BRANCH  16  19
ATOM     19  N   LIG d   1       4.912  -2.456  -7.103  0.00  0.00     0.254 N 
ATOM     20  C   LIG d   1       4.871  -3.628  -7.986  0.00  0.00     0.008 C 
ATOM     21  C   LIG d   1       3.466  -3.783  -8.570  0.00  0.00    -0.005 C 
ATOM     22  H   LIG d   1       5.588  -3.497  -8.796  0.00  0.00     0.090 H 
ATOM     23  C   LIG d   1       3.110  -2.527  -9.370  0.00  0.00    -0.043 C 
ATOM     24  H   LIG d   1       2.748  -3.913  -7.760  0.00  0.00     0.032 H 
ATOM     25  H   LIG d   1       3.438  -4.652  -9.226  0.00  0.00     0.032 H 
ATOM     26  C   LIG d   1       3.228  -1.302  -8.458  0.00  0.00    -0.012 C 
ATOM     27  H   LIG d   1       2.089  -2.608  -9.741  0.00  0.00     0.027 H 
ATOM     28  H   LIG d   1       3.797  -2.423 -10.210  0.00  0.00     0.027 H 
ATOM     29  C   LIG d   1       4.643  -1.239  -7.879  0.00  0.00    -0.030 C 
ATOM     30  H   LIG d   1       2.506  -1.381  -7.647  0.00  0.00     0.032 H 
ATOM     31  H   LIG d   1       3.030  -0.398  -9.035  0.00  0.00     0.032 H 
ATOM     32  H   LIG d   1       4.731  -0.369  -7.228  0.00  0.00     0.082 H 
ATOM     33  H   LIG d   1       5.365  -1.159  -8.691  0.00  0.00     0.082 H 
ATOM     34  H   LIG d   1       4.214  -2.555  -6.382  0.00  0.00     0.206 HD
BRANCH  20  35
ATOM     35  C   LIG d   1       5.226  -4.863  -7.198  0.00  0.00     0.018 A 
ATOM     36  C   LIG d   1       6.362  -5.587  -7.507  0.00  0.00     0.036 A 
ATOM     37  N   LIG d   1       6.682  -6.665  -6.817  0.00  0.00    -0.263 NA
ATOM     38  H   LIG d   1       6.996  -5.265  -8.319  0.00  0.00     0.083 H 
ATOM     39  C   LIG d   1       5.934  -7.099  -5.822  0.00  0.00     0.028 A 
ATOM     40  C   LIG d   1       4.781  -6.429  -5.459  0.00  0.00    -0.043 A 
ATOM     41  H   LIG d   1       6.227  -7.988  -5.283  0.00  0.00     0.083 H 
ATOM     42  C   LIG d   1       4.416  -5.288  -6.157  0.00  0.00    -0.050 A 
ATOM     43  H   LIG d   1       4.173  -6.788  -4.642  0.00  0.00     0.063 H 
ATOM     44  H   LIG d   1       3.520  -4.744  -5.896  0.00  0.00     0.062 H 
ENDBRANCH  20  35
ENDBRANCH  16  19
ENDBRANCH   9  16
BRANCH   1  45
ATOM     45  N   LIG d   1       8.020   2.420  -4.784  0.00  0.00    -0.206 N 
ATOM     46  C   LIG d   1       9.308   2.572  -4.417  0.00  0.00     0.236 C 
ATOM     47  O   LIG d   1       9.691   2.136  -3.352  0.00  0.00    -0.274 OA
ATOM     48  H   LIG d   1       7.714   2.769  -5.636  0.00  0.00     0.177 HD
BRANCH  46  49
ATOM     49  C   LIG d   1      10.273   3.283  -5.330  0.00  0.00     0.051 C 
ATOM     50  H   LIG d   1      10.191   2.872  -6.337  0.00  0.00     0.041 H 
ATOM     51  H   LIG d   1      11.290   3.145  -4.963  0.00  0.00     0.041 H 
BRANCH  49  52
ATOM     52  C   LIG d   1       9.945   4.754  -5.359  0.00  0.00    -0.039 A 
ATOM     53  C   LIG d   1       9.645   5.418  -4.185  0.00  0.00    -0.058 A 
ATOM     54  C   LIG d   1       9.346   6.767  -4.211  0.00  0.00    -0.061 A 
ATOM     55  H   LIG d   1       9.645   4.883  -3.247  0.00  0.00     0.062 H 
ATOM     56  C   LIG d   1       9.347   7.452  -5.412  0.00  0.00    -0.062 A 
ATOM     57  H   LIG d   1       9.111   7.286  -3.294  0.00  0.00     0.062 H 
ATOM     58  C   LIG d   1       9.648   6.788  -6.586  0.00  0.00    -0.061 A 
ATOM     59  H   LIG d   1       9.109   8.505  -5.434  0.00  0.00     0.062 H 
ATOM     60  C   LIG d   1       9.947   5.439  -6.560  0.00  0.00    -0.058 A 
ATOM     61  H   LIG d   1       9.650   7.323  -7.525  0.00  0.00     0.062 H 
ATOM     62  H   LIG d   1      10.182   4.919  -7.478  0.00  0.00     0.062 H 
ENDBRANCH  49  52
ENDBRANCH  46  49
ENDBRANCH   1  45
TORSDOF 6
ENDMDL
MODEL 7
REMARK VINA RESULT:      -7.6      2.781      4.572
REMARK  6 active torsions:
REMARK  status: ('A' for Active; 'I' for Inactive)
REMARK    1  A    between atoms: C_4  and  C_7 
REMARK    2  A    between atoms: C_7  and  C_8 
REMARK       I    between atoms: C_8  and  N_10 
REMARK    3  A    between atoms: N_10  and  N_11 
REMARK    4  A    between atoms: N_19  and  C_22 
REMARK    5  A    between atoms: C_22  and  N_23 
REMARK    6  A    between atoms: C_28  and  C_30 
ROOT
ATOM      1  N   LIG d   1       3.234  -0.106  -6.858  0.00  0.00    -0.174 NA
ATOM      2  C   LIG d   1       4.178  -0.385  -5.994  0.00  0.00     0.153 A 
ATOM      3  C   LIG d   1       4.016  -0.747  -4.566  0.00  0.00     0.029 A 
ATOM      4  C   LIG d   1       2.905  -0.897  -3.743  0.00  0.00    -0.051 A 
ATOM      5  C   LIG d   1       3.077  -1.252  -2.419  0.00  0.00    -0.061 A 
ATOM      6  C   LIG d   1       4.351  -1.456  -1.916  0.00  0.00    -0.060 A 
ATOM      7  C   LIG d   1       5.459  -1.310  -2.726  0.00  0.00    -0.039 A 
ATOM      8  C   LIG d   1       5.306  -0.954  -4.061  0.00  0.00     0.051 A 
ATOM      9  N   LIG d   1       6.235  -0.744  -5.074  0.00  0.00    -0.227 N 
ATOM     10  C   LIG d   1       5.636  -0.415  -6.231  0.00  0.00     0.275 A 
ATOM     11  O   LIG d   1       6.195  -0.180  -7.286  0.00  0.00    -0.268 OA
ATOM     12  H   LIG d   1       1.913  -0.737  -4.137  0.00  0.00     0.062 H 
ATOM     13  H   LIG d   1       2.218  -1.369  -1.776  0.00  0.00     0.062 H 
ATOM     14  H   LIG d   1       4.478  -1.733  -0.880  0.00  0.00     0.062 H 
ATOM     15  H   LIG d   1       6.447  -1.472  -2.321  0.00  0.00     0.064 H 
ENDROOT
BRANCH   9  16
ATOM     16  C   LIG d   1       7.685  -0.873  -4.903  0.00  0.00     0.046 C 
ATOM     17  H   LIG d   1       7.903  -1.203  -3.887  0.00  0.00     0.105 H 
ATOM     18  H   LIG d   1       8.071  -1.604  -5.614  0.00  0.00     0.105 H 
BRANCH  16  19
ATOM     19  N   LIG d   1       8.323   0.429  -5.142  0.00  0.00     0.254 N 
ATOM     20  C   LIG d   1       9.764   0.235  -5.348  0.00  0.00     0.008 C 
ATOM     21  C   LIG d   1      10.421   1.576  -5.678  0.00  0.00    -0.005 C 
ATOM     22  H   LIG d   1      10.208  -0.173  -4.441  0.00  0.00     0.090 H 
ATOM     23  C   LIG d   1      10.195   2.548  -4.516  0.00  0.00    -0.043 C 
ATOM     24  H   LIG d   1       9.977   1.986  -6.585  0.00  0.00     0.032 H 
ATOM     25  H   LIG d   1      11.490   1.431  -5.828  0.00  0.00     0.032 H 
ATOM     26  C   LIG d   1       8.692   2.686  -4.262  0.00  0.00    -0.012 C 
ATOM     27  H   LIG d   1      10.613   3.523  -4.770  0.00  0.00     0.027 H 
ATOM     28  H   LIG d   1      10.682   2.164  -3.621  0.00  0.00     0.027 H 
ATOM     29  C   LIG d   1       8.098   1.303  -3.985  0.00  0.00    -0.030 C 
ATOM     30  H   LIG d   1       8.212   3.117  -5.140  0.00  0.00     0.032 H 
ATOM     31  H   LIG d   1       8.525   3.333  -3.401  0.00  0.00     0.032 H 
ATOM     32  H   LIG d   1       7.028   1.396  -3.804  0.00  0.00     0.082 H 
ATOM     33  H   LIG d   1       8.578   0.872  -3.106  0.00  0.00     0.082 H 
ATOM     34  H   LIG d   1       7.921   0.853  -5.965  0.00  0.00     0.206 HD
BRANCH  20  35
ATOM     35  C   LIG d   1       9.983  -0.726  -6.489  0.00  0.00     0.018 A 
ATOM     36  C   LIG d   1      10.548  -1.966  -6.259  0.00  0.00     0.036 A 
ATOM     37  N   LIG d   1      10.736  -2.815  -7.251  0.00  0.00    -0.263 NA
ATOM     38  H   LIG d   1      10.833  -2.246  -5.256  0.00  0.00     0.083 H 
ATOM     39  C   LIG d   1      10.409  -2.513  -8.493  0.00  0.00     0.028 A 
ATOM     40  C   LIG d   1       9.846  -1.289  -8.799  0.00  0.00    -0.043 A 
ATOM     41  H   LIG d   1      10.584  -3.232  -9.280  0.00  0.00     0.083 H 
ATOM     42  C   LIG d   1       9.626  -0.374  -7.781  0.00  0.00    -0.050 A 
ATOM     43  H   LIG d   1       9.579  -1.049  -9.817  0.00  0.00     0.063 H 
ATOM     44  H   LIG d   1       9.186   0.590  -7.990  0.00  0.00     0.062 H 
ENDBRANCH  20  35
ENDBRANCH  16  19
ENDBRANCH   9  16
BRANCH   1  45
ATOM     45  N   LIG d   1       3.568   0.213  -8.182  0.00  0.00    -0.206 N 
ATOM     46  C   LIG d   1       3.345   1.456  -8.654  0.00  0.00     0.236 C 
ATOM     47  O   LIG d   1       2.854   2.299  -7.932  0.00  0.00    -0.274 OA
ATOM     48  H   LIG d   1       3.961  -0.462  -8.758  0.00  0.00     0.177 HD
BRANCH  46  49
ATOM     49  C   LIG d   1       3.704   1.797 -10.077  0.00  0.00     0.051 C 
ATOM     50  H   LIG d   1       4.763   2.048 -10.134  0.00  0.00     0.041 H 
ATOM     51  H   LIG d   1       3.110   2.649 -10.406  0.00  0.00     0.041 H 
BRANCH  49  52
ATOM     52  C   LIG d   1       3.419   0.613 -10.964  0.00  0.00    -0.039 A 
ATOM     53  C   LIG d   1       2.223  -0.070 -10.844  0.00  0.00    -0.058 A 
ATOM     54  C   LIG d   1       1.961  -1.155 -11.658  0.00  0.00    -0.061 A 
ATOM     55  H   LIG d   1       1.493   0.246 -10.114  0.00  0.00     0.062 H 
ATOM     56  C   LIG d   1       2.897  -1.558 -12.594  0.00  0.00    -0.062 A 
ATOM     57  H   LIG d   1       1.028  -1.688 -11.564  0.00  0.00     0.062 H 
ATOM     58  C   LIG d   1       4.092  -0.875 -12.715  0.00  0.00    -0.061 A 
ATOM     59  H   LIG d   1       2.694  -2.408 -13.228  0.00  0.00     0.062 H 
ATOM     60  C   LIG d   1       4.354   0.210 -11.900  0.00  0.00    -0.058 A 
ATOM     61  H   LIG d   1       4.822  -1.190 -13.446  0.00  0.00     0.062 H 
ATOM     62  H   LIG d   1       5.289   0.743 -11.994  0.00  0.00     0.062 H 
ENDBRANCH  49  52
ENDBRANCH  46  49
ENDBRANCH   1  45
TORSDOF 6
ENDMDL
MODEL 8
REMARK VINA RESULT:      -7.5      2.460      5.747
REMARK  6 active torsions:
REMARK  status: ('A' for Active; 'I' for Inactive)
REMARK    1  A    between atoms: C_4  and  C_7 
REMARK    2  A    between atoms: C_7  and  C_8 
REMARK       I    between atoms: C_8  and  N_10 
REMARK    3  A    between atoms: N_10  and  N_11 
REMARK    4  A    between atoms: N_19  and  C_22 
REMARK    5  A    between atoms: C_22  and  N_23 
REMARK    6  A    between atoms: C_28  and  C_30 
ROOT
ATOM      1  N   LIG d   1       5.184  -3.856  -4.967  0.00  0.00    -0.174 NA
ATOM      2  C   LIG d   1       4.770  -2.627  -5.154  0.00  0.00     0.153 A 
ATOM      3  C   LIG d   1       4.366  -1.644  -4.122  0.00  0.00     0.029 A 
ATOM      4  C   LIG d   1       4.297  -1.695  -2.734  0.00  0.00    -0.051 A 
ATOM      5  C   LIG d   1       3.870  -0.587  -2.029  0.00  0.00    -0.061 A 
ATOM      6  C   LIG d   1       3.512   0.568  -2.702  0.00  0.00    -0.060 A 
ATOM      7  C   LIG d   1       3.577   0.629  -4.080  0.00  0.00    -0.039 A 
ATOM      8  C   LIG d   1       4.005  -0.476  -4.807  0.00  0.00     0.051 A 
ATOM      9  N   LIG d   1       4.160  -0.679  -6.174  0.00  0.00    -0.227 N 
ATOM     10  C   LIG d   1       4.612  -1.916  -6.440  0.00  0.00     0.275 A 
ATOM     11  O   LIG d   1       4.846  -2.372  -7.544  0.00  0.00    -0.268 OA
ATOM     12  H   LIG d   1       4.576  -2.597  -2.210  0.00  0.00     0.062 H 
ATOM     13  H   LIG d   1       3.814  -0.622  -0.950  0.00  0.00     0.062 H 
ATOM     14  H   LIG d   1       3.178   1.431  -2.144  0.00  0.00     0.062 H 
ATOM     15  H   LIG d   1       3.294   1.535  -4.593  0.00  0.00     0.064 H 
ENDROOT
BRANCH   9  16
ATOM     16  C   LIG d   1       3.874   0.332  -7.195  0.00  0.00     0.046 C 
ATOM     17  H   LIG d   1       3.032   0.946  -6.873  0.00  0.00     0.105 H 
ATOM     18  H   LIG d   1       4.752   0.963  -7.337  0.00  0.00     0.105 H 
BRANCH  16  19
ATOM     19  N   LIG d   1       3.539  -0.333  -8.462  0.00  0.00     0.254 N 
ATOM     20  C   LIG d   1       3.952   0.518  -9.584  0.00  0.00     0.008 C 
ATOM     21  C   LIG d   1       3.680  -0.204 -10.904  0.00  0.00    -0.005 C 
ATOM     22  H   LIG d   1       3.390   1.451  -9.558  0.00  0.00     0.090 H 
ATOM     23  C   LIG d   1       2.182  -0.506 -11.015  0.00  0.00    -0.043 C 
ATOM     24  H   LIG d   1       4.241  -1.138 -10.931  0.00  0.00     0.032 H 
ATOM     25  H   LIG d   1       3.985   0.429 -11.736  0.00  0.00     0.032 H 
ATOM     26  C   LIG d   1       1.747  -1.332  -9.802  0.00  0.00    -0.012 C 
ATOM     27  H   LIG d   1       1.990  -1.070 -11.928  0.00  0.00     0.027 H 
ATOM     28  H   LIG d   1       1.623   0.429 -11.040  0.00  0.00     0.027 H 
ATOM     29  C   LIG d   1       2.091  -0.568  -8.521  0.00  0.00    -0.030 C 
ATOM     30  H   LIG d   1       2.269  -2.288  -9.805  0.00  0.00     0.032 H 
ATOM     31  H   LIG d   1       0.671  -1.504  -9.845  0.00  0.00     0.032 H 
ATOM     32  H   LIG d   1       1.783  -1.152  -7.655  0.00  0.00     0.082 H 
ATOM     33  H   LIG d   1       1.568   0.389  -8.518  0.00  0.00     0.082 H 
ATOM     34  H   LIG d   1       4.023  -1.217  -8.515  0.00  0.00     0.206 HD
BRANCH  20  35
ATOM     35  C   LIG d   1       5.425   0.818  -9.471  0.00  0.00     0.018 A 
ATOM     36  C   LIG d   1       5.857   2.090  -9.147  0.00  0.00     0.036 A 
ATOM     37  N   LIG d   1       7.144   2.358  -9.039  0.00  0.00    -0.263 NA
ATOM     38  H   LIG d   1       5.132   2.872  -8.975  0.00  0.00     0.083 H 
ATOM     39  C   LIG d   1       8.064   1.436  -9.246  0.00  0.00     0.028 A 
ATOM     40  C   LIG d   1       7.707   0.143  -9.579  0.00  0.00    -0.043 A 
ATOM     41  H   LIG d   1       9.108   1.695  -9.153  0.00  0.00     0.083 H 
ATOM     42  C   LIG d   1       6.363  -0.178  -9.694  0.00  0.00    -0.050 A 
ATOM     43  H   LIG d   1       8.465  -0.608  -9.746  0.00  0.00     0.063 H 
ATOM     44  H   LIG d   1       6.055  -1.180  -9.953  0.00  0.00     0.062 H 
ENDBRANCH  20  35
ENDBRANCH  16  19
ENDBRANCH   9  16
BRANCH   1  45
ATOM     45  N   LIG d   1       5.535  -4.652  -6.066  0.00  0.00    -0.206 N 
ATOM     46  C   LIG d   1       4.650  -5.535  -6.569  0.00  0.00     0.236 C 
ATOM     47  O   LIG d   1       3.549  -5.639  -6.072  0.00  0.00    -0.274 OA
ATOM     48  H   LIG d   1       6.416  -4.567  -6.464  0.00  0.00     0.177 HD
BRANCH  46  49
ATOM     49  C   LIG d   1       5.028  -6.391  -7.750  0.00  0.00     0.051 C 
ATOM     50  H   LIG d   1       4.285  -7.178  -7.881  0.00  0.00     0.041 H 
ATOM     51  H   LIG d   1       6.006  -6.838  -7.576  0.00  0.00     0.041 H 
BRANCH  49  52
ATOM     52  C   LIG d   1       5.079  -5.538  -8.992  0.00  0.00    -0.039 A 
ATOM     53  C   LIG d   1       6.296  -5.233  -9.571  0.00  0.00    -0.058 A 
ATOM     54  C   LIG d   1       6.343  -4.452 -10.711  0.00  0.00    -0.061 A 
ATOM     55  H   LIG d   1       7.210  -5.605  -9.134  0.00  0.00     0.062 H 
ATOM     56  C   LIG d   1       5.172  -3.976 -11.271  0.00  0.00    -0.062 A 
ATOM     57  H   LIG d   1       7.294  -4.213 -11.163  0.00  0.00     0.062 H 
ATOM     58  C   LIG d   1       3.955  -4.282 -10.692  0.00  0.00    -0.061 A 
ATOM     59  H   LIG d   1       5.209  -3.362 -12.159  0.00  0.00     0.062 H 
ATOM     60  C   LIG d   1       3.908  -5.062  -9.552  0.00  0.00    -0.058 A 
ATOM     61  H   LIG d   1       3.040  -3.910 -11.130  0.00  0.00     0.062 H 
ATOM     62  H   LIG d   1       2.957  -5.301  -9.099  0.00  0.00     0.062 H 
ENDBRANCH  49  52
ENDBRANCH  46  49
ENDBRANCH   1  45
TORSDOF 6
ENDMDL
MODEL 9
REMARK VINA RESULT:      -7.5      4.728      8.672
REMARK  6 active torsions:
REMARK  status: ('A' for Active; 'I' for Inactive)
REMARK    1  A    between atoms: C_4  and  C_7 
REMARK    2  A    between atoms: C_7  and  C_8 
REMARK       I    between atoms: C_8  and  N_10 
REMARK    3  A    between atoms: N_10  and  N_11 
REMARK    4  A    between atoms: N_19  and  C_22 
REMARK    5  A    between atoms: C_22  and  N_23 
REMARK    6  A    between atoms: C_28  and  C_30 
ROOT
ATOM      1  N   LIG d   1       8.074   2.016  -5.887  0.00  0.00    -0.174 NA
ATOM      2  C   LIG d   1       8.873   3.044  -6.036  0.00  0.00     0.153 A 
ATOM      3  C   LIG d   1       9.294   3.683  -7.305  0.00  0.00     0.029 A 
ATOM      4  C   LIG d   1       9.006   3.427  -8.641  0.00  0.00    -0.051 A 
ATOM      5  C   LIG d   1       9.564   4.218  -9.626  0.00  0.00    -0.061 A 
ATOM      6  C   LIG d   1      10.407   5.261  -9.283  0.00  0.00    -0.060 A 
ATOM      7  C   LIG d   1      10.699   5.524  -7.959  0.00  0.00    -0.039 A 
ATOM      8  C   LIG d   1      10.146   4.738  -6.954  0.00  0.00     0.051 A 
ATOM      9  N   LIG d   1      10.273   4.785  -5.570  0.00  0.00    -0.227 N 
ATOM     10  C   LIG d   1       9.546   3.823  -4.976  0.00  0.00     0.275 A 
ATOM     11  O   LIG d   1       9.460   3.626  -3.779  0.00  0.00    -0.268 OA
ATOM     12  H   LIG d   1       8.348   2.613  -8.907  0.00  0.00     0.062 H 
ATOM     13  H   LIG d   1       9.343   4.022 -10.665  0.00  0.00     0.062 H 
ATOM     14  H   LIG d   1      10.840   5.876 -10.058  0.00  0.00     0.062 H 
ATOM     15  H   LIG d   1      11.358   6.339  -7.705  0.00  0.00     0.064 H 
ENDROOT
BRANCH   9  16
ATOM     16  C   LIG d   1      11.090   5.764  -4.849  0.00  0.00     0.046 C 
ATOM     17  H   LIG d   1      11.732   6.292  -5.555  0.00  0.00     0.105 H 
ATOM     18  H   LIG d   1      10.439   6.479  -4.344  0.00  0.00     0.105 H 
BRANCH  16  19
ATOM     19  N   LIG d   1      11.922   5.071  -3.855  0.00  0.00     0.254 N 
ATOM     20  C   LIG d   1      12.495   6.055  -2.928  0.00  0.00     0.008 C 
ATOM     21  C   LIG d   1      13.296   5.332  -1.844  0.00  0.00    -0.005 C 
ATOM     22  H   LIG d   1      13.152   6.729  -3.476  0.00  0.00     0.090 H 
ATOM     23  C   LIG d   1      14.423   4.528  -2.499  0.00  0.00    -0.043 C 
ATOM     24  H   LIG d   1      12.639   4.657  -1.296  0.00  0.00     0.032 H 
ATOM     25  H   LIG d   1      13.722   6.063  -1.158  0.00  0.00     0.032 H 
ATOM     26  C   LIG d   1      13.819   3.558  -3.518  0.00  0.00    -0.012 C 
ATOM     27  H   LIG d   1      14.962   3.967  -1.736  0.00  0.00     0.027 H 
ATOM     28  H   LIG d   1      15.108   5.208  -3.005  0.00  0.00     0.027 H 
ATOM     29  C   LIG d   1      12.998   4.346  -4.541  0.00  0.00    -0.030 C 
ATOM     30  H   LIG d   1      13.173   2.846  -3.004  0.00  0.00     0.032 H 
ATOM     31  H   LIG d   1      14.619   3.021  -4.029  0.00  0.00     0.032 H 
ATOM     32  H   LIG d   1      12.566   3.659  -5.268  0.00  0.00     0.082 H 
ATOM     33  H   LIG d   1      13.645   5.058  -5.055  0.00  0.00     0.082 H 
ATOM     34  H   LIG d   1      11.352   4.417  -3.340  0.00  0.00     0.206 HD
BRANCH  20  35
ATOM     35  C   LIG d   1      11.385   6.848  -2.288  0.00  0.00     0.018 A 
ATOM     36  C   LIG d   1      10.477   6.229  -1.450  0.00  0.00     0.036 A 
ATOM     37  N   LIG d   1       9.506   6.917  -0.881  0.00  0.00    -0.263 NA
ATOM     38  H   LIG d   1      10.566   5.170  -1.255  0.00  0.00     0.083 H 
ATOM     39  C   LIG d   1       9.355   8.210  -1.096  0.00  0.00     0.028 A 
ATOM     40  C   LIG d   1      10.222   8.894  -1.926  0.00  0.00    -0.043 A 
ATOM     41  H   LIG d   1       8.545   8.739  -0.616  0.00  0.00     0.083 H 
ATOM     42  C   LIG d   1      11.258   8.206  -2.536  0.00  0.00    -0.050 A 
ATOM     43  H   LIG d   1      10.094   9.953  -2.097  0.00  0.00     0.063 H 
ATOM     44  H   LIG d   1      11.950   8.715  -3.190  0.00  0.00     0.062 H 
ENDBRANCH  20  35
ENDBRANCH  16  19
ENDBRANCH   9  16
BRANCH   1  45
ATOM     45  N   LIG d   1       7.776   1.541  -4.602  0.00  0.00    -0.206 N 
ATOM     46  C   LIG d   1       7.228   0.320  -4.445  0.00  0.00     0.236 C 
ATOM     47  O   LIG d   1       6.993  -0.368  -5.416  0.00  0.00    -0.274 OA
ATOM     48  H   LIG d   1       7.964   2.092  -3.827  0.00  0.00     0.177 HD
BRANCH  46  49
ATOM     49  C   LIG d   1       6.907  -0.190  -3.064  0.00  0.00     0.051 C 
ATOM     50  H   LIG d   1       7.238   0.538  -2.322  0.00  0.00     0.041 H 
ATOM     51  H   LIG d   1       7.420  -1.137  -2.899  0.00  0.00     0.041 H 
BRANCH  49  52
ATOM     52  C   LIG d   1       5.420  -0.396  -2.938  0.00  0.00    -0.039 A 
ATOM     53  C   LIG d   1       4.565   0.689  -2.991  0.00  0.00    -0.058 A 
ATOM     54  C   LIG d   1       3.200   0.500  -2.877  0.00  0.00    -0.061 A 
ATOM     55  H   LIG d   1       4.963   1.684  -3.123  0.00  0.00     0.062 H 
ATOM     56  C   LIG d   1       2.691  -0.775  -2.710  0.00  0.00    -0.062 A 
ATOM     57  H   LIG d   1       2.532   1.347  -2.918  0.00  0.00     0.062 H 
ATOM     58  C   LIG d   1       3.546  -1.860  -2.658  0.00  0.00    -0.061 A 
ATOM     59  H   LIG d   1       1.626  -0.922  -2.617  0.00  0.00     0.062 H 
ATOM     60  C   LIG d   1       4.910  -1.670  -2.771  0.00  0.00    -0.058 A 
ATOM     61  H   LIG d   1       3.148  -2.855  -2.527  0.00  0.00     0.062 H 
ATOM     62  H   LIG d   1       5.579  -2.518  -2.730  0.00  0.00     0.062 H 
ENDBRANCH  49  52
ENDBRANCH  46  49
ENDBRANCH   1  45
TORSDOF 6
ENDMDL
