MODEL 1
REMARK VINA RESULT:      -7.6      0.000      0.000
REMARK  7 active torsions:
REMARK  status: ('A' for Active; 'I' for Inactive)
REMARK    1  A    between atoms: C_1  and  C_2 
REMARK    2  A    between atoms: C_2  and  C_3 
REMARK    3  A    between atoms: C_3  and  C_5 
REMARK    4  A    between atoms: C_3  and  N_6 
REMARK    5  A    between atoms: C_26  and  C_28 
REMARK    6  A    between atoms: C_33  and  O_34 
REMARK    7  A    between atoms: O_34  and  C_35 
ROOT
ATOM      1  N   LIG d   1       4.262  -1.068  -8.508  0.00  0.00    -0.288 N 
ATOM      2  C   LIG d   1       3.668  -0.480  -7.320  0.00  0.00     0.091 A 
ATOM      3  C   LIG d   1       4.622  -0.458  -6.169  0.00  0.00     0.234 A 
ATOM      4  O   LIG d   1       4.241   0.035  -5.128  0.00  0.00    -0.274 OA
ATOM      5  N   LIG d   1       5.864  -0.944  -6.210  0.00  0.00    -0.276 N 
ATOM      6  C   LIG d   1       6.415  -1.633  -7.375  0.00  0.00     0.107 A 
ATOM      7  H   LIG d   1       7.358  -1.159  -7.651  0.00  0.00     0.060 H 
ATOM      8  C   LIG d   1       5.489  -1.583  -8.547  0.00  0.00     0.237 A 
ATOM      9  O   LIG d   1       5.880  -2.041  -9.600  0.00  0.00    -0.274 OA
ATOM     10  C   LIG d   1       6.703  -3.095  -7.007  0.00  0.00     0.002 C 
ATOM     11  C   LIG d   1       7.394  -3.136  -5.668  0.00  0.00    -0.015 A 
ATOM     12  C   LIG d   1       8.147  -4.224  -5.079  0.00  0.00     0.003 A 
ATOM     13  C   LIG d   1       8.466  -5.508  -5.527  0.00  0.00    -0.052 A 
ATOM     14  C   LIG d   1       9.212  -6.293  -4.684  0.00  0.00    -0.061 A 
ATOM     15  C   LIG d   1       9.638  -5.844  -3.445  0.00  0.00    -0.060 A 
ATOM     16  C   LIG d   1       9.338  -4.577  -2.976  0.00  0.00    -0.038 A 
ATOM     17  C   LIG d   1       8.581  -3.757  -3.811  0.00  0.00     0.047 A 
ATOM     18  N   LIG d   1       8.117  -2.481  -3.666  0.00  0.00    -0.356 N 
ATOM     19  H   LIG d   1       8.266  -1.918  -2.891  0.00  0.00     0.166 HD
ATOM     20  C   LIG d   1       7.412  -2.116  -4.781  0.00  0.00     0.046 A 
ATOM     21  C   LIG d   1       6.733  -0.787  -5.024  0.00  0.00     0.096 C 
ATOM     22  H   LIG d   1       7.483  -0.019  -5.213  0.00  0.00     0.062 H 
ATOM     23  H   LIG d   1       2.788  -1.060  -7.039  0.00  0.00     0.056 H 
ATOM     24  H   LIG d   1       3.362   0.541  -7.545  0.00  0.00     0.056 H 
ATOM     25  H   LIG d   1       5.765  -3.649  -6.951  0.00  0.00     0.034 H 
ATOM     26  H   LIG d   1       7.346  -3.543  -7.765  0.00  0.00     0.034 H 
ATOM     27  H   LIG d   1       8.138  -5.867  -6.492  0.00  0.00     0.062 H 
ATOM     28  H   LIG d   1       9.478  -7.292  -4.998  0.00  0.00     0.062 H 
ATOM     29  H   LIG d   1      10.224  -6.505  -2.823  0.00  0.00     0.062 H 
ATOM     30  H   LIG d   1       9.677  -4.239  -2.008  0.00  0.00     0.064 H 
ENDROOT
BRANCH  21  31
ATOM     31  C   LIG d   1       5.903  -0.408  -3.826  0.00  0.00     0.021 A 
ATOM     32  C   LIG d   1       5.926   0.894  -3.348  0.00  0.00     0.125 A 
ATOM     33  C   LIG d   1       5.165   1.238  -2.240  0.00  0.00    -0.020 A 
ATOM     34  C   LIG d   1       4.377   0.286  -1.623  0.00  0.00    -0.058 A 
ATOM     35  H   LIG d   1       5.186   2.249  -1.863  0.00  0.00     0.065 H 
ATOM     36  C   LIG d   1       4.350  -1.010  -2.105  0.00  0.00    -0.061 A 
ATOM     37  H   LIG d   1       3.780   0.555  -0.763  0.00  0.00     0.062 H 
ATOM     38  C   LIG d   1       5.112  -1.357  -3.204  0.00  0.00    -0.053 A 
ATOM     39  H   LIG d   1       3.733  -1.753  -1.621  0.00  0.00     0.062 H 
ATOM     40  H   LIG d   1       5.090  -2.369  -3.579  0.00  0.00     0.062 H 
BRANCH  32  41
ATOM     41  O   LIG d   1       6.699   1.829  -3.959  0.00  0.00    -0.495 OA
BRANCH  41  42
ATOM     42  C   LIG d   1       8.101   1.790  -3.690  0.00  0.00     0.079 C 
ATOM     43  H   LIG d   1       8.500   2.804  -3.690  0.00  0.00     0.066 H 
ATOM     44  H   LIG d   1       8.271   1.333  -2.715  0.00  0.00     0.066 H 
ATOM     45  H   LIG d   1       8.603   1.203  -4.459  0.00  0.00     0.066 H 
ENDBRANCH  41  42
ENDBRANCH  32  41
ENDBRANCH  21  31
BRANCH   1  46
ATOM     46  C   LIG d   1       3.464  -1.094  -9.737  0.00  0.00     0.024 C 
ATOM     47  H   LIG d   1       4.085  -1.433 -10.566  0.00  0.00     0.050 H 
BRANCH  46  48
ATOM     48  C   LIG d   1       2.940   0.313 -10.035  0.00  0.00    -0.037 C 
ATOM     49  H   LIG d   1       1.978   0.242 -10.542  0.00  0.00     0.028 H 
ATOM     50  H   LIG d   1       2.820   0.861  -9.101  0.00  0.00     0.028 H 
BRANCH  48  51
ATOM     51  C   LIG d   1       3.937   1.048 -10.933  0.00  0.00    -0.064 C 
ATOM     52  H   LIG d   1       3.592   2.069 -11.099  0.00  0.00     0.023 H 
ATOM     53  H   LIG d   1       4.914   1.069 -10.451  0.00  0.00     0.023 H 
ATOM     54  H   LIG d   1       4.014   0.531 -11.890  0.00  0.00     0.023 H 
ENDBRANCH  48  51
ENDBRANCH  46  48
BRANCH  46  55
ATOM     55  C   LIG d   1       2.283  -2.050  -9.558  0.00  0.00    -0.046 C 
ATOM     56  H   LIG d   1       1.587  -1.927 -10.387  0.00  0.00     0.025 H 
ATOM     57  H   LIG d   1       2.647  -3.077  -9.537  0.00  0.00     0.025 H 
ATOM     58  H   LIG d   1       1.774  -1.826  -8.619  0.00  0.00     0.025 H 
ENDBRANCH  46  55
ENDBRANCH   1  46
TORSDOF 7
ENDMDL
MODEL 2
REMARK VINA RESULT:      -7.1      2.476      6.602
REMARK  7 active torsions:
REMARK  status: ('A' for Active; 'I' for Inactive)
REMARK    1  A    between atoms: C_1  and  C_2 
REMARK    2  A    between atoms: C_2  and  C_3 
REMARK    3  A    between atoms: C_3  and  C_5 
REMARK    4  A    between atoms: C_3  and  N_6 
REMARK    5  A    between atoms: C_26  and  C_28 
REMARK    6  A    between atoms: C_33  and  O_34 
REMARK    7  A    between atoms: O_34  and  C_35 
ROOT
ATOM      1  N   LIG d   1       8.831   2.127  -4.919  0.00  0.00    -0.288 N 
ATOM      2  C   LIG d   1       7.922   1.709  -3.865  0.00  0.00     0.091 A 
ATOM      3  C   LIG d   1       6.976   0.649  -4.329  0.00  0.00     0.234 A 
ATOM      4  O   LIG d   1       6.185   0.205  -3.524  0.00  0.00    -0.274 OA
ATOM      5  N   LIG d   1       6.943   0.158  -5.569  0.00  0.00    -0.276 N 
ATOM      6  C   LIG d   1       7.787   0.662  -6.651  0.00  0.00     0.107 A 
ATOM      7  H   LIG d   1       8.320  -0.176  -7.102  0.00  0.00     0.060 H 
ATOM      8  C   LIG d   1       8.783   1.664  -6.166  0.00  0.00     0.237 A 
ATOM      9  O   LIG d   1       9.600   2.083  -6.959  0.00  0.00    -0.274 OA
ATOM     10  C   LIG d   1       6.897   1.299  -7.729  0.00  0.00     0.002 C 
ATOM     11  C   LIG d   1       5.729   0.387  -8.000  0.00  0.00    -0.015 A 
ATOM     12  C   LIG d   1       4.832   0.390  -9.139  0.00  0.00     0.003 A 
ATOM     13  C   LIG d   1       4.762   1.182 -10.288  0.00  0.00    -0.052 A 
ATOM     14  C   LIG d   1       3.755   0.899 -11.176  0.00  0.00    -0.061 A 
ATOM     15  C   LIG d   1       2.846  -0.123 -10.958  0.00  0.00    -0.060 A 
ATOM     16  C   LIG d   1       2.892  -0.923  -9.830  0.00  0.00    -0.038 A 
ATOM     17  C   LIG d   1       3.905  -0.660  -8.909  0.00  0.00     0.047 A 
ATOM     18  N   LIG d   1       4.234  -1.241  -7.719  0.00  0.00    -0.356 N 
ATOM     19  H   LIG d   1       3.766  -1.987  -7.314  0.00  0.00     0.166 HD
ATOM     20  C   LIG d   1       5.327  -0.613  -7.184  0.00  0.00     0.046 A 
ATOM     21  C   LIG d   1       6.010  -0.948  -5.877  0.00  0.00     0.096 C 
ATOM     22  H   LIG d   1       6.562  -1.882  -5.978  0.00  0.00     0.062 H 
ATOM     23  H   LIG d   1       7.348   2.573  -3.529  0.00  0.00     0.056 H 
ATOM     24  H   LIG d   1       8.503   1.323  -3.029  0.00  0.00     0.056 H 
ATOM     25  H   LIG d   1       6.533   2.265  -7.377  0.00  0.00     0.034 H 
ATOM     26  H   LIG d   1       7.474   1.438  -8.644  0.00  0.00     0.034 H 
ATOM     27  H   LIG d   1       5.467   1.981 -10.467  0.00  0.00     0.062 H 
ATOM     28  H   LIG d   1       3.670   1.491 -12.076  0.00  0.00     0.062 H 
ATOM     29  H   LIG d   1       2.074  -0.300 -11.692  0.00  0.00     0.062 H 
ATOM     30  H   LIG d   1       2.178  -1.717  -9.671  0.00  0.00     0.064 H 
ENDROOT
BRANCH  21  31
ATOM     31  C   LIG d   1       4.985  -1.075  -4.781  0.00  0.00     0.021 A 
ATOM     32  C   LIG d   1       5.003  -2.176  -3.938  0.00  0.00     0.125 A 
ATOM     33  C   LIG d   1       4.054  -2.293  -2.932  0.00  0.00    -0.020 A 
ATOM     34  C   LIG d   1       3.101  -1.307  -2.765  0.00  0.00    -0.058 A 
ATOM     35  H   LIG d   1       4.062  -3.153  -2.279  0.00  0.00     0.065 H 
ATOM     36  C   LIG d   1       3.090  -0.206  -3.603  0.00  0.00    -0.061 A 
ATOM     37  H   LIG d   1       2.365  -1.395  -1.980  0.00  0.00     0.062 H 
ATOM     38  C   LIG d   1       4.030  -0.090  -4.609  0.00  0.00    -0.053 A 
ATOM     39  H   LIG d   1       2.344   0.564  -3.471  0.00  0.00     0.062 H 
ATOM     40  H   LIG d   1       4.019   0.770  -5.261  0.00  0.00     0.062 H 
BRANCH  32  41
ATOM     41  O   LIG d   1       5.944  -3.143  -4.101  0.00  0.00    -0.495 OA
BRANCH  41  42
ATOM     42  C   LIG d   1       5.623  -4.219  -4.985  0.00  0.00     0.079 C 
ATOM     43  H   LIG d   1       5.511  -5.139  -4.412  0.00  0.00     0.066 H 
ATOM     44  H   LIG d   1       4.690  -3.996  -5.503  0.00  0.00     0.066 H 
ATOM     45  H   LIG d   1       6.424  -4.341  -5.714  0.00  0.00     0.066 H 
ENDBRANCH  41  42
ENDBRANCH  32  41
ENDBRANCH  21  31
BRANCH   1  46
ATOM     46  C   LIG d   1       9.862   3.113  -4.588  0.00  0.00     0.024 C 
ATOM     47  H   LIG d   1      10.705   3.000  -5.270  0.00  0.00     0.050 H 
BRANCH  46  48
ATOM     48  C   LIG d   1      10.336   2.894  -3.150  0.00  0.00    -0.037 C 
ATOM     49  H   LIG d   1       9.616   2.270  -2.622  0.00  0.00     0.028 H 
ATOM     50  H   LIG d   1      11.308   2.402  -3.159  0.00  0.00     0.028 H 
BRANCH  48  51
ATOM     51  C   LIG d   1      10.455   4.246  -2.442  0.00  0.00    -0.064 C 
ATOM     52  H   LIG d   1       9.469   4.705  -2.369  0.00  0.00     0.023 H 
ATOM     53  H   LIG d   1      10.862   4.097  -1.442  0.00  0.00     0.023 H 
ATOM     54  H   LIG d   1      11.118   4.897  -3.011  0.00  0.00     0.023 H 
ENDBRANCH  48  51
ENDBRANCH  46  48
BRANCH  46  55
ATOM     55  C   LIG d   1       9.281   4.522  -4.725  0.00  0.00    -0.046 C 
ATOM     56  H   LIG d   1       8.576   4.546  -5.555  0.00  0.00     0.025 H 
ATOM     57  H   LIG d   1       8.768   4.794  -3.803  0.00  0.00     0.025 H 
ATOM     58  H   LIG d   1      10.089   5.231  -4.914  0.00  0.00     0.025 H 
ENDBRANCH  46  55
ENDBRANCH   1  46
TORSDOF 7
ENDMDL
MODEL 3
REMARK VINA RESULT:      -7.0      3.132      5.367
REMARK  7 active torsions:
REMARK  status: ('A' for Active; 'I' for Inactive)
REMARK    1  A    between atoms: C_1  and  C_2 
REMARK    2  A    between atoms: C_2  and  C_3 
REMARK    3  A    between atoms: C_3  and  C_5 
REMARK    4  A    between atoms: C_3  and  N_6 
REMARK    5  A    between atoms: C_26  and  C_28 
REMARK    6  A    between atoms: C_33  and  O_34 
REMARK    7  A    between atoms: O_34  and  C_35 
ROOT
ATOM      1  N   LIG d   1       3.592  -4.577  -9.027  0.00  0.00    -0.288 N 
ATOM      2  C   LIG d   1       3.225  -3.359  -9.731  0.00  0.00     0.091 A 
ATOM      3  C   LIG d   1       3.850  -2.148  -9.118  0.00  0.00     0.234 A 
ATOM      4  O   LIG d   1       3.633  -1.074  -9.639  0.00  0.00    -0.274 OA
ATOM      5  N   LIG d   1       4.631  -2.168  -8.036  0.00  0.00    -0.276 N 
ATOM      6  C   LIG d   1       4.906  -3.382  -7.270  0.00  0.00     0.107 A 
ATOM      7  H   LIG d   1       5.985  -3.500  -7.172  0.00  0.00     0.060 H 
ATOM      8  C   LIG d   1       4.345  -4.601  -7.930  0.00  0.00     0.237 A 
ATOM      9  O   LIG d   1       4.591  -5.680  -7.433  0.00  0.00    -0.274 OA
ATOM     10  C   LIG d   1       4.308  -3.236  -5.863  0.00  0.00     0.002 C 
ATOM     11  C   LIG d   1       4.653  -1.872  -5.325  0.00  0.00    -0.015 A 
ATOM     12  C   LIG d   1       4.608  -1.410  -3.953  0.00  0.00     0.003 A 
ATOM     13  C   LIG d   1       4.260  -2.036  -2.753  0.00  0.00    -0.052 A 
ATOM     14  C   LIG d   1       4.332  -1.275  -1.613  0.00  0.00    -0.061 A 
ATOM     15  C   LIG d   1       4.731   0.051  -1.636  0.00  0.00    -0.060 A 
ATOM     16  C   LIG d   1       5.082   0.695  -2.808  0.00  0.00    -0.038 A 
ATOM     17  C   LIG d   1       5.020  -0.052  -3.983  0.00  0.00     0.047 A 
ATOM     18  N   LIG d   1       5.290   0.262  -5.284  0.00  0.00    -0.356 N 
ATOM     19  H   LIG d   1       5.592   1.128  -5.597  0.00  0.00     0.166 HD
ATOM     20  C   LIG d   1       5.072  -0.831  -6.079  0.00  0.00     0.046 A 
ATOM     21  C   LIG d   1       5.253  -0.906  -7.578  0.00  0.00     0.096 C 
ATOM     22  H   LIG d   1       6.315  -0.907  -7.823  0.00  0.00     0.062 H 
ATOM     23  H   LIG d   1       2.140  -3.249  -9.705  0.00  0.00     0.056 H 
ATOM     24  H   LIG d   1       3.549  -3.438 -10.768  0.00  0.00     0.056 H 
ATOM     25  H   LIG d   1       3.225  -3.348  -5.913  0.00  0.00     0.034 H 
ATOM     26  H   LIG d   1       4.724  -4.004  -5.209  0.00  0.00     0.034 H 
ATOM     27  H   LIG d   1       3.947  -3.070  -2.725  0.00  0.00     0.062 H 
ATOM     28  H   LIG d   1       4.070  -1.726  -0.666  0.00  0.00     0.062 H 
ATOM     29  H   LIG d   1       4.769   0.600  -0.707  0.00  0.00     0.062 H 
ATOM     30  H   LIG d   1       5.393   1.730  -2.813  0.00  0.00     0.064 H 
ENDROOT
BRANCH  21  31
ATOM     31  C   LIG d   1       4.576   0.267  -8.236  0.00  0.00     0.021 A 
ATOM     32  C   LIG d   1       5.233   0.981  -9.229  0.00  0.00     0.125 A 
ATOM     33  C   LIG d   1       4.609   2.066  -9.829  0.00  0.00    -0.020 A 
ATOM     34  C   LIG d   1       3.332   2.425  -9.445  0.00  0.00    -0.058 A 
ATOM     35  H   LIG d   1       5.120   2.626 -10.596  0.00  0.00     0.065 H 
ATOM     36  C   LIG d   1       2.676   1.708  -8.460  0.00  0.00    -0.061 A 
ATOM     37  H   LIG d   1       2.843   3.266  -9.915  0.00  0.00     0.062 H 
ATOM     38  C   LIG d   1       3.298   0.631  -7.857  0.00  0.00    -0.053 A 
ATOM     39  H   LIG d   1       1.677   1.990  -8.162  0.00  0.00     0.062 H 
ATOM     40  H   LIG d   1       2.784   0.072  -7.088  0.00  0.00     0.062 H 
BRANCH  32  41
ATOM     41  O   LIG d   1       6.488   0.623  -9.607  0.00  0.00    -0.495 OA
BRANCH  41  42
ATOM     42  C   LIG d   1       7.550   1.512  -9.257  0.00  0.00     0.079 C 
ATOM     43  H   LIG d   1       7.355   1.941  -8.275  0.00  0.00     0.066 H 
ATOM     44  H   LIG d   1       8.491   0.962  -9.235  0.00  0.00     0.066 H 
ATOM     45  H   LIG d   1       7.613   2.311  -9.996  0.00  0.00     0.066 H 
ENDBRANCH  41  42
ENDBRANCH  32  41
ENDBRANCH  21  31
BRANCH   1  46
ATOM     46  C   LIG d   1       3.106  -5.852  -9.559  0.00  0.00     0.024 C 
ATOM     47  H   LIG d   1       3.125  -6.605  -8.771  0.00  0.00     0.050 H 
BRANCH  46  48
ATOM     48  C   LIG d   1       4.006  -6.300 -10.713  0.00  0.00    -0.037 C 
ATOM     49  H   LIG d   1       3.427  -6.327 -11.636  0.00  0.00     0.028 H 
ATOM     50  H   LIG d   1       4.832  -5.598 -10.823  0.00  0.00     0.028 H 
BRANCH  48  51
ATOM     51  C   LIG d   1       4.558  -7.696 -10.417  0.00  0.00    -0.064 C 
ATOM     52  H   LIG d   1       3.995  -8.142  -9.596  0.00  0.00     0.023 H 
ATOM     53  H   LIG d   1       4.461  -8.321 -11.305  0.00  0.00     0.023 H 
ATOM     54  H   LIG d   1       5.608  -7.620 -10.138  0.00  0.00     0.023 H 
ENDBRANCH  48  51
ENDBRANCH  46  48
BRANCH  46  55
ATOM     55  C   LIG d   1       1.673  -5.680 -10.067  0.00  0.00    -0.046 C 
ATOM     56  H   LIG d   1       1.452  -4.619 -10.176  0.00  0.00     0.025 H 
ATOM     57  H   LIG d   1       1.568  -6.175 -11.032  0.00  0.00     0.025 H 
ATOM     58  H   LIG d   1       0.979  -6.125  -9.353  0.00  0.00     0.025 H 
ENDBRANCH  46  55
ENDBRANCH   1  46
TORSDOF 7
ENDMDL
MODEL 4
REMARK VINA RESULT:      -7.0      1.675      6.004
REMARK  7 active torsions:
REMARK  status: ('A' for Active; 'I' for Inactive)
REMARK    1  A    between atoms: C_1  and  C_2 
REMARK    2  A    between atoms: C_2  and  C_3 
REMARK    3  A    between atoms: C_3  and  C_5 
REMARK    4  A    between atoms: C_3  and  N_6 
REMARK    5  A    between atoms: C_26  and  C_28 
REMARK    6  A    between atoms: C_33  and  O_34 
REMARK    7  A    between atoms: O_34  and  C_35 
ROOT
ATOM      1  N   LIG d   1       7.552  -4.433  -5.826  0.00  0.00    -0.288 N 
ATOM      2  C   LIG d   1       7.489  -3.711  -4.566  0.00  0.00     0.091 A 
ATOM      3  C   LIG d   1       6.324  -2.776  -4.513  0.00  0.00     0.234 A 
ATOM      4  O   LIG d   1       6.157  -2.137  -3.496  0.00  0.00    -0.274 OA
ATOM      5  N   LIG d   1       5.455  -2.598  -5.510  0.00  0.00    -0.276 N 
ATOM      6  C   LIG d   1       5.589  -3.246  -6.813  0.00  0.00     0.107 A 
ATOM      7  H   LIG d   1       4.657  -3.760  -7.048  0.00  0.00     0.060 H 
ATOM      8  C   LIG d   1       6.707  -4.237  -6.835  0.00  0.00     0.237 A 
ATOM      9  O   LIG d   1       6.854  -4.905  -7.837  0.00  0.00    -0.274 OA
ATOM     10  C   LIG d   1       5.828  -2.174  -7.886  0.00  0.00     0.002 C 
ATOM     11  C   LIG d   1       4.863  -1.038  -7.667  0.00  0.00    -0.015 A 
ATOM     12  C   LIG d   1       4.483   0.010  -8.593  0.00  0.00     0.003 A 
ATOM     13  C   LIG d   1       4.856   0.292  -9.910  0.00  0.00    -0.052 A 
ATOM     14  C   LIG d   1       4.286   1.396 -10.493  0.00  0.00    -0.061 A 
ATOM     15  C   LIG d   1       3.380   2.199  -9.820  0.00  0.00    -0.060 A 
ATOM     16  C   LIG d   1       2.992   1.943  -8.517  0.00  0.00    -0.038 A 
ATOM     17  C   LIG d   1       3.554   0.828  -7.898  0.00  0.00     0.047 A 
ATOM     18  N   LIG d   1       3.398   0.297  -6.650  0.00  0.00    -0.356 N 
ATOM     19  H   LIG d   1       2.818   0.655  -5.961  0.00  0.00     0.166 HD
ATOM     20  C   LIG d   1       4.180  -0.819  -6.521  0.00  0.00     0.046 A 
ATOM     21  C   LIG d   1       4.298  -1.701  -5.298  0.00  0.00     0.096 C 
ATOM     22  H   LIG d   1       3.389  -2.291  -5.179  0.00  0.00     0.062 H 
ATOM     23  H   LIG d   1       8.409  -3.138  -4.440  0.00  0.00     0.056 H 
ATOM     24  H   LIG d   1       7.405  -4.429  -3.751  0.00  0.00     0.056 H 
ATOM     25  H   LIG d   1       6.852  -1.804  -7.811  0.00  0.00     0.034 H 
ATOM     26  H   LIG d   1       5.668  -2.605  -8.875  0.00  0.00     0.034 H 
ATOM     27  H   LIG d   1       5.561  -0.330 -10.443  0.00  0.00     0.062 H 
ATOM     28  H   LIG d   1       4.551   1.645 -11.511  0.00  0.00     0.062 H 
ATOM     29  H   LIG d   1       2.963   3.055 -10.330  0.00  0.00     0.062 H 
ATOM     30  H   LIG d   1       2.285   2.577  -8.004  0.00  0.00     0.064 H 
ENDROOT
BRANCH  21  31
ATOM     31  C   LIG d   1       4.523  -0.853  -4.074  0.00  0.00     0.021 A 
ATOM     32  C   LIG d   1       5.416   0.208  -4.119  0.00  0.00     0.125 A 
ATOM     33  C   LIG d   1       5.626   0.983  -2.988  0.00  0.00    -0.020 A 
ATOM     34  C   LIG d   1       4.937   0.705  -1.823  0.00  0.00    -0.058 A 
ATOM     35  H   LIG d   1       6.325   1.806  -3.018  0.00  0.00     0.065 H 
ATOM     36  C   LIG d   1       4.042  -0.349  -1.783  0.00  0.00    -0.061 A 
ATOM     37  H   LIG d   1       5.096   1.311  -0.944  0.00  0.00     0.062 H 
ATOM     38  C   LIG d   1       3.836  -1.127  -2.907  0.00  0.00    -0.053 A 
ATOM     39  H   LIG d   1       3.504  -0.565  -0.872  0.00  0.00     0.062 H 
ATOM     40  H   LIG d   1       3.136  -1.950  -2.873  0.00  0.00     0.062 H 
BRANCH  32  41
ATOM     41  O   LIG d   1       6.089   0.482  -5.267  0.00  0.00    -0.495 OA
BRANCH  41  42
ATOM     42  C   LIG d   1       7.502   0.669  -5.162  0.00  0.00     0.079 C 
ATOM     43  H   LIG d   1       7.976  -0.280  -4.914  0.00  0.00     0.066 H 
ATOM     44  H   LIG d   1       7.892   1.034  -6.112  0.00  0.00     0.066 H 
ATOM     45  H   LIG d   1       7.715   1.397  -4.378  0.00  0.00     0.066 H 
ENDBRANCH  41  42
ENDBRANCH  32  41
ENDBRANCH  21  31
BRANCH   1  46
ATOM     46  C   LIG d   1       8.605  -5.438  -5.993  0.00  0.00     0.024 C 
ATOM     47  H   LIG d   1       8.439  -5.988  -6.919  0.00  0.00     0.050 H 
BRANCH  46  48
ATOM     48  C   LIG d   1       8.577  -6.409  -4.810  0.00  0.00    -0.037 C 
ATOM     49  H   LIG d   1       9.552  -6.885  -4.708  0.00  0.00     0.028 H 
ATOM     50  H   LIG d   1       8.341  -5.862  -3.897  0.00  0.00     0.028 H 
BRANCH  48  51
ATOM     51  C   LIG d   1       7.510  -7.478  -5.055  0.00  0.00    -0.064 C 
ATOM     52  H   LIG d   1       7.336  -7.577  -6.127  0.00  0.00     0.023 H 
ATOM     53  H   LIG d   1       7.852  -8.431  -4.653  0.00  0.00     0.023 H 
ATOM     54  H   LIG d   1       6.583  -7.186  -4.562  0.00  0.00     0.023 H 
ENDBRANCH  48  51
ENDBRANCH  46  48
BRANCH  46  55
ATOM     55  C   LIG d   1       9.967  -4.742  -6.049  0.00  0.00    -0.046 C 
ATOM     56  H   LIG d   1      10.724  -5.452  -6.382  0.00  0.00     0.025 H 
ATOM     57  H   LIG d   1       9.920  -3.907  -6.747  0.00  0.00     0.025 H 
ATOM     58  H   LIG d   1      10.228  -4.373  -5.056  0.00  0.00     0.025 H 
ENDBRANCH  46  55
ENDBRANCH   1  46
TORSDOF 7
ENDMDL
MODEL 5
REMARK VINA RESULT:      -6.7      2.924      7.009
REMARK  7 active torsions:
REMARK  status: ('A' for Active; 'I' for Inactive)
REMARK    1  A    between atoms: C_1  and  C_2 
REMARK    2  A    between atoms: C_2  and  C_3 
REMARK    3  A    between atoms: C_3  and  C_5 
REMARK    4  A    between atoms: C_3  and  N_6 
REMARK    5  A    between atoms: C_26  and  C_28 
REMARK    6  A    between atoms: C_33  and  O_34 
REMARK    7  A    between atoms: O_34  and  C_35 
ROOT
ATOM      1  N   LIG d   1       4.183  -0.638  -4.220  0.00  0.00    -0.288 N 
ATOM      2  C   LIG d   1       5.541  -1.064  -4.516  0.00  0.00     0.091 A 
ATOM      3  C   LIG d   1       5.942  -0.725  -5.915  0.00  0.00     0.234 A 
ATOM      4  O   LIG d   1       7.067  -1.012  -6.266  0.00  0.00    -0.274 OA
ATOM      5  N   LIG d   1       5.146  -0.128  -6.804  0.00  0.00    -0.276 N 
ATOM      6  C   LIG d   1       3.747   0.198  -6.533  0.00  0.00     0.107 A 
ATOM      7  H   LIG d   1       3.583   1.254  -6.747  0.00  0.00     0.060 H 
ATOM      8  C   LIG d   1       3.374  -0.070  -5.111  0.00  0.00     0.237 A 
ATOM      9  O   LIG d   1       2.262   0.250  -4.746  0.00  0.00    -0.274 OA
ATOM     10  C   LIG d   1       2.849  -0.626  -7.466  0.00  0.00     0.002 C 
ATOM     11  C   LIG d   1       3.414  -0.573  -8.862  0.00  0.00    -0.015 A 
ATOM     12  C   LIG d   1       2.755  -0.898 -10.111  0.00  0.00     0.003 A 
ATOM     13  C   LIG d   1       1.462  -1.334 -10.415  0.00  0.00    -0.052 A 
ATOM     14  C   LIG d   1       1.177  -1.553 -11.740  0.00  0.00    -0.061 A 
ATOM     15  C   LIG d   1       2.116  -1.352 -12.738  0.00  0.00    -0.060 A 
ATOM     16  C   LIG d   1       3.402  -0.919 -12.466  0.00  0.00    -0.038 A 
ATOM     17  C   LIG d   1       3.721  -0.689 -11.129  0.00  0.00     0.047 A 
ATOM     18  N   LIG d   1       4.869  -0.268 -10.521  0.00  0.00    -0.356 N 
ATOM     19  H   LIG d   1       5.694  -0.049 -10.978  0.00  0.00     0.166 HD
ATOM     20  C   LIG d   1       4.676  -0.197  -9.167  0.00  0.00     0.046 A 
ATOM     21  C   LIG d   1       5.694   0.225  -8.132  0.00  0.00     0.096 C 
ATOM     22  H   LIG d   1       5.858   1.300  -8.192  0.00  0.00     0.062 H 
ATOM     23  H   LIG d   1       5.611  -2.143  -4.379  0.00  0.00     0.056 H 
ATOM     24  H   LIG d   1       6.224  -0.574  -3.823  0.00  0.00     0.056 H 
ATOM     25  H   LIG d   1       2.817  -1.661  -7.123  0.00  0.00     0.034 H 
ATOM     26  H   LIG d   1       1.840  -0.211  -7.463  0.00  0.00     0.034 H 
ATOM     27  H   LIG d   1       0.723  -1.493  -9.643  0.00  0.00     0.062 H 
ATOM     28  H   LIG d   1       0.188  -1.891 -12.013  0.00  0.00     0.062 H 
ATOM     29  H   LIG d   1       1.835  -1.540 -13.764  0.00  0.00     0.062 H 
ATOM     30  H   LIG d   1       4.125  -0.766 -13.253  0.00  0.00     0.064 H 
ENDROOT
BRANCH  21  31
ATOM     31  C   LIG d   1       6.991  -0.505  -8.361  0.00  0.00     0.021 A 
ATOM     32  C   LIG d   1       8.193   0.187  -8.322  0.00  0.00     0.125 A 
ATOM     33  C   LIG d   1       9.387  -0.487  -8.541  0.00  0.00    -0.020 A 
ATOM     34  C   LIG d   1       9.376  -1.846  -8.785  0.00  0.00    -0.058 A 
ATOM     35  H   LIG d   1      10.323   0.051  -8.517  0.00  0.00     0.065 H 
ATOM     36  C   LIG d   1       8.177  -2.535  -8.816  0.00  0.00    -0.061 A 
ATOM     37  H   LIG d   1      10.305  -2.372  -8.950  0.00  0.00     0.062 H 
ATOM     38  C   LIG d   1       6.986  -1.865  -8.605  0.00  0.00    -0.053 A 
ATOM     39  H   LIG d   1       8.171  -3.598  -9.007  0.00  0.00     0.062 H 
ATOM     40  H   LIG d   1       6.051  -2.405  -8.630  0.00  0.00     0.062 H 
BRANCH  32  41
ATOM     41  O   LIG d   1       8.201   1.524  -8.078  0.00  0.00    -0.495 OA
BRANCH  41  42
ATOM     42  C   LIG d   1       8.818   1.958  -6.865  0.00  0.00     0.079 C 
ATOM     43  H   LIG d   1       8.460   1.348  -6.037  0.00  0.00     0.066 H 
ATOM     44  H   LIG d   1       9.900   1.857  -6.951  0.00  0.00     0.066 H 
ATOM     45  H   LIG d   1       8.564   3.002  -6.682  0.00  0.00     0.066 H 
ENDBRANCH  41  42
ENDBRANCH  32  41
ENDBRANCH  21  31
BRANCH   1  46
ATOM     46  C   LIG d   1       3.677  -0.843  -2.860  0.00  0.00     0.024 C 
ATOM     47  H   LIG d   1       2.640  -0.512  -2.805  0.00  0.00     0.050 H 
BRANCH  46  48
ATOM     48  C   LIG d   1       4.524  -0.037  -1.873  0.00  0.00    -0.037 C 
ATOM     49  H   LIG d   1       4.349  -0.402  -0.861  0.00  0.00     0.028 H 
ATOM     50  H   LIG d   1       5.579  -0.149  -2.123  0.00  0.00     0.028 H 
BRANCH  48  51
ATOM     51  C   LIG d   1       4.134   1.441  -1.956  0.00  0.00    -0.064 C 
ATOM     52  H   LIG d   1       4.337   1.813  -2.961  0.00  0.00     0.023 H 
ATOM     53  H   LIG d   1       3.072   1.549  -1.736  0.00  0.00     0.023 H 
ATOM     54  H   LIG d   1       4.716   2.011  -1.233  0.00  0.00     0.023 H 
ENDBRANCH  48  51
ENDBRANCH  46  48
BRANCH  46  55
ATOM     55  C   LIG d   1       3.758  -2.329  -2.506  0.00  0.00    -0.046 C 
ATOM     56  H   LIG d   1       2.968  -2.577  -1.797  0.00  0.00     0.025 H 
ATOM     57  H   LIG d   1       3.636  -2.925  -3.410  0.00  0.00     0.025 H 
ATOM     58  H   LIG d   1       4.729  -2.544  -2.057  0.00  0.00     0.025 H 
ENDBRANCH  46  55
ENDBRANCH   1  46
TORSDOF 7
ENDMDL
MODEL 6
REMARK VINA RESULT:      -6.5      3.068      7.042
REMARK  7 active torsions:
REMARK  status: ('A' for Active; 'I' for Inactive)
REMARK    1  A    between atoms: C_1  and  C_2 
REMARK    2  A    between atoms: C_2  and  C_3 
REMARK    3  A    between atoms: C_3  and  C_5 
REMARK    4  A    between atoms: C_3  and  N_6 
REMARK    5  A    between atoms: C_26  and  C_28 
REMARK    6  A    between atoms: C_33  and  O_34 
REMARK    7  A    between atoms: O_34  and  C_35 
ROOT
ATOM      1  N   LIG d   1       4.894  -0.077  -4.196  0.00  0.00    -0.288 N 
ATOM      2  C   LIG d   1       3.952  -0.120  -5.302  0.00  0.00     0.091 A 
ATOM      3  C   LIG d   1       4.644  -0.132  -6.627  0.00  0.00     0.234 A 
ATOM      4  O   LIG d   1       3.955  -0.193  -7.624  0.00  0.00    -0.274 OA
ATOM      5  N   LIG d   1       5.967  -0.080  -6.787  0.00  0.00    -0.276 N 
ATOM      6  C   LIG d   1       6.902   0.074  -5.674  0.00  0.00     0.107 A 
ATOM      7  H   LIG d   1       7.646  -0.721  -5.725  0.00  0.00     0.060 H 
ATOM      8  C   LIG d   1       6.214   0.006  -4.349  0.00  0.00     0.237 A 
ATOM      9  O   LIG d   1       6.901   0.029  -3.350  0.00  0.00    -0.274 OA
ATOM     10  C   LIG d   1       7.628   1.421  -5.809  0.00  0.00     0.002 C 
ATOM     11  C   LIG d   1       8.071   1.596  -7.239  0.00  0.00    -0.015 A 
ATOM     12  C   LIG d   1       9.059   2.514  -7.767  0.00  0.00     0.003 A 
ATOM     13  C   LIG d   1       9.879   3.473  -7.166  0.00  0.00    -0.052 A 
ATOM     14  C   LIG d   1      10.713   4.182  -7.993  0.00  0.00    -0.061 A 
ATOM     15  C   LIG d   1      10.753   3.965  -9.361  0.00  0.00    -0.060 A 
ATOM     16  C   LIG d   1       9.954   3.022  -9.982  0.00  0.00    -0.038 A 
ATOM     17  C   LIG d   1       9.096   2.286  -9.167  0.00  0.00     0.047 A 
ATOM     18  N   LIG d   1       8.193   1.300  -9.443  0.00  0.00    -0.356 N 
ATOM     19  H   LIG d   1       8.009   0.942 -10.325  0.00  0.00     0.166 HD
ATOM     20  C   LIG d   1       7.587   0.890  -8.286  0.00  0.00     0.046 A 
ATOM     21  C   LIG d   1       6.528  -0.180  -8.152  0.00  0.00     0.096 C 
ATOM     22  H   LIG d   1       6.976  -1.163  -8.297  0.00  0.00     0.062 H 
ATOM     23  H   LIG d   1       3.303   0.755  -5.249  0.00  0.00     0.056 H 
ATOM     24  H   LIG d   1       3.343  -1.019  -5.213  0.00  0.00     0.056 H 
ATOM     25  H   LIG d   1       6.951   2.230  -5.533  0.00  0.00     0.034 H 
ATOM     26  H   LIG d   1       8.499   1.433  -5.152  0.00  0.00     0.034 H 
ATOM     27  H   LIG d   1       9.855   3.649  -6.100  0.00  0.00     0.062 H 
ATOM     28  H   LIG d   1      11.362   4.932  -7.564  0.00  0.00     0.062 H 
ATOM     29  H   LIG d   1      11.431   4.553  -9.962  0.00  0.00     0.062 H 
ATOM     30  H   LIG d   1       9.995   2.862 -11.049  0.00  0.00     0.064 H 
ENDROOT
BRANCH  21  31
ATOM     31  C   LIG d   1       5.441   0.043  -9.170  0.00  0.00     0.021 A 
ATOM     32  C   LIG d   1       4.927  -1.030  -9.884  0.00  0.00     0.125 A 
ATOM     33  C   LIG d   1       3.930  -0.819 -10.826  0.00  0.00    -0.020 A 
ATOM     34  C   LIG d   1       3.444   0.455 -11.043  0.00  0.00    -0.058 A 
ATOM     35  H   LIG d   1       3.533  -1.652 -11.388  0.00  0.00     0.065 H 
ATOM     36  C   LIG d   1       3.953   1.522 -10.325  0.00  0.00    -0.061 A 
ATOM     37  H   LIG d   1       2.664   0.619 -11.773  0.00  0.00     0.062 H 
ATOM     38  C   LIG d   1       4.950   1.316  -9.391  0.00  0.00    -0.053 A 
ATOM     39  H   LIG d   1       3.571   2.518 -10.496  0.00  0.00     0.062 H 
ATOM     40  H   LIG d   1       5.346   2.151  -8.831  0.00  0.00     0.062 H 
BRANCH  32  41
ATOM     41  O   LIG d   1       5.404  -2.283  -9.667  0.00  0.00    -0.495 OA
BRANCH  41  42
ATOM     42  C   LIG d   1       4.464  -3.271  -9.241  0.00  0.00     0.079 C 
ATOM     43  H   LIG d   1       4.592  -3.460  -8.176  0.00  0.00     0.066 H 
ATOM     44  H   LIG d   1       3.451  -2.913  -9.428  0.00  0.00     0.066 H 
ATOM     45  H   LIG d   1       4.631  -4.194  -9.796  0.00  0.00     0.066 H 
ENDBRANCH  41  42
ENDBRANCH  32  41
ENDBRANCH  21  31
BRANCH   1  46
ATOM     46  C   LIG d   1       4.359  -0.130  -2.833  0.00  0.00     0.024 C 
ATOM     47  H   LIG d   1       5.157  -0.399  -2.140  0.00  0.00     0.050 H 
BRANCH  46  48
ATOM     48  C   LIG d   1       3.247  -1.179  -2.762  0.00  0.00    -0.037 C 
ATOM     49  H   LIG d   1       2.520  -0.886  -2.005  0.00  0.00     0.028 H 
ATOM     50  H   LIG d   1       2.754  -1.252  -3.731  0.00  0.00     0.028 H 
BRANCH  48  51
ATOM     51  C   LIG d   1       3.850  -2.536  -2.392  0.00  0.00    -0.064 C 
ATOM     52  H   LIG d   1       4.921  -2.422  -2.222  0.00  0.00     0.023 H 
ATOM     53  H   LIG d   1       3.376  -2.909  -1.484  0.00  0.00     0.023 H 
ATOM     54  H   LIG d   1       3.685  -3.241  -3.206  0.00  0.00     0.023 H 
ENDBRANCH  48  51
ENDBRANCH  46  48
BRANCH  46  55
ATOM     55  C   LIG d   1       3.793   1.240  -2.454  0.00  0.00    -0.046 C 
ATOM     56  H   LIG d   1       4.066   1.474  -1.426  0.00  0.00     0.025 H 
ATOM     57  H   LIG d   1       4.201   1.998  -3.121  0.00  0.00     0.025 H 
ATOM     58  H   LIG d   1       2.706   1.222  -2.546  0.00  0.00     0.025 H 
ENDBRANCH  46  55
ENDBRANCH   1  46
TORSDOF 7
ENDMDL
MODEL 7
REMARK VINA RESULT:      -6.2      2.444      5.688
REMARK  7 active torsions:
REMARK  status: ('A' for Active; 'I' for Inactive)
REMARK    1  A    between atoms: C_1  and  C_2 
REMARK    2  A    between atoms: C_2  and  C_3 
REMARK    3  A    between atoms: C_3  and  C_5 
REMARK    4  A    between atoms: C_3  and  N_6 
REMARK    5  A    between atoms: C_26  and  C_28 
REMARK    6  A    between atoms: C_33  and  O_34 
REMARK    7  A    between atoms: O_34  and  C_35 
ROOT
ATOM      1  N   LIG d   1       7.946  -4.161  -5.535  0.00  0.00    -0.288 N 
ATOM      2  C   LIG d   1       6.721  -3.916  -4.793  0.00  0.00     0.091 A 
ATOM      3  C   LIG d   1       6.366  -2.465  -4.760  0.00  0.00     0.234 A 
ATOM      4  O   LIG d   1       5.345  -2.145  -4.188  0.00  0.00    -0.274 OA
ATOM      5  N   LIG d   1       7.096  -1.497  -5.318  0.00  0.00    -0.276 N 
ATOM      6  C   LIG d   1       8.384  -1.739  -5.966  0.00  0.00     0.107 A 
ATOM      7  H   LIG d   1       8.358  -1.314  -6.970  0.00  0.00     0.060 H 
ATOM      8  C   LIG d   1       8.696  -3.197  -6.067  0.00  0.00     0.237 A 
ATOM      9  O   LIG d   1       9.696  -3.524  -6.670  0.00  0.00    -0.274 OA
ATOM     10  C   LIG d   1       9.489  -1.029  -5.172  0.00  0.00     0.002 C 
ATOM     11  C   LIG d   1       9.028   0.365  -4.833  0.00  0.00    -0.015 A 
ATOM     12  C   LIG d   1       9.827   1.497  -4.407  0.00  0.00     0.003 A 
ATOM     13  C   LIG d   1      11.198   1.661  -4.189  0.00  0.00    -0.052 A 
ATOM     14  C   LIG d   1      11.616   2.901  -3.775  0.00  0.00    -0.061 A 
ATOM     15  C   LIG d   1      10.732   3.949  -3.580  0.00  0.00    -0.060 A 
ATOM     16  C   LIG d   1       9.371   3.815  -3.789  0.00  0.00    -0.038 A 
ATOM     17  C   LIG d   1       8.916   2.567  -4.210  0.00  0.00     0.047 A 
ATOM     18  N   LIG d   1       7.668   2.098  -4.503  0.00  0.00    -0.356 N 
ATOM     19  H   LIG d   1       6.851   2.618  -4.455  0.00  0.00     0.166 HD
ATOM     20  C   LIG d   1       7.744   0.783  -4.878  0.00  0.00     0.046 A 
ATOM     21  C   LIG d   1       6.590  -0.108  -5.282  0.00  0.00     0.096 C 
ATOM     22  H   LIG d   1       6.229   0.181  -6.269  0.00  0.00     0.062 H 
ATOM     23  H   LIG d   1       6.848  -4.273  -3.771  0.00  0.00     0.056 H 
ATOM     24  H   LIG d   1       5.907  -4.469  -5.262  0.00  0.00     0.056 H 
ATOM     25  H   LIG d   1       9.692  -1.581  -4.254  0.00  0.00     0.034 H 
ATOM     26  H   LIG d   1      10.397  -0.978  -5.775  0.00  0.00     0.034 H 
ATOM     27  H   LIG d   1      11.895   0.849  -4.339  0.00  0.00     0.062 H 
ATOM     28  H   LIG d   1      12.669   3.065  -3.596  0.00  0.00     0.062 H 
ATOM     29  H   LIG d   1      11.118   4.903  -3.253  0.00  0.00     0.062 H 
ATOM     30  H   LIG d   1       8.691   4.640  -3.634  0.00  0.00     0.064 H 
ENDROOT
BRANCH  21  31
ATOM     31  C   LIG d   1       5.477   0.007  -4.275  0.00  0.00     0.021 A 
ATOM     32  C   LIG d   1       4.160   0.091  -4.702  0.00  0.00     0.125 A 
ATOM     33  C   LIG d   1       3.136   0.203  -3.772  0.00  0.00    -0.020 A 
ATOM     34  C   LIG d   1       3.430   0.218  -2.422  0.00  0.00    -0.058 A 
ATOM     35  H   LIG d   1       2.111   0.274  -4.102  0.00  0.00     0.065 H 
ATOM     36  C   LIG d   1       4.743   0.127  -1.998  0.00  0.00    -0.061 A 
ATOM     37  H   LIG d   1       2.633   0.300  -1.697  0.00  0.00     0.062 H 
ATOM     38  C   LIG d   1       5.765   0.022  -2.923  0.00  0.00    -0.053 A 
ATOM     39  H   LIG d   1       4.971   0.139  -0.942  0.00  0.00     0.062 H 
ATOM     40  H   LIG d   1       6.790  -0.049  -2.589  0.00  0.00     0.062 H 
BRANCH  32  41
ATOM     41  O   LIG d   1       3.873   0.071  -6.030  0.00  0.00    -0.495 OA
BRANCH  41  42
ATOM     42  C   LIG d   1       2.538   0.413  -6.411  0.00  0.00     0.079 C 
ATOM     43  H   LIG d   1       2.070   0.989  -5.614  0.00  0.00     0.066 H 
ATOM     44  H   LIG d   1       2.563   1.006  -7.325  0.00  0.00     0.066 H 
ATOM     45  H   LIG d   1       1.966  -0.499  -6.584  0.00  0.00     0.066 H 
ENDBRANCH  41  42
ENDBRANCH  32  41
ENDBRANCH  21  31
BRANCH   1  46
ATOM     46  C   LIG d   1       8.381  -5.549  -5.710  0.00  0.00     0.024 C 
ATOM     47  H   LIG d   1       9.175  -5.589  -6.455  0.00  0.00     0.050 H 
BRANCH  46  48
ATOM     48  C   LIG d   1       7.198  -6.399  -6.177  0.00  0.00    -0.037 C 
ATOM     49  H   LIG d   1       6.292  -5.794  -6.174  0.00  0.00     0.028 H 
ATOM     50  H   LIG d   1       7.389  -6.763  -7.186  0.00  0.00     0.028 H 
BRANCH  48  51
ATOM     51  C   LIG d   1       7.021  -7.589  -5.231  0.00  0.00    -0.064 C 
ATOM     52  H   LIG d   1       5.957  -7.769  -5.070  0.00  0.00     0.023 H 
ATOM     53  H   LIG d   1       7.477  -8.475  -5.672  0.00  0.00     0.023 H 
ATOM     54  H   LIG d   1       7.499  -7.369  -4.277  0.00  0.00     0.023 H 
ENDBRANCH  48  51
ENDBRANCH  46  48
BRANCH  46  55
ATOM     55  C   LIG d   1       8.903  -6.090  -4.377  0.00  0.00    -0.046 C 
ATOM     56  H   LIG d   1       9.940  -6.404  -4.494  0.00  0.00     0.025 H 
ATOM     57  H   LIG d   1       8.842  -5.311  -3.619  0.00  0.00     0.025 H 
ATOM     58  H   LIG d   1       8.298  -6.944  -4.070  0.00  0.00     0.025 H 
ENDBRANCH  46  55
ENDBRANCH   1  46
TORSDOF 7
ENDMDL
MODEL 8
REMARK VINA RESULT:      -6.2      3.799      7.084
REMARK  7 active torsions:
REMARK  status: ('A' for Active; 'I' for Inactive)
REMARK    1  A    between atoms: C_1  and  C_2 
REMARK    2  A    between atoms: C_2  and  C_3 
REMARK    3  A    between atoms: C_3  and  C_5 
REMARK    4  A    between atoms: C_3  and  N_6 
REMARK    5  A    between atoms: C_26  and  C_28 
REMARK    6  A    between atoms: C_33  and  O_34 
REMARK    7  A    between atoms: O_34  and  C_35 
ROOT
ATOM      1  N   LIG d   1      11.803  -0.374  -5.937  0.00  0.00    -0.288 N 
ATOM      2  C   LIG d   1      12.081  -1.645  -5.289  0.00  0.00     0.091 A 
ATOM      3  C   LIG d   1      10.829  -2.393  -4.962  0.00  0.00     0.234 A 
ATOM      4  O   LIG d   1      10.941  -3.483  -4.441  0.00  0.00    -0.274 OA
ATOM      5  N   LIG d   1       9.597  -1.944  -5.206  0.00  0.00    -0.276 N 
ATOM      6  C   LIG d   1       9.324  -0.617  -5.757  0.00  0.00     0.107 A 
ATOM      7  H   LIG d   1       8.686  -0.724  -6.634  0.00  0.00     0.060 H 
ATOM      8  C   LIG d   1      10.577   0.094  -6.154  0.00  0.00     0.237 A 
ATOM      9  O   LIG d   1      10.469   1.167  -6.710  0.00  0.00    -0.274 OA
ATOM     10  C   LIG d   1       8.567   0.216  -4.712  0.00  0.00     0.002 C 
ATOM     11  C   LIG d   1       7.472  -0.629  -4.113  0.00  0.00    -0.015 A 
ATOM     12  C   LIG d   1       6.313  -0.195  -3.360  0.00  0.00     0.003 A 
ATOM     13  C   LIG d   1       5.854   1.066  -2.971  0.00  0.00    -0.052 A 
ATOM     14  C   LIG d   1       4.690   1.105  -2.244  0.00  0.00    -0.061 A 
ATOM     15  C   LIG d   1       3.993  -0.043  -1.907  0.00  0.00    -0.060 A 
ATOM     16  C   LIG d   1       4.424  -1.304  -2.280  0.00  0.00    -0.038 A 
ATOM     17  C   LIG d   1       5.603  -1.376  -3.020  0.00  0.00     0.047 A 
ATOM     18  N   LIG d   1       6.296  -2.431  -3.539  0.00  0.00    -0.356 N 
ATOM     19  H   LIG d   1       6.038  -3.362  -3.458  0.00  0.00     0.166 HD
ATOM     20  C   LIG d   1       7.409  -1.977  -4.194  0.00  0.00     0.046 A 
ATOM     21  C   LIG d   1       8.443  -2.819  -4.907  0.00  0.00     0.096 C 
ATOM     22  H   LIG d   1       8.025  -3.211  -5.834  0.00  0.00     0.062 H 
ATOM     23  H   LIG d   1      12.634  -1.460  -4.367  0.00  0.00     0.056 H 
ATOM     24  H   LIG d   1      12.694  -2.254  -5.953  0.00  0.00     0.056 H 
ATOM     25  H   LIG d   1       9.256   0.532  -3.928  0.00  0.00     0.034 H 
ATOM     26  H   LIG d   1       8.132   1.094  -5.191  0.00  0.00     0.034 H 
ATOM     27  H   LIG d   1       6.390   1.968  -3.229  0.00  0.00     0.062 H 
ATOM     28  H   LIG d   1       4.304   2.063  -1.925  0.00  0.00     0.062 H 
ATOM     29  H   LIG d   1       3.083   0.048  -1.333  0.00  0.00     0.062 H 
ATOM     30  H   LIG d   1       3.871  -2.192  -2.012  0.00  0.00     0.064 H 
ENDROOT
BRANCH  21  31
ATOM     31  C   LIG d   1       8.878  -3.956  -4.021  0.00  0.00     0.021 A 
ATOM     32  C   LIG d   1       8.944  -5.246  -4.527  0.00  0.00     0.125 A 
ATOM     33  C   LIG d   1       9.340  -6.292  -3.706  0.00  0.00    -0.020 A 
ATOM     34  C   LIG d   1       9.678  -6.046  -2.390  0.00  0.00    -0.058 A 
ATOM     35  H   LIG d   1       9.386  -7.298  -4.097  0.00  0.00     0.065 H 
ATOM     36  C   LIG d   1       9.618  -4.758  -1.889  0.00  0.00    -0.061 A 
ATOM     37  H   LIG d   1       9.991  -6.859  -1.751  0.00  0.00     0.062 H 
ATOM     38  C   LIG d   1       9.219  -3.715  -2.703  0.00  0.00    -0.053 A 
ATOM     39  H   LIG d   1       9.884  -4.567  -0.859  0.00  0.00     0.062 H 
ATOM     40  H   LIG d   1       9.173  -2.710  -2.309  0.00  0.00     0.062 H 
BRANCH  32  41
ATOM     41  O   LIG d   1       8.615  -5.485  -5.824  0.00  0.00    -0.495 OA
BRANCH  41  42
ATOM     42  C   LIG d   1       9.668  -5.903  -6.695  0.00  0.00     0.079 C 
ATOM     43  H   LIG d   1       9.654  -5.294  -7.598  0.00  0.00     0.066 H 
ATOM     44  H   LIG d   1      10.626  -5.783  -6.189  0.00  0.00     0.066 H 
ATOM     45  H   LIG d   1       9.525  -6.950  -6.961  0.00  0.00     0.066 H 
ENDBRANCH  41  42
ENDBRANCH  32  41
ENDBRANCH  21  31
BRANCH   1  46
ATOM     46  C   LIG d   1      12.941   0.438  -6.377  0.00  0.00     0.024 C 
ATOM     47  H   LIG d   1      12.575   1.312  -6.916  0.00  0.00     0.050 H 
BRANCH  46  48
ATOM     48  C   LIG d   1      13.834  -0.394  -7.301  0.00  0.00    -0.037 C 
ATOM     49  H   LIG d   1      14.845   0.014  -7.291  0.00  0.00     0.028 H 
ATOM     50  H   LIG d   1      13.854  -1.426  -6.953  0.00  0.00     0.028 H 
BRANCH  48  51
ATOM     51  C   LIG d   1      13.279  -0.345  -8.726  0.00  0.00    -0.064 C 
ATOM     52  H   LIG d   1      13.930   0.269  -9.348  0.00  0.00     0.023 H 
ATOM     53  H   LIG d   1      13.233  -1.355  -9.133  0.00  0.00     0.023 H 
ATOM     54  H   LIG d   1      12.278   0.087  -8.711  0.00  0.00     0.023 H 
ENDBRANCH  48  51
ENDBRANCH  46  48
BRANCH  46  55
ATOM     55  C   LIG d   1      13.747   0.889  -5.158  0.00  0.00    -0.046 C 
ATOM     56  H   LIG d   1      13.416   1.880  -4.850  0.00  0.00     0.025 H 
ATOM     57  H   LIG d   1      13.595   0.185  -4.341  0.00  0.00     0.025 H 
ATOM     58  H   LIG d   1      14.807   0.924  -5.416  0.00  0.00     0.025 H 
ENDBRANCH  46  55
ENDBRANCH   1  46
TORSDOF 7
ENDMDL
MODEL 9
REMARK VINA RESULT:      -6.2      2.829      7.170
REMARK  7 active torsions:
REMARK  status: ('A' for Active; 'I' for Inactive)
REMARK    1  A    between atoms: C_1  and  C_2 
REMARK    2  A    between atoms: C_2  and  C_3 
REMARK    3  A    between atoms: C_3  and  C_5 
REMARK    4  A    between atoms: C_3  and  N_6 
REMARK    5  A    between atoms: C_26  and  C_28 
REMARK    6  A    between atoms: C_33  and  O_34 
REMARK    7  A    between atoms: O_34  and  C_35 
ROOT
ATOM      1  N   LIG d   1       3.749  -0.453  -4.561  0.00  0.00    -0.288 N 
ATOM      2  C   LIG d   1       4.854  -1.391  -4.667  0.00  0.00     0.091 A 
ATOM      3  C   LIG d   1       5.414  -1.444  -6.052  0.00  0.00     0.234 A 
ATOM      4  O   LIG d   1       6.360  -2.177  -6.251  0.00  0.00    -0.274 OA
ATOM      5  N   LIG d   1       4.944  -0.739  -7.082  0.00  0.00    -0.276 N 
ATOM      6  C   LIG d   1       3.764   0.118  -6.993  0.00  0.00     0.107 A 
ATOM      7  H   LIG d   1       4.023   1.114  -7.354  0.00  0.00     0.060 H 
ATOM      8  C   LIG d   1       3.256   0.230  -5.592  0.00  0.00     0.237 A 
ATOM      9  O   LIG d   1       2.334   0.990  -5.381  0.00  0.00    -0.274 OA
ATOM     10  C   LIG d   1       2.660  -0.448  -7.898  0.00  0.00     0.002 C 
ATOM     11  C   LIG d   1       3.263  -0.822  -9.228  0.00  0.00    -0.015 A 
ATOM     12  C   LIG d   1       2.585  -1.068 -10.484  0.00  0.00     0.003 A 
ATOM     13  C   LIG d   1       1.238  -1.037 -10.856  0.00  0.00    -0.052 A 
ATOM     14  C   LIG d   1       0.949  -1.335 -12.164  0.00  0.00    -0.061 A 
ATOM     15  C   LIG d   1       1.936  -1.652 -13.083  0.00  0.00    -0.060 A 
ATOM     16  C   LIG d   1       3.276  -1.689 -12.743  0.00  0.00    -0.038 A 
ATOM     17  C   LIG d   1       3.601  -1.391 -11.421  0.00  0.00     0.047 A 
ATOM     18  N   LIG d   1       4.795  -1.336 -10.761  0.00  0.00    -0.356 N 
ATOM     19  H   LIG d   1       5.661  -1.511 -11.160  0.00  0.00     0.166 HD
ATOM     20  C   LIG d   1       4.585  -0.992  -9.453  0.00  0.00     0.046 A 
ATOM     21  C   LIG d   1       5.641  -0.823  -8.384  0.00  0.00     0.096 C 
ATOM     22  H   LIG d   1       6.205   0.093  -8.563  0.00  0.00     0.062 H 
ATOM     23  H   LIG d   1       4.502  -2.385  -4.389  0.00  0.00     0.056 H 
ATOM     24  H   LIG d   1       5.642  -1.089  -3.978  0.00  0.00     0.056 H 
ATOM     25  H   LIG d   1       2.223  -1.332  -7.433  0.00  0.00     0.034 H 
ATOM     26  H   LIG d   1       1.887   0.307  -8.046  0.00  0.00     0.034 H 
ATOM     27  H   LIG d   1       0.461  -0.791 -10.147  0.00  0.00     0.062 H 
ATOM     28  H   LIG d   1      -0.082  -1.321 -12.489  0.00  0.00     0.062 H 
ATOM     29  H   LIG d   1       1.649  -1.878 -14.100  0.00  0.00     0.062 H 
ATOM     30  H   LIG d   1       4.036  -1.937 -13.469  0.00  0.00     0.064 H 
ENDROOT
BRANCH  21  31
ATOM     31  C   LIG d   1       6.573  -2.006  -8.392  0.00  0.00     0.021 A 
ATOM     32  C   LIG d   1       7.943  -1.812  -8.299  0.00  0.00     0.125 A 
ATOM     33  C   LIG d   1       8.799  -2.905  -8.313  0.00  0.00    -0.020 A 
ATOM     34  C   LIG d   1       8.284  -4.183  -8.407  0.00  0.00    -0.058 A 
ATOM     35  H   LIG d   1       9.867  -2.756  -8.247  0.00  0.00     0.065 H 
ATOM     36  C   LIG d   1       6.917  -4.374  -8.492  0.00  0.00    -0.061 A 
ATOM     37  H   LIG d   1       8.950  -5.034  -8.413  0.00  0.00     0.062 H 
ATOM     38  C   LIG d   1       6.063  -3.288  -8.485  0.00  0.00    -0.053 A 
ATOM     39  H   LIG d   1       6.516  -5.375  -8.566  0.00  0.00     0.062 H 
ATOM     40  H   LIG d   1       4.995  -3.440  -8.552  0.00  0.00     0.062 H 
BRANCH  32  41
ATOM     41  O   LIG d   1       8.447  -0.554  -8.202  0.00  0.00    -0.495 OA
BRANCH  41  42
ATOM     42  C   LIG d   1       9.310  -0.118  -9.254  0.00  0.00     0.079 C 
ATOM     43  H   LIG d   1       9.021  -0.603 -10.186  0.00  0.00     0.066 H 
ATOM     44  H   LIG d   1       9.228   0.963  -9.366  0.00  0.00     0.066 H 
ATOM     45  H   LIG d   1      10.340  -0.382  -9.013  0.00  0.00     0.066 H 
ENDBRANCH  41  42
ENDBRANCH  32  41
ENDBRANCH  21  31
BRANCH   1  46
ATOM     46  C   LIG d   1       3.145  -0.245  -3.243  0.00  0.00     0.024 C 
ATOM     47  H   LIG d   1       2.060  -0.216  -3.342  0.00  0.00     0.050 H 
BRANCH  46  48
ATOM     48  C   LIG d   1       3.640   1.079  -2.658  0.00  0.00    -0.037 C 
ATOM     49  H   LIG d   1       4.102   1.674  -3.445  0.00  0.00     0.028 H 
ATOM     50  H   LIG d   1       2.798   1.626  -2.235  0.00  0.00     0.028 H 
BRANCH  48  51
ATOM     51  C   LIG d   1       4.669   0.798  -1.560  0.00  0.00    -0.064 C 
ATOM     52  H   LIG d   1       4.996  -0.240  -1.628  0.00  0.00     0.023 H 
ATOM     53  H   LIG d   1       5.525   1.459  -1.687  0.00  0.00     0.023 H 
ATOM     54  H   LIG d   1       4.216   0.972  -0.584  0.00  0.00     0.023 H 
ENDBRANCH  48  51
ENDBRANCH  46  48
BRANCH  46  55
ATOM     55  C   LIG d   1       3.543  -1.394  -2.313  0.00  0.00    -0.046 C 
ATOM     56  H   LIG d   1       4.246  -2.049  -2.827  0.00  0.00     0.025 H 
ATOM     57  H   LIG d   1       4.011  -0.990  -1.417  0.00  0.00     0.025 H 
ATOM     58  H   LIG d   1       2.654  -1.961  -2.035  0.00  0.00     0.025 H 
ENDBRANCH  46  55
ENDBRANCH   1  46
TORSDOF 7
ENDMDL
