MODEL 1
REMARK VINA RESULT:      -5.0      0.000      0.000
REMARK  6 active torsions:
REMARK  status: ('A' for Active; 'I' for Inactive)
REMARK    1  A    between atoms: C_1  and  C_2 
REMARK    2  A    between atoms: C_4  and  C_9 
REMARK    3  A    between atoms: C_7  and  O_8 
REMARK    4  A    between atoms: C_9  and  CA_10 
REMARK    5  A    between atoms: CA_10  and  C_12 
REMARK    6  A    between atoms: CA_10  and  N_26 
ROOT
ATOM      1  C   LIG d   1       3.281   0.025  -3.869  0.00  0.00    -0.009 A 
ATOM      2  C   LIG d   1       3.636  -1.207  -4.386  0.00  0.00    -0.052 A 
ATOM      3  C   LIG d   1       4.356  -2.100  -3.614  0.00  0.00    -0.041 A 
ATOM      4  C   LIG d   1       4.723  -1.763  -2.324  0.00  0.00    -0.055 A 
ATOM      5  C   LIG d   1       4.371  -0.533  -1.803  0.00  0.00    -0.020 A 
ATOM      6  C   LIG d   1       3.643   0.362  -2.574  0.00  0.00     0.120 A 
ATOM      7  H   LIG d   1       3.350  -1.472  -5.393  0.00  0.00     0.062 H 
ATOM      8  H   LIG d   1       5.286  -2.462  -1.723  0.00  0.00     0.062 H 
ATOM      9  H   LIG d   1       4.658  -0.271  -0.796  0.00  0.00     0.065 H 
ENDROOT
BRANCH   3  10
ATOM     10  C   LIG d   1       4.740  -3.442  -4.179  0.00  0.00     0.021 C 
ATOM     11  H   LIG d   1       5.757  -3.689  -3.871  0.00  0.00     0.037 H 
ATOM     12  H   LIG d   1       4.054  -4.203  -3.808  0.00  0.00     0.037 H 
BRANCH  10  13
ATOM     13  CA  LIG d   1       4.667  -3.393  -5.707  0.00  0.00     0.020 C 
ATOM     14  HA  LIG d   1       4.251  -2.436  -6.019  0.00  0.00     0.092 H 
BRANCH  13  15
ATOM     15  C   LIG d   1       6.052  -3.550  -6.281  0.00  0.00     0.090 C 
ATOM     16  O   LIG d   1       6.349  -2.975  -7.302  0.00  0.00    -0.544 OA
ATOM     17  OXT LIG d   1       6.953  -4.326  -5.660  0.00  0.00    -0.544 OA
ENDBRANCH  13  15
BRANCH  13  18
ATOM     18  N   LIG d   1       3.787  -4.476  -6.179  0.00  0.00     0.225 N 
ATOM     19  H1  LIG d   1       2.996  -4.584  -5.546  0.00  0.00     0.200 HD
ATOM     20  H2  LIG d   1       3.445  -4.264  -7.115  0.00  0.00     0.200 HD
ATOM     21  H3  LIG d   1       4.317  -5.354  -6.206  0.00  0.00     0.200 HD
ENDBRANCH  13  18
ENDBRANCH  10  13
ENDBRANCH   3  10
BRANCH   1  22
ATOM     22  C   LIG d   1       2.496   0.998  -4.710  0.00  0.00    -0.036 C 
ATOM     23  H   LIG d   1       1.571   0.527  -5.043  0.00  0.00     0.028 H 
ATOM     24  H   LIG d   1       2.261   1.883  -4.119  0.00  0.00     0.028 H 
ATOM     25  H   LIG d   1       3.088   1.288  -5.578  0.00  0.00     0.028 H 
ENDBRANCH   1  22
BRANCH   6  26
ATOM     26  O   LIG d   1       3.291   1.572  -2.062  0.00  0.00    -0.506 OA
ATOM     27  H   LIG d   1       3.401   2.308  -2.679  0.00  0.00     0.292 HD
ENDBRANCH   6  26
TORSDOF 6
ENDMDL
MODEL 2
REMARK VINA RESULT:      -4.9      1.518      1.962
REMARK  6 active torsions:
REMARK  status: ('A' for Active; 'I' for Inactive)
REMARK    1  A    between atoms: C_1  and  C_2 
REMARK    2  A    between atoms: C_4  and  C_9 
REMARK    3  A    between atoms: C_7  and  O_8 
REMARK    4  A    between atoms: C_9  and  CA_10 
REMARK    5  A    between atoms: CA_10  and  C_12 
REMARK    6  A    between atoms: CA_10  and  N_26 
ROOT
ATOM      1  C   LIG d   1       5.922  -0.186  -3.279  0.00  0.00    -0.009 A 
ATOM      2  C   LIG d   1       5.984  -1.354  -4.016  0.00  0.00    -0.052 A 
ATOM      3  C   LIG d   1       5.080  -2.373  -3.777  0.00  0.00    -0.041 A 
ATOM      4  C   LIG d   1       4.112  -2.226  -2.801  0.00  0.00    -0.055 A 
ATOM      5  C   LIG d   1       4.046  -1.060  -2.061  0.00  0.00    -0.020 A 
ATOM      6  C   LIG d   1       4.949  -0.035  -2.303  0.00  0.00     0.120 A 
ATOM      7  H   LIG d   1       6.740  -1.471  -4.779  0.00  0.00     0.062 H 
ATOM      8  H   LIG d   1       3.407  -3.022  -2.615  0.00  0.00     0.062 H 
ATOM      9  H   LIG d   1       3.290  -0.947  -1.299  0.00  0.00     0.065 H 
ENDROOT
BRANCH   3  10
ATOM     10  C   LIG d   1       5.150  -3.643  -4.582  0.00  0.00     0.021 C 
ATOM     11  H   LIG d   1       6.189  -3.958  -4.677  0.00  0.00     0.037 H 
ATOM     12  H   LIG d   1       4.580  -4.424  -4.079  0.00  0.00     0.037 H 
BRANCH  10  13
ATOM     13  CA  LIG d   1       4.561  -3.400  -5.973  0.00  0.00     0.020 C 
ATOM     14  HA  LIG d   1       4.061  -2.431  -5.990  0.00  0.00     0.092 H 
BRANCH  13  15
ATOM     15  C   LIG d   1       5.667  -3.413  -6.997  0.00  0.00     0.090 C 
ATOM     16  O   LIG d   1       6.769  -3.798  -6.688  0.00  0.00    -0.544 OA
ATOM     17  OXT LIG d   1       5.426  -2.997  -8.250  0.00  0.00    -0.544 OA
ENDBRANCH  13  15
BRANCH  13  18
ATOM     18  N   LIG d   1       3.574  -4.454  -6.266  0.00  0.00     0.225 N 
ATOM     19  H1  LIG d   1       3.507  -4.599  -7.273  0.00  0.00     0.200 HD
ATOM     20  H2  LIG d   1       3.850  -5.325  -5.816  0.00  0.00     0.200 HD
ATOM     21  H3  LIG d   1       2.657  -4.167  -5.907  0.00  0.00     0.200 HD
ENDBRANCH  13  18
ENDBRANCH  10  13
ENDBRANCH   3  10
BRANCH   1  22
ATOM     22  C   LIG d   1       6.908   0.924  -3.540  0.00  0.00    -0.036 C 
ATOM     23  H   LIG d   1       7.381   0.769  -4.509  0.00  0.00     0.028 H 
ATOM     24  H   LIG d   1       6.386   1.880  -3.539  0.00  0.00     0.028 H 
ATOM     25  H   LIG d   1       7.669   0.924  -2.760  0.00  0.00     0.028 H 
ENDBRANCH   1  22
BRANCH   6  26
ATOM     26  O   LIG d   1       4.882   1.115  -1.581  0.00  0.00    -0.506 OA
ATOM     27  H   LIG d   1       5.541   1.776  -1.832  0.00  0.00     0.292 HD
ENDBRANCH   6  26
TORSDOF 6
ENDMDL
MODEL 3
REMARK VINA RESULT:      -4.9      4.085      4.757
REMARK  6 active torsions:
REMARK  status: ('A' for Active; 'I' for Inactive)
REMARK    1  A    between atoms: C_1  and  C_2 
REMARK    2  A    between atoms: C_4  and  C_9 
REMARK    3  A    between atoms: C_7  and  O_8 
REMARK    4  A    between atoms: C_9  and  CA_10 
REMARK    5  A    between atoms: CA_10  and  C_12 
REMARK    6  A    between atoms: CA_10  and  N_26 
ROOT
ATOM      1  C   LIG d   1       5.337  -1.792  -3.621  0.00  0.00    -0.009 A 
ATOM      2  C   LIG d   1       6.215  -0.779  -3.957  0.00  0.00    -0.052 A 
ATOM      3  C   LIG d   1       6.160   0.433  -3.295  0.00  0.00    -0.041 A 
ATOM      4  C   LIG d   1       5.227   0.636  -2.294  0.00  0.00    -0.055 A 
ATOM      5  C   LIG d   1       4.347  -0.374  -1.955  0.00  0.00    -0.020 A 
ATOM      6  C   LIG d   1       4.404  -1.593  -2.614  0.00  0.00     0.120 A 
ATOM      7  H   LIG d   1       6.945  -0.935  -4.739  0.00  0.00     0.062 H 
ATOM      8  H   LIG d   1       5.186   1.583  -1.779  0.00  0.00     0.062 H 
ATOM      9  H   LIG d   1       3.619  -0.215  -1.173  0.00  0.00     0.065 H 
ENDROOT
BRANCH   3  10
ATOM     10  C   LIG d   1       7.119   1.535  -3.663  0.00  0.00     0.021 C 
ATOM     11  H   LIG d   1       6.578   2.335  -4.170  0.00  0.00     0.037 H 
ATOM     12  H   LIG d   1       7.584   1.929  -2.759  0.00  0.00     0.037 H 
BRANCH  10  13
ATOM     13  CA  LIG d   1       8.201   0.982  -4.593  0.00  0.00     0.020 C 
ATOM     14  HA  LIG d   1       8.033  -0.084  -4.749  0.00  0.00     0.092 H 
BRANCH  13  15
ATOM     15  C   LIG d   1       8.141   1.699  -5.917  0.00  0.00     0.090 C 
ATOM     16  O   LIG d   1       7.253   1.451  -6.697  0.00  0.00    -0.544 OA
ATOM     17  OXT LIG d   1       9.073   2.613  -6.228  0.00  0.00    -0.544 OA
ENDBRANCH  13  15
BRANCH  13  18
ATOM     18  N   LIG d   1       9.518   1.173  -3.961  0.00  0.00     0.225 N 
ATOM     19  H1  LIG d   1      10.241   0.717  -4.517  0.00  0.00     0.200 HD
ATOM     20  H2  LIG d   1       9.726   2.168  -3.884  0.00  0.00     0.200 HD
ATOM     21  H3  LIG d   1       9.506   0.759  -3.023  0.00  0.00     0.200 HD
ENDBRANCH  13  18
ENDBRANCH  10  13
ENDBRANCH   3  10
BRANCH   1  22
ATOM     22  C   LIG d   1       5.398  -3.113  -4.343  0.00  0.00    -0.036 C 
ATOM     23  H   LIG d   1       5.259  -3.924  -3.629  0.00  0.00     0.028 H 
ATOM     24  H   LIG d   1       4.610  -3.152  -5.096  0.00  0.00     0.028 H 
ATOM     25  H   LIG d   1       6.368  -3.218  -4.828  0.00  0.00     0.028 H 
ENDBRANCH   1  22
BRANCH   6  26
ATOM     26  O   LIG d   1       3.543  -2.590  -2.278  0.00  0.00    -0.506 OA
ATOM     27  H   LIG d   1       2.789  -2.296  -1.747  0.00  0.00     0.292 HD
ENDBRANCH   6  26
TORSDOF 6
ENDMDL
MODEL 4
REMARK VINA RESULT:      -4.8      3.095      5.612
REMARK  6 active torsions:
REMARK  status: ('A' for Active; 'I' for Inactive)
REMARK    1  A    between atoms: C_1  and  C_2 
REMARK    2  A    between atoms: C_4  and  C_9 
REMARK    3  A    between atoms: C_7  and  O_8 
REMARK    4  A    between atoms: C_9  and  CA_10 
REMARK    5  A    between atoms: CA_10  and  C_12 
REMARK    6  A    between atoms: CA_10  and  N_26 
ROOT
ATOM      1  C   LIG d   1       3.530   1.107  -8.463  0.00  0.00    -0.009 A 
ATOM      2  C   LIG d   1       2.865   1.207  -7.256  0.00  0.00    -0.052 A 
ATOM      3  C   LIG d   1       3.109   0.287  -6.252  0.00  0.00    -0.041 A 
ATOM      4  C   LIG d   1       4.018  -0.735  -6.454  0.00  0.00    -0.055 A 
ATOM      5  C   LIG d   1       4.685  -0.839  -7.659  0.00  0.00    -0.020 A 
ATOM      6  C   LIG d   1       4.447   0.086  -8.665  0.00  0.00     0.120 A 
ATOM      7  H   LIG d   1       2.154   2.005  -7.097  0.00  0.00     0.062 H 
ATOM      8  H   LIG d   1       4.206  -1.452  -5.669  0.00  0.00     0.062 H 
ATOM      9  H   LIG d   1       5.395  -1.638  -7.816  0.00  0.00     0.065 H 
ENDROOT
BRANCH   3  10
ATOM     10  C   LIG d   1       2.383   0.400  -4.937  0.00  0.00     0.021 C 
ATOM     11  H   LIG d   1       2.033   1.424  -4.801  0.00  0.00     0.037 H 
ATOM     12  H   LIG d   1       1.529  -0.278  -4.934  0.00  0.00     0.037 H 
BRANCH  10  13
ATOM     13  CA  LIG d   1       3.332   0.029  -3.797  0.00  0.00     0.020 C 
ATOM     14  HA  LIG d   1       4.264  -0.356  -4.211  0.00  0.00     0.092 H 
BRANCH  13  15
ATOM     15  C   LIG d   1       3.621   1.252  -2.964  0.00  0.00     0.090 C 
ATOM     16  O   LIG d   1       3.570   2.349  -3.468  0.00  0.00    -0.544 OA
ATOM     17  OXT LIG d   1       3.933   1.122  -1.666  0.00  0.00    -0.544 OA
ENDBRANCH  13  15
BRANCH  13  18
ATOM     18  N   LIG d   1       2.704  -1.019  -2.973  0.00  0.00     0.225 N 
ATOM     19  H1  LIG d   1       2.196  -1.673  -3.567  0.00  0.00     0.200 HD
ATOM     20  H2  LIG d   1       3.417  -1.523  -2.447  0.00  0.00     0.200 HD
ATOM     21  H3  LIG d   1       2.048  -0.584  -2.316  0.00  0.00     0.200 HD
ENDBRANCH  13  18
ENDBRANCH  10  13
ENDBRANCH   3  10
BRANCH   1  22
ATOM     22  C   LIG d   1       3.265   2.109  -9.556  0.00  0.00    -0.036 C 
ATOM     23  H   LIG d   1       2.734   1.623 -10.374  0.00  0.00     0.028 H 
ATOM     24  H   LIG d   1       2.658   2.924  -9.162  0.00  0.00     0.028 H 
ATOM     25  H   LIG d   1       4.212   2.506  -9.923  0.00  0.00     0.028 H 
ENDBRANCH   1  22
BRANCH   6  26
ATOM     26  O   LIG d   1       5.106  -0.012  -9.850  0.00  0.00    -0.506 OA
ATOM     27  H   LIG d   1       4.878  -0.799 -10.364  0.00  0.00     0.292 HD
ENDBRANCH   6  26
TORSDOF 6
ENDMDL
MODEL 5
REMARK VINA RESULT:      -4.8      1.763      4.976
REMARK  6 active torsions:
REMARK  status: ('A' for Active; 'I' for Inactive)
REMARK    1  A    between atoms: C_1  and  C_2 
REMARK    2  A    between atoms: C_4  and  C_9 
REMARK    3  A    between atoms: C_7  and  O_8 
REMARK    4  A    between atoms: C_9  and  CA_10 
REMARK    5  A    between atoms: CA_10  and  C_12 
REMARK    6  A    between atoms: CA_10  and  N_26 
ROOT
ATOM      1  C   LIG d   1       5.752  -3.512  -4.842  0.00  0.00    -0.009 A 
ATOM      2  C   LIG d   1       4.682  -3.098  -4.072  0.00  0.00    -0.052 A 
ATOM      3  C   LIG d   1       4.831  -2.043  -3.190  0.00  0.00    -0.041 A 
ATOM      4  C   LIG d   1       6.050  -1.400  -3.076  0.00  0.00    -0.055 A 
ATOM      5  C   LIG d   1       7.123  -1.812  -3.843  0.00  0.00    -0.020 A 
ATOM      6  C   LIG d   1       6.975  -2.866  -4.733  0.00  0.00     0.120 A 
ATOM      7  H   LIG d   1       3.729  -3.598  -4.160  0.00  0.00     0.062 H 
ATOM      8  H   LIG d   1       6.164  -0.577  -2.387  0.00  0.00     0.062 H 
ATOM      9  H   LIG d   1       8.075  -1.310  -3.753  0.00  0.00     0.065 H 
ENDROOT
BRANCH   3  10
ATOM     10  C   LIG d   1       3.662  -1.592  -2.354  0.00  0.00     0.021 C 
ATOM     11  H   LIG d   1       2.986  -2.432  -2.191  0.00  0.00     0.037 H 
ATOM     12  H   LIG d   1       4.023  -1.226  -1.393  0.00  0.00     0.037 H 
BRANCH  10  13
ATOM     13  CA  LIG d   1       2.917  -0.470  -3.079  0.00  0.00     0.020 C 
ATOM     14  HA  LIG d   1       1.877  -0.456  -2.753  0.00  0.00     0.092 H 
BRANCH  13  15
ATOM     15  C   LIG d   1       3.563   0.853  -2.756  0.00  0.00     0.090 C 
ATOM     16  O   LIG d   1       3.617   1.718  -3.598  0.00  0.00    -0.544 OA
ATOM     17  OXT LIG d   1       4.077   1.069  -1.536  0.00  0.00    -0.544 OA
ENDBRANCH  13  15
BRANCH  13  18
ATOM     18  N   LIG d   1       2.961  -0.726  -4.530  0.00  0.00     0.225 N 
ATOM     19  H1  LIG d   1       3.902  -0.999  -4.808  0.00  0.00     0.200 HD
ATOM     20  H2  LIG d   1       2.307  -1.469  -4.772  0.00  0.00     0.200 HD
ATOM     21  H3  LIG d   1       2.698   0.130  -5.031  0.00  0.00     0.200 HD
ENDBRANCH  13  18
ENDBRANCH  10  13
ENDBRANCH   3  10
BRANCH   1  22
ATOM     22  C   LIG d   1       5.590  -4.661  -5.803  0.00  0.00    -0.036 C 
ATOM     23  H   LIG d   1       6.323  -4.571  -6.604  0.00  0.00     0.028 H 
ATOM     24  H   LIG d   1       5.744  -5.602  -5.274  0.00  0.00     0.028 H 
ATOM     25  H   LIG d   1       4.586  -4.642  -6.226  0.00  0.00     0.028 H 
ENDBRANCH   1  22
BRANCH   6  26
ATOM     26  O   LIG d   1       8.028  -3.269  -5.492  0.00  0.00    -0.506 OA
ATOM     27  H   LIG d   1       8.692  -2.582  -5.640  0.00  0.00     0.292 HD
ENDBRANCH   6  26
TORSDOF 6
ENDMDL
MODEL 6
REMARK VINA RESULT:      -4.7      2.131      2.567
REMARK  6 active torsions:
REMARK  status: ('A' for Active; 'I' for Inactive)
REMARK    1  A    between atoms: C_1  and  C_2 
REMARK    2  A    between atoms: C_4  and  C_9 
REMARK    3  A    between atoms: C_7  and  O_8 
REMARK    4  A    between atoms: C_9  and  CA_10 
REMARK    5  A    between atoms: CA_10  and  C_12 
REMARK    6  A    between atoms: CA_10  and  N_26 
ROOT
ATOM      1  C   LIG d   1       5.174   0.086  -2.693  0.00  0.00    -0.009 A 
ATOM      2  C   LIG d   1       4.643  -1.166  -2.943  0.00  0.00    -0.052 A 
ATOM      3  C   LIG d   1       5.262  -2.014  -3.842  0.00  0.00    -0.041 A 
ATOM      4  C   LIG d   1       6.414  -1.613  -4.494  0.00  0.00    -0.055 A 
ATOM      5  C   LIG d   1       6.948  -0.363  -4.248  0.00  0.00    -0.020 A 
ATOM      6  C   LIG d   1       6.332   0.488  -3.342  0.00  0.00     0.120 A 
ATOM      7  H   LIG d   1       3.743  -1.480  -2.434  0.00  0.00     0.062 H 
ATOM      8  H   LIG d   1       6.895  -2.277  -5.196  0.00  0.00     0.062 H 
ATOM      9  H   LIG d   1       7.848  -0.051  -4.758  0.00  0.00     0.065 H 
ENDROOT
BRANCH   3  10
ATOM     10  C   LIG d   1       4.681  -3.377  -4.111  0.00  0.00     0.021 C 
ATOM     11  H   LIG d   1       5.102  -4.097  -3.409  0.00  0.00     0.037 H 
ATOM     12  H   LIG d   1       3.599  -3.342  -3.988  0.00  0.00     0.037 H 
BRANCH  10  13
ATOM     13  CA  LIG d   1       5.017  -3.802  -5.542  0.00  0.00     0.020 C 
ATOM     14  HA  LIG d   1       6.013  -3.444  -5.802  0.00  0.00     0.092 H 
BRANCH  13  15
ATOM     15  C   LIG d   1       4.983  -5.306  -5.641  0.00  0.00     0.090 C 
ATOM     16  O   LIG d   1       5.835  -5.888  -6.269  0.00  0.00    -0.544 OA
ATOM     17  OXT LIG d   1       4.007  -5.997  -5.031  0.00  0.00    -0.544 OA
ENDBRANCH  13  15
BRANCH  13  18
ATOM     18  N   LIG d   1       4.035  -3.202  -6.463  0.00  0.00     0.225 N 
ATOM     19  H1  LIG d   1       3.661  -3.915  -7.087  0.00  0.00     0.200 HD
ATOM     20  H2  LIG d   1       3.273  -2.782  -5.933  0.00  0.00     0.200 HD
ATOM     21  H3  LIG d   1       4.497  -2.476  -7.021  0.00  0.00     0.200 HD
ENDBRANCH  13  18
ENDBRANCH  10  13
ENDBRANCH   3  10
BRANCH   1  22
ATOM     22  C   LIG d   1       4.500   1.010  -1.712  0.00  0.00    -0.036 C 
ATOM     23  H   LIG d   1       3.431   0.801  -1.692  0.00  0.00     0.028 H 
ATOM     24  H   LIG d   1       4.920   0.854  -0.719  0.00  0.00     0.028 H 
ATOM     25  H   LIG d   1       4.662   2.044  -2.017  0.00  0.00     0.028 H 
ENDBRANCH   1  22
BRANCH   6  26
ATOM     26  O   LIG d   1       6.860   1.716  -3.094  0.00  0.00    -0.506 OA
ATOM     27  H   LIG d   1       7.773   1.695  -2.776  0.00  0.00     0.292 HD
ENDBRANCH   6  26
TORSDOF 6
ENDMDL
MODEL 7
REMARK VINA RESULT:      -4.7      2.733      4.870
REMARK  6 active torsions:
REMARK  status: ('A' for Active; 'I' for Inactive)
REMARK    1  A    between atoms: C_1  and  C_2 
REMARK    2  A    between atoms: C_4  and  C_9 
REMARK    3  A    between atoms: C_7  and  O_8 
REMARK    4  A    between atoms: C_9  and  CA_10 
REMARK    5  A    between atoms: CA_10  and  C_12 
REMARK    6  A    between atoms: CA_10  and  N_26 
ROOT
ATOM      1  C   LIG d   1       7.122  -1.707  -3.740  0.00  0.00    -0.009 A 
ATOM      2  C   LIG d   1       5.908  -1.566  -3.093  0.00  0.00    -0.052 A 
ATOM      3  C   LIG d   1       5.421  -0.305  -2.802  0.00  0.00    -0.041 A 
ATOM      4  C   LIG d   1       6.146   0.818  -3.156  0.00  0.00    -0.055 A 
ATOM      5  C   LIG d   1       7.361   0.682  -3.801  0.00  0.00    -0.020 A 
ATOM      6  C   LIG d   1       7.849  -0.581  -4.100  0.00  0.00     0.120 A 
ATOM      7  H   LIG d   1       5.341  -2.442  -2.816  0.00  0.00     0.062 H 
ATOM      8  H   LIG d   1       5.764   1.801  -2.926  0.00  0.00     0.062 H 
ATOM      9  H   LIG d   1       7.926   1.560  -4.077  0.00  0.00     0.065 H 
ENDROOT
BRANCH   3  10
ATOM     10  C   LIG d   1       4.098  -0.155  -2.099  0.00  0.00     0.021 C 
ATOM     11  H   LIG d   1       4.000  -0.930  -1.338  0.00  0.00     0.037 H 
ATOM     12  H   LIG d   1       4.047   0.825  -1.625  0.00  0.00     0.037 H 
BRANCH  10  13
ATOM     13  CA  LIG d   1       2.962  -0.289  -3.114  0.00  0.00     0.020 C 
ATOM     14  HA  LIG d   1       2.004  -0.217  -2.599  0.00  0.00     0.092 H 
BRANCH  13  15
ATOM     15  C   LIG d   1       3.067   0.814  -4.136  0.00  0.00     0.090 C 
ATOM     16  O   LIG d   1       3.118   0.544  -5.312  0.00  0.00    -0.544 OA
ATOM     17  OXT LIG d   1       3.103   2.095  -3.738  0.00  0.00    -0.544 OA
ENDBRANCH  13  15
BRANCH  13  18
ATOM     18  N   LIG d   1       3.056  -1.607  -3.767  0.00  0.00     0.225 N 
ATOM     19  H1  LIG d   1       3.535  -2.266  -3.155  0.00  0.00     0.200 HD
ATOM     20  H2  LIG d   1       2.123  -1.958  -3.979  0.00  0.00     0.200 HD
ATOM     21  H3  LIG d   1       3.586  -1.514  -4.640  0.00  0.00     0.200 HD
ENDBRANCH  13  18
ENDBRANCH  10  13
ENDBRANCH   3  10
BRANCH   1  22
ATOM     22  C   LIG d   1       7.653  -3.080  -4.058  0.00  0.00    -0.036 C 
ATOM     23  H   LIG d   1       8.453  -3.000  -4.793  0.00  0.00     0.028 H 
ATOM     24  H   LIG d   1       8.040  -3.540  -3.148  0.00  0.00     0.028 H 
ATOM     25  H   LIG d   1       6.849  -3.696  -4.461  0.00  0.00     0.028 H 
ENDBRANCH   1  22
BRANCH   6  26
ATOM     26  O   LIG d   1       9.040  -0.717  -4.740  0.00  0.00    -0.506 OA
ATOM     27  H   LIG d   1       9.004  -1.280  -5.525  0.00  0.00     0.292 HD
ENDBRANCH   6  26
TORSDOF 6
ENDMDL
MODEL 8
REMARK VINA RESULT:      -4.7      2.584      5.404
REMARK  6 active torsions:
REMARK  status: ('A' for Active; 'I' for Inactive)
REMARK    1  A    between atoms: C_1  and  C_2 
REMARK    2  A    between atoms: C_4  and  C_9 
REMARK    3  A    between atoms: C_7  and  O_8 
REMARK    4  A    between atoms: C_9  and  CA_10 
REMARK    5  A    between atoms: CA_10  and  C_12 
REMARK    6  A    between atoms: CA_10  and  N_26 
ROOT
ATOM      1  C   LIG d   1       7.260  -2.707  -4.248  0.00  0.00    -0.009 A 
ATOM      2  C   LIG d   1       6.575  -1.920  -3.341  0.00  0.00    -0.052 A 
ATOM      3  C   LIG d   1       5.206  -2.056  -3.202  0.00  0.00    -0.041 A 
ATOM      4  C   LIG d   1       4.519  -2.979  -3.970  0.00  0.00    -0.055 A 
ATOM      5  C   LIG d   1       5.199  -3.766  -4.879  0.00  0.00    -0.020 A 
ATOM      6  C   LIG d   1       6.573  -3.636  -5.016  0.00  0.00     0.120 A 
ATOM      7  H   LIG d   1       7.110  -1.199  -2.741  0.00  0.00     0.062 H 
ATOM      8  H   LIG d   1       3.450  -3.082  -3.860  0.00  0.00     0.062 H 
ATOM      9  H   LIG d   1       4.661  -4.486  -5.478  0.00  0.00     0.065 H 
ENDROOT
BRANCH   3  10
ATOM     10  C   LIG d   1       4.463  -1.198  -2.212  0.00  0.00     0.021 C 
ATOM     11  H   LIG d   1       3.429  -1.538  -2.141  0.00  0.00     0.037 H 
ATOM     12  H   LIG d   1       4.938  -1.277  -1.235  0.00  0.00     0.037 H 
BRANCH  10  13
ATOM     13  CA  LIG d   1       4.491   0.259  -2.677  0.00  0.00     0.020 C 
ATOM     14  HA  LIG d   1       5.385   0.431  -3.276  0.00  0.00     0.092 H 
BRANCH  13  15
ATOM     15  C   LIG d   1       3.266   0.546  -3.507  0.00  0.00     0.090 C 
ATOM     16  O   LIG d   1       3.157   1.608  -4.073  0.00  0.00    -0.544 OA
ATOM     17  OXT LIG d   1       2.299  -0.378  -3.619  0.00  0.00    -0.544 OA
ENDBRANCH  13  15
BRANCH  13  18
ATOM     18  N   LIG d   1       4.529   1.138  -1.494  0.00  0.00     0.225 N 
ATOM     19  H1  LIG d   1       5.244   1.854  -1.615  0.00  0.00     0.200 HD
ATOM     20  H2  LIG d   1       3.622   1.583  -1.362  0.00  0.00     0.200 HD
ATOM     21  H3  LIG d   1       4.752   0.577  -0.665  0.00  0.00     0.200 HD
ENDBRANCH  13  18
ENDBRANCH  10  13
ENDBRANCH   3  10
BRANCH   1  22
ATOM     22  C   LIG d   1       8.752  -2.559  -4.400  0.00  0.00    -0.036 C 
ATOM     23  H   LIG d   1       9.021  -2.640  -5.452  0.00  0.00     0.028 H 
ATOM     24  H   LIG d   1       9.061  -1.586  -4.019  0.00  0.00     0.028 H 
ATOM     25  H   LIG d   1       9.254  -3.346  -3.835  0.00  0.00     0.028 H 
ENDBRANCH   1  22
BRANCH   6  26
ATOM     26  O   LIG d   1       7.245  -4.414  -5.905  0.00  0.00    -0.506 OA
ATOM     27  H   LIG d   1       7.787  -5.103  -5.495  0.00  0.00     0.292 HD
ENDBRANCH   6  26
TORSDOF 6
ENDMDL
MODEL 9
REMARK VINA RESULT:      -4.6      3.108      4.061
REMARK  6 active torsions:
REMARK  status: ('A' for Active; 'I' for Inactive)
REMARK    1  A    between atoms: C_1  and  C_2 
REMARK    2  A    between atoms: C_4  and  C_9 
REMARK    3  A    between atoms: C_7  and  O_8 
REMARK    4  A    between atoms: C_9  and  CA_10 
REMARK    5  A    between atoms: CA_10  and  C_12 
REMARK    6  A    between atoms: CA_10  and  N_26 
ROOT
ATOM      1  C   LIG d   1       4.942  -1.129  -3.794  0.00  0.00    -0.009 A 
ATOM      2  C   LIG d   1       4.526  -0.609  -5.005  0.00  0.00    -0.052 A 
ATOM      3  C   LIG d   1       3.244  -0.107  -5.139  0.00  0.00    -0.041 A 
ATOM      4  C   LIG d   1       2.376  -0.124  -4.063  0.00  0.00    -0.055 A 
ATOM      5  C   LIG d   1       2.788  -0.644  -2.851  0.00  0.00    -0.020 A 
ATOM      6  C   LIG d   1       4.075  -1.142  -2.712  0.00  0.00     0.120 A 
ATOM      7  H   LIG d   1       5.202  -0.594  -5.847  0.00  0.00     0.062 H 
ATOM      8  H   LIG d   1       1.376   0.267  -4.170  0.00  0.00     0.062 H 
ATOM      9  H   LIG d   1       2.109  -0.657  -2.011  0.00  0.00     0.065 H 
ENDROOT
BRANCH   3  10
ATOM     10  C   LIG d   1       2.793   0.460  -6.460  0.00  0.00     0.021 C 
ATOM     11  H   LIG d   1       1.769   0.145  -6.661  0.00  0.00     0.037 H 
ATOM     12  H   LIG d   1       2.836   1.549  -6.422  0.00  0.00     0.037 H 
BRANCH  10  13
ATOM     13  CA  LIG d   1       3.712  -0.046  -7.574  0.00  0.00     0.020 C 
ATOM     14  HA  LIG d   1       4.502  -0.660  -7.141  0.00  0.00     0.092 H 
BRANCH  13  15
ATOM     15  C   LIG d   1       2.912  -0.871  -8.549  0.00  0.00     0.090 C 
ATOM     16  O   LIG d   1       3.142  -2.051  -8.671  0.00  0.00    -0.544 OA
ATOM     17  OXT LIG d   1       1.946  -0.296  -9.281  0.00  0.00    -0.544 OA
ENDBRANCH  13  15
BRANCH  13  18
ATOM     18  N   LIG d   1       4.322   1.110  -8.254  0.00  0.00     0.225 N 
ATOM     19  H1  LIG d   1       3.751   1.941  -8.108  0.00  0.00     0.200 HD
ATOM     20  H2  LIG d   1       5.259   1.274  -7.890  0.00  0.00     0.200 HD
ATOM     21  H3  LIG d   1       4.382   0.916  -9.260  0.00  0.00     0.200 HD
ENDBRANCH  13  18
ENDBRANCH  10  13
ENDBRANCH   3  10
BRANCH   1  22
ATOM     22  C   LIG d   1       6.339  -1.675  -3.648  0.00  0.00    -0.036 C 
ATOM     23  H   LIG d   1       6.527  -1.918  -2.603  0.00  0.00     0.028 H 
ATOM     24  H   LIG d   1       6.442  -2.575  -4.255  0.00  0.00     0.028 H 
ATOM     25  H   LIG d   1       7.058  -0.927  -3.983  0.00  0.00     0.028 H 
ENDBRANCH   1  22
BRANCH   6  26
ATOM     26  O   LIG d   1       4.483  -1.649  -1.519  0.00  0.00    -0.506 OA
ATOM     27  H   LIG d   1       3.837  -1.548  -0.806  0.00  0.00     0.292 HD
ENDBRANCH   6  26
TORSDOF 6
ENDMDL
MODEL 10
REMARK VINA RESULT:      -4.4      3.429      5.981
REMARK  6 active torsions:
REMARK  status: ('A' for Active; 'I' for Inactive)
REMARK    1  A    between atoms: C_1  and  C_2 
REMARK    2  A    between atoms: C_4  and  C_9 
REMARK    3  A    between atoms: C_7  and  O_8 
REMARK    4  A    between atoms: C_9  and  CA_10 
REMARK    5  A    between atoms: CA_10  and  C_12 
REMARK    6  A    between atoms: CA_10  and  N_26 
ROOT
ATOM      1  C   LIG d   1       4.256  -0.092  -8.943  0.00  0.00    -0.009 A 
ATOM      2  C   LIG d   1       3.753  -0.366  -7.685  0.00  0.00    -0.052 A 
ATOM      3  C   LIG d   1       3.022   0.592  -7.007  0.00  0.00    -0.041 A 
ATOM      4  C   LIG d   1       2.793   1.827  -7.586  0.00  0.00    -0.055 A 
ATOM      5  C   LIG d   1       3.294   2.106  -8.843  0.00  0.00    -0.020 A 
ATOM      6  C   LIG d   1       4.023   1.144  -9.527  0.00  0.00     0.120 A 
ATOM      7  H   LIG d   1       3.931  -1.330  -7.231  0.00  0.00     0.062 H 
ATOM      8  H   LIG d   1       2.222   2.574  -7.055  0.00  0.00     0.062 H 
ATOM      9  H   LIG d   1       3.114   3.071  -9.294  0.00  0.00     0.065 H 
ENDROOT
BRANCH   3  10
ATOM     10  C   LIG d   1       2.474   0.290  -5.637  0.00  0.00     0.021 C 
ATOM     11  H   LIG d   1       1.963   1.170  -5.247  0.00  0.00     0.037 H 
ATOM     12  H   LIG d   1       1.770  -0.539  -5.702  0.00  0.00     0.037 H 
BRANCH  10  13
ATOM     13  CA  LIG d   1       3.623  -0.090  -4.700  0.00  0.00     0.020 C 
ATOM     14  HA  LIG d   1       4.574   0.120  -5.189  0.00  0.00     0.092 H 
BRANCH  13  15
ATOM     15  C   LIG d   1       3.522   0.714  -3.430  0.00  0.00     0.090 C 
ATOM     16  O   LIG d   1       3.168   0.181  -2.405  0.00  0.00    -0.544 OA
ATOM     17  OXT LIG d   1       3.825   2.021  -3.437  0.00  0.00    -0.544 OA
ENDBRANCH  13  15
BRANCH  13  18
ATOM     18  N   LIG d   1       3.543  -1.532  -4.406  0.00  0.00     0.225 N 
ATOM     19  H1  LIG d   1       4.294  -1.801  -3.772  0.00  0.00     0.200 HD
ATOM     20  H2  LIG d   1       2.644  -1.751  -3.979  0.00  0.00     0.200 HD
ATOM     21  H3  LIG d   1       3.636  -2.060  -5.280  0.00  0.00     0.200 HD
ENDBRANCH  13  18
ENDBRANCH  10  13
ENDBRANCH   3  10
BRANCH   1  22
ATOM     22  C   LIG d   1       5.052  -1.137  -9.681  0.00  0.00    -0.036 C 
ATOM     23  H   LIG d   1       6.008  -1.287  -9.180  0.00  0.00     0.028 H 
ATOM     24  H   LIG d   1       4.497  -2.075  -9.694  0.00  0.00     0.028 H 
ATOM     25  H   LIG d   1       5.227  -0.804 -10.704  0.00  0.00     0.028 H 
ENDBRANCH   1  22
BRANCH   6  26
ATOM     26  O   LIG d   1       4.512   1.414 -10.766  0.00  0.00    -0.506 OA
ATOM     27  H   LIG d   1       4.364   2.324 -11.058  0.00  0.00     0.292 HD
ENDBRANCH   6  26
TORSDOF 6
ENDMDL
