MODEL 1
REMARK VINA RESULT:      -4.9      0.000      0.000
REMARK  6 active torsions:
REMARK  status: ('A' for Active; 'I' for Inactive)
REMARK    1  A    between atoms: C_1  and  N_2 
REMARK    2  A    between atoms: C_3  and  N_4 
REMARK    3  A    between atoms: N_4  and  C_5 
REMARK    4  A    between atoms: C_5  and  C_6 
REMARK    5  A    between atoms: C_6  and  C_7 
REMARK    6  A    between atoms: C_7  and  C_8 
ROOT
ATOM      1  C   LIG d   1       2.965  -0.339  -3.272  0.00  0.00    -0.032 C 
ATOM      2  H   LIG d   1       1.998  -0.537  -2.785  0.00  0.00     0.028 H 
ATOM      3  H   LIG d   1       3.456  -1.293  -3.513  0.00  0.00     0.028 H 
ENDROOT
BRANCH   1   4
ATOM      4  C   LIG d   1       2.733   0.454  -4.560  0.00  0.00     0.012 C 
ATOM      5  H   LIG d   1       3.335   1.375  -4.537  0.00  0.00     0.046 H 
ATOM      6  H   LIG d   1       1.668   0.714  -4.644  0.00  0.00     0.046 H 
BRANCH   4   7
ATOM      7  N   LIG d   1       3.129  -0.359  -5.713  0.00  0.00    -0.317 N 
ATOM      8  H   LIG d   1       3.484  -1.389  -5.563  0.00  0.00     0.149 HD
BRANCH   7   9
ATOM      9  C   LIG d   1       3.059   0.166  -6.982  0.00  0.00     0.099 C 
ATOM     10  N   LIG d   1       2.988   1.458  -7.150  0.00  0.00    -0.257 N 
ATOM     11  H   LIG d   1       2.985   2.127  -6.277  0.00  0.00     0.444 HD
ATOM     12  S   LIG d   1       3.064  -0.906  -8.381  0.00  0.00    -0.671 SA
BRANCH  10  13
ATOM     13  C   LIG d   1       2.913   2.017  -8.503  0.00  0.00     0.133 C 
ATOM     14  H   LIG d   1       2.191   1.440  -9.098  0.00  0.00     0.099 H 
ATOM     15  H   LIG d   1       3.904   1.964  -8.976  0.00  0.00     0.099 H 
ATOM     16  H   LIG d   1       2.588   3.067  -8.448  0.00  0.00     0.099 H 
ENDBRANCH  10  13
ENDBRANCH   7   9
ENDBRANCH   4   7
ENDBRANCH   1   4
BRANCH   1  17
ATOM     17  C   LIG d   1       3.857   0.469  -2.329  0.00  0.00    -0.007 C 
ATOM     18  H   LIG d   1       3.494   1.507  -2.279  0.00  0.00     0.033 H 
ATOM     19  H   LIG d   1       3.828   0.022  -1.324  0.00  0.00     0.033 H 
BRANCH  17  20
ATOM     20  C   LIG d   1       5.273   0.457  -2.844  0.00  0.00     0.059 A 
ATOM     21  N   LIG d   1       5.995   1.532  -3.193  0.00  0.00    -0.241 NA
ATOM     22  C   LIG d   1       7.177   1.148  -3.590  0.00  0.00     0.094 A 
ATOM     23  N   LIG d   1       7.241  -0.199  -3.515  0.00  0.00    -0.351 N 
ATOM     24  H   LIG d   1       7.851   1.825  -3.883  0.00  0.00     0.103 H 
ATOM     25  C   LIG d   1       6.034  -0.637  -3.042  0.00  0.00     0.024 A 
ATOM     26  H   LIG d   1       8.035  -0.923  -3.752  0.00  0.00     0.166 HD
ATOM     27  H   LIG d   1       5.666  -1.544  -2.841  0.00  0.00     0.083 H 
ENDBRANCH  17  20
ENDBRANCH   1  17
TORSDOF 6
ENDMDL
MODEL 2
REMARK VINA RESULT:      -4.8      1.843      2.462
REMARK  6 active torsions:
REMARK  status: ('A' for Active; 'I' for Inactive)
REMARK    1  A    between atoms: C_1  and  N_2 
REMARK    2  A    between atoms: C_3  and  N_4 
REMARK    3  A    between atoms: N_4  and  C_5 
REMARK    4  A    between atoms: C_5  and  C_6 
REMARK    5  A    between atoms: C_6  and  C_7 
REMARK    6  A    between atoms: C_7  and  C_8 
ROOT
ATOM      1  C   LIG d   1       3.187   0.169  -2.694  0.00  0.00    -0.032 C 
ATOM      2  H   LIG d   1       2.255   0.279  -2.121  0.00  0.00     0.028 H 
ATOM      3  H   LIG d   1       3.462  -0.895  -2.749  0.00  0.00     0.028 H 
ENDROOT
BRANCH   1   4
ATOM      4  C   LIG d   1       2.983   0.716  -4.108  0.00  0.00     0.012 C 
ATOM      5  H   LIG d   1       3.869   1.295  -4.410  0.00  0.00     0.046 H 
ATOM      6  H   LIG d   1       2.097   1.367  -4.126  0.00  0.00     0.046 H 
BRANCH   4   7
ATOM      7  N   LIG d   1       2.788  -0.398  -5.040  0.00  0.00    -0.317 N 
ATOM      8  H   LIG d   1       1.789  -0.602  -5.452  0.00  0.00     0.149 HD
BRANCH   7   9
ATOM      9  C   LIG d   1       3.855  -1.190  -5.399  0.00  0.00     0.099 C 
ATOM     10  N   LIG d   1       3.958  -2.400  -4.923  0.00  0.00    -0.257 N 
ATOM     11  H   LIG d   1       3.192  -2.787  -4.234  0.00  0.00     0.444 HD
ATOM     12  S   LIG d   1       5.081  -0.569  -6.502  0.00  0.00    -0.671 SA
BRANCH  10  13
ATOM     13  C   LIG d   1       5.094  -3.243  -5.305  0.00  0.00     0.133 C 
ATOM     14  H   LIG d   1       5.789  -3.327  -4.457  0.00  0.00     0.099 H 
ATOM     15  H   LIG d   1       5.613  -2.791  -6.163  0.00  0.00     0.099 H 
ATOM     16  H   LIG d   1       4.730  -4.245  -5.582  0.00  0.00     0.099 H 
ENDBRANCH  10  13
ENDBRANCH   7   9
ENDBRANCH   4   7
ENDBRANCH   1   4
BRANCH   1  17
ATOM     17  C   LIG d   1       4.307   0.949  -2.003  0.00  0.00    -0.007 C 
ATOM     18  H   LIG d   1       4.082   2.026  -2.039  0.00  0.00     0.033 H 
ATOM     19  H   LIG d   1       4.386   0.625  -0.955  0.00  0.00     0.033 H 
BRANCH  17  20
ATOM     20  C   LIG d   1       5.612   0.686  -2.709  0.00  0.00     0.059 A 
ATOM     21  N   LIG d   1       6.373   1.601  -3.327  0.00  0.00    -0.241 NA
ATOM     22  C   LIG d   1       7.430   1.019  -3.824  0.00  0.00     0.094 A 
ATOM     23  N   LIG d   1       7.368  -0.301  -3.544  0.00  0.00    -0.351 N 
ATOM     24  H   LIG d   1       8.113   1.558  -4.317  0.00  0.00     0.103 H 
ATOM     25  C   LIG d   1       6.216  -0.511  -2.836  0.00  0.00     0.024 A 
ATOM     26  H   LIG d   1       8.035  -1.145  -3.773  0.00  0.00     0.166 HD
ATOM     27  H   LIG d   1       5.795  -1.328  -2.441  0.00  0.00     0.083 H 
ENDBRANCH  17  20
ENDBRANCH   1  17
TORSDOF 6
ENDMDL
MODEL 3
REMARK VINA RESULT:      -4.4      9.945     10.800
REMARK  6 active torsions:
REMARK  status: ('A' for Active; 'I' for Inactive)
REMARK    1  A    between atoms: C_1  and  N_2 
REMARK    2  A    between atoms: C_3  and  N_4 
REMARK    3  A    between atoms: N_4  and  C_5 
REMARK    4  A    between atoms: C_5  and  C_6 
REMARK    5  A    between atoms: C_6  and  C_7 
REMARK    6  A    between atoms: C_7  and  C_8 
ROOT
ATOM      1  C   LIG d   1       8.827   8.649  -0.820  0.00  0.00    -0.032 C 
ATOM      2  H   LIG d   1       9.078   8.437   0.230  0.00  0.00     0.028 H 
ATOM      3  H   LIG d   1       7.737   8.588  -0.957  0.00  0.00     0.028 H 
ENDROOT
BRANCH   1   4
ATOM      4  C   LIG d   1       9.308  10.055  -1.184  0.00  0.00     0.012 C 
ATOM      5  H   LIG d   1      10.263   9.987  -1.726  0.00  0.00     0.046 H 
ATOM      6  H   LIG d   1       9.447  10.644  -0.267  0.00  0.00     0.046 H 
BRANCH   4   7
ATOM      7  N   LIG d   1       8.310  10.707  -2.036  0.00  0.00    -0.317 N 
ATOM      8  H   LIG d   1       7.243  10.653  -1.774  0.00  0.00     0.149 HD
BRANCH   7   9
ATOM      9  C   LIG d   1       8.706  11.386  -3.165  0.00  0.00     0.099 C 
ATOM     10  N   LIG d   1       9.010  10.727  -4.249  0.00  0.00    -0.257 N 
ATOM     11  H   LIG d   1       8.948   9.629  -4.261  0.00  0.00     0.444 HD
ATOM     12  S   LIG d   1       8.804  13.145  -3.147  0.00  0.00    -0.671 SA
BRANCH  10  13
ATOM     13  C   LIG d   1       9.432  11.450  -5.452  0.00  0.00     0.133 C 
ATOM     14  H   LIG d   1       9.100  12.497  -5.384  0.00  0.00     0.099 H 
ATOM     15  H   LIG d   1       8.983  10.980  -6.339  0.00  0.00     0.099 H 
ATOM     16  H   LIG d   1      10.529  11.417  -5.533  0.00  0.00     0.099 H 
ENDBRANCH  10  13
ENDBRANCH   7   9
ENDBRANCH   4   7
ENDBRANCH   1   4
BRANCH   1  17
ATOM     17  C   LIG d   1       9.512   7.625  -1.726  0.00  0.00    -0.007 C 
ATOM     18  H   LIG d   1       8.754   7.100  -2.326  0.00  0.00     0.033 H 
ATOM     19  H   LIG d   1      10.217   8.142  -2.395  0.00  0.00     0.033 H 
BRANCH  17  20
ATOM     20  C   LIG d   1      10.262   6.628  -0.880  0.00  0.00     0.059 A 
ATOM     21  N   LIG d   1      10.543   6.756   0.425  0.00  0.00    -0.241 NA
ATOM     22  C   LIG d   1      11.201   5.703   0.829  0.00  0.00     0.094 A 
ATOM     23  N   LIG d   1      11.369   4.870  -0.220  0.00  0.00    -0.351 N 
ATOM     24  H   LIG d   1      11.488   5.629   1.784  0.00  0.00     0.103 H 
ATOM     25  C   LIG d   1      10.773   5.456  -1.303  0.00  0.00     0.024 A 
ATOM     26  H   LIG d   1      11.861   3.891  -0.326  0.00  0.00     0.166 HD
ATOM     27  H   LIG d   1      10.669   5.182  -2.259  0.00  0.00     0.083 H 
ENDBRANCH  17  20
ENDBRANCH   1  17
TORSDOF 6
ENDMDL
MODEL 4
REMARK VINA RESULT:      -4.4      2.127      3.684
REMARK  6 active torsions:
REMARK  status: ('A' for Active; 'I' for Inactive)
REMARK    1  A    between atoms: C_1  and  N_2 
REMARK    2  A    between atoms: C_3  and  N_4 
REMARK    3  A    between atoms: N_4  and  C_5 
REMARK    4  A    between atoms: C_5  and  C_6 
REMARK    5  A    between atoms: C_6  and  C_7 
REMARK    6  A    between atoms: C_7  and  C_8 
ROOT
ATOM      1  C   LIG d   1       2.666   0.674  -5.542  0.00  0.00    -0.032 C 
ATOM      2  H   LIG d   1       3.382   1.359  -5.065  0.00  0.00     0.028 H 
ATOM      3  H   LIG d   1       1.927   1.255  -6.113  0.00  0.00     0.028 H 
ENDROOT
BRANCH   1   4
ATOM      4  C   LIG d   1       3.413  -0.269  -6.486  0.00  0.00     0.012 C 
ATOM      5  H   LIG d   1       2.960  -0.221  -7.488  0.00  0.00     0.046 H 
ATOM      6  H   LIG d   1       3.348  -1.298  -6.104  0.00  0.00     0.046 H 
BRANCH   4   7
ATOM      7  N   LIG d   1       4.819   0.133  -6.567  0.00  0.00    -0.317 N 
ATOM      8  H   LIG d   1       5.147   0.831  -7.352  0.00  0.00     0.149 HD
BRANCH   7   9
ATOM      9  C   LIG d   1       5.730  -0.362  -5.662  0.00  0.00     0.099 C 
ATOM     10  N   LIG d   1       6.301   0.440  -4.807  0.00  0.00    -0.257 N 
ATOM     11  H   LIG d   1       6.055   1.513  -4.809  0.00  0.00     0.444 HD
ATOM     12  S   LIG d   1       6.124  -2.079  -5.659  0.00  0.00    -0.671 SA
BRANCH  10  13
ATOM     13  C   LIG d   1       7.271  -0.087  -3.843  0.00  0.00     0.133 C 
ATOM     14  H   LIG d   1       6.760  -0.769  -3.147  0.00  0.00     0.099 H 
ATOM     15  H   LIG d   1       7.718   0.745  -3.280  0.00  0.00     0.099 H 
ATOM     16  H   LIG d   1       8.061  -0.635  -4.380  0.00  0.00     0.099 H 
ENDBRANCH  10  13
ENDBRANCH   7   9
ENDBRANCH   4   7
ENDBRANCH   1   4
BRANCH   1  17
ATOM     17  C   LIG d   1       1.948  -0.145  -4.467  0.00  0.00    -0.007 C 
ATOM     18  H   LIG d   1       1.146   0.461  -4.018  0.00  0.00     0.033 H 
ATOM     19  H   LIG d   1       1.515  -1.047  -4.922  0.00  0.00     0.033 H 
BRANCH  17  20
ATOM     20  C   LIG d   1       2.933  -0.545  -3.399  0.00  0.00     0.059 A 
ATOM     21  N   LIG d   1       3.365  -1.790  -3.151  0.00  0.00    -0.241 NA
ATOM     22  C   LIG d   1       4.213  -1.763  -2.159  0.00  0.00     0.094 A 
ATOM     23  N   LIG d   1       4.342  -0.487  -1.736  0.00  0.00    -0.351 N 
ATOM     24  H   LIG d   1       4.640  -2.609  -1.843  0.00  0.00     0.103 H 
ATOM     25  C   LIG d   1       3.531   0.285  -2.522  0.00  0.00     0.024 A 
ATOM     26  H   LIG d   1       4.938  -0.022  -0.937  0.00  0.00     0.166 HD
ATOM     27  H   LIG d   1       3.331   1.265  -2.546  0.00  0.00     0.083 H 
ENDBRANCH  17  20
ENDBRANCH   1  17
TORSDOF 6
ENDMDL
MODEL 5
REMARK VINA RESULT:      -4.3      3.010      6.461
REMARK  6 active torsions:
REMARK  status: ('A' for Active; 'I' for Inactive)
REMARK    1  A    between atoms: C_1  and  N_2 
REMARK    2  A    between atoms: C_3  and  N_4 
REMARK    3  A    between atoms: N_4  and  C_5 
REMARK    4  A    between atoms: C_5  and  C_6 
REMARK    5  A    between atoms: C_6  and  C_7 
REMARK    6  A    between atoms: C_7  and  C_8 
ROOT
ATOM      1  C   LIG d   1       2.524  -0.086  -7.749  0.00  0.00    -0.032 C 
ATOM      2  H   LIG d   1       2.831  -1.003  -8.273  0.00  0.00     0.028 H 
ATOM      3  H   LIG d   1       1.460  -0.156  -7.478  0.00  0.00     0.028 H 
ENDROOT
BRANCH   1   4
ATOM      4  C   LIG d   1       3.363   0.083  -6.481  0.00  0.00     0.012 C 
ATOM      5  H   LIG d   1       3.806   1.090  -6.465  0.00  0.00     0.046 H 
ATOM      6  H   LIG d   1       4.164  -0.671  -6.468  0.00  0.00     0.046 H 
BRANCH   4   7
ATOM      7  N   LIG d   1       2.509  -0.093  -5.303  0.00  0.00    -0.317 N 
ATOM      8  H   LIG d   1       1.421   0.051  -5.387  0.00  0.00     0.149 HD
BRANCH   7   9
ATOM      9  C   LIG d   1       3.066  -0.438  -4.094  0.00  0.00     0.099 C 
ATOM     10  N   LIG d   1       3.229  -1.694  -3.785  0.00  0.00    -0.257 N 
ATOM     11  H   LIG d   1       2.920  -2.479  -4.491  0.00  0.00     0.444 HD
ATOM     12  S   LIG d   1       3.562   0.819  -2.963  0.00  0.00    -0.671 SA
BRANCH  10  13
ATOM     13  C   LIG d   1       3.823  -2.061  -2.497  0.00  0.00     0.133 C 
ATOM     14  H   LIG d   1       4.282  -1.172  -2.039  0.00  0.00     0.099 H 
ATOM     15  H   LIG d   1       4.592  -2.831  -2.654  0.00  0.00     0.099 H 
ATOM     16  H   LIG d   1       3.041  -2.454  -1.830  0.00  0.00     0.099 H 
ENDBRANCH  10  13
ENDBRANCH   7   9
ENDBRANCH   4   7
ENDBRANCH   1   4
BRANCH   1  17
ATOM     17  C   LIG d   1       2.737   1.121  -8.665  0.00  0.00    -0.007 C 
ATOM     18  H   LIG d   1       1.794   1.679  -8.764  0.00  0.00     0.033 H 
ATOM     19  H   LIG d   1       3.508   1.777  -8.233  0.00  0.00     0.033 H 
BRANCH  17  20
ATOM     20  C   LIG d   1       3.185   0.648 -10.024  0.00  0.00     0.059 A 
ATOM     21  N   LIG d   1       2.713  -0.422 -10.681  0.00  0.00    -0.241 NA
ATOM     22  C   LIG d   1       3.328  -0.529 -11.827  0.00  0.00     0.094 A 
ATOM     23  N   LIG d   1       4.226   0.474 -11.932  0.00  0.00    -0.351 N 
ATOM     24  H   LIG d   1       3.094  -1.273 -12.453  0.00  0.00     0.103 H 
ATOM     25  C   LIG d   1       4.135   1.220 -10.788  0.00  0.00     0.024 A 
ATOM     26  H   LIG d   1       4.945   0.754 -12.716  0.00  0.00     0.166 HD
ATOM     27  H   LIG d   1       4.612   2.037 -10.464  0.00  0.00     0.083 H 
ENDBRANCH  17  20
ENDBRANCH   1  17
TORSDOF 6
ENDMDL
MODEL 6
REMARK VINA RESULT:      -4.2      2.412      3.178
REMARK  6 active torsions:
REMARK  status: ('A' for Active; 'I' for Inactive)
REMARK    1  A    between atoms: C_1  and  N_2 
REMARK    2  A    between atoms: C_3  and  N_4 
REMARK    3  A    between atoms: N_4  and  C_5 
REMARK    4  A    between atoms: C_5  and  C_6 
REMARK    5  A    between atoms: C_6  and  C_7 
REMARK    6  A    between atoms: C_7  and  C_8 
ROOT
ATOM      1  C   LIG d   1       3.518  -0.090  -5.972  0.00  0.00    -0.032 C 
ATOM      2  H   LIG d   1       3.491  -1.188  -6.025  0.00  0.00     0.028 H 
ATOM      3  H   LIG d   1       4.548   0.244  -5.778  0.00  0.00     0.028 H 
ENDROOT
BRANCH   1   4
ATOM      4  C   LIG d   1       3.034   0.497  -7.299  0.00  0.00     0.012 C 
ATOM      5  H   LIG d   1       3.902   0.769  -7.919  0.00  0.00     0.046 H 
ATOM      6  H   LIG d   1       2.427   1.393  -7.105  0.00  0.00     0.046 H 
BRANCH   4   7
ATOM      7  N   LIG d   1       2.222  -0.497  -8.006  0.00  0.00    -0.317 N 
ATOM      8  H   LIG d   1       1.664  -1.256  -7.437  0.00  0.00     0.149 HD
BRANCH   7   9
ATOM      9  C   LIG d   1       2.160  -0.484  -9.380  0.00  0.00     0.099 C 
ATOM     10  N   LIG d   1       1.199  -1.117  -9.995  0.00  0.00    -0.257 N 
ATOM     11  H   LIG d   1       0.440  -1.662  -9.415  0.00  0.00     0.444 HD
ATOM     12  S   LIG d   1       3.376   0.390 -10.309  0.00  0.00    -0.671 SA
BRANCH  10  13
ATOM     13  C   LIG d   1       1.133  -1.102 -11.459  0.00  0.00     0.133 C 
ATOM     14  H   LIG d   1       0.125  -1.404 -11.782  0.00  0.00     0.099 H 
ATOM     15  H   LIG d   1       1.875  -1.804 -11.867  0.00  0.00     0.099 H 
ATOM     16  H   LIG d   1       1.347  -0.086 -11.826  0.00  0.00     0.099 H 
ENDBRANCH  10  13
ENDBRANCH   7   9
ENDBRANCH   4   7
ENDBRANCH   1   4
BRANCH   1  17
ATOM     17  C   LIG d   1       2.606   0.390  -4.841  0.00  0.00    -0.007 C 
ATOM     18  H   LIG d   1       2.280   1.421  -5.043  0.00  0.00     0.033 H 
ATOM     19  H   LIG d   1       1.727  -0.268  -4.775  0.00  0.00     0.033 H 
BRANCH  17  20
ATOM     20  C   LIG d   1       3.361   0.350  -3.537  0.00  0.00     0.059 A 
ATOM     21  N   LIG d   1       3.783  -0.755  -2.904  0.00  0.00    -0.241 NA
ATOM     22  C   LIG d   1       4.402  -0.413  -1.807  0.00  0.00     0.094 A 
ATOM     23  N   LIG d   1       4.384   0.933  -1.702  0.00  0.00    -0.351 N 
ATOM     24  H   LIG d   1       4.789  -1.117  -1.211  0.00  0.00     0.103 H 
ATOM     25  C   LIG d   1       3.724   1.416  -2.799  0.00  0.00     0.024 A 
ATOM     26  H   LIG d   1       4.779   1.628  -0.946  0.00  0.00     0.166 HD
ATOM     27  H   LIG d   1       3.493   2.339  -3.107  0.00  0.00     0.083 H 
ENDBRANCH  17  20
ENDBRANCH   1  17
TORSDOF 6
ENDMDL
MODEL 7
REMARK VINA RESULT:      -4.1      2.462      4.780
REMARK  6 active torsions:
REMARK  status: ('A' for Active; 'I' for Inactive)
REMARK    1  A    between atoms: C_1  and  N_2 
REMARK    2  A    between atoms: C_3  and  N_4 
REMARK    3  A    between atoms: N_4  and  C_5 
REMARK    4  A    between atoms: C_5  and  C_6 
REMARK    5  A    between atoms: C_6  and  C_7 
REMARK    6  A    between atoms: C_7  and  C_8 
ROOT
ATOM      1  C   LIG d   1       4.724   0.409  -1.943  0.00  0.00    -0.032 C 
ATOM      2  H   LIG d   1       4.869  -0.681  -1.986  0.00  0.00     0.028 H 
ATOM      3  H   LIG d   1       4.800   0.749  -0.900  0.00  0.00     0.028 H 
ENDROOT
BRANCH   1   4
ATOM      4  C   LIG d   1       5.799   1.100  -2.784  0.00  0.00     0.012 C 
ATOM      5  H   LIG d   1       6.278   1.892  -2.189  0.00  0.00     0.046 H 
ATOM      6  H   LIG d   1       5.337   1.542  -3.679  0.00  0.00     0.046 H 
BRANCH   4   7
ATOM      7  N   LIG d   1       6.808   0.118  -3.190  0.00  0.00    -0.317 N 
ATOM      8  H   LIG d   1       6.734  -0.923  -2.841  0.00  0.00     0.149 HD
BRANCH   7   9
ATOM      9  C   LIG d   1       7.848   0.497  -4.006  0.00  0.00     0.099 C 
ATOM     10  N   LIG d   1       8.553  -0.408  -4.628  0.00  0.00    -0.257 N 
ATOM     11  H   LIG d   1       8.315  -1.474  -4.499  0.00  0.00     0.444 HD
ATOM     12  S   LIG d   1       8.229   2.206  -4.212  0.00  0.00    -0.671 SA
BRANCH  10  13
ATOM     13  C   LIG d   1       9.661  -0.003  -5.497  0.00  0.00     0.133 C 
ATOM     14  H   LIG d   1      10.616  -0.201  -4.989  0.00  0.00     0.099 H 
ATOM     15  H   LIG d   1       9.579   1.070  -5.720  0.00  0.00     0.099 H 
ATOM     16  H   LIG d   1       9.619  -0.578  -6.436  0.00  0.00     0.099 H 
ENDBRANCH  10  13
ENDBRANCH   7   9
ENDBRANCH   4   7
ENDBRANCH   1   4
BRANCH   1  17
ATOM     17  C   LIG d   1       3.341   0.763  -2.494  0.00  0.00    -0.007 C 
ATOM     18  H   LIG d   1       2.567   0.258  -1.896  0.00  0.00     0.033 H 
ATOM     19  H   LIG d   1       3.194   1.852  -2.442  0.00  0.00     0.033 H 
BRANCH  17  20
ATOM     20  C   LIG d   1       3.241   0.310  -3.928  0.00  0.00     0.059 A 
ATOM     21  N   LIG d   1       2.790   1.044  -4.957  0.00  0.00    -0.241 NA
ATOM     22  C   LIG d   1       2.848   0.334  -6.050  0.00  0.00     0.094 A 
ATOM     23  N   LIG d   1       3.334  -0.889  -5.747  0.00  0.00    -0.351 N 
ATOM     24  H   LIG d   1       2.554   0.730  -6.920  0.00  0.00     0.103 H 
ATOM     25  C   LIG d   1       3.584  -0.903  -4.401  0.00  0.00     0.024 A 
ATOM     26  H   LIG d   1       3.539  -1.783  -6.354  0.00  0.00     0.166 HD
ATOM     27  H   LIG d   1       3.942  -1.599  -3.779  0.00  0.00     0.083 H 
ENDBRANCH  17  20
ENDBRANCH   1  17
TORSDOF 6
ENDMDL
MODEL 8
REMARK VINA RESULT:      -4.1      3.730      6.245
REMARK  6 active torsions:
REMARK  status: ('A' for Active; 'I' for Inactive)
REMARK    1  A    between atoms: C_1  and  N_2 
REMARK    2  A    between atoms: C_3  and  N_4 
REMARK    3  A    between atoms: N_4  and  C_5 
REMARK    4  A    between atoms: C_5  and  C_6 
REMARK    5  A    between atoms: C_6  and  C_7 
REMARK    6  A    between atoms: C_7  and  C_8 
ROOT
ATOM      1  C   LIG d   1       6.979   0.569  -3.622  0.00  0.00    -0.032 C 
ATOM      2  H   LIG d   1       6.772   0.016  -4.551  0.00  0.00     0.028 H 
ATOM      3  H   LIG d   1       7.598  -0.051  -2.956  0.00  0.00     0.028 H 
ENDROOT
BRANCH   1   4
ATOM      4  C   LIG d   1       7.724   1.863  -3.954  0.00  0.00     0.012 C 
ATOM      5  H   LIG d   1       7.264   2.702  -3.411  0.00  0.00     0.046 H 
ATOM      6  H   LIG d   1       7.668   2.051  -5.036  0.00  0.00     0.046 H 
BRANCH   4   7
ATOM      7  N   LIG d   1       9.128   1.734  -3.554  0.00  0.00    -0.317 N 
ATOM      8  H   LIG d   1       9.560   0.738  -3.374  0.00  0.00     0.149 HD
BRANCH   7   9
ATOM      9  C   LIG d   1       9.906   2.859  -3.403  0.00  0.00     0.099 C 
ATOM     10  N   LIG d   1      10.571   3.047  -2.297  0.00  0.00    -0.257 N 
ATOM     11  H   LIG d   1      10.510   2.308  -1.485  0.00  0.00     0.444 HD
ATOM     12  S   LIG d   1      10.005   4.043  -4.704  0.00  0.00    -0.671 SA
BRANCH  10  13
ATOM     13  C   LIG d   1      11.401   4.245  -2.137  0.00  0.00     0.133 C 
ATOM     14  H   LIG d   1      12.299   4.154  -2.765  0.00  0.00     0.099 H 
ATOM     15  H   LIG d   1      11.698   4.346  -1.083  0.00  0.00     0.099 H 
ATOM     16  H   LIG d   1      10.827   5.132  -2.443  0.00  0.00     0.099 H 
ENDBRANCH  10  13
ENDBRANCH   7   9
ENDBRANCH   4   7
ENDBRANCH   1   4
BRANCH   1  17
ATOM     17  C   LIG d   1       5.660   0.906  -2.923  0.00  0.00    -0.007 C 
ATOM     18  H   LIG d   1       5.856   1.160  -1.871  0.00  0.00     0.033 H 
ATOM     19  H   LIG d   1       5.188   1.762  -3.427  0.00  0.00     0.033 H 
BRANCH  17  20
ATOM     20  C   LIG d   1       4.739  -0.286  -2.988  0.00  0.00     0.059 A 
ATOM     21  N   LIG d   1       4.667  -1.277  -2.088  0.00  0.00    -0.241 NA
ATOM     22  C   LIG d   1       3.760  -2.136  -2.464  0.00  0.00     0.094 A 
ATOM     23  N   LIG d   1       3.227  -1.718  -3.632  0.00  0.00    -0.351 N 
ATOM     24  H   LIG d   1       3.570  -2.941  -1.902  0.00  0.00     0.103 H 
ATOM     25  C   LIG d   1       3.848  -0.545  -3.964  0.00  0.00     0.024 A 
ATOM     26  H   LIG d   1       2.450  -2.135  -4.290  0.00  0.00     0.166 HD
ATOM     27  H   LIG d   1       3.756   0.084  -4.736  0.00  0.00     0.083 H 
ENDBRANCH  17  20
ENDBRANCH   1  17
TORSDOF 6
ENDMDL
MODEL 9
REMARK VINA RESULT:      -3.9      2.430      5.601
REMARK  6 active torsions:
REMARK  status: ('A' for Active; 'I' for Inactive)
REMARK    1  A    between atoms: C_1  and  N_2 
REMARK    2  A    between atoms: C_3  and  N_4 
REMARK    3  A    between atoms: N_4  and  C_5 
REMARK    4  A    between atoms: C_5  and  C_6 
REMARK    5  A    between atoms: C_6  and  C_7 
REMARK    6  A    between atoms: C_7  and  C_8 
ROOT
ATOM      1  C   LIG d   1       4.005  -1.301  -7.422  0.00  0.00    -0.032 C 
ATOM      2  H   LIG d   1       3.759  -2.360  -7.592  0.00  0.00     0.028 H 
ATOM      3  H   LIG d   1       3.085  -0.699  -7.463  0.00  0.00     0.028 H 
ENDROOT
BRANCH   1   4
ATOM      4  C   LIG d   1       4.655  -1.144  -6.046  0.00  0.00     0.012 C 
ATOM      5  H   LIG d   1       5.748  -1.087  -6.161  0.00  0.00     0.046 H 
ATOM      6  H   LIG d   1       4.397  -2.008  -5.417  0.00  0.00     0.046 H 
BRANCH   4   7
ATOM      7  N   LIG d   1       4.167   0.084  -5.412  0.00  0.00    -0.317 N 
ATOM      8  H   LIG d   1       3.905   0.955  -6.030  0.00  0.00     0.149 HD
BRANCH   7   9
ATOM      9  C   LIG d   1       4.037   0.147  -4.044  0.00  0.00     0.099 C 
ATOM     10  N   LIG d   1       4.747   1.001  -3.361  0.00  0.00    -0.257 N 
ATOM     11  H   LIG d   1       5.450   1.671  -3.878  0.00  0.00     0.444 HD
ATOM     12  S   LIG d   1       2.910  -0.925  -3.215  0.00  0.00    -0.671 SA
BRANCH  10  13
ATOM     13  C   LIG d   1       4.608   1.069  -1.903  0.00  0.00     0.133 C 
ATOM     14  H   LIG d   1       3.741   1.696  -1.647  0.00  0.00     0.099 H 
ATOM     15  H   LIG d   1       5.519   1.507  -1.468  0.00  0.00     0.099 H 
ATOM     16  H   LIG d   1       4.460   0.055  -1.502  0.00  0.00     0.099 H 
ENDBRANCH  10  13
ENDBRANCH   7   9
ENDBRANCH   4   7
ENDBRANCH   1   4
BRANCH   1  17
ATOM     17  C   LIG d   1       4.976  -0.822  -8.502  0.00  0.00    -0.007 C 
ATOM     18  H   LIG d   1       5.976  -0.687  -8.064  0.00  0.00     0.033 H 
ATOM     19  H   LIG d   1       5.025  -1.569  -9.308  0.00  0.00     0.033 H 
BRANCH  17  20
ATOM     20  C   LIG d   1       4.493   0.491  -9.064  0.00  0.00     0.059 A 
ATOM     21  N   LIG d   1       4.286   1.618  -8.367  0.00  0.00    -0.241 NA
ATOM     22  C   LIG d   1       3.872   2.555  -9.176  0.00  0.00     0.094 A 
ATOM     23  N   LIG d   1       3.794   2.045 -10.424  0.00  0.00    -0.351 N 
ATOM     24  H   LIG d   1       3.673   3.469  -8.823  0.00  0.00     0.103 H 
ATOM     25  C   LIG d   1       4.188   0.736 -10.353  0.00  0.00     0.024 A 
ATOM     26  H   LIG d   1       3.493   2.477 -11.390  0.00  0.00     0.166 HD
ATOM     27  H   LIG d   1       4.276   0.009 -11.034  0.00  0.00     0.083 H 
ENDBRANCH  17  20
ENDBRANCH   1  17
TORSDOF 6
ENDMDL
MODEL 10
REMARK VINA RESULT:      -3.8      2.159      2.869
REMARK  6 active torsions:
REMARK  status: ('A' for Active; 'I' for Inactive)
REMARK    1  A    between atoms: C_1  and  N_2 
REMARK    2  A    between atoms: C_3  and  N_4 
REMARK    3  A    between atoms: N_4  and  C_5 
REMARK    4  A    between atoms: C_5  and  C_6 
REMARK    5  A    between atoms: C_6  and  C_7 
REMARK    6  A    between atoms: C_7  and  C_8 
ROOT
ATOM      1  C   LIG d   1       3.277  -0.111  -5.980  0.00  0.00    -0.032 C 
ATOM      2  H   LIG d   1       3.010  -1.178  -5.993  0.00  0.00     0.028 H 
ATOM      3  H   LIG d   1       4.361  -0.006  -5.821  0.00  0.00     0.028 H 
ENDROOT
BRANCH   1   4
ATOM      4  C   LIG d   1       2.893   0.527  -7.317  0.00  0.00     0.012 C 
ATOM      5  H   LIG d   1       3.041   1.615  -7.260  0.00  0.00     0.046 H 
ATOM      6  H   LIG d   1       1.838   0.311  -7.536  0.00  0.00     0.046 H 
BRANCH   4   7
ATOM      7  N   LIG d   1       3.736  -0.026  -8.381  0.00  0.00    -0.317 N 
ATOM      8  H   LIG d   1       3.293  -0.675  -9.151  0.00  0.00     0.149 HD
BRANCH   7   9
ATOM      9  C   LIG d   1       5.079   0.267  -8.417  0.00  0.00     0.099 C 
ATOM     10  N   LIG d   1       5.475   1.507  -8.494  0.00  0.00    -0.257 N 
ATOM     11  H   LIG d   1       4.734   2.320  -8.530  0.00  0.00     0.444 HD
ATOM     12  S   LIG d   1       6.266  -1.035  -8.358  0.00  0.00    -0.671 SA
BRANCH  10  13
ATOM     13  C   LIG d   1       6.906   1.819  -8.531  0.00  0.00     0.133 C 
ATOM     14  H   LIG d   1       7.300   1.609  -9.537  0.00  0.00     0.099 H 
ATOM     15  H   LIG d   1       7.436   1.198  -7.793  0.00  0.00     0.099 H 
ATOM     16  H   LIG d   1       7.056   2.883  -8.293  0.00  0.00     0.099 H 
ENDBRANCH  10  13
ENDBRANCH   7   9
ENDBRANCH   4   7
ENDBRANCH   1   4
BRANCH   1  17
ATOM     17  C   LIG d   1       2.526   0.591  -4.847  0.00  0.00    -0.007 C 
ATOM     18  H   LIG d   1       2.369   1.648  -5.109  0.00  0.00     0.033 H 
ATOM     19  H   LIG d   1       1.553   0.101  -4.694  0.00  0.00     0.033 H 
BRANCH  17  20
ATOM     20  C   LIG d   1       3.337   0.504  -3.579  0.00  0.00     0.059 A 
ATOM     21  N   LIG d   1       4.074   1.490  -3.045  0.00  0.00    -0.241 NA
ATOM     22  C   LIG d   1       4.635   1.062  -1.948  0.00  0.00     0.094 A 
ATOM     23  N   LIG d   1       4.276  -0.225  -1.752  0.00  0.00    -0.351 N 
ATOM     24  H   LIG d   1       5.219   1.673  -1.414  0.00  0.00     0.103 H 
ATOM     25  C   LIG d   1       3.453  -0.578  -2.786  0.00  0.00     0.024 A 
ATOM     26  H   LIG d   1       4.520  -0.957  -0.968  0.00  0.00     0.166 HD
ATOM     27  H   LIG d   1       2.974  -1.424  -3.022  0.00  0.00     0.083 H 
ENDBRANCH  17  20
ENDBRANCH   1  17
TORSDOF 6
ENDMDL
