MODEL 1
REMARK VINA RESULT:      -6.4      0.000      0.000
REMARK  5 active torsions:
REMARK  status: ('A' for Active; 'I' for Inactive)
REMARK    1  A    between atoms: C_1  and  C_2 
REMARK    2  A    between atoms: C_4  and  C_22 
REMARK    3  A    between atoms: C_4  and  C_23 
REMARK    4  A    between atoms: C_5  and  C_10 
REMARK       I    between atoms: N_12  and  C_19 
REMARK    5  A    between atoms: C_19  and  C_21 
ROOT
ATOM      1  C   LIG d   1       7.586  -2.592  -6.438  0.00  0.00     0.112 C 
ATOM      2  C   LIG d   1       6.619  -3.409  -6.894  0.00  0.00     0.156 C 
ATOM      3  C   LIG d   1       5.774  -4.193  -5.920  0.00  0.00     0.065 C 
ATOM      4  C   LIG d   1       5.706  -3.428  -4.594  0.00  0.00     0.142 C 
ATOM      5  H   LIG d   1       5.211  -4.043  -3.842  0.00  0.00     0.080 H 
ATOM      6  O   LIG d   1       7.042  -3.132  -4.168  0.00  0.00    -0.455 OA
ATOM      7  C   LIG d   1       7.813  -2.457  -5.049  0.00  0.00     0.318 C 
ATOM      8  O   LIG d   1       8.704  -1.733  -4.646  0.00  0.00    -0.250 OA
ATOM      9  O   LIG d   1       6.406  -3.528  -8.220  0.00  0.00    -0.296 OA
ATOM     10  H   LIG d   1       6.782  -2.051  -6.191  0.00  0.00     0.049 H 
ENDROOT
BRANCH   4  11
ATOM     11  C   LIG d   1       4.939  -2.145  -4.783  0.00  0.00     0.019 A 
ATOM     12  C   LIG d   1       4.629  -1.155  -3.745  0.00  0.00     0.007 A 
ATOM     13  C   LIG d   1       3.902  -0.134  -4.382  0.00  0.00     0.057 A 
ATOM     14  C   LIG d   1       4.902  -1.067  -2.380  0.00  0.00    -0.052 A 
ATOM     15  N   LIG d   1       3.786  -0.489  -5.715  0.00  0.00    -0.287 N 
ATOM     16  C   LIG d   1       3.464   0.956  -3.644  0.00  0.00    -0.037 A 
ATOM     17  C   LIG d   1       4.417  -1.692  -5.930  0.00  0.00     0.020 A 
ATOM     18  C   LIG d   1       3.153   0.235  -6.660  0.00  0.00     0.229 C 
ATOM     19  H   LIG d   1       4.481  -2.197  -6.884  0.00  0.00     0.082 H 
ATOM     20  O   LIG d   1       2.631   1.289  -6.366  0.00  0.00    -0.273 OA
ATOM     21  C   LIG d   1       3.742   1.030  -2.296  0.00  0.00    -0.060 A 
ATOM     22  H   LIG d   1       2.905   1.746  -4.126  0.00  0.00     0.064 H 
ATOM     23  C   LIG d   1       4.458   0.024  -1.666  0.00  0.00    -0.061 A 
ATOM     24  H   LIG d   1       3.398   1.880  -1.725  0.00  0.00     0.062 H 
ATOM     25  H   LIG d   1       4.668   0.095  -0.608  0.00  0.00     0.062 H 
ATOM     26  H   LIG d   1       5.460  -1.848  -1.886  0.00  0.00     0.062 H 
BRANCH  18  27
ATOM     27  C   LIG d   1       3.097  -0.263  -8.080  0.00  0.00     0.015 C 
ATOM     28  H   LIG d   1       4.055  -0.709  -8.347  0.00  0.00     0.033 H 
ATOM     29  H   LIG d   1       2.310  -1.010  -8.172  0.00  0.00     0.033 H 
ATOM     30  H   LIG d   1       2.887   0.571  -8.750  0.00  0.00     0.033 H 
ENDBRANCH  18  27
ENDBRANCH   4  11
BRANCH   3  31
ATOM     31  C   LIG d   1       6.402  -5.568  -5.689  0.00  0.00    -0.049 C 
ATOM     32  H   LIG d   1       5.660  -6.236  -5.251  0.00  0.00     0.024 H 
ATOM     33  H   LIG d   1       6.743  -5.977  -6.639  0.00  0.00     0.024 H 
ATOM     34  H   LIG d   1       7.249  -5.471  -5.010  0.00  0.00     0.024 H 
ENDBRANCH   3  31
BRANCH   3  35
ATOM     35  C   LIG d   1       4.363  -4.360  -6.488  0.00  0.00    -0.049 C 
ATOM     36  H   LIG d   1       3.689  -4.688  -5.697  0.00  0.00     0.024 H 
ATOM     37  H   LIG d   1       4.016  -3.406  -6.888  0.00  0.00     0.024 H 
ATOM     38  H   LIG d   1       4.378  -5.103  -7.284  0.00  0.00     0.024 H 
ENDBRANCH   3  35
BRANCH   1  39
ATOM     39  C   LIG d   1       8.432  -1.816  -7.414  0.00  0.00    -0.045 C 
ATOM     40  H   LIG d   1       8.528  -2.380  -8.341  0.00  0.00     0.024 H 
ATOM     41  H   LIG d   1       7.960  -0.855  -7.620  0.00  0.00     0.024 H 
ATOM     42  H   LIG d   1       9.421  -1.650  -6.986  0.00  0.00     0.024 H 
ENDBRANCH   1  39
TORSDOF 5
ENDMDL
MODEL 2
REMARK VINA RESULT:      -6.3      2.467      4.972
REMARK  5 active torsions:
REMARK  status: ('A' for Active; 'I' for Inactive)
REMARK    1  A    between atoms: C_1  and  C_2 
REMARK    2  A    between atoms: C_4  and  C_22 
REMARK    3  A    between atoms: C_4  and  C_23 
REMARK    4  A    between atoms: C_5  and  C_10 
REMARK       I    between atoms: N_12  and  C_19 
REMARK    5  A    between atoms: C_19  and  C_21 
ROOT
ATOM      1  C   LIG d   1       5.226   0.117  -3.845  0.00  0.00     0.112 C 
ATOM      2  C   LIG d   1       6.026  -0.913  -4.171  0.00  0.00     0.156 C 
ATOM      3  C   LIG d   1       5.515  -2.007  -5.076  0.00  0.00     0.065 C 
ATOM      4  C   LIG d   1       4.433  -1.427  -5.994  0.00  0.00     0.142 C 
ATOM      5  H   LIG d   1       3.964  -2.232  -6.559  0.00  0.00     0.080 H 
ATOM      6  O   LIG d   1       3.450  -0.772  -5.184  0.00  0.00    -0.455 OA
ATOM      7  C   LIG d   1       3.906   0.186  -4.349  0.00  0.00     0.318 C 
ATOM      8  O   LIG d   1       3.181   1.110  -4.031  0.00  0.00    -0.250 OA
ATOM      9  O   LIG d   1       7.284  -0.968  -3.690  0.00  0.00    -0.296 OA
ATOM     10  H   LIG d   1       5.424   0.357  -4.795  0.00  0.00     0.049 H 
ENDROOT
BRANCH   4  11
ATOM     11  C   LIG d   1       5.049  -0.433  -6.945  0.00  0.00     0.019 A 
ATOM     12  C   LIG d   1       4.327   0.518  -7.797  0.00  0.00     0.007 A 
ATOM     13  C   LIG d   1       5.309   1.233  -8.505  0.00  0.00     0.057 A 
ATOM     14  C   LIG d   1       2.976   0.802  -8.001  0.00  0.00    -0.052 A 
ATOM     15  N   LIG d   1       6.539   0.741  -8.102  0.00  0.00    -0.287 N 
ATOM     16  C   LIG d   1       4.924   2.218  -9.403  0.00  0.00    -0.037 A 
ATOM     17  C   LIG d   1       6.357  -0.250  -7.167  0.00  0.00     0.020 A 
ATOM     18  C   LIG d   1       7.733   1.171  -8.556  0.00  0.00     0.229 C 
ATOM     19  H   LIG d   1       7.152  -0.801  -6.684  0.00  0.00     0.082 H 
ATOM     20  O   LIG d   1       7.785   2.058  -9.381  0.00  0.00    -0.273 OA
ATOM     21  C   LIG d   1       3.585   2.488  -9.595  0.00  0.00    -0.060 A 
ATOM     22  H   LIG d   1       5.671   2.772  -9.952  0.00  0.00     0.064 H 
ATOM     23  C   LIG d   1       2.615   1.784  -8.897  0.00  0.00    -0.061 A 
ATOM     24  H   LIG d   1       3.289   3.255 -10.296  0.00  0.00     0.062 H 
ATOM     25  H   LIG d   1       1.570   2.006  -9.058  0.00  0.00     0.062 H 
ATOM     26  H   LIG d   1       2.219   0.256  -7.460  0.00  0.00     0.062 H 
BRANCH  18  27
ATOM     27  C   LIG d   1       9.004   0.552  -8.036  0.00  0.00     0.015 C 
ATOM     28  H   LIG d   1       8.761  -0.317  -7.423  0.00  0.00     0.033 H 
ATOM     29  H   LIG d   1       9.627   0.242  -8.874  0.00  0.00     0.033 H 
ATOM     30  H   LIG d   1       9.544   1.281  -7.433  0.00  0.00     0.033 H 
ENDBRANCH  18  27
ENDBRANCH   4  11
BRANCH   3  31
ATOM     31  C   LIG d   1       4.922  -3.135  -4.231  0.00  0.00    -0.049 C 
ATOM     32  H   LIG d   1       4.846  -4.039  -4.835  0.00  0.00     0.024 H 
ATOM     33  H   LIG d   1       5.566  -3.325  -3.373  0.00  0.00     0.024 H 
ATOM     34  H   LIG d   1       3.931  -2.845  -3.883  0.00  0.00     0.024 H 
ENDBRANCH   3  31
BRANCH   3  35
ATOM     35  C   LIG d   1       6.668  -2.549  -5.923  0.00  0.00    -0.049 C 
ATOM     36  H   LIG d   1       7.312  -1.726  -6.232  0.00  0.00     0.024 H 
ATOM     37  H   LIG d   1       7.247  -3.262  -5.336  0.00  0.00     0.024 H 
ATOM     38  H   LIG d   1       6.267  -3.048  -6.805  0.00  0.00     0.024 H 
ENDBRANCH   3  35
BRANCH   1  39
ATOM     39  C   LIG d   1       5.737   1.205  -2.935  0.00  0.00    -0.045 C 
ATOM     40  H   LIG d   1       5.242   2.144  -3.177  0.00  0.00     0.024 H 
ATOM     41  H   LIG d   1       5.527   0.940  -1.898  0.00  0.00     0.024 H 
ATOM     42  H   LIG d   1       6.813   1.315  -3.070  0.00  0.00     0.024 H 
ENDBRANCH   1  39
TORSDOF 5
ENDMDL
MODEL 3
REMARK VINA RESULT:      -5.9      2.253      4.599
REMARK  5 active torsions:
REMARK  status: ('A' for Active; 'I' for Inactive)
REMARK    1  A    between atoms: C_1  and  C_2 
REMARK    2  A    between atoms: C_4  and  C_22 
REMARK    3  A    between atoms: C_4  and  C_23 
REMARK    4  A    between atoms: C_5  and  C_10 
REMARK       I    between atoms: N_12  and  C_19 
REMARK    5  A    between atoms: C_19  and  C_21 
ROOT
ATOM      1  C   LIG d   1       3.451  -0.344  -8.794  0.00  0.00     0.112 C 
ATOM      2  C   LIG d   1       4.386  -1.081  -9.420  0.00  0.00     0.156 C 
ATOM      3  C   LIG d   1       5.838  -0.939  -9.035  0.00  0.00     0.065 C 
ATOM      4  C   LIG d   1       5.923  -0.496  -7.571  0.00  0.00     0.142 C 
ATOM      5  H   LIG d   1       6.958  -0.263  -7.319  0.00  0.00     0.080 H 
ATOM      6  O   LIG d   1       5.112   0.672  -7.399  0.00  0.00    -0.455 OA
ATOM      7  C   LIG d   1       3.819   0.561  -7.771  0.00  0.00     0.318 C 
ATOM      8  O   LIG d   1       2.969   1.240  -7.225  0.00  0.00    -0.250 OA
ATOM      9  O   LIG d   1       4.026  -1.944 -10.391  0.00  0.00    -0.296 OA
ATOM     10  H   LIG d   1       3.663  -0.995  -8.065  0.00  0.00     0.049 H 
ENDROOT
BRANCH   4  11
ATOM     11  C   LIG d   1       5.420  -1.597  -6.674  0.00  0.00     0.019 A 
ATOM     12  C   LIG d   1       5.111  -1.483  -5.244  0.00  0.00     0.007 A 
ATOM     13  C   LIG d   1       4.678  -2.756  -4.834  0.00  0.00     0.057 A 
ATOM     14  C   LIG d   1       5.168  -0.437  -4.323  0.00  0.00    -0.052 A 
ATOM     15  N   LIG d   1       4.726  -3.579  -5.946  0.00  0.00    -0.287 N 
ATOM     16  C   LIG d   1       4.311  -2.961  -3.512  0.00  0.00    -0.037 A 
ATOM     17  C   LIG d   1       5.168  -2.863  -7.033  0.00  0.00     0.020 A 
ATOM     18  C   LIG d   1       4.386  -4.884  -5.962  0.00  0.00     0.229 C 
ATOM     19  H   LIG d   1       5.294  -3.262  -8.030  0.00  0.00     0.082 H 
ATOM     20  O   LIG d   1       4.002  -5.422  -4.946  0.00  0.00    -0.273 OA
ATOM     21  C   LIG d   1       4.372  -1.917  -2.612  0.00  0.00    -0.060 A 
ATOM     22  H   LIG d   1       3.977  -3.935  -3.187  0.00  0.00     0.064 H 
ATOM     23  C   LIG d   1       4.798  -0.661  -3.015  0.00  0.00    -0.061 A 
ATOM     24  H   LIG d   1       4.086  -2.081  -1.583  0.00  0.00     0.062 H 
ATOM     25  H   LIG d   1       4.843   0.147  -2.299  0.00  0.00     0.062 H 
ATOM     26  H   LIG d   1       5.500   0.542  -4.633  0.00  0.00     0.062 H 
BRANCH  18  27
ATOM     27  C   LIG d   1       4.482  -5.672  -7.241  0.00  0.00     0.015 C 
ATOM     28  H   LIG d   1       5.358  -5.347  -7.804  0.00  0.00     0.033 H 
ATOM     29  H   LIG d   1       4.571  -6.733  -7.009  0.00  0.00     0.033 H 
ATOM     30  H   LIG d   1       3.586  -5.506  -7.839  0.00  0.00     0.033 H 
ENDBRANCH  18  27
ENDBRANCH   4  11
BRANCH   3  31
ATOM     31  C   LIG d   1       6.505   0.108  -9.928  0.00  0.00    -0.049 C 
ATOM     32  H   LIG d   1       5.803   0.920 -10.121  0.00  0.00     0.024 H 
ATOM     33  H   LIG d   1       7.388   0.504  -9.428  0.00  0.00     0.024 H 
ATOM     34  H   LIG d   1       6.798  -0.351 -10.872  0.00  0.00     0.024 H 
ENDBRANCH   3  31
BRANCH   3  35
ATOM     35  C   LIG d   1       6.545  -2.286  -9.205  0.00  0.00    -0.049 C 
ATOM     36  H   LIG d   1       6.851  -2.662  -8.229  0.00  0.00     0.024 H 
ATOM     37  H   LIG d   1       5.864  -2.998  -9.671  0.00  0.00     0.024 H 
ATOM     38  H   LIG d   1       7.424  -2.157  -9.836  0.00  0.00     0.024 H 
ENDBRANCH   3  35
BRANCH   1  39
ATOM     39  C   LIG d   1       2.002  -0.483  -9.185  0.00  0.00    -0.045 C 
ATOM     40  H   LIG d   1       1.628   0.477  -9.539  0.00  0.00     0.024 H 
ATOM     41  H   LIG d   1       1.911  -1.224  -9.980  0.00  0.00     0.024 H 
ATOM     42  H   LIG d   1       1.421  -0.803  -8.321  0.00  0.00     0.024 H 
ENDBRANCH   1  39
TORSDOF 5
ENDMDL
MODEL 4
REMARK VINA RESULT:      -5.8      3.033      5.681
REMARK  5 active torsions:
REMARK  status: ('A' for Active; 'I' for Inactive)
REMARK    1  A    between atoms: C_1  and  C_2 
REMARK    2  A    between atoms: C_4  and  C_22 
REMARK    3  A    between atoms: C_4  and  C_23 
REMARK    4  A    between atoms: C_5  and  C_10 
REMARK       I    between atoms: N_12  and  C_19 
REMARK    5  A    between atoms: C_19  and  C_21 
ROOT
ATOM      1  C   LIG d   1       3.886   0.522  -3.748  0.00  0.00     0.112 C 
ATOM      2  C   LIG d   1       4.775  -0.205  -3.050  0.00  0.00     0.156 C 
ATOM      3  C   LIG d   1       5.338  -1.475  -3.640  0.00  0.00     0.065 C 
ATOM      4  C   LIG d   1       5.321  -1.363  -5.169  0.00  0.00     0.142 C 
ATOM      5  H   LIG d   1       5.600  -2.321  -5.609  0.00  0.00     0.080 H 
ATOM      6  O   LIG d   1       3.997  -1.010  -5.586  0.00  0.00    -0.455 OA
ATOM      7  C   LIG d   1       3.476   0.109  -5.038  0.00  0.00     0.318 C 
ATOM      8  O   LIG d   1       2.655   0.761  -5.653  0.00  0.00    -0.250 OA
ATOM      9  O   LIG d   1       5.164   0.199  -1.824  0.00  0.00    -0.296 OA
ATOM     10  H   LIG d   1       4.715   0.738  -4.263  0.00  0.00     0.049 H 
ENDROOT
BRANCH   4  11
ATOM     11  C   LIG d   1       6.292  -0.300  -5.614  0.00  0.00     0.019 A 
ATOM     12  C   LIG d   1       6.515   0.153  -6.991  0.00  0.00     0.007 A 
ATOM     13  C   LIG d   1       7.504   1.150  -6.919  0.00  0.00     0.057 A 
ATOM     14  C   LIG d   1       5.971  -0.199  -8.226  0.00  0.00    -0.052 A 
ATOM     15  N   LIG d   1       7.850   1.284  -5.586  0.00  0.00    -0.287 N 
ATOM     16  C   LIG d   1       7.930   1.775  -8.083  0.00  0.00    -0.037 A 
ATOM     17  C   LIG d   1       7.109   0.410  -4.826  0.00  0.00     0.020 A 
ATOM     18  C   LIG d   1       8.771   2.143  -5.105  0.00  0.00     0.229 C 
ATOM     19  H   LIG d   1       7.178   0.311  -3.751  0.00  0.00     0.082 H 
ATOM     20  O   LIG d   1       9.368   2.878  -5.862  0.00  0.00    -0.273 OA
ATOM     21  C   LIG d   1       7.383   1.416  -9.296  0.00  0.00    -0.060 A 
ATOM     22  H   LIG d   1       8.690   2.542  -8.037  0.00  0.00     0.064 H 
ATOM     23  C   LIG d   1       6.407   0.434  -9.369  0.00  0.00    -0.061 A 
ATOM     24  H   LIG d   1       7.719   1.905 -10.199  0.00  0.00     0.062 H 
ATOM     25  H   LIG d   1       5.988   0.162 -10.326  0.00  0.00     0.062 H 
ATOM     26  H   LIG d   1       5.211  -0.964  -8.286  0.00  0.00     0.062 H 
BRANCH  18  27
ATOM     27  C   LIG d   1       9.057   2.192  -3.627  0.00  0.00     0.015 C 
ATOM     28  H   LIG d   1       8.930   3.213  -3.266  0.00  0.00     0.033 H 
ATOM     29  H   LIG d   1       8.369   1.532  -3.101  0.00  0.00     0.033 H 
ATOM     30  H   LIG d   1      10.082   1.869  -3.443  0.00  0.00     0.033 H 
ENDBRANCH  18  27
ENDBRANCH   4  11
BRANCH   3  31
ATOM     31  C   LIG d   1       4.483  -2.666  -3.203  0.00  0.00    -0.049 C 
ATOM     32  H   LIG d   1       5.122  -3.535  -3.052  0.00  0.00     0.024 H 
ATOM     33  H   LIG d   1       3.972  -2.424  -2.272  0.00  0.00     0.024 H 
ATOM     34  H   LIG d   1       3.746  -2.886  -3.975  0.00  0.00     0.024 H 
ENDBRANCH   3  31
BRANCH   3  35
ATOM     35  C   LIG d   1       6.777  -1.670  -3.157  0.00  0.00    -0.049 C 
ATOM     36  H   LIG d   1       6.956  -2.727  -2.962  0.00  0.00     0.024 H 
ATOM     37  H   LIG d   1       7.468  -1.319  -3.924  0.00  0.00     0.024 H 
ATOM     38  H   LIG d   1       6.932  -1.100  -2.242  0.00  0.00     0.024 H 
ENDBRANCH   3  35
BRANCH   1  39
ATOM     39  C   LIG d   1       3.321   1.787  -3.153  0.00  0.00    -0.045 C 
ATOM     40  H   LIG d   1       2.996   2.451  -3.953  0.00  0.00     0.024 H 
ATOM     41  H   LIG d   1       2.470   1.540  -2.518  0.00  0.00     0.024 H 
ATOM     42  H   LIG d   1       4.088   2.282  -2.557  0.00  0.00     0.024 H 
ENDBRANCH   1  39
TORSDOF 5
ENDMDL
MODEL 5
REMARK VINA RESULT:      -5.8      2.455      3.931
REMARK  5 active torsions:
REMARK  status: ('A' for Active; 'I' for Inactive)
REMARK    1  A    between atoms: C_1  and  C_2 
REMARK    2  A    between atoms: C_4  and  C_22 
REMARK    3  A    between atoms: C_4  and  C_23 
REMARK    4  A    between atoms: C_5  and  C_10 
REMARK       I    between atoms: N_12  and  C_19 
REMARK    5  A    between atoms: C_19  and  C_21 
ROOT
ATOM      1  C   LIG d   1       5.969  -0.177  -8.844  0.00  0.00     0.112 C 
ATOM      2  C   LIG d   1       4.708   0.212  -8.588  0.00  0.00     0.156 C 
ATOM      3  C   LIG d   1       3.770  -0.710  -7.850  0.00  0.00     0.065 C 
ATOM      4  C   LIG d   1       4.592  -1.631  -6.942  0.00  0.00     0.142 C 
ATOM      5  H   LIG d   1       3.941  -2.388  -6.503  0.00  0.00     0.080 H 
ATOM      6  O   LIG d   1       5.604  -2.267  -7.731  0.00  0.00    -0.455 OA
ATOM      7  C   LIG d   1       6.427  -1.447  -8.419  0.00  0.00     0.318 C 
ATOM      8  O   LIG d   1       7.563  -1.800  -8.674  0.00  0.00    -0.250 OA
ATOM      9  O   LIG d   1       4.282   1.425  -8.993  0.00  0.00    -0.296 OA
ATOM     10  H   LIG d   1       6.045  -0.006  -7.862  0.00  0.00     0.049 H 
ENDROOT
BRANCH   4  11
ATOM     11  C   LIG d   1       5.238  -0.824  -5.845  0.00  0.00     0.019 A 
ATOM     12  C   LIG d   1       4.764  -0.697  -4.463  0.00  0.00     0.007 A 
ATOM     13  C   LIG d   1       5.679   0.150  -3.812  0.00  0.00     0.057 A 
ATOM     14  C   LIG d   1       3.677  -1.217  -3.761  0.00  0.00    -0.052 A 
ATOM     15  N   LIG d   1       6.638   0.506  -4.745  0.00  0.00    -0.287 N 
ATOM     16  C   LIG d   1       5.490   0.460  -2.473  0.00  0.00    -0.037 A 
ATOM     17  C   LIG d   1       6.355  -0.092  -5.950  0.00  0.00     0.020 A 
ATOM     18  C   LIG d   1       7.691   1.313  -4.506  0.00  0.00     0.229 C 
ATOM     19  H   LIG d   1       6.946   0.014  -6.849  0.00  0.00     0.082 H 
ATOM     20  O   LIG d   1       7.854   1.787  -3.402  0.00  0.00    -0.273 OA
ATOM     21  C   LIG d   1       4.410  -0.062  -1.792  0.00  0.00    -0.060 A 
ATOM     22  H   LIG d   1       6.188   1.109  -1.964  0.00  0.00     0.064 H 
ATOM     23  C   LIG d   1       3.508  -0.897  -2.432  0.00  0.00    -0.061 A 
ATOM     24  H   LIG d   1       4.267   0.183  -0.749  0.00  0.00     0.062 H 
ATOM     25  H   LIG d   1       2.666  -1.298  -1.887  0.00  0.00     0.062 H 
ATOM     26  H   LIG d   1       2.972  -1.867  -4.257  0.00  0.00     0.062 H 
BRANCH  18  27
ATOM     27  C   LIG d   1       8.667   1.624  -5.610  0.00  0.00     0.015 C 
ATOM     28  H   LIG d   1       9.572   2.058  -5.184  0.00  0.00     0.033 H 
ATOM     29  H   LIG d   1       8.920   0.707  -6.142  0.00  0.00     0.033 H 
ATOM     30  H   LIG d   1       8.217   2.333  -6.305  0.00  0.00     0.033 H 
ENDBRANCH  18  27
ENDBRANCH   4  11
BRANCH   3  31
ATOM     31  C   LIG d   1       2.981  -1.551  -8.855  0.00  0.00    -0.049 C 
ATOM     32  H   LIG d   1       3.000  -2.597  -8.546  0.00  0.00     0.024 H 
ATOM     33  H   LIG d   1       1.950  -1.202  -8.891  0.00  0.00     0.024 H 
ATOM     34  H   LIG d   1       3.432  -1.455  -9.842  0.00  0.00     0.024 H 
ENDBRANCH   3  31
BRANCH   3  35
ATOM     35  C   LIG d   1       2.803   0.117  -6.999  0.00  0.00    -0.049 C 
ATOM     36  H   LIG d   1       2.023   0.533  -7.636  0.00  0.00     0.024 H 
ATOM     37  H   LIG d   1       2.351  -0.520  -6.239  0.00  0.00     0.024 H 
ATOM     38  H   LIG d   1       3.349   0.927  -6.516  0.00  0.00     0.024 H 
ENDBRANCH   3  35
BRANCH   1  39
ATOM     39  C   LIG d   1       6.901   0.744  -9.588  0.00  0.00    -0.045 C 
ATOM     40  H   LIG d   1       7.430   0.182 -10.357  0.00  0.00     0.024 H 
ATOM     41  H   LIG d   1       6.325   1.544 -10.054  0.00  0.00     0.024 H 
ATOM     42  H   LIG d   1       7.622   1.173  -8.892  0.00  0.00     0.024 H 
ENDBRANCH   1  39
TORSDOF 5
ENDMDL
MODEL 6
REMARK VINA RESULT:      -5.8      2.263      4.019
REMARK  5 active torsions:
REMARK  status: ('A' for Active; 'I' for Inactive)
REMARK    1  A    between atoms: C_1  and  C_2 
REMARK    2  A    between atoms: C_4  and  C_22 
REMARK    3  A    between atoms: C_4  and  C_23 
REMARK    4  A    between atoms: C_5  and  C_10 
REMARK       I    between atoms: N_12  and  C_19 
REMARK    5  A    between atoms: C_19  and  C_21 
ROOT
ATOM      1  C   LIG d   1       7.347  -0.320  -8.027  0.00  0.00     0.112 C 
ATOM      2  C   LIG d   1       8.400  -0.938  -7.463  0.00  0.00     0.156 C 
ATOM      3  C   LIG d   1       9.063  -0.339  -6.247  0.00  0.00     0.065 C 
ATOM      4  C   LIG d   1       8.029   0.487  -5.474  0.00  0.00     0.142 C 
ATOM      5  H   LIG d   1       8.524   1.031  -4.669  0.00  0.00     0.080 H 
ATOM      6  O   LIG d   1       7.418   1.416  -6.378  0.00  0.00    -0.455 OA
ATOM      7  C   LIG d   1       6.851   0.888  -7.483  0.00  0.00     0.318 C 
ATOM      8  O   LIG d   1       5.912   1.452  -8.013  0.00  0.00    -0.250 OA
ATOM      9  O   LIG d   1       8.864  -2.091  -7.985  0.00  0.00    -0.296 OA
ATOM     10  H   LIG d   1       6.908  -0.677  -7.203  0.00  0.00     0.049 H 
ENDROOT
BRANCH   4  11
ATOM     11  C   LIG d   1       6.976  -0.423  -4.897  0.00  0.00     0.019 A 
ATOM     12  C   LIG d   1       6.047  -0.099  -3.809  0.00  0.00     0.007 A 
ATOM     13  C   LIG d   1       5.257  -1.246  -3.614  0.00  0.00     0.057 A 
ATOM     14  C   LIG d   1       5.837   1.032  -3.020  0.00  0.00    -0.052 A 
ATOM     15  N   LIG d   1       5.687  -2.195  -4.526  0.00  0.00    -0.287 N 
ATOM     16  C   LIG d   1       4.274  -1.241  -2.635  0.00  0.00    -0.037 A 
ATOM     17  C   LIG d   1       6.711  -1.678  -5.284  0.00  0.00     0.020 A 
ATOM     18  C   LIG d   1       5.176  -3.436  -4.655  0.00  0.00     0.229 C 
ATOM     19  H   LIG d   1       7.227  -2.206  -6.073  0.00  0.00     0.082 H 
ATOM     20  O   LIG d   1       4.266  -3.794  -3.938  0.00  0.00    -0.273 OA
ATOM     21  C   LIG d   1       4.077  -0.115  -1.863  0.00  0.00    -0.060 A 
ATOM     22  H   LIG d   1       3.662  -2.118  -2.478  0.00  0.00     0.064 H 
ATOM     23  C   LIG d   1       4.855   1.016  -2.054  0.00  0.00    -0.061 A 
ATOM     24  H   LIG d   1       3.311  -0.116  -1.102  0.00  0.00     0.062 H 
ATOM     25  H   LIG d   1       4.691   1.891  -1.442  0.00  0.00     0.062 H 
ATOM     26  H   LIG d   1       6.441   1.915  -3.166  0.00  0.00     0.062 H 
BRANCH  18  27
ATOM     27  C   LIG d   1       5.733  -4.377  -5.690  0.00  0.00     0.015 C 
ATOM     28  H   LIG d   1       6.805  -4.208  -5.795  0.00  0.00     0.033 H 
ATOM     29  H   LIG d   1       5.555  -5.406  -5.380  0.00  0.00     0.033 H 
ATOM     30  H   LIG d   1       5.243  -4.197  -6.647  0.00  0.00     0.033 H 
ENDBRANCH  18  27
ENDBRANCH   4  11
BRANCH   3  31
ATOM     31  C   LIG d   1      10.217   0.564  -6.685  0.00  0.00    -0.049 C 
ATOM     32  H   LIG d   1      11.025  -0.049  -7.085  0.00  0.00     0.024 H 
ATOM     33  H   LIG d   1       9.869   1.252  -7.455  0.00  0.00     0.024 H 
ATOM     34  H   LIG d   1      10.581   1.131  -5.829  0.00  0.00     0.024 H 
ENDBRANCH   3  31
BRANCH   3  35
ATOM     35  C   LIG d   1       9.597  -1.459  -5.352  0.00  0.00    -0.049 C 
ATOM     36  H   LIG d   1      10.494  -1.886  -5.798  0.00  0.00     0.024 H 
ATOM     37  H   LIG d   1       9.837  -1.055  -4.368  0.00  0.00     0.024 H 
ATOM     38  H   LIG d   1       8.837  -2.234  -5.249  0.00  0.00     0.024 H 
ENDBRANCH   3  35
BRANCH   1  39
ATOM     39  C   LIG d   1       6.692  -0.918  -9.245  0.00  0.00    -0.045 C 
ATOM     40  H   LIG d   1       5.637  -1.094  -9.041  0.00  0.00     0.024 H 
ATOM     41  H   LIG d   1       6.790  -0.228 -10.085  0.00  0.00     0.024 H 
ATOM     42  H   LIG d   1       7.178  -1.862  -9.493  0.00  0.00     0.024 H 
ENDBRANCH   1  39
TORSDOF 5
ENDMDL
MODEL 7
REMARK VINA RESULT:      -5.8      2.218      2.699
REMARK  5 active torsions:
REMARK  status: ('A' for Active; 'I' for Inactive)
REMARK    1  A    between atoms: C_1  and  C_2 
REMARK    2  A    between atoms: C_4  and  C_22 
REMARK    3  A    between atoms: C_4  and  C_23 
REMARK    4  A    between atoms: C_5  and  C_10 
REMARK       I    between atoms: N_12  and  C_19 
REMARK    5  A    between atoms: C_19  and  C_21 
ROOT
ATOM      1  C   LIG d   1       8.521  -3.096  -6.531  0.00  0.00     0.112 C 
ATOM      2  C   LIG d   1       7.202  -3.275  -6.724  0.00  0.00     0.156 C 
ATOM      3  C   LIG d   1       6.339  -3.785  -5.596  0.00  0.00     0.065 C 
ATOM      4  C   LIG d   1       6.970  -3.373  -4.262  0.00  0.00     0.142 C 
ATOM      5  H   LIG d   1       6.431  -3.845  -3.440  0.00  0.00     0.080 H 
ATOM      6  O   LIG d   1       8.337  -3.804  -4.250  0.00  0.00    -0.455 OA
ATOM      7  C   LIG d   1       9.106  -3.376  -5.274  0.00  0.00     0.318 C 
ATOM      8  O   LIG d   1      10.303  -3.232  -5.115  0.00  0.00    -0.250 OA
ATOM      9  O   LIG d   1       6.652  -3.001  -7.923  0.00  0.00    -0.296 OA
ATOM     10  H   LIG d   1       8.170  -2.319  -6.008  0.00  0.00     0.049 H 
ENDROOT
BRANCH   4  11
ATOM     11  C   LIG d   1       6.911  -1.874  -4.110  0.00  0.00     0.019 A 
ATOM     12  C   LIG d   1       5.978  -1.121  -3.266  0.00  0.00     0.007 A 
ATOM     13  C   LIG d   1       6.296   0.237  -3.444  0.00  0.00     0.057 A 
ATOM     14  C   LIG d   1       4.938  -1.485  -2.409  0.00  0.00    -0.052 A 
ATOM     15  N   LIG d   1       7.353   0.292  -4.337  0.00  0.00    -0.287 N 
ATOM     16  C   LIG d   1       5.572   1.205  -2.763  0.00  0.00    -0.037 A 
ATOM     17  C   LIG d   1       7.704  -0.982  -4.717  0.00  0.00     0.020 A 
ATOM     18  C   LIG d   1       7.948   1.422  -4.767  0.00  0.00     0.229 C 
ATOM     19  H   LIG d   1       8.502  -1.226  -5.404  0.00  0.00     0.082 H 
ATOM     20  O   LIG d   1       7.564   2.500  -4.366  0.00  0.00    -0.273 OA
ATOM     21  C   LIG d   1       4.548   0.830  -1.919  0.00  0.00    -0.060 A 
ATOM     22  H   LIG d   1       5.810   2.250  -2.894  0.00  0.00     0.064 H 
ATOM     23  C   LIG d   1       4.232  -0.508  -1.742  0.00  0.00    -0.061 A 
ATOM     24  H   LIG d   1       3.986   1.587  -1.392  0.00  0.00     0.062 H 
ATOM     25  H   LIG d   1       3.426  -0.788  -1.079  0.00  0.00     0.062 H 
ATOM     26  H   LIG d   1       4.690  -2.526  -2.269  0.00  0.00     0.062 H 
BRANCH  18  27
ATOM     27  C   LIG d   1       9.092   1.347  -5.743  0.00  0.00     0.015 C 
ATOM     28  H   LIG d   1       9.846   2.090  -5.478  0.00  0.00     0.033 H 
ATOM     29  H   LIG d   1       9.535   0.353  -5.709  0.00  0.00     0.033 H 
ATOM     30  H   LIG d   1       8.726   1.547  -6.750  0.00  0.00     0.033 H 
ENDBRANCH  18  27
ENDBRANCH   4  11
BRANCH   3  31
ATOM     31  C   LIG d   1       6.246  -5.310  -5.670  0.00  0.00    -0.049 C 
ATOM     32  H   LIG d   1       7.157  -5.707  -6.117  0.00  0.00     0.024 H 
ATOM     33  H   LIG d   1       6.127  -5.716  -4.667  0.00  0.00     0.024 H 
ATOM     34  H   LIG d   1       5.389  -5.592  -6.281  0.00  0.00     0.024 H 
ENDBRANCH   3  31
BRANCH   3  35
ATOM     35  C   LIG d   1       4.939  -3.177  -5.709  0.00  0.00    -0.049 C 
ATOM     36  H   LIG d   1       4.530  -3.387  -6.697  0.00  0.00     0.024 H 
ATOM     37  H   LIG d   1       4.291  -3.612  -4.947  0.00  0.00     0.024 H 
ATOM     38  H   LIG d   1       4.999  -2.099  -5.562  0.00  0.00     0.024 H 
ENDBRANCH   3  35
BRANCH   1  39
ATOM     39  C   LIG d   1       9.381  -2.593  -7.662  0.00  0.00    -0.045 C 
ATOM     40  H   LIG d   1       8.759  -2.406  -8.536  0.00  0.00     0.024 H 
ATOM     41  H   LIG d   1       9.872  -1.667  -7.361  0.00  0.00     0.024 H 
ATOM     42  H   LIG d   1      10.135  -3.342  -7.905  0.00  0.00     0.024 H 
ENDBRANCH   1  39
TORSDOF 5
ENDMDL
MODEL 8
REMARK VINA RESULT:      -5.7      2.840      4.732
REMARK  5 active torsions:
REMARK  status: ('A' for Active; 'I' for Inactive)
REMARK    1  A    between atoms: C_1  and  C_2 
REMARK    2  A    between atoms: C_4  and  C_22 
REMARK    3  A    between atoms: C_4  and  C_23 
REMARK    4  A    between atoms: C_5  and  C_10 
REMARK       I    between atoms: N_12  and  C_19 
REMARK    5  A    between atoms: C_19  and  C_21 
ROOT
ATOM      1  C   LIG d   1       3.989   1.023  -8.595  0.00  0.00     0.112 C 
ATOM      2  C   LIG d   1       3.615  -0.260  -8.443  0.00  0.00     0.156 C 
ATOM      3  C   LIG d   1       4.643  -1.360  -8.532  0.00  0.00     0.065 C 
ATOM      4  C   LIG d   1       6.007  -0.801  -8.112  0.00  0.00     0.142 C 
ATOM      5  H   LIG d   1       6.781  -1.546  -8.298  0.00  0.00     0.080 H 
ATOM      6  O   LIG d   1       6.276   0.375  -8.886  0.00  0.00    -0.455 OA
ATOM      7  C   LIG d   1       5.344   1.350  -8.834  0.00  0.00     0.318 C 
ATOM      8  O   LIG d   1       5.670   2.512  -8.992  0.00  0.00    -0.250 OA
ATOM      9  O   LIG d   1       2.322  -0.563  -8.211  0.00  0.00    -0.296 OA
ATOM     10  H   LIG d   1       4.364   0.849  -7.685  0.00  0.00     0.049 H 
ENDROOT
BRANCH   4  11
ATOM     11  C   LIG d   1       5.985  -0.448  -6.647  0.00  0.00     0.019 A 
ATOM     12  C   LIG d   1       6.949   0.404  -5.943  0.00  0.00     0.007 A 
ATOM     13  C   LIG d   1       6.528   0.446  -4.602  0.00  0.00     0.057 A 
ATOM     14  C   LIG d   1       8.090   1.104  -6.336  0.00  0.00    -0.052 A 
ATOM     15  N   LIG d   1       5.386  -0.332  -4.510  0.00  0.00    -0.287 N 
ATOM     16  C   LIG d   1       7.254   1.185  -3.679  0.00  0.00    -0.037 A 
ATOM     17  C   LIG d   1       5.080  -0.851  -5.746  0.00  0.00     0.020 A 
ATOM     18  C   LIG d   1       4.680  -0.544  -3.382  0.00  0.00     0.229 C 
ATOM     19  H   LIG d   1       4.234  -1.490  -5.958  0.00  0.00     0.082 H 
ATOM     20  O   LIG d   1       5.033  -0.034  -2.341  0.00  0.00    -0.273 OA
ATOM     21  C   LIG d   1       8.380   1.873  -4.083  0.00  0.00    -0.060 A 
ATOM     22  H   LIG d   1       6.938   1.223  -2.647  0.00  0.00     0.064 H 
ATOM     23  C   LIG d   1       8.796   1.833  -5.404  0.00  0.00    -0.061 A 
ATOM     24  H   LIG d   1       8.942   2.447  -3.361  0.00  0.00     0.062 H 
ATOM     25  H   LIG d   1       9.680   2.376  -5.706  0.00  0.00     0.062 H 
ATOM     26  H   LIG d   1       8.417   1.076  -7.364  0.00  0.00     0.062 H 
BRANCH  18  27
ATOM     27  C   LIG d   1       3.451  -1.414  -3.415  0.00  0.00     0.015 C 
ATOM     28  H   LIG d   1       2.571  -0.809  -3.191  0.00  0.00     0.033 H 
ATOM     29  H   LIG d   1       3.345  -1.857  -4.404  0.00  0.00     0.033 H 
ATOM     30  H   LIG d   1       3.544  -2.205  -2.671  0.00  0.00     0.033 H 
ENDBRANCH  18  27
ENDBRANCH   4  11
BRANCH   3  31
ATOM     31  C   LIG d   1       4.720  -1.874  -9.971  0.00  0.00    -0.049 C 
ATOM     32  H   LIG d   1       5.755  -2.113 -10.216  0.00  0.00     0.024 H 
ATOM     33  H   LIG d   1       4.108  -2.769 -10.071  0.00  0.00     0.024 H 
ATOM     34  H   LIG d   1       4.354  -1.105 -10.651  0.00  0.00     0.024 H 
ENDBRANCH   3  31
BRANCH   3  35
ATOM     35  C   LIG d   1       4.250  -2.505  -7.597  0.00  0.00    -0.049 C 
ATOM     36  H   LIG d   1       4.140  -3.424  -8.172  0.00  0.00     0.024 H 
ATOM     37  H   LIG d   1       5.024  -2.640  -6.841  0.00  0.00     0.024 H 
ATOM     38  H   LIG d   1       3.305  -2.267  -7.109  0.00  0.00     0.024 H 
ENDBRANCH   3  35
BRANCH   1  39
ATOM     39  C   LIG d   1       2.957   2.119  -8.512  0.00  0.00    -0.045 C 
ATOM     40  H   LIG d   1       2.074   1.831  -9.081  0.00  0.00     0.024 H 
ATOM     41  H   LIG d   1       2.681   2.279  -7.469  0.00  0.00     0.024 H 
ATOM     42  H   LIG d   1       3.371   3.039  -8.924  0.00  0.00     0.024 H 
ENDBRANCH   1  39
TORSDOF 5
ENDMDL
MODEL 9
REMARK VINA RESULT:      -5.7      2.276      5.214
REMARK  5 active torsions:
REMARK  status: ('A' for Active; 'I' for Inactive)
REMARK    1  A    between atoms: C_1  and  C_2 
REMARK    2  A    between atoms: C_4  and  C_22 
REMARK    3  A    between atoms: C_4  and  C_23 
REMARK    4  A    between atoms: C_5  and  C_10 
REMARK       I    between atoms: N_12  and  C_19 
REMARK    5  A    between atoms: C_19  and  C_21 
ROOT
ATOM      1  C   LIG d   1       3.749  -1.102 -10.081  0.00  0.00     0.112 C 
ATOM      2  C   LIG d   1       4.677  -0.132 -10.009  0.00  0.00     0.156 C 
ATOM      3  C   LIG d   1       4.403   1.115  -9.205  0.00  0.00     0.065 C 
ATOM      4  C   LIG d   1       3.419   0.775  -8.080  0.00  0.00     0.142 C 
ATOM      5  H   LIG d   1       3.111   1.690  -7.575  0.00  0.00     0.080 H 
ATOM      6  O   LIG d   1       2.274   0.133  -8.654  0.00  0.00    -0.455 OA
ATOM      7  C   LIG d   1       2.516  -0.965  -9.401  0.00  0.00     0.318 C 
ATOM      8  O   LIG d   1       1.673  -1.838  -9.489  0.00  0.00    -0.250 OA
ATOM      9  O   LIG d   1       5.852  -0.272 -10.656  0.00  0.00    -0.296 OA
ATOM     10  H   LIG d   1       4.062  -1.241  -9.141  0.00  0.00     0.049 H 
ENDROOT
BRANCH   4  11
ATOM     11  C   LIG d   1       4.076  -0.153  -7.091  0.00  0.00     0.019 A 
ATOM     12  C   LIG d   1       3.651  -0.393  -5.708  0.00  0.00     0.007 A 
ATOM     13  C   LIG d   1       4.556  -1.327  -5.176  0.00  0.00     0.057 A 
ATOM     14  C   LIG d   1       2.612   0.098  -4.916  0.00  0.00    -0.052 A 
ATOM     15  N   LIG d   1       5.465  -1.628  -6.176  0.00  0.00    -0.287 N 
ATOM     16  C   LIG d   1       4.407  -1.754  -3.864  0.00  0.00    -0.037 A 
ATOM     17  C   LIG d   1       5.154  -0.917  -7.311  0.00  0.00     0.020 A 
ATOM     18  C   LIG d   1       6.495  -2.488  -6.057  0.00  0.00     0.229 C 
ATOM     19  H   LIG d   1       5.700  -0.967  -8.243  0.00  0.00     0.082 H 
ATOM     20  O   LIG d   1       6.680  -3.071  -5.009  0.00  0.00    -0.273 OA
ATOM     21  C   LIG d   1       3.375  -1.261  -3.093  0.00  0.00    -0.060 A 
ATOM     22  H   LIG d   1       5.098  -2.472  -3.447  0.00  0.00     0.064 H 
ATOM     23  C   LIG d   1       2.481  -0.340  -3.616  0.00  0.00    -0.061 A 
ATOM     24  H   LIG d   1       3.263  -1.596  -2.072  0.00  0.00     0.062 H 
ATOM     25  H   LIG d   1       1.678   0.039  -3.001  0.00  0.00     0.062 H 
ATOM     26  H   LIG d   1       1.914   0.815  -5.320  0.00  0.00     0.062 H 
BRANCH  18  27
ATOM     27  C   LIG d   1       7.416  -2.729  -7.224  0.00  0.00     0.015 C 
ATOM     28  H   LIG d   1       7.971  -1.816  -7.443  0.00  0.00     0.033 H 
ATOM     29  H   LIG d   1       8.113  -3.529  -6.979  0.00  0.00     0.033 H 
ATOM     30  H   LIG d   1       6.829  -3.014  -8.098  0.00  0.00     0.033 H 
ENDBRANCH  18  27
ENDBRANCH   4  11
BRANCH   3  31
ATOM     31  C   LIG d   1       3.795   2.186 -10.112  0.00  0.00    -0.049 C 
ATOM     32  H   LIG d   1       4.581   2.858 -10.456  0.00  0.00     0.024 H 
ATOM     33  H   LIG d   1       3.323   1.711 -10.970  0.00  0.00     0.024 H 
ATOM     34  H   LIG d   1       3.050   2.754  -9.555  0.00  0.00     0.024 H 
ENDBRANCH   3  31
BRANCH   3  35
ATOM     35  C   LIG d   1       5.711   1.632  -8.602  0.00  0.00    -0.049 C 
ATOM     36  H   LIG d   1       6.509   0.915  -8.792  0.00  0.00     0.024 H 
ATOM     37  H   LIG d   1       5.967   2.590  -9.055  0.00  0.00     0.024 H 
ATOM     38  H   LIG d   1       5.588   1.762  -7.527  0.00  0.00     0.024 H 
ENDBRANCH   3  35
BRANCH   1  39
ATOM     39  C   LIG d   1       4.024  -2.343 -10.891  0.00  0.00    -0.045 C 
ATOM     40  H   LIG d   1       4.742  -2.969 -10.364  0.00  0.00     0.024 H 
ATOM     41  H   LIG d   1       3.095  -2.896 -11.034  0.00  0.00     0.024 H 
ATOM     42  H   LIG d   1       4.432  -2.060 -11.862  0.00  0.00     0.024 H 
ENDBRANCH   1  39
TORSDOF 5
ENDMDL
