MODEL 1
REMARK VINA RESULT:      -5.5      0.000      0.000
REMARK  4 active torsions:
REMARK  status: ('A' for Active; 'I' for Inactive)
REMARK    1  A    between atoms: CD1_1  and  CG_2 
REMARK    2  A    between atoms: CG_2  and  CD2_3 
REMARK    3  A    between atoms: CG_2  and  CB_4 
REMARK    4  A    between atoms: CB_4  and  CA_5 
REMARK       I    between atoms: CA_5  and  C_7 
REMARK       I    between atoms: CA_5  and  N_9 
REMARK       I    between atoms: N_9  and  C_10 
REMARK       I    between atoms: C_10  and  N_12 
ROOT
ATOM      1  CB  LEU d   1       2.669  -0.941  -3.082  0.00  0.00    -0.027 C 
ATOM      2  HB1 LEU d   1       2.355  -0.287  -2.270  0.00  0.00     0.029 H 
ATOM      3  HB2 LEU d   1       1.803  -1.471  -3.478  0.00  0.00     0.029 H 
ENDROOT
BRANCH   1   4
ATOM      4  CG  LEU d   1       3.691  -1.952  -2.559  0.00  0.00    -0.045 C 
ATOM      5  HG  LEU d   1       3.172  -2.757  -2.040  0.00  0.00     0.030 H 
BRANCH   4   6
ATOM      6  CD1 LEU d   1       4.484  -2.530  -3.732  0.00  0.00    -0.063 C 
ATOM      7 1HD1 LEU d   1       5.266  -1.829  -4.022  0.00  0.00     0.023 H 
ATOM      8 2HD1 LEU d   1       4.936  -3.477  -3.436  0.00  0.00     0.023 H 
ATOM      9 3HD1 LEU d   1       3.814  -2.696  -4.577  0.00  0.00     0.023 H 
ENDBRANCH   4   6
BRANCH   4  10
ATOM     10  CD2 LEU d   1       4.648  -1.254  -1.590  0.00  0.00    -0.063 C 
ATOM     11 1HD2 LEU d   1       5.616  -1.117  -2.070  0.00  0.00     0.023 H 
ATOM     12 2HD2 LEU d   1       4.239  -0.282  -1.313  0.00  0.00     0.023 H 
ATOM     13 3HD2 LEU d   1       4.768  -1.864  -0.695  0.00  0.00     0.023 H 
ENDBRANCH   4  10
ENDBRANCH   1   4
BRANCH   1  14
ATOM     14  CA  LEU d   1       3.305  -0.104  -4.194  0.00  0.00     0.064 C 
ATOM     15  HA  LEU d   1       4.345  -0.401  -4.324  0.00  0.00     0.056 H 
ATOM     16  C   LEU d   1       3.242   1.356  -3.823  0.00  0.00     0.062 C 
ATOM     17  O   LEU d   1       2.649   2.134  -4.531  0.00  0.00    -0.548 OA
ATOM     18  OXT LEU d   1       3.844   1.790  -2.705  0.00  0.00    -0.548 OA
ATOM     19  N   LEU d   1       2.576  -0.320  -5.447  0.00  0.00    -0.292 N 
ATOM     20  C   UNK d   0       3.193  -0.126  -6.628  0.00  0.00     0.297 C 
ATOM     21  H   LEU d   1       1.648  -0.605  -5.425  0.00  0.00     0.151 HD
ATOM     22  O   UNK d   0       4.356   0.230  -6.655  0.00  0.00    -0.253 OA
ATOM     23  N   UNK d   0       2.523  -0.325  -7.781  0.00  0.00    -0.313 N 
ATOM     24  H   UNK d   0       1.596  -0.610  -7.759  0.00  0.00     0.146 HD
ATOM     25  H   UNK d   0       2.968  -0.185  -8.631  0.00  0.00     0.146 HD
ENDBRANCH   1  14
TORSDOF 6
ENDMDL
MODEL 2
REMARK VINA RESULT:      -5.2      2.503      3.251
REMARK  4 active torsions:
REMARK  status: ('A' for Active; 'I' for Inactive)
REMARK    1  A    between atoms: CD1_1  and  CG_2 
REMARK    2  A    between atoms: CG_2  and  CD2_3 
REMARK    3  A    between atoms: CG_2  and  CB_4 
REMARK    4  A    between atoms: CB_4  and  CA_5 
REMARK       I    between atoms: CA_5  and  C_7 
REMARK       I    between atoms: CA_5  and  N_9 
REMARK       I    between atoms: N_9  and  C_10 
REMARK       I    between atoms: C_10  and  N_12 
ROOT
ATOM      1  CB  LEU d   1       3.538  -0.273  -3.922  0.00  0.00    -0.027 C 
ATOM      2  HB1 LEU d   1       3.739   0.729  -4.300  0.00  0.00     0.029 H 
ATOM      3  HB2 LEU d   1       2.553  -0.597  -4.257  0.00  0.00     0.029 H 
ENDROOT
BRANCH   1   4
ATOM      4  CG  LEU d   1       3.578  -0.259  -2.392  0.00  0.00    -0.045 C 
ATOM      5  HG  LEU d   1       2.561  -0.266  -2.002  0.00  0.00     0.030 H 
BRANCH   4   6
ATOM      6  CD1 LEU d   1       4.325  -1.496  -1.890  0.00  0.00    -0.063 C 
ATOM      7 1HD1 LEU d   1       3.636  -2.140  -1.345  0.00  0.00     0.023 H 
ATOM      8 2HD1 LEU d   1       4.738  -2.041  -2.739  0.00  0.00     0.023 H 
ATOM      9 3HD1 LEU d   1       5.135  -1.187  -1.229  0.00  0.00     0.023 H 
ENDBRANCH   4   6
BRANCH   4  10
ATOM     10  CD2 LEU d   1       4.299   1.003  -1.913  0.00  0.00    -0.063 C 
ATOM     11 1HD2 LEU d   1       3.570   1.789  -1.724  0.00  0.00     0.023 H 
ATOM     12 2HD2 LEU d   1       4.844   0.784  -0.995  0.00  0.00     0.023 H 
ATOM     13 3HD2 LEU d   1       5.000   1.334  -2.680  0.00  0.00     0.023 H 
ENDBRANCH   4  10
ENDBRANCH   1   4
BRANCH   1  14
ATOM     14  CA  LEU d   1       4.600  -1.239  -4.450  0.00  0.00     0.064 C 
ATOM     15  HA  LEU d   1       5.155  -1.663  -3.613  0.00  0.00     0.056 H 
ATOM     16  C   LEU d   1       5.548  -0.498  -5.357  0.00  0.00     0.062 C 
ATOM     17  O   LEU d   1       5.668  -0.834  -6.510  0.00  0.00    -0.548 OA
ATOM     18  OXT LEU d   1       6.260   0.538  -4.882  0.00  0.00    -0.548 OA
ATOM     19  N   LEU d   1       3.950  -2.317  -5.200  0.00  0.00    -0.292 N 
ATOM     20  C   UNK d   0       4.559  -3.512  -5.327  0.00  0.00     0.297 C 
ATOM     21  H   LEU d   1       3.081  -2.170  -5.605  0.00  0.00     0.151 HD
ATOM     22  O   UNK d   0       5.648  -3.696  -4.820  0.00  0.00    -0.253 OA
ATOM     23  N   UNK d   0       3.961  -4.504  -6.018  0.00  0.00    -0.313 N 
ATOM     24  H   UNK d   0       3.092  -4.357  -6.422  0.00  0.00     0.146 HD
ATOM     25  H   UNK d   0       4.399  -5.363  -6.109  0.00  0.00     0.146 HD
ENDBRANCH   1  14
TORSDOF 6
ENDMDL
MODEL 3
REMARK VINA RESULT:      -5.1      3.504      4.411
REMARK  4 active torsions:
REMARK  status: ('A' for Active; 'I' for Inactive)
REMARK    1  A    between atoms: CD1_1  and  CG_2 
REMARK    2  A    between atoms: CG_2  and  CD2_3 
REMARK    3  A    between atoms: CG_2  and  CB_4 
REMARK    4  A    between atoms: CB_4  and  CA_5 
REMARK       I    between atoms: CA_5  and  C_7 
REMARK       I    between atoms: CA_5  and  N_9 
REMARK       I    between atoms: N_9  and  C_10 
REMARK       I    between atoms: C_10  and  N_12 
ROOT
ATOM      1  CB  LEU d   1       5.654  -1.396  -2.989  0.00  0.00    -0.027 C 
ATOM      2  HB1 LEU d   1       5.306  -2.201  -3.635  0.00  0.00     0.029 H 
ATOM      3  HB2 LEU d   1       6.507  -1.741  -2.405  0.00  0.00     0.029 H 
ENDROOT
BRANCH   1   4
ATOM      4  CG  LEU d   1       4.526  -0.974  -2.046  0.00  0.00    -0.045 C 
ATOM      5  HG  LEU d   1       4.659  -1.460  -1.080  0.00  0.00     0.030 H 
BRANCH   4   6
ATOM      6  CD1 LEU d   1       4.557   0.545  -1.862  0.00  0.00    -0.063 C 
ATOM      7 1HD1 LEU d   1       3.700   0.856  -1.265  0.00  0.00     0.023 H 
ATOM      8 2HD1 LEU d   1       5.477   0.831  -1.353  0.00  0.00     0.023 H 
ATOM      9 3HD1 LEU d   1       4.515   1.030  -2.837  0.00  0.00     0.023 H 
ENDBRANCH   4   6
BRANCH   4  10
ATOM     10  CD2 LEU d   1       3.180  -1.388  -2.644  0.00  0.00    -0.063 C 
ATOM     11 1HD2 LEU d   1       3.279  -1.494  -3.724  0.00  0.00     0.023 H 
ATOM     12 2HD2 LEU d   1       2.868  -2.339  -2.213  0.00  0.00     0.023 H 
ATOM     13 3HD2 LEU d   1       2.433  -0.627  -2.421  0.00  0.00     0.023 H 
ENDBRANCH   4  10
ENDBRANCH   1   4
BRANCH   1  14
ATOM     14  CA  LEU d   1       6.075  -0.200  -3.847  0.00  0.00     0.064 C 
ATOM     15  HA  LEU d   1       5.515   0.683  -3.539  0.00  0.00     0.056 H 
ATOM     16  C   LEU d   1       5.789  -0.497  -5.297  0.00  0.00     0.062 C 
ATOM     17  O   LEU d   1       6.689  -0.502  -6.101  0.00  0.00    -0.548 OA
ATOM     18  OXT LEU d   1       4.532  -0.754  -5.694  0.00  0.00    -0.548 OA
ATOM     19  N   LEU d   1       7.509   0.046  -3.673  0.00  0.00    -0.292 N 
ATOM     20  C   UNK d   0       8.013   1.276  -3.890  0.00  0.00     0.297 C 
ATOM     21  H   LEU d   1       8.095  -0.678  -3.401  0.00  0.00     0.151 HD
ATOM     22  O   UNK d   0       7.278   2.183  -4.231  0.00  0.00    -0.253 OA
ATOM     23  N   UNK d   0       9.332   1.503  -3.730  0.00  0.00    -0.313 N 
ATOM     24  H   UNK d   0       9.918   0.779  -3.458  0.00  0.00     0.146 HD
ATOM     25  H   UNK d   0       9.694   2.388  -3.887  0.00  0.00     0.146 HD
ENDBRANCH   1  14
TORSDOF 6
ENDMDL
MODEL 4
REMARK VINA RESULT:      -5.0      1.824      2.287
REMARK  4 active torsions:
REMARK  status: ('A' for Active; 'I' for Inactive)
REMARK    1  A    between atoms: CD1_1  and  CG_2 
REMARK    2  A    between atoms: CG_2  and  CD2_3 
REMARK    3  A    between atoms: CG_2  and  CB_4 
REMARK    4  A    between atoms: CB_4  and  CA_5 
REMARK       I    between atoms: CA_5  and  C_7 
REMARK       I    between atoms: CA_5  and  N_9 
REMARK       I    between atoms: N_9  and  C_10 
REMARK       I    between atoms: C_10  and  N_12 
ROOT
ATOM      1  CB  LEU d   1       2.733  -0.555  -3.339  0.00  0.00    -0.027 C 
ATOM      2  HB1 LEU d   1       1.887   0.132  -3.357  0.00  0.00     0.029 H 
ATOM      3  HB2 LEU d   1       2.368  -1.581  -3.313  0.00  0.00     0.029 H 
ENDROOT
BRANCH   1   4
ATOM      4  CG  LEU d   1       3.585  -0.284  -2.097  0.00  0.00    -0.045 C 
ATOM      5  HG  LEU d   1       2.936  -0.171  -1.229  0.00  0.00     0.030 H 
BRANCH   4   6
ATOM      6  CD1 LEU d   1       4.541  -1.457  -1.869  0.00  0.00    -0.063 C 
ATOM      7 1HD1 LEU d   1       4.355  -2.227  -2.617  0.00  0.00     0.023 H 
ATOM      8 2HD1 LEU d   1       5.571  -1.108  -1.953  0.00  0.00     0.023 H 
ATOM      9 3HD1 LEU d   1       4.378  -1.870  -0.874  0.00  0.00     0.023 H 
ENDBRANCH   4   6
BRANCH   4  10
ATOM     10  CD2 LEU d   1       4.391   1.000  -2.302  0.00  0.00    -0.063 C 
ATOM     11 1HD2 LEU d   1       5.093   0.861  -3.123  0.00  0.00     0.023 H 
ATOM     12 2HD2 LEU d   1       3.713   1.820  -2.538  0.00  0.00     0.023 H 
ATOM     13 3HD2 LEU d   1       4.939   1.235  -1.389  0.00  0.00     0.023 H 
ENDBRANCH   4  10
ENDBRANCH   1   4
BRANCH   1  14
ATOM     14  CA  LEU d   1       3.583  -0.347  -4.594  0.00  0.00     0.064 C 
ATOM     15  HA  LEU d   1       4.527   0.123  -4.320  0.00  0.00     0.056 H 
ATOM     16  C   LEU d   1       2.842   0.539  -5.562  0.00  0.00     0.062 C 
ATOM     17  O   LEU d   1       2.564   0.131  -6.664  0.00  0.00    -0.548 OA
ATOM     18  OXT LEU d   1       2.491   1.784  -5.199  0.00  0.00    -0.548 OA
ATOM     19  N   LEU d   1       3.848  -1.644  -5.225  0.00  0.00    -0.292 N 
ATOM     20  C   UNK d   0       4.935  -1.804  -6.004  0.00  0.00     0.297 C 
ATOM     21  H   LEU d   1       3.240  -2.386  -5.080  0.00  0.00     0.151 HD
ATOM     22  O   UNK d   0       5.696  -0.874  -6.184  0.00  0.00    -0.253 OA
ATOM     23  N   UNK d   0       5.179  -2.997  -6.584  0.00  0.00    -0.313 N 
ATOM     24  H   UNK d   0       4.571  -3.739  -6.439  0.00  0.00     0.146 HD
ATOM     25  H   UNK d   0       5.961  -3.112  -7.144  0.00  0.00     0.146 HD
ENDBRANCH   1  14
TORSDOF 6
ENDMDL
MODEL 5
REMARK VINA RESULT:      -4.8      2.664      3.512
REMARK  4 active torsions:
REMARK  status: ('A' for Active; 'I' for Inactive)
REMARK    1  A    between atoms: CD1_1  and  CG_2 
REMARK    2  A    between atoms: CG_2  and  CD2_3 
REMARK    3  A    between atoms: CG_2  and  CB_4 
REMARK    4  A    between atoms: CB_4  and  CA_5 
REMARK       I    between atoms: CA_5  and  C_7 
REMARK       I    between atoms: CA_5  and  N_9 
REMARK       I    between atoms: N_9  and  C_10 
REMARK       I    between atoms: C_10  and  N_12 
ROOT
ATOM      1  CB  LEU d   1       5.908   0.473  -2.916  0.00  0.00    -0.027 C 
ATOM      2  HB1 LEU d   1       6.843   0.247  -2.404  0.00  0.00     0.029 H 
ATOM      3  HB2 LEU d   1       5.946   1.485  -3.316  0.00  0.00     0.029 H 
ENDROOT
BRANCH   1   4
ATOM      4  CG  LEU d   1       4.744   0.357  -1.929  0.00  0.00    -0.045 C 
ATOM      5  HG  LEU d   1       5.089   0.615  -0.929  0.00  0.00     0.030 H 
BRANCH   4   6
ATOM      6  CD1 LEU d   1       3.625   1.314  -2.346  0.00  0.00    -0.063 C 
ATOM      7 1HD1 LEU d   1       3.773   2.279  -1.861  0.00  0.00     0.023 H 
ATOM      8 2HD1 LEU d   1       3.642   1.444  -3.428  0.00  0.00     0.023 H 
ATOM      9 3HD1 LEU d   1       2.662   0.900  -2.045  0.00  0.00     0.023 H 
ENDBRANCH   4   6
BRANCH   4  10
ATOM     10  CD2 LEU d   1       4.215  -1.079  -1.932  0.00  0.00    -0.063 C 
ATOM     11 1HD2 LEU d   1       3.337  -1.144  -1.291  0.00  0.00     0.023 H 
ATOM     12 2HD2 LEU d   1       3.945  -1.364  -2.948  0.00  0.00     0.023 H 
ATOM     13 3HD2 LEU d   1       4.988  -1.752  -1.560  0.00  0.00     0.023 H 
ENDBRANCH   4  10
ENDBRANCH   1   4
BRANCH   1  14
ATOM     14  CA  LEU d   1       5.704  -0.520  -4.063  0.00  0.00     0.064 C 
ATOM     15  HA  LEU d   1       4.851  -1.162  -3.840  0.00  0.00     0.056 H 
ATOM     16  C   LEU d   1       6.941  -1.365  -4.223  0.00  0.00     0.062 C 
ATOM     17  O   LEU d   1       7.549  -1.354  -5.266  0.00  0.00    -0.548 OA
ATOM     18  OXT LEU d   1       7.368  -2.129  -3.204  0.00  0.00    -0.548 OA
ATOM     19  N   LEU d   1       5.450   0.214  -5.305  0.00  0.00    -0.292 N 
ATOM     20  C   UNK d   0       4.764  -0.371  -6.306  0.00  0.00     0.297 C 
ATOM     21  H   LEU d   1       5.776   1.122  -5.407  0.00  0.00     0.151 HD
ATOM     22  O   UNK d   0       4.356  -1.509  -6.179  0.00  0.00    -0.253 OA
ATOM     23  N   UNK d   0       4.531   0.304  -7.449  0.00  0.00    -0.313 N 
ATOM     24  H   UNK d   0       4.856   1.212  -7.551  0.00  0.00     0.146 HD
ATOM     25  H   UNK d   0       4.038  -0.117  -8.169  0.00  0.00     0.146 HD
ENDBRANCH   1  14
TORSDOF 6
ENDMDL
MODEL 6
REMARK VINA RESULT:      -4.7      2.355      3.055
REMARK  4 active torsions:
REMARK  status: ('A' for Active; 'I' for Inactive)
REMARK    1  A    between atoms: CD1_1  and  CG_2 
REMARK    2  A    between atoms: CG_2  and  CD2_3 
REMARK    3  A    between atoms: CG_2  and  CB_4 
REMARK    4  A    between atoms: CB_4  and  CA_5 
REMARK       I    between atoms: CA_5  and  C_7 
REMARK       I    between atoms: CA_5  and  N_9 
REMARK       I    between atoms: N_9  and  C_10 
REMARK       I    between atoms: C_10  and  N_12 
ROOT
ATOM      1  CB  LEU d   1       5.028  -0.423  -3.918  0.00  0.00    -0.027 C 
ATOM      2  HB1 LEU d   1       5.789  -1.186  -3.755  0.00  0.00     0.029 H 
ATOM      3  HB2 LEU d   1       5.509   0.544  -4.065  0.00  0.00     0.029 H 
ENDROOT
BRANCH   1   4
ATOM      4  CG  LEU d   1       4.104  -0.354  -2.701  0.00  0.00    -0.045 C 
ATOM      5  HG  LEU d   1       3.068  -0.307  -3.034  0.00  0.00     0.030 H 
BRANCH   4   6
ATOM      6  CD1 LEU d   1       4.306  -1.600  -1.836  0.00  0.00    -0.063 C 
ATOM      7 1HD1 LEU d   1       4.768  -2.386  -2.434  0.00  0.00     0.023 H 
ATOM      8 2HD1 LEU d   1       4.952  -1.357  -0.992  0.00  0.00     0.023 H 
ATOM      9 3HD1 LEU d   1       3.340  -1.946  -1.466  0.00  0.00     0.023 H 
ENDBRANCH   4   6
BRANCH   4  10
ATOM     10  CD2 LEU d   1       4.434   0.895  -1.881  0.00  0.00    -0.063 C 
ATOM     11 1HD2 LEU d   1       3.566   1.181  -1.289  0.00  0.00     0.023 H 
ATOM     12 2HD2 LEU d   1       5.273   0.683  -1.218  0.00  0.00     0.023 H 
ATOM     13 3HD2 LEU d   1       4.701   1.711  -2.553  0.00  0.00     0.023 H 
ENDBRANCH   4  10
ENDBRANCH   1   4
BRANCH   1  14
ATOM     14  CA  LEU d   1       4.209  -0.778  -5.161  0.00  0.00     0.064 C 
ATOM     15  HA  LEU d   1       3.147  -0.743  -4.918  0.00  0.00     0.056 H 
ATOM     16  C   LEU d   1       4.572  -2.166  -5.623  0.00  0.00     0.062 C 
ATOM     17  O   LEU d   1       5.026  -2.334  -6.729  0.00  0.00    -0.548 OA
ATOM     18  OXT LEU d   1       4.392  -3.215  -4.805  0.00  0.00    -0.548 OA
ATOM     19  N   LEU d   1       4.498   0.183  -6.228  0.00  0.00    -0.292 N 
ATOM     20  C   UNK d   0       3.590   0.408  -7.197  0.00  0.00     0.297 C 
ATOM     21  H   LEU d   1       5.344   0.658  -6.236  0.00  0.00     0.151 HD
ATOM     22  O   UNK d   0       2.529  -0.187  -7.186  0.00  0.00    -0.253 OA
ATOM     23  N   UNK d   0       3.855   1.292  -8.179  0.00  0.00    -0.313 N 
ATOM     24  H   UNK d   0       4.701   1.768  -8.187  0.00  0.00     0.146 HD
ATOM     25  H   UNK d   0       3.201   1.454  -8.876  0.00  0.00     0.146 HD
ENDBRANCH   1  14
TORSDOF 6
ENDMDL
MODEL 7
REMARK VINA RESULT:      -4.5      1.851      2.539
REMARK  4 active torsions:
REMARK  status: ('A' for Active; 'I' for Inactive)
REMARK    1  A    between atoms: CD1_1  and  CG_2 
REMARK    2  A    between atoms: CG_2  and  CD2_3 
REMARK    3  A    between atoms: CG_2  and  CB_4 
REMARK    4  A    between atoms: CB_4  and  CA_5 
REMARK       I    between atoms: CA_5  and  C_7 
REMARK       I    between atoms: CA_5  and  N_9 
REMARK       I    between atoms: N_9  and  C_10 
REMARK       I    between atoms: C_10  and  N_12 
ROOT
ATOM      1  CB  LEU d   1       5.179  -1.404  -2.946  0.00  0.00    -0.027 C 
ATOM      2  HB1 LEU d   1       5.834  -1.091  -2.134  0.00  0.00     0.029 H 
ATOM      3  HB2 LEU d   1       4.459  -2.131  -2.572  0.00  0.00     0.029 H 
ENDROOT
BRANCH   1   4
ATOM      4  CG  LEU d   1       6.014  -2.037  -4.061  0.00  0.00    -0.045 C 
ATOM      5  HG  LEU d   1       6.113  -1.333  -4.885  0.00  0.00     0.030 H 
BRANCH   4   6
ATOM      6  CD1 LEU d   1       7.401  -2.390  -3.522  0.00  0.00    -0.063 C 
ATOM      7 1HD1 LEU d   1       7.312  -3.181  -2.777  0.00  0.00     0.023 H 
ATOM      8 2HD1 LEU d   1       8.035  -2.731  -4.341  0.00  0.00     0.023 H 
ATOM      9 3HD1 LEU d   1       7.847  -1.507  -3.062  0.00  0.00     0.023 H 
ENDBRANCH   4   6
BRANCH   4  10
ATOM     10  CD2 LEU d   1       5.320  -3.308  -4.556  0.00  0.00    -0.063 C 
ATOM     11 1HD2 LEU d   1       4.414  -3.041  -5.098  0.00  0.00     0.023 H 
ATOM     12 2HD2 LEU d   1       5.992  -3.854  -5.218  0.00  0.00     0.023 H 
ATOM     13 3HD2 LEU d   1       5.062  -3.937  -3.704  0.00  0.00     0.023 H 
ENDBRANCH   4  10
ENDBRANCH   1   4
BRANCH   1  14
ATOM     14  CA  LEU d   1       4.434  -0.186  -3.497  0.00  0.00     0.064 C 
ATOM     15  HA  LEU d   1       4.881   0.116  -4.444  0.00  0.00     0.056 H 
ATOM     16  C   LEU d   1       4.529   0.950  -2.511  0.00  0.00     0.062 C 
ATOM     17  O   LEU d   1       3.524   1.422  -2.035  0.00  0.00    -0.548 OA
ATOM     18  OXT LEU d   1       5.731   1.436  -2.161  0.00  0.00    -0.548 OA
ATOM     19  N   LEU d   1       3.025  -0.531  -3.710  0.00  0.00    -0.292 N 
ATOM     20  C   UNK d   0       2.296   0.147  -4.617  0.00  0.00     0.297 C 
ATOM     21  H   LEU d   1       2.619  -1.247  -3.198  0.00  0.00     0.151 HD
ATOM     22  O   UNK d   0       2.806   1.045  -5.259  0.00  0.00    -0.253 OA
ATOM     23  N   UNK d   0       1.000  -0.169  -4.814  0.00  0.00    -0.313 N 
ATOM     24  H   UNK d   0       0.594  -0.886  -4.302  0.00  0.00     0.146 HD
ATOM     25  H   UNK d   0       0.476   0.318  -5.467  0.00  0.00     0.146 HD
ENDBRANCH   1  14
TORSDOF 6
ENDMDL
MODEL 8
REMARK VINA RESULT:      -4.3      3.337      3.979
REMARK  4 active torsions:
REMARK  status: ('A' for Active; 'I' for Inactive)
REMARK    1  A    between atoms: CD1_1  and  CG_2 
REMARK    2  A    between atoms: CG_2  and  CD2_3 
REMARK    3  A    between atoms: CG_2  and  CB_4 
REMARK    4  A    between atoms: CB_4  and  CA_5 
REMARK       I    between atoms: CA_5  and  C_7 
REMARK       I    between atoms: CA_5  and  N_9 
REMARK       I    between atoms: N_9  and  C_10 
REMARK       I    between atoms: C_10  and  N_12 
ROOT
ATOM      1  CB  LEU d   1       4.492  -0.133  -3.938  0.00  0.00    -0.027 C 
ATOM      2  HB1 LEU d   1       4.495   0.901  -4.281  0.00  0.00     0.029 H 
ATOM      3  HB2 LEU d   1       3.881  -0.737  -4.608  0.00  0.00     0.029 H 
ENDROOT
BRANCH   1   4
ATOM      4  CG  LEU d   1       3.916  -0.200  -2.522  0.00  0.00    -0.045 C 
ATOM      5  HG  LEU d   1       2.833  -0.093  -2.565  0.00  0.00     0.030 H 
BRANCH   4   6
ATOM      6  CD1 LEU d   1       4.271  -1.548  -1.891  0.00  0.00    -0.063 C 
ATOM      7 1HD1 LEU d   1       4.013  -2.351  -2.581  0.00  0.00     0.023 H 
ATOM      8 2HD1 LEU d   1       5.340  -1.581  -1.678  0.00  0.00     0.023 H 
ATOM      9 3HD1 LEU d   1       3.712  -1.673  -0.962  0.00  0.00     0.023 H 
ENDBRANCH   4   6
BRANCH   4  10
ATOM     10  CD2 LEU d   1       4.508   0.931  -1.678  0.00  0.00    -0.063 C 
ATOM     11 1HD2 LEU d   1       5.587   0.803  -1.605  0.00  0.00     0.023 H 
ATOM     12 2HD2 LEU d   1       4.286   1.888  -2.147  0.00  0.00     0.023 H 
ATOM     13 3HD2 LEU d   1       4.070   0.906  -0.680  0.00  0.00     0.023 H 
ENDBRANCH   4  10
ENDBRANCH   1   4
BRANCH   1  14
ATOM     14  CA  LEU d   1       5.925  -0.671  -3.932  0.00  0.00     0.064 C 
ATOM     15  HA  LEU d   1       6.242  -0.848  -2.904  0.00  0.00     0.056 H 
ATOM     16  C   LEU d   1       6.843   0.336  -4.574  0.00  0.00     0.062 C 
ATOM     17  O   LEU d   1       7.476   0.035  -5.558  0.00  0.00    -0.548 OA
ATOM     18  OXT LEU d   1       6.957   1.568  -4.054  0.00  0.00    -0.548 OA
ATOM     19  N   LEU d   1       5.978  -1.929  -4.682  0.00  0.00    -0.292 N 
ATOM     20  C   UNK d   0       6.942  -2.832  -4.418  0.00  0.00     0.297 C 
ATOM     21  H   LEU d   1       5.317  -2.111  -5.369  0.00  0.00     0.151 HD
ATOM     22  O   UNK d   0       7.768  -2.603  -3.556  0.00  0.00    -0.253 OA
ATOM     23  N   UNK d   0       6.991  -3.989  -5.108  0.00  0.00    -0.313 N 
ATOM     24  H   UNK d   0       6.331  -4.171  -5.795  0.00  0.00     0.146 HD
ATOM     25  H   UNK d   0       7.684  -4.638  -4.917  0.00  0.00     0.146 HD
ENDBRANCH   1  14
TORSDOF 6
ENDMDL
MODEL 9
REMARK VINA RESULT:      -4.2      2.080      4.856
REMARK  4 active torsions:
REMARK  status: ('A' for Active; 'I' for Inactive)
REMARK    1  A    between atoms: CD1_1  and  CG_2 
REMARK    2  A    between atoms: CG_2  and  CD2_3 
REMARK    3  A    between atoms: CG_2  and  CB_4 
REMARK    4  A    between atoms: CB_4  and  CA_5 
REMARK       I    between atoms: CA_5  and  C_7 
REMARK       I    between atoms: CA_5  and  N_9 
REMARK       I    between atoms: N_9  and  C_10 
REMARK       I    between atoms: C_10  and  N_12 
ROOT
ATOM      1  CB  LEU d   1       3.570  -0.798  -8.139  0.00  0.00    -0.027 C 
ATOM      2  HB1 LEU d   1       4.484  -1.256  -8.518  0.00  0.00     0.029 H 
ATOM      3  HB2 LEU d   1       2.828  -1.572  -7.948  0.00  0.00     0.029 H 
ENDROOT
BRANCH   1   4
ATOM      4  CG  LEU d   1       3.025   0.188  -9.175  0.00  0.00    -0.045 C 
ATOM      5  HG  LEU d   1       3.747   0.303  -9.982  0.00  0.00     0.030 H 
BRANCH   4   6
ATOM      6  CD1 LEU d   1       1.707  -0.344  -9.740  0.00  0.00    -0.063 C 
ATOM      7 1HD1 LEU d   1       0.951  -0.348  -8.956  0.00  0.00     0.023 H 
ATOM      8 2HD1 LEU d   1       1.378   0.296 -10.560  0.00  0.00     0.023 H 
ATOM      9 3HD1 LEU d   1       1.853  -1.360 -10.109  0.00  0.00     0.023 H 
ENDBRANCH   4   6
BRANCH   4  10
ATOM     10  CD2 LEU d   1       2.785   1.545  -8.508  0.00  0.00    -0.063 C 
ATOM     11 1HD2 LEU d   1       1.718   1.763  -8.503  0.00  0.00     0.023 H 
ATOM     12 2HD2 LEU d   1       3.156   1.517  -7.484  0.00  0.00     0.023 H 
ATOM     13 3HD2 LEU d   1       3.313   2.320  -9.063  0.00  0.00     0.023 H 
ENDBRANCH   4  10
ENDBRANCH   1   4
BRANCH   1  14
ATOM     14  CA  LEU d   1       3.877  -0.053  -6.838  0.00  0.00     0.064 C 
ATOM     15  HA  LEU d   1       3.469   0.957  -6.893  0.00  0.00     0.056 H 
ATOM     16  C   LEU d   1       5.368   0.017  -6.638  0.00  0.00     0.062 C 
ATOM     17  O   LEU d   1       5.870  -0.476  -5.657  0.00  0.00    -0.548 OA
ATOM     18  OXT LEU d   1       6.140   0.629  -7.551  0.00  0.00    -0.548 OA
ATOM     19  N   LEU d   1       3.266  -0.765  -5.712  0.00  0.00    -0.292 N 
ATOM     20  C   UNK d   0       2.954  -0.100  -4.583  0.00  0.00     0.297 C 
ATOM     21  H   LEU d   1       3.087  -1.716  -5.780  0.00  0.00     0.151 HD
ATOM     22  O   UNK d   0       3.178   1.093  -4.499  0.00  0.00    -0.253 OA
ATOM     23  N   UNK d   0       2.392  -0.754  -3.547  0.00  0.00    -0.313 N 
ATOM     24  H   UNK d   0       2.213  -1.705  -3.615  0.00  0.00     0.146 HD
ATOM     25  H   UNK d   0       2.167  -0.275  -2.735  0.00  0.00     0.146 HD
ENDBRANCH   1  14
TORSDOF 6
ENDMDL
MODEL 10
REMARK VINA RESULT:      -4.2      9.913     11.125
REMARK  4 active torsions:
REMARK  status: ('A' for Active; 'I' for Inactive)
REMARK    1  A    between atoms: CD1_1  and  CG_2 
REMARK    2  A    between atoms: CG_2  and  CD2_3 
REMARK    3  A    between atoms: CG_2  and  CB_4 
REMARK    4  A    between atoms: CB_4  and  CA_5 
REMARK       I    between atoms: CA_5  and  C_7 
REMARK       I    between atoms: CA_5  and  N_9 
REMARK       I    between atoms: N_9  and  C_10 
REMARK       I    between atoms: C_10  and  N_12 
ROOT
ATOM      1  CB  LEU d   1      10.746   7.436  -3.180  0.00  0.00    -0.027 C 
ATOM      2  HB1 LEU d   1      11.285   7.995  -3.945  0.00  0.00     0.029 H 
ATOM      3  HB2 LEU d   1      11.416   6.711  -2.720  0.00  0.00     0.029 H 
ENDROOT
BRANCH   1   4
ATOM      4  CG  LEU d   1       9.563   6.705  -3.819  0.00  0.00    -0.045 C 
ATOM      5  HG  LEU d   1       8.644   6.983  -3.306  0.00  0.00     0.030 H 
BRANCH   4   6
ATOM      6  CD1 LEU d   1       9.461   7.094  -5.295  0.00  0.00    -0.063 C 
ATOM      7 1HD1 LEU d   1      10.423   6.935  -5.780  0.00  0.00     0.023 H 
ATOM      8 2HD1 LEU d   1       8.702   6.480  -5.782  0.00  0.00     0.023 H 
ATOM      9 3HD1 LEU d   1       9.183   8.146  -5.375  0.00  0.00     0.023 H 
ENDBRANCH   4   6
BRANCH   4  10
ATOM     10  CD2 LEU d   1       9.776   5.194  -3.703  0.00  0.00    -0.063 C 
ATOM     11 1HD2 LEU d   1       8.820   4.706  -3.520  0.00  0.00     0.023 H 
ATOM     12 2HD2 LEU d   1      10.206   4.816  -4.629  0.00  0.00     0.023 H 
ATOM     13 3HD2 LEU d   1      10.455   4.986  -2.876  0.00  0.00     0.023 H 
ENDBRANCH   4  10
ENDBRANCH   1   4
BRANCH   1  14
ATOM     14  CA  LEU d   1      10.230   8.403  -2.112  0.00  0.00     0.064 C 
ATOM     15  HA  LEU d   1      11.073   8.925  -1.658  0.00  0.00     0.056 H 
ATOM     16  C   LEU d   1       9.487   7.631  -1.052  0.00  0.00     0.062 C 
ATOM     17  O   LEU d   1       8.324   7.870  -0.836  0.00  0.00    -0.548 OA
ATOM     18  OXT LEU d   1      10.119   6.678  -0.349  0.00  0.00    -0.548 OA
ATOM     19  N   LEU d   1       9.327   9.377  -2.730  0.00  0.00    -0.292 N 
ATOM     20  C   UNK d   0       9.147  10.585  -2.160  0.00  0.00     0.297 C 
ATOM     21  H   LEU d   1       8.859   9.153  -3.549  0.00  0.00     0.151 HD
ATOM     22  O   UNK d   0       9.733  10.866  -1.133  0.00  0.00    -0.253 OA
ATOM     23  N   UNK d   0       8.316  11.482  -2.728  0.00  0.00    -0.313 N 
ATOM     24  H   UNK d   0       7.848  11.257  -3.548  0.00  0.00     0.146 HD
ATOM     25  H   UNK d   0       8.186  12.350  -2.318  0.00  0.00     0.146 HD
ENDBRANCH   1  14
TORSDOF 6
ENDMDL
