MODEL 1
REMARK VINA RESULT:      -5.5      0.000      0.000
REMARK  8 active torsions:
REMARK  status: ('A' for Active; 'I' for Inactive)
REMARK    1  A    between atoms: C_1  and  C_2 
REMARK    2  A    between atoms: C_7  and  N_9 
REMARK    3  A    between atoms: N_9  and  C_10 
REMARK    4  A    between atoms: C_12  and  C_33 
REMARK    5  A    between atoms: C_15  and  O_32 
REMARK    6  A    between atoms: C_17  and  C_21 
REMARK    7  A    between atoms: C_21  and  C_23 
REMARK    8  A    between atoms: C_21  and  C_24 
REMARK       I    between atoms: C_24  and  N_26 
ROOT
ATOM      1  C   LIG d   1       7.120   0.585  -3.953  0.00  0.00     0.005 C 
ATOM      2  H   LIG d   1       7.676  -0.286  -3.605  0.00  0.00     0.036 H 
ATOM      3  C   LIG d   1       8.089   1.719  -4.249  0.00  0.00     0.057 A 
ATOM      4  C   LIG d   1       8.452   1.990  -5.528  0.00  0.00     0.015 A 
ATOM      5  S   LIG d   1       9.569   3.353  -5.337  0.00  0.00    -0.057 SA
ATOM      6  C   LIG d   1       9.474   3.465  -3.604  0.00  0.00     0.158 A 
ATOM      7  N   LIG d   1       8.633   2.495  -3.311  0.00  0.00    -0.229 NA
ATOM      8  C   LIG d   1       8.005   1.297  -6.766  0.00  0.00    -0.014 C 
ATOM      9  C   LIG d   1       7.327  -0.033  -6.381  0.00  0.00    -0.022 C 
ATOM     10  C   LIG d   1       6.351   0.222  -5.230  0.00  0.00    -0.001 C 
ATOM     11  H   LIG d   1       5.674   1.033  -5.498  0.00  0.00     0.034 H 
ATOM     12  C   LIG d   1       5.542  -1.046  -4.935  0.00  0.00     0.063 C 
ATOM     13  H   LIG d   1       6.219  -1.839  -4.618  0.00  0.00     0.060 H 
ATOM     14  C   LIG d   1       4.784  -1.496  -6.182  0.00  0.00    -0.004 C 
ATOM     15  H   LIG d   1       4.205  -2.391  -5.955  0.00  0.00     0.033 H 
ATOM     16  C   LIG d   1       5.810  -1.824  -7.274  0.00  0.00    -0.047 C 
ATOM     17  C   LIG d   1       6.573  -0.544  -7.612  0.00  0.00    -0.047 C 
ATOM     18  H   LIG d   1       8.867   1.095  -7.402  0.00  0.00     0.032 H 
ATOM     19  H   LIG d   1       7.294   1.927  -7.301  0.00  0.00     0.032 H 
ATOM     20  H   LIG d   1       5.286  -2.182  -8.159  0.00  0.00     0.027 H 
ATOM     21  H   LIG d   1       6.509  -2.586  -6.930  0.00  0.00     0.027 H 
ATOM     22  H   LIG d   1       5.869   0.217  -7.946  0.00  0.00     0.027 H 
ATOM     23  H   LIG d   1       7.285  -0.753  -8.411  0.00  0.00     0.027 H 
ENDROOT
BRANCH  14  24
ATOM     24  C   LIG d   1       3.846  -0.378  -6.643  0.00  0.00     0.038 C 
ATOM     25  H   LIG d   1       4.392   0.565  -6.676  0.00  0.00     0.040 H 
BRANCH  24  26
ATOM     26  C   LIG d   1       2.678  -0.255  -5.662  0.00  0.00    -0.054 C 
ATOM     27  H   LIG d   1       2.955  -0.707  -4.710  0.00  0.00     0.024 H 
ATOM     28  H   LIG d   1       2.441   0.798  -5.509  0.00  0.00     0.024 H 
ATOM     29  H   LIG d   1       1.806  -0.769  -6.069  0.00  0.00     0.024 H 
ENDBRANCH  24  26
BRANCH  24  30
ATOM     30  C   LIG d   1       3.317  -0.701  -8.017  0.00  0.00     0.219 C 
ATOM     31  O   LIG d   1       2.995  -1.838  -8.290  0.00  0.00    -0.275 OA
ATOM     32  N   LIG d   1       3.200   0.273  -8.940  0.00  0.00    -0.297 N 
ATOM     33  C   LIG d   1       2.793  -0.036 -10.319  0.00  0.00     0.038 C 
ATOM     34  C   LIG d   1       3.473   1.678  -8.597  0.00  0.00     0.038 C 
ATOM     35  C   LIG d   1       3.796   0.617 -11.278  0.00  0.00     0.064 C 
ATOM     36  H   LIG d   1       2.791  -1.115 -10.469  0.00  0.00     0.049 H 
ATOM     37  H   LIG d   1       1.795   0.362 -10.506  0.00  0.00     0.049 H 
ATOM     38  O   LIG d   1       3.929   2.002 -10.950  0.00  0.00    -0.377 OA
ATOM     39  H   LIG d   1       4.764   0.126 -11.181  0.00  0.00     0.058 H 
ATOM     40  H   LIG d   1       3.439   0.517 -12.303  0.00  0.00     0.058 H 
ATOM     41  C   LIG d   1       4.448   2.246  -9.641  0.00  0.00     0.064 C 
ATOM     42  H   LIG d   1       5.418   1.762  -9.538  0.00  0.00     0.058 H 
ATOM     43  H   LIG d   1       4.559   3.320  -9.488  0.00  0.00     0.058 H 
ATOM     44  H   LIG d   1       2.542   2.247  -8.613  0.00  0.00     0.049 H 
ATOM     45  H   LIG d   1       3.920   1.735  -7.605  0.00  0.00     0.049 H 
ENDBRANCH  24  30
ENDBRANCH  14  24
BRANCH  12  46
ATOM     46  O   LIG d   1       4.606  -0.776  -3.888  0.00  0.00    -0.391 OA
ATOM     47  H   LIG d   1       3.775  -0.389  -4.196  0.00  0.00     0.210 HD
ENDBRANCH  12  46
BRANCH   1  48
ATOM     48  C   LIG d   1       6.133   1.026  -2.871  0.00  0.00    -0.057 C 
ATOM     49  H   LIG d   1       6.375   2.038  -2.549  0.00  0.00     0.024 H 
ATOM     50  H   LIG d   1       5.121   1.006  -3.275  0.00  0.00     0.024 H 
ATOM     51  H   LIG d   1       6.199   0.347  -2.021  0.00  0.00     0.024 H 
ENDBRANCH   1  48
BRANCH   9  52
ATOM     52  C   LIG d   1       8.383  -1.054  -5.954  0.00  0.00    -0.059 C 
ATOM     53  H   LIG d   1       9.049  -1.260  -6.791  0.00  0.00     0.024 H 
ATOM     54  H   LIG d   1       8.961  -0.652  -5.121  0.00  0.00     0.024 H 
ATOM     55  H   LIG d   1       7.893  -1.977  -5.643  0.00  0.00     0.024 H 
ENDBRANCH   9  52
BRANCH   6  56
ATOM     56  N   LIG d   1      10.118   4.349  -2.752  0.00  0.00    -0.327 N 
ATOM     57  H   LIG d   1      10.726   4.013  -2.075  0.00  0.00     0.148 HD
BRANCH  56  58
ATOM     58  C   LIG d   1       9.881   5.789  -2.874  0.00  0.00    -0.001 C 
ATOM     59  H   LIG d   1       8.809   5.983  -2.861  0.00  0.00     0.043 H 
ATOM     60  H   LIG d   1      10.355   6.307  -2.040  0.00  0.00     0.043 H 
ATOM     61  H   LIG d   1      10.304   6.148  -3.812  0.00  0.00     0.043 H 
ENDBRANCH  56  58
ENDBRANCH   6  56
TORSDOF 8
ENDMDL
MODEL 2
REMARK VINA RESULT:      -5.1      3.652      5.575
REMARK  8 active torsions:
REMARK  status: ('A' for Active; 'I' for Inactive)
REMARK    1  A    between atoms: C_1  and  C_2 
REMARK    2  A    between atoms: C_7  and  N_9 
REMARK    3  A    between atoms: N_9  and  C_10 
REMARK    4  A    between atoms: C_12  and  C_33 
REMARK    5  A    between atoms: C_15  and  O_32 
REMARK    6  A    between atoms: C_17  and  C_21 
REMARK    7  A    between atoms: C_21  and  C_23 
REMARK    8  A    between atoms: C_21  and  C_24 
REMARK       I    between atoms: C_24  and  N_26 
ROOT
ATOM      1  C   LIG d   1       5.777   0.198  -7.672  0.00  0.00     0.005 C 
ATOM      2  H   LIG d   1       6.032   1.248  -7.810  0.00  0.00     0.036 H 
ATOM      3  C   LIG d   1       4.967   0.036  -6.395  0.00  0.00     0.057 A 
ATOM      4  C   LIG d   1       3.619  -0.102  -6.456  0.00  0.00     0.015 A 
ATOM      5  S   LIG d   1       3.162  -0.242  -4.749  0.00  0.00    -0.057 SA
ATOM      6  C   LIG d   1       4.766  -0.114  -4.089  0.00  0.00     0.158 A 
ATOM      7  N   LIG d   1       5.500   0.022  -5.174  0.00  0.00    -0.229 NA
ATOM      8  C   LIG d   1       2.760  -0.125  -7.671  0.00  0.00    -0.014 C 
ATOM      9  C   LIG d   1       3.576   0.391  -8.873  0.00  0.00    -0.022 C 
ATOM     10  C   LIG d   1       4.948  -0.287  -8.869  0.00  0.00    -0.001 C 
ATOM     11  H   LIG d   1       4.821  -1.368  -8.819  0.00  0.00     0.034 H 
ATOM     12  C   LIG d   1       5.721   0.079 -10.142  0.00  0.00     0.063 C 
ATOM     13  H   LIG d   1       5.890   1.156 -10.162  0.00  0.00     0.060 H 
ATOM     14  C   LIG d   1       4.930  -0.333 -11.381  0.00  0.00    -0.004 C 
ATOM     15  H   LIG d   1       5.495  -0.076 -12.277  0.00  0.00     0.033 H 
ATOM     16  C   LIG d   1       3.605   0.441 -11.384  0.00  0.00    -0.047 C 
ATOM     17  C   LIG d   1       2.809   0.027 -10.148  0.00  0.00    -0.047 C 
ATOM     18  H   LIG d   1       1.893   0.517  -7.518  0.00  0.00     0.032 H 
ATOM     19  H   LIG d   1       2.431  -1.145  -7.865  0.00  0.00     0.032 H 
ATOM     20  H   LIG d   1       3.045   0.185 -12.282  0.00  0.00     0.027 H 
ATOM     21  H   LIG d   1       3.786   1.516 -11.359  0.00  0.00     0.027 H 
ATOM     22  H   LIG d   1       2.639  -1.049 -10.172  0.00  0.00     0.027 H 
ATOM     23  H   LIG d   1       1.849   0.544 -10.151  0.00  0.00     0.027 H 
ENDROOT
BRANCH  14  24
ATOM     24  C   LIG d   1       4.672  -1.841 -11.348  0.00  0.00     0.038 C 
ATOM     25  H   LIG d   1       4.216  -2.111 -10.396  0.00  0.00     0.040 H 
BRANCH  24  26
ATOM     26  C   LIG d   1       5.998  -2.588 -11.507  0.00  0.00    -0.054 C 
ATOM     27  H   LIG d   1       5.902  -3.335 -12.294  0.00  0.00     0.024 H 
ATOM     28  H   LIG d   1       6.785  -1.880 -11.771  0.00  0.00     0.024 H 
ATOM     29  H   LIG d   1       6.253  -3.080 -10.567  0.00  0.00     0.024 H 
ENDBRANCH  24  26
BRANCH  24  30
ATOM     30  C   LIG d   1       3.745  -2.217 -12.475  0.00  0.00     0.219 C 
ATOM     31  O   LIG d   1       3.966  -1.822 -13.599  0.00  0.00    -0.275 OA
ATOM     32  N   LIG d   1       2.670  -2.993 -12.232  0.00  0.00    -0.297 N 
ATOM     33  C   LIG d   1       1.690  -3.282 -13.290  0.00  0.00     0.038 C 
ATOM     34  C   LIG d   1       2.445  -3.580 -10.901  0.00  0.00     0.038 C 
ATOM     35  C   LIG d   1       0.288  -2.979 -12.747  0.00  0.00     0.064 C 
ATOM     36  H   LIG d   1       1.891  -2.653 -14.158  0.00  0.00     0.049 H 
ATOM     37  H   LIG d   1       1.755  -4.332 -13.575  0.00  0.00     0.049 H 
ATOM     38  O   LIG d   1       0.105  -3.668 -11.508  0.00  0.00    -0.377 OA
ATOM     39  H   LIG d   1       0.183  -1.907 -12.587  0.00  0.00     0.058 H 
ATOM     40  H   LIG d   1      -0.461  -3.315 -13.465  0.00  0.00     0.058 H 
ATOM     41  C   LIG d   1       1.004  -3.259 -10.473  0.00  0.00     0.064 C 
ATOM     42  H   LIG d   1       0.902  -2.188 -10.305  0.00  0.00     0.058 H 
ATOM     43  H   LIG d   1       0.769  -3.797  -9.554  0.00  0.00     0.058 H 
ATOM     44  H   LIG d   1       2.584  -4.660 -10.949  0.00  0.00     0.049 H 
ATOM     45  H   LIG d   1       3.146  -3.151 -10.186  0.00  0.00     0.049 H 
ENDBRANCH  24  30
ENDBRANCH  14  24
BRANCH  12  46
ATOM     46  O   LIG d   1       6.980  -0.598 -10.141  0.00  0.00    -0.391 OA
ATOM     47  H   LIG d   1       6.907  -1.562 -10.104  0.00  0.00     0.210 HD
ENDBRANCH  12  46
BRANCH   1  48
ATOM     48  C   LIG d   1       7.059  -0.630  -7.571  0.00  0.00    -0.057 C 
ATOM     49  H   LIG d   1       6.805  -1.679  -7.426  0.00  0.00     0.024 H 
ATOM     50  H   LIG d   1       7.635  -0.519  -8.490  0.00  0.00     0.024 H 
ATOM     51  H   LIG d   1       7.652  -0.278  -6.727  0.00  0.00     0.024 H 
ENDBRANCH   1  48
BRANCH   9  52
ATOM     52  C   LIG d   1       3.744   1.908  -8.779  0.00  0.00    -0.059 C 
ATOM     53  H   LIG d   1       4.633   2.211  -9.333  0.00  0.00     0.024 H 
ATOM     54  H   LIG d   1       2.867   2.398  -9.204  0.00  0.00     0.024 H 
ATOM     55  H   LIG d   1       3.851   2.199  -7.733  0.00  0.00     0.024 H 
ENDBRANCH   9  52
BRANCH   6  56
ATOM     56  N   LIG d   1       5.168  -0.147  -2.763  0.00  0.00    -0.327 N 
ATOM     57  H   LIG d   1       5.846  -0.778  -2.477  0.00  0.00     0.148 HD
BRANCH  56  58
ATOM     58  C   LIG d   1       4.567   0.771  -1.792  0.00  0.00    -0.001 C 
ATOM     59  H   LIG d   1       4.499   0.280  -0.822  0.00  0.00     0.043 H 
ATOM     60  H   LIG d   1       5.188   1.664  -1.705  0.00  0.00     0.043 H 
ATOM     61  H   LIG d   1       3.570   1.054  -2.128  0.00  0.00     0.043 H 
ENDBRANCH  56  58
ENDBRANCH   6  56
TORSDOF 8
ENDMDL
MODEL 3
REMARK VINA RESULT:      -5.0      3.014      5.468
REMARK  8 active torsions:
REMARK  status: ('A' for Active; 'I' for Inactive)
REMARK    1  A    between atoms: C_1  and  C_2 
REMARK    2  A    between atoms: C_7  and  N_9 
REMARK    3  A    between atoms: N_9  and  C_10 
REMARK    4  A    between atoms: C_12  and  C_33 
REMARK    5  A    between atoms: C_15  and  O_32 
REMARK    6  A    between atoms: C_17  and  C_21 
REMARK    7  A    between atoms: C_21  and  C_23 
REMARK    8  A    between atoms: C_21  and  C_24 
REMARK       I    between atoms: C_24  and  N_26 
ROOT
ATOM      1  C   LIG d   1       5.519   0.981  -8.507  0.00  0.00     0.005 C 
ATOM      2  H   LIG d   1       5.037   1.941  -8.325  0.00  0.00     0.036 H 
ATOM      3  C   LIG d   1       5.993   0.392  -7.188  0.00  0.00     0.057 A 
ATOM      4  C   LIG d   1       5.274  -0.585  -6.580  0.00  0.00     0.015 A 
ATOM      5  S   LIG d   1       6.217  -0.910  -5.115  0.00  0.00    -0.057 SA
ATOM      6  C   LIG d   1       7.477   0.251  -5.411  0.00  0.00     0.158 A 
ATOM      7  N   LIG d   1       7.101   0.780  -6.557  0.00  0.00    -0.229 NA
ATOM      8  C   LIG d   1       4.008  -1.210  -7.050  0.00  0.00    -0.014 C 
ATOM      9  C   LIG d   1       3.408  -0.343  -8.176  0.00  0.00    -0.022 C 
ATOM     10  C   LIG d   1       4.516   0.024  -9.165  0.00  0.00    -0.001 C 
ATOM     11  H   LIG d   1       5.027  -0.881  -9.493  0.00  0.00     0.034 H 
ATOM     12  C   LIG d   1       3.920   0.745 -10.380  0.00  0.00     0.063 C 
ATOM     13  H   LIG d   1       3.454   1.675 -10.053  0.00  0.00     0.060 H 
ATOM     14  C   LIG d   1       2.873  -0.134 -11.060  0.00  0.00    -0.004 C 
ATOM     15  H   LIG d   1       2.466   0.386 -11.926  0.00  0.00     0.033 H 
ATOM     16  C   LIG d   1       1.744  -0.398 -10.056  0.00  0.00    -0.047 C 
ATOM     17  C   LIG d   1       2.326  -1.172  -8.875  0.00  0.00    -0.047 C 
ATOM     18  H   LIG d   1       3.302  -1.271  -6.223  0.00  0.00     0.032 H 
ATOM     19  H   LIG d   1       4.215  -2.210  -7.431  0.00  0.00     0.032 H 
ATOM     20  H   LIG d   1       0.970  -0.993 -10.538  0.00  0.00     0.027 H 
ATOM     21  H   LIG d   1       1.315   0.541  -9.702  0.00  0.00     0.027 H 
ATOM     22  H   LIG d   1       2.761  -2.104  -9.234  0.00  0.00     0.027 H 
ATOM     23  H   LIG d   1       1.528  -1.396  -8.166  0.00  0.00     0.027 H 
ENDROOT
BRANCH  14  24
ATOM     24  C   LIG d   1       3.517  -1.450 -11.503  0.00  0.00     0.038 C 
ATOM     25  H   LIG d   1       4.041  -1.900 -10.660  0.00  0.00     0.040 H 
BRANCH  24  26
ATOM     26  C   LIG d   1       4.512  -1.175 -12.632  0.00  0.00    -0.054 C 
ATOM     27  H   LIG d   1       5.492  -1.562 -12.355  0.00  0.00     0.024 H 
ATOM     28  H   LIG d   1       4.172  -1.665 -13.544  0.00  0.00     0.024 H 
ATOM     29  H   LIG d   1       4.581  -0.100 -12.802  0.00  0.00     0.024 H 
ENDBRANCH  24  26
BRANCH  24  30
ATOM     30  C   LIG d   1       2.448  -2.392 -11.993  0.00  0.00     0.219 C 
ATOM     31  O   LIG d   1       1.623  -2.009 -12.795  0.00  0.00    -0.275 OA
ATOM     32  N   LIG d   1       2.409  -3.661 -11.539  0.00  0.00    -0.297 N 
ATOM     33  C   LIG d   1       1.312  -4.566 -11.916  0.00  0.00     0.038 C 
ATOM     34  C   LIG d   1       3.465  -4.183 -10.657  0.00  0.00     0.038 C 
ATOM     35  C   LIG d   1       0.748  -5.199 -10.639  0.00  0.00     0.064 C 
ATOM     36  H   LIG d   1       0.529  -4.003 -12.423  0.00  0.00     0.049 H 
ATOM     37  H   LIG d   1       1.690  -5.346 -12.577  0.00  0.00     0.049 H 
ATOM     38  O   LIG d   1       1.817  -5.777  -9.887  0.00  0.00    -0.377 OA
ATOM     39  H   LIG d   1       0.254  -4.434 -10.040  0.00  0.00     0.058 H 
ATOM     40  H   LIG d   1       0.028  -5.974 -10.903  0.00  0.00     0.058 H 
ATOM     41  C   LIG d   1       2.793  -4.833  -9.437  0.00  0.00     0.064 C 
ATOM     42  H   LIG d   1       2.307  -4.066  -8.835  0.00  0.00     0.058 H 
ATOM     43  H   LIG d   1       3.545  -5.345  -8.838  0.00  0.00     0.058 H 
ATOM     44  H   LIG d   1       4.057  -4.926 -11.193  0.00  0.00     0.049 H 
ATOM     45  H   LIG d   1       4.109  -3.366 -10.332  0.00  0.00     0.049 H 
ENDBRANCH  24  30
ENDBRANCH  14  24
BRANCH  12  46
ATOM     46  O   LIG d   1       4.963   1.040 -11.312  0.00  0.00    -0.391 OA
ATOM     47  H   LIG d   1       4.743   1.745 -11.936  0.00  0.00     0.210 HD
ENDBRANCH  12  46
BRANCH   1  48
ATOM     48  C   LIG d   1       6.717   1.181  -9.437  0.00  0.00    -0.057 C 
ATOM     49  H   LIG d   1       6.961   2.241  -9.492  0.00  0.00     0.024 H 
ATOM     50  H   LIG d   1       7.573   0.630  -9.048  0.00  0.00     0.024 H 
ATOM     51  H   LIG d   1       6.470   0.812 -10.433  0.00  0.00     0.024 H 
ENDBRANCH   1  48
BRANCH   9  52
ATOM     52  C   LIG d   1       2.793   0.928  -7.586  0.00  0.00    -0.059 C 
ATOM     53  H   LIG d   1       2.685   1.677  -8.370  0.00  0.00     0.024 H 
ATOM     54  H   LIG d   1       1.813   0.697  -7.167  0.00  0.00     0.024 H 
ATOM     55  H   LIG d   1       3.442   1.315  -6.799  0.00  0.00     0.024 H 
ENDBRANCH   9  52
BRANCH   6  56
ATOM     56  N   LIG d   1       8.591   0.543  -4.639  0.00  0.00    -0.327 N 
ATOM     57  H   LIG d   1       9.335  -0.078  -4.608  0.00  0.00     0.148 HD
BRANCH  56  58
ATOM     58  C   LIG d   1       8.644   1.790  -3.872  0.00  0.00    -0.001 C 
ATOM     59  H   LIG d   1       7.692   1.944  -3.364  0.00  0.00     0.043 H 
ATOM     60  H   LIG d   1       9.444   1.728  -3.134  0.00  0.00     0.043 H 
ATOM     61  H   LIG d   1       8.836   2.624  -4.547  0.00  0.00     0.043 H 
ENDBRANCH  56  58
ENDBRANCH   6  56
TORSDOF 8
ENDMDL
MODEL 4
REMARK VINA RESULT:      -4.9      4.918      7.107
REMARK  8 active torsions:
REMARK  status: ('A' for Active; 'I' for Inactive)
REMARK    1  A    between atoms: C_1  and  C_2 
REMARK    2  A    between atoms: C_7  and  N_9 
REMARK    3  A    between atoms: N_9  and  C_10 
REMARK    4  A    between atoms: C_12  and  C_33 
REMARK    5  A    between atoms: C_15  and  O_32 
REMARK    6  A    between atoms: C_17  and  C_21 
REMARK    7  A    between atoms: C_21  and  C_23 
REMARK    8  A    between atoms: C_21  and  C_24 
REMARK       I    between atoms: C_24  and  N_26 
ROOT
ATOM      1  C   LIG d   1       8.558  -5.159  -5.551  0.00  0.00     0.005 C 
ATOM      2  H   LIG d   1       9.361  -4.877  -6.231  0.00  0.00     0.036 H 
ATOM      3  C   LIG d   1       9.152  -5.688  -4.255  0.00  0.00     0.057 A 
ATOM      4  C   LIG d   1       9.206  -4.894  -3.156  0.00  0.00     0.015 A 
ATOM      5  S   LIG d   1       9.972  -5.945  -1.952  0.00  0.00    -0.057 SA
ATOM      6  C   LIG d   1      10.159  -7.339  -2.975  0.00  0.00     0.158 A 
ATOM      7  N   LIG d   1       9.646  -6.917  -4.112  0.00  0.00    -0.229 NA
ATOM      8  C   LIG d   1       8.732  -3.490  -3.024  0.00  0.00    -0.014 C 
ATOM      9  C   LIG d   1       8.478  -2.910  -4.430  0.00  0.00    -0.022 C 
ATOM     10  C   LIG d   1       7.688  -3.930  -5.253  0.00  0.00    -0.001 C 
ATOM     11  H   LIG d   1       6.797  -4.232  -4.703  0.00  0.00     0.034 H 
ATOM     12  C   LIG d   1       7.278  -3.319  -6.597  0.00  0.00     0.063 C 
ATOM     13  H   LIG d   1       8.174  -3.066  -7.165  0.00  0.00     0.060 H 
ATOM     14  C   LIG d   1       6.446  -2.058  -6.377  0.00  0.00    -0.004 C 
ATOM     15  H   LIG d   1       6.153  -1.640  -7.340  0.00  0.00     0.033 H 
ATOM     16  C   LIG d   1       7.312  -1.037  -5.629  0.00  0.00    -0.047 C 
ATOM     17  C   LIG d   1       7.667  -1.621  -4.263  0.00  0.00    -0.047 C 
ATOM     18  H   LIG d   1       9.490  -2.895  -2.516  0.00  0.00     0.032 H 
ATOM     19  H   LIG d   1       7.805  -3.471  -2.449  0.00  0.00     0.032 H 
ATOM     20  H   LIG d   1       6.744  -0.117  -5.496  0.00  0.00     0.027 H 
ATOM     21  H   LIG d   1       8.226  -0.825  -6.184  0.00  0.00     0.027 H 
ATOM     22  H   LIG d   1       6.751  -1.840  -3.716  0.00  0.00     0.027 H 
ATOM     23  H   LIG d   1       8.256  -0.894  -3.704  0.00  0.00     0.027 H 
ENDROOT
BRANCH  14  24
ATOM     24  C   LIG d   1       5.197  -2.403  -5.563  0.00  0.00     0.038 C 
ATOM     25  H   LIG d   1       5.491  -2.716  -4.561  0.00  0.00     0.040 H 
BRANCH  24  26
ATOM     26  C   LIG d   1       4.441  -3.543  -6.250  0.00  0.00    -0.054 C 
ATOM     27  H   LIG d   1       4.921  -4.492  -6.015  0.00  0.00     0.024 H 
ATOM     28  H   LIG d   1       3.410  -3.559  -5.896  0.00  0.00     0.024 H 
ATOM     29  H   LIG d   1       4.451  -3.387  -7.329  0.00  0.00     0.024 H 
ENDBRANCH  24  26
BRANCH  24  30
ATOM     30  C   LIG d   1       4.306  -1.191  -5.472  0.00  0.00     0.219 C 
ATOM     31  O   LIG d   1       4.034  -0.562  -6.471  0.00  0.00    -0.275 OA
ATOM     32  N   LIG d   1       3.812  -0.807  -4.278  0.00  0.00    -0.297 N 
ATOM     33  C   LIG d   1       3.033   0.433  -4.145  0.00  0.00     0.038 C 
ATOM     34  C   LIG d   1       4.031  -1.620  -3.071  0.00  0.00     0.038 C 
ATOM     35  C   LIG d   1       3.620   1.251  -2.989  0.00  0.00     0.064 C 
ATOM     36  H   LIG d   1       3.096   1.007  -5.070  0.00  0.00     0.049 H 
ATOM     37  H   LIG d   1       1.991   0.192  -3.933  0.00  0.00     0.049 H 
ATOM     38  O   LIG d   1       3.704   0.427  -1.824  0.00  0.00    -0.377 OA
ATOM     39  H   LIG d   1       4.615   1.602  -3.259  0.00  0.00     0.058 H 
ATOM     40  H   LIG d   1       2.976   2.107  -2.784  0.00  0.00     0.058 H 
ATOM     41  C   LIG d   1       4.574  -0.699  -1.966  0.00  0.00     0.064 C 
ATOM     42  H   LIG d   1       5.573  -0.356  -2.232  0.00  0.00     0.058 H 
ATOM     43  H   LIG d   1       4.616  -1.247  -1.025  0.00  0.00     0.058 H 
ATOM     44  H   LIG d   1       3.088  -2.064  -2.751  0.00  0.00     0.049 H 
ATOM     45  H   LIG d   1       4.754  -2.406  -3.283  0.00  0.00     0.049 H 
ENDBRANCH  24  30
ENDBRANCH  14  24
BRANCH  12  46
ATOM     46  O   LIG d   1       6.505  -4.270  -7.333  0.00  0.00    -0.391 OA
ATOM     47  H   LIG d   1       5.554  -4.093  -7.323  0.00  0.00     0.210 HD
ENDBRANCH  12  46
BRANCH   1  48
ATOM     48  C   LIG d   1       7.699  -6.246  -6.200  0.00  0.00    -0.057 C 
ATOM     49  H   LIG d   1       8.195  -7.210  -6.098  0.00  0.00     0.024 H 
ATOM     50  H   LIG d   1       6.727  -6.282  -5.707  0.00  0.00     0.024 H 
ATOM     51  H   LIG d   1       7.561  -6.017  -7.257  0.00  0.00     0.024 H 
ENDBRANCH   1  48
BRANCH   9  52
ATOM     52  C   LIG d   1       9.810  -2.605  -5.117  0.00  0.00    -0.059 C 
ATOM     53  H   LIG d   1       9.839  -3.097  -6.089  0.00  0.00     0.024 H 
ATOM     54  H   LIG d   1       9.910  -1.527  -5.253  0.00  0.00     0.024 H 
ATOM     55  H   LIG d   1      10.631  -2.970  -4.500  0.00  0.00     0.024 H 
ENDBRANCH   9  52
BRANCH   6  56
ATOM     56  N   LIG d   1      10.707  -8.576  -2.670  0.00  0.00    -0.327 N 
ATOM     57  H   LIG d   1      11.406  -8.947  -3.230  0.00  0.00     0.148 HD
BRANCH  56  58
ATOM     58  C   LIG d   1      10.230  -9.321  -1.503  0.00  0.00    -0.001 C 
ATOM     59  H   LIG d   1       9.396  -8.788  -1.047  0.00  0.00     0.043 H 
ATOM     60  H   LIG d   1       9.901 -10.313  -1.815  0.00  0.00     0.043 H 
ATOM     61  H   LIG d   1      11.039  -9.418  -0.779  0.00  0.00     0.043 H 
ENDBRANCH  56  58
ENDBRANCH   6  56
TORSDOF 8
ENDMDL
MODEL 5
REMARK VINA RESULT:      -4.9      7.883     11.171
REMARK  8 active torsions:
REMARK  status: ('A' for Active; 'I' for Inactive)
REMARK    1  A    between atoms: C_1  and  C_2 
REMARK    2  A    between atoms: C_7  and  N_9 
REMARK    3  A    between atoms: N_9  and  C_10 
REMARK    4  A    between atoms: C_12  and  C_33 
REMARK    5  A    between atoms: C_15  and  O_32 
REMARK    6  A    between atoms: C_17  and  C_21 
REMARK    7  A    between atoms: C_21  and  C_23 
REMARK    8  A    between atoms: C_21  and  C_24 
REMARK       I    between atoms: C_24  and  N_26 
ROOT
ATOM      1  C   LIG d   1      10.010  11.620  -3.722  0.00  0.00     0.005 C 
ATOM      2  H   LIG d   1      10.654  12.338  -3.213  0.00  0.00     0.036 H 
ATOM      3  C   LIG d   1      10.256  11.691  -5.220  0.00  0.00     0.057 A 
ATOM      4  C   LIG d   1      11.030  10.758  -5.829  0.00  0.00     0.015 A 
ATOM      5  S   LIG d   1      11.010  11.279  -7.523  0.00  0.00    -0.057 SA
ATOM      6  C   LIG d   1       9.991  12.671  -7.306  0.00  0.00     0.158 A 
ATOM      7  N   LIG d   1       9.752  12.638  -6.011  0.00  0.00    -0.229 NA
ATOM      8  C   LIG d   1      11.714   9.594  -5.203  0.00  0.00    -0.014 C 
ATOM      9  C   LIG d   1      11.722   9.780  -3.673  0.00  0.00    -0.022 C 
ATOM     10  C   LIG d   1      10.325  10.206  -3.217  0.00  0.00    -0.001 C 
ATOM     11  H   LIG d   1       9.585   9.503  -3.599  0.00  0.00     0.034 H 
ATOM     12  C   LIG d   1      10.257  10.238  -1.686  0.00  0.00     0.063 C 
ATOM     13  H   LIG d   1      10.962  10.980  -1.310  0.00  0.00     0.060 H 
ATOM     14  C   LIG d   1      10.608   8.869  -1.108  0.00  0.00    -0.004 C 
ATOM     15  H   LIG d   1      10.546   8.903  -0.021  0.00  0.00     0.033 H 
ATOM     16  C   LIG d   1      12.046   8.530  -1.519  0.00  0.00    -0.047 C 
ATOM     17  C   LIG d   1      12.099   8.435  -3.043  0.00  0.00    -0.047 C 
ATOM     18  H   LIG d   1      12.739   9.535  -5.568  0.00  0.00     0.032 H 
ATOM     19  H   LIG d   1      11.181   8.678  -5.457  0.00  0.00     0.032 H 
ATOM     20  H   LIG d   1      12.325   7.571  -1.083  0.00  0.00     0.027 H 
ATOM     21  H   LIG d   1      12.737   9.301  -1.177  0.00  0.00     0.027 H 
ATOM     22  H   LIG d   1      11.400   7.671  -3.380  0.00  0.00     0.027 H 
ATOM     23  H   LIG d   1      13.108   8.163  -3.350  0.00  0.00     0.027 H 
ENDROOT
BRANCH  14  24
ATOM     24  C   LIG d   1       9.633   7.820  -1.648  0.00  0.00     0.038 C 
ATOM     25  H   LIG d   1       9.550   7.923  -2.730  0.00  0.00     0.040 H 
BRANCH  24  26
ATOM     26  C   LIG d   1       8.257   8.027  -1.010  0.00  0.00    -0.054 C 
ATOM     27  H   LIG d   1       7.507   8.134  -1.792  0.00  0.00     0.024 H 
ATOM     28  H   LIG d   1       8.013   7.167  -0.386  0.00  0.00     0.024 H 
ATOM     29  H   LIG d   1       8.274   8.928  -0.396  0.00  0.00     0.024 H 
ENDBRANCH  24  26
BRANCH  24  30
ATOM     30  C   LIG d   1      10.141   6.441  -1.311  0.00  0.00     0.219 C 
ATOM     31  O   LIG d   1      10.459   6.174  -0.172  0.00  0.00    -0.275 OA
ATOM     32  N   LIG d   1      10.242   5.506  -2.277  0.00  0.00    -0.297 N 
ATOM     33  C   LIG d   1      10.839   4.191  -1.997  0.00  0.00     0.038 C 
ATOM     34  C   LIG d   1       9.754   5.769  -3.640  0.00  0.00     0.038 C 
ATOM     35  C   LIG d   1      11.902   3.906  -3.064  0.00  0.00     0.064 C 
ATOM     36  H   LIG d   1      11.302   4.200  -1.010  0.00  0.00     0.049 H 
ATOM     37  H   LIG d   1      10.067   3.422  -2.033  0.00  0.00     0.049 H 
ATOM     38  O   LIG d   1      11.326   4.079  -4.361  0.00  0.00    -0.377 OA
ATOM     39  H   LIG d   1      12.736   4.596  -2.941  0.00  0.00     0.058 H 
ATOM     40  H   LIG d   1      12.260   2.881  -2.957  0.00  0.00     0.058 H 
ATOM     41  C   LIG d   1      10.875   5.409  -4.628  0.00  0.00     0.064 C 
ATOM     42  H   LIG d   1      11.705   6.105  -4.511  0.00  0.00     0.058 H 
ATOM     43  H   LIG d   1      10.493   5.466  -5.647  0.00  0.00     0.058 H 
ATOM     44  H   LIG d   1       8.875   5.156  -3.839  0.00  0.00     0.049 H 
ATOM     45  H   LIG d   1       9.498   6.823  -3.742  0.00  0.00     0.049 H 
ENDBRANCH  24  30
ENDBRANCH  14  24
BRANCH  12  46
ATOM     46  O   LIG d   1       8.934  10.595  -1.279  0.00  0.00    -0.391 OA
ATOM     47  H   LIG d   1       8.709  10.308  -0.383  0.00  0.00     0.210 HD
ENDBRANCH  12  46
BRANCH   1  48
ATOM     48  C   LIG d   1       8.546  11.952  -3.428  0.00  0.00    -0.057 C 
ATOM     49  H   LIG d   1       8.403  13.031  -3.470  0.00  0.00     0.024 H 
ATOM     50  H   LIG d   1       7.909  11.471  -4.170  0.00  0.00     0.024 H 
ATOM     51  H   LIG d   1       8.284  11.589  -2.434  0.00  0.00     0.024 H 
ENDBRANCH   1  48
BRANCH   9  52
ATOM     52  C   LIG d   1      12.747  10.846  -3.280  0.00  0.00    -0.059 C 
ATOM     53  H   LIG d   1      12.372  11.831  -3.561  0.00  0.00     0.024 H 
ATOM     54  H   LIG d   1      12.910  10.814  -2.203  0.00  0.00     0.024 H 
ATOM     55  H   LIG d   1      13.687  10.655  -3.797  0.00  0.00     0.024 H 
ENDBRANCH   9  52
BRANCH   6  56
ATOM     56  N   LIG d   1       9.546  13.581  -8.253  0.00  0.00    -0.327 N 
ATOM     57  H   LIG d   1       8.722  13.413  -8.736  0.00  0.00     0.148 HD
BRANCH  56  58
ATOM     58  C   LIG d   1      10.320  14.795  -8.524  0.00  0.00    -0.001 C 
ATOM     59  H   LIG d   1      10.294  15.444  -7.649  0.00  0.00     0.043 H 
ATOM     60  H   LIG d   1      11.353  14.525  -8.746  0.00  0.00     0.043 H 
ATOM     61  H   LIG d   1       9.889  15.317  -9.378  0.00  0.00     0.043 H 
ENDBRANCH  56  58
ENDBRANCH   6  56
TORSDOF 8
ENDMDL
MODEL 6
REMARK VINA RESULT:      -4.8      8.494     11.283
REMARK  8 active torsions:
REMARK  status: ('A' for Active; 'I' for Inactive)
REMARK    1  A    between atoms: C_1  and  C_2 
REMARK    2  A    between atoms: C_7  and  N_9 
REMARK    3  A    between atoms: N_9  and  C_10 
REMARK    4  A    between atoms: C_12  and  C_33 
REMARK    5  A    between atoms: C_15  and  O_32 
REMARK    6  A    between atoms: C_17  and  C_21 
REMARK    7  A    between atoms: C_21  and  C_23 
REMARK    8  A    between atoms: C_21  and  C_24 
REMARK       I    between atoms: C_24  and  N_26 
ROOT
ATOM      1  C   LIG d   1       9.897   9.633  -0.192  0.00  0.00     0.005 C 
ATOM      2  H   LIG d   1       9.446   9.412   0.775  0.00  0.00     0.036 H 
ATOM      3  C   LIG d   1      10.868  10.794  -0.046  0.00  0.00     0.057 A 
ATOM      4  C   LIG d   1      12.203  10.561   0.027  0.00  0.00     0.015 A 
ATOM      5  S   LIG d   1      12.876  12.192   0.196  0.00  0.00    -0.057 SA
ATOM      6  C   LIG d   1      11.364  13.051   0.156  0.00  0.00     0.158 A 
ATOM      7  N   LIG d   1      10.494  12.071   0.023  0.00  0.00    -0.229 NA
ATOM      8  C   LIG d   1      12.902   9.248  -0.025  0.00  0.00    -0.014 C 
ATOM      9  C   LIG d   1      11.870   8.122   0.184  0.00  0.00    -0.022 C 
ATOM     10  C   LIG d   1      10.650   8.395  -0.698  0.00  0.00    -0.001 C 
ATOM     11  H   LIG d   1      10.971   8.552  -1.727  0.00  0.00     0.034 H 
ATOM     12  C   LIG d   1       9.680   7.210  -0.638  0.00  0.00     0.063 C 
ATOM     13  H   LIG d   1       9.322   7.090   0.385  0.00  0.00     0.060 H 
ATOM     14  C   LIG d   1      10.378   5.927  -1.084  0.00  0.00    -0.004 C 
ATOM     15  H   LIG d   1       9.675   5.096  -1.046  0.00  0.00     0.033 H 
ATOM     16  C   LIG d   1      11.536   5.651  -0.116  0.00  0.00    -0.047 C 
ATOM     17  C   LIG d   1      12.534   6.802  -0.224  0.00  0.00    -0.047 C 
ATOM     18  H   LIG d   1      13.654   9.204   0.762  0.00  0.00     0.032 H 
ATOM     19  H   LIG d   1      13.381   9.129  -0.997  0.00  0.00     0.032 H 
ATOM     20  H   LIG d   1      12.022   4.718  -0.400  0.00  0.00     0.027 H 
ATOM     21  H   LIG d   1      11.172   5.577   0.909  0.00  0.00     0.027 H 
ATOM     22  H   LIG d   1      12.886   6.878  -1.252  0.00  0.00     0.027 H 
ATOM     23  H   LIG d   1      13.379   6.605   0.435  0.00  0.00     0.027 H 
ENDROOT
BRANCH  14  24
ATOM     24  C   LIG d   1      10.900   6.098  -2.512  0.00  0.00     0.038 C 
ATOM     25  H   LIG d   1      11.593   6.938  -2.548  0.00  0.00     0.040 H 
BRANCH  24  26
ATOM     26  C   LIG d   1       9.725   6.366  -3.455  0.00  0.00    -0.054 C 
ATOM     27  H   LIG d   1       9.158   5.447  -3.600  0.00  0.00     0.024 H 
ATOM     28  H   LIG d   1       9.077   7.128  -3.022  0.00  0.00     0.024 H 
ATOM     29  H   LIG d   1      10.103   6.715  -4.417  0.00  0.00     0.024 H 
ENDBRANCH  24  26
BRANCH  24  30
ATOM     30  C   LIG d   1      11.612   4.840  -2.940  0.00  0.00     0.219 C 
ATOM     31  O   LIG d   1      11.064   3.765  -2.825  0.00  0.00    -0.275 OA
ATOM     32  N   LIG d   1      12.857   4.912  -3.452  0.00  0.00    -0.297 N 
ATOM     33  C   LIG d   1      13.614   3.692  -3.772  0.00  0.00     0.038 C 
ATOM     34  C   LIG d   1      13.496   6.212  -3.710  0.00  0.00     0.038 C 
ATOM     35  C   LIG d   1      15.000   3.801  -3.127  0.00  0.00     0.064 C 
ATOM     36  H   LIG d   1      13.092   2.821  -3.377  0.00  0.00     0.049 H 
ATOM     37  H   LIG d   1      13.718   3.598  -4.854  0.00  0.00     0.049 H 
ATOM     38  O   LIG d   1      15.602   5.040  -3.509  0.00  0.00    -0.377 OA
ATOM     39  H   LIG d   1      14.902   3.763  -2.043  0.00  0.00     0.058 H 
ATOM     40  H   LIG d   1      15.625   2.973  -3.465  0.00  0.00     0.058 H 
ATOM     41  C   LIG d   1      14.890   6.197  -3.063  0.00  0.00     0.064 C 
ATOM     42  H   LIG d   1      14.791   6.168  -1.979  0.00  0.00     0.058 H 
ATOM     43  H   LIG d   1      15.435   7.095  -3.355  0.00  0.00     0.058 H 
ATOM     44  H   LIG d   1      13.589   6.367  -4.785  0.00  0.00     0.049 H 
ATOM     45  H   LIG d   1      12.895   7.010  -3.274  0.00  0.00     0.049 H 
ENDBRANCH  24  30
ENDBRANCH  14  24
BRANCH  12  46
ATOM     46  O   LIG d   1       8.569   7.465  -1.501  0.00  0.00    -0.391 OA
ATOM     47  H   LIG d   1       7.916   8.074  -1.130  0.00  0.00     0.210 HD
ENDBRANCH  12  46
BRANCH   1  48
ATOM     48  C   LIG d   1       8.801  10.007  -1.192  0.00  0.00    -0.057 C 
ATOM     49  H   LIG d   1       8.397  10.986  -0.939  0.00  0.00     0.024 H 
ATOM     50  H   LIG d   1       9.222  10.036  -2.197  0.00  0.00     0.024 H 
ATOM     51  H   LIG d   1       8.005   9.263  -1.153  0.00  0.00     0.024 H 
ENDBRANCH   1  48
BRANCH   9  52
ATOM     52  C   LIG d   1      11.450   8.063   1.653  0.00  0.00    -0.059 C 
ATOM     53  H   LIG d   1      10.364   8.126   1.724  0.00  0.00     0.024 H 
ATOM     54  H   LIG d   1      11.788   7.123   2.091  0.00  0.00     0.024 H 
ATOM     55  H   LIG d   1      11.898   8.897   2.194  0.00  0.00     0.024 H 
ENDBRANCH   9  52
BRANCH   6  56
ATOM     56  N   LIG d   1      11.135  14.416   0.241  0.00  0.00    -0.327 N 
ATOM     57  H   LIG d   1      11.847  15.040   0.036  0.00  0.00     0.148 HD
BRANCH  56  58
ATOM     58  C   LIG d   1       9.817  14.914   0.642  0.00  0.00    -0.001 C 
ATOM     59  H   LIG d   1       9.889  15.972   0.891  0.00  0.00     0.043 H 
ATOM     60  H   LIG d   1       9.113  14.781  -0.181  0.00  0.00     0.043 H 
ATOM     61  H   LIG d   1       9.467  14.358   1.511  0.00  0.00     0.043 H 
ENDBRANCH  56  58
ENDBRANCH   6  56
TORSDOF 8
ENDMDL
MODEL 7
REMARK VINA RESULT:      -4.7      8.663     10.678
REMARK  8 active torsions:
REMARK  status: ('A' for Active; 'I' for Inactive)
REMARK    1  A    between atoms: C_1  and  C_2 
REMARK    2  A    between atoms: C_7  and  N_9 
REMARK    3  A    between atoms: N_9  and  C_10 
REMARK    4  A    between atoms: C_12  and  C_33 
REMARK    5  A    between atoms: C_15  and  O_32 
REMARK    6  A    between atoms: C_17  and  C_21 
REMARK    7  A    between atoms: C_21  and  C_23 
REMARK    8  A    between atoms: C_21  and  C_24 
REMARK       I    between atoms: C_24  and  N_26 
ROOT
ATOM      1  C   LIG d   1      12.964   5.175  -1.569  0.00  0.00     0.005 C 
ATOM      2  H   LIG d   1      12.431   4.284  -1.237  0.00  0.00     0.036 H 
ATOM      3  C   LIG d   1      13.607   4.908  -2.920  0.00  0.00     0.057 A 
ATOM      4  C   LIG d   1      13.027   5.371  -4.055  0.00  0.00     0.015 A 
ATOM      5  S   LIG d   1      14.131   4.801  -5.319  0.00  0.00    -0.057 SA
ATOM      6  C   LIG d   1      15.266   4.007  -4.268  0.00  0.00     0.158 A 
ATOM      7  N   LIG d   1      14.740   4.225  -3.080  0.00  0.00    -0.229 NA
ATOM      8  C   LIG d   1      11.771   6.159  -4.179  0.00  0.00    -0.014 C 
ATOM      9  C   LIG d   1      11.000   6.089  -2.845  0.00  0.00    -0.022 C 
ATOM     10  C   LIG d   1      11.975   6.342  -1.693  0.00  0.00    -0.001 C 
ATOM     11  H   LIG d   1      12.518   7.270  -1.872  0.00  0.00     0.034 H 
ATOM     12  C   LIG d   1      11.211   6.442  -0.369  0.00  0.00     0.063 C 
ATOM     13  H   LIG d   1      10.711   5.494  -0.169  0.00  0.00     0.060 H 
ATOM     14  C   LIG d   1      10.170   7.558  -0.437  0.00  0.00    -0.004 C 
ATOM     15  H   LIG d   1       9.643   7.624   0.514  0.00  0.00     0.033 H 
ATOM     16  C   LIG d   1       9.168   7.211  -1.545  0.00  0.00    -0.047 C 
ATOM     17  C   LIG d   1       9.919   7.174  -2.874  0.00  0.00    -0.047 C 
ATOM     18  H   LIG d   1      11.156   5.744  -4.977  0.00  0.00     0.032 H 
ATOM     19  H   LIG d   1      12.013   7.198  -4.405  0.00  0.00     0.032 H 
ATOM     20  H   LIG d   1       8.397   7.980  -1.581  0.00  0.00     0.027 H 
ATOM     21  H   LIG d   1       8.707   6.240  -1.358  0.00  0.00     0.027 H 
ATOM     22  H   LIG d   1      10.386   8.142  -3.051  0.00  0.00     0.027 H 
ATOM     23  H   LIG d   1       9.215   6.960  -3.678  0.00  0.00     0.027 H 
ENDROOT
BRANCH  14  24
ATOM     24  C   LIG d   1      10.864   8.888  -0.736  0.00  0.00     0.038 C 
ATOM     25  H   LIG d   1      11.575   8.752  -1.551  0.00  0.00     0.040 H 
BRANCH  24  26
ATOM     26  C   LIG d   1      11.607   9.368   0.513  0.00  0.00    -0.054 C 
ATOM     27  H   LIG d   1      11.193   8.877   1.393  0.00  0.00     0.024 H 
ATOM     28  H   LIG d   1      12.665   9.122   0.423  0.00  0.00     0.024 H 
ATOM     29  H   LIG d   1      11.493  10.448   0.611  0.00  0.00     0.024 H 
ENDBRANCH  24  26
BRANCH  24  30
ATOM     30  C   LIG d   1       9.833   9.914  -1.133  0.00  0.00     0.219 C 
ATOM     31  O   LIG d   1       8.821  10.040  -0.479  0.00  0.00    -0.275 OA
ATOM     32  N   LIG d   1      10.038  10.691  -2.215  0.00  0.00    -0.297 N 
ATOM     33  C   LIG d   1       9.000  11.620  -2.687  0.00  0.00     0.038 C 
ATOM     34  C   LIG d   1      11.309  10.639  -2.955  0.00  0.00     0.038 C 
ATOM     35  C   LIG d   1       8.793  11.391  -4.189  0.00  0.00     0.064 C 
ATOM     36  H   LIG d   1       8.068  11.431  -2.155  0.00  0.00     0.049 H 
ATOM     37  H   LIG d   1       9.320  12.648  -2.513  0.00  0.00     0.049 H 
ATOM     38  O   LIG d   1      10.056  11.459  -4.855  0.00  0.00    -0.377 OA
ATOM     39  H   LIG d   1       8.350  10.408  -4.350  0.00  0.00     0.058 H 
ATOM     40  H   LIG d   1       8.129  12.159  -4.587  0.00  0.00     0.058 H 
ATOM     41  C   LIG d   1      10.987  10.453  -4.447  0.00  0.00     0.064 C 
ATOM     42  H   LIG d   1      10.552   9.468  -4.609  0.00  0.00     0.058 H 
ATOM     43  H   LIG d   1      11.903  10.547  -5.031  0.00  0.00     0.058 H 
ATOM     44  H   LIG d   1      11.858  11.569  -2.808  0.00  0.00     0.049 H 
ATOM     45  H   LIG d   1      11.907   9.800  -2.601  0.00  0.00     0.049 H 
ENDBRANCH  24  30
ENDBRANCH  14  24
BRANCH  12  46
ATOM     46  O   LIG d   1      12.132   6.723   0.688  0.00  0.00    -0.391 OA
ATOM     47  H   LIG d   1      11.710   6.991   1.516  0.00  0.00     0.210 HD
ENDBRANCH  12  46
BRANCH   1  48
ATOM     48  C   LIG d   1      14.046   5.532  -0.549  0.00  0.00    -0.057 C 
ATOM     49  H   LIG d   1      13.636   5.460   0.458  0.00  0.00     0.024 H 
ATOM     50  H   LIG d   1      14.882   4.840  -0.651  0.00  0.00     0.024 H 
ATOM     51  H   LIG d   1      14.393   6.550  -0.728  0.00  0.00     0.024 H 
ENDBRANCH   1  48
BRANCH   9  52
ATOM     52  C   LIG d   1      10.353   4.711  -2.688  0.00  0.00    -0.059 C 
ATOM     53  H   LIG d   1      10.348   4.431  -1.635  0.00  0.00     0.024 H 
ATOM     54  H   LIG d   1       9.329   4.746  -3.060  0.00  0.00     0.024 H 
ATOM     55  H   LIG d   1      10.921   3.975  -3.257  0.00  0.00     0.024 H 
ENDBRANCH   9  52
BRANCH   6  56
ATOM     56  N   LIG d   1      16.425   3.322  -4.597  0.00  0.00    -0.327 N 
ATOM     57  H   LIG d   1      16.862   3.487  -5.447  0.00  0.00     0.148 HD
BRANCH  56  58
ATOM     58  C   LIG d   1      16.991   2.348  -3.661  0.00  0.00    -0.001 C 
ATOM     59  H   LIG d   1      17.922   2.738  -3.250  0.00  0.00     0.043 H 
ATOM     60  H   LIG d   1      16.283   2.168  -2.851  0.00  0.00     0.043 H 
ATOM     61  H   LIG d   1      17.189   1.413  -4.185  0.00  0.00     0.043 H 
ENDBRANCH  56  58
ENDBRANCH   6  56
TORSDOF 8
ENDMDL
MODEL 8
REMARK VINA RESULT:      -4.7      3.435      4.922
REMARK  8 active torsions:
REMARK  status: ('A' for Active; 'I' for Inactive)
REMARK    1  A    between atoms: C_1  and  C_2 
REMARK    2  A    between atoms: C_7  and  N_9 
REMARK    3  A    between atoms: N_9  and  C_10 
REMARK    4  A    between atoms: C_12  and  C_33 
REMARK    5  A    between atoms: C_15  and  O_32 
REMARK    6  A    between atoms: C_17  and  C_21 
REMARK    7  A    between atoms: C_21  and  C_23 
REMARK    8  A    between atoms: C_21  and  C_24 
REMARK       I    between atoms: C_24  and  N_26 
ROOT
ATOM      1  C   LIG d   1      10.782   0.434  -5.116  0.00  0.00     0.005 C 
ATOM      2  H   LIG d   1      10.976   0.588  -6.177  0.00  0.00     0.036 H 
ATOM      3  C   LIG d   1      11.159   1.690  -4.345  0.00  0.00     0.057 A 
ATOM      4  C   LIG d   1      10.196   2.557  -3.943  0.00  0.00     0.015 A 
ATOM      5  S   LIG d   1      11.126   3.821  -3.120  0.00  0.00    -0.057 SA
ATOM      6  C   LIG d   1      12.699   3.118  -3.361  0.00  0.00     0.158 A 
ATOM      7  N   LIG d   1      12.410   2.018  -4.025  0.00  0.00    -0.229 NA
ATOM      8  C   LIG d   1       8.727   2.448  -4.156  0.00  0.00    -0.014 C 
ATOM      9  C   LIG d   1       8.452   1.371  -5.224  0.00  0.00    -0.022 C 
ATOM     10  C   LIG d   1       9.292   0.132  -4.908  0.00  0.00    -0.001 C 
ATOM     11  H   LIG d   1       9.117  -0.175  -3.878  0.00  0.00     0.034 H 
ATOM     12  C   LIG d   1       8.919  -1.014  -5.855  0.00  0.00     0.063 C 
ATOM     13  H   LIG d   1       9.144  -0.720  -6.881  0.00  0.00     0.060 H 
ATOM     14  C   LIG d   1       7.431  -1.338  -5.737  0.00  0.00    -0.004 C 
ATOM     15  H   LIG d   1       7.182  -2.160  -6.408  0.00  0.00     0.033 H 
ATOM     16  C   LIG d   1       6.635  -0.094  -6.150  0.00  0.00    -0.047 C 
ATOM     17  C   LIG d   1       6.960   1.029  -5.167  0.00  0.00    -0.047 C 
ATOM     18  H   LIG d   1       8.335   3.406  -4.496  0.00  0.00     0.032 H 
ATOM     19  H   LIG d   1       8.243   2.166  -3.221  0.00  0.00     0.032 H 
ATOM     20  H   LIG d   1       5.571  -0.322  -6.107  0.00  0.00     0.027 H 
ATOM     21  H   LIG d   1       6.901   0.217  -7.161  0.00  0.00     0.027 H 
ATOM     22  H   LIG d   1       6.702   0.710  -4.158  0.00  0.00     0.027 H 
ATOM     23  H   LIG d   1       6.377   1.912  -5.428  0.00  0.00     0.027 H 
ENDROOT
BRANCH  14  24
ATOM     24  C   LIG d   1       7.105  -1.732  -4.295  0.00  0.00     0.038 C 
ATOM     25  H   LIG d   1       7.351  -0.905  -3.628  0.00  0.00     0.040 H 
BRANCH  24  26
ATOM     26  C   LIG d   1       7.927  -2.962  -3.904  0.00  0.00    -0.054 C 
ATOM     27  H   LIG d   1       7.467  -3.855  -4.326  0.00  0.00     0.024 H 
ATOM     28  H   LIG d   1       8.942  -2.859  -4.290  0.00  0.00     0.024 H 
ATOM     29  H   LIG d   1       7.959  -3.047  -2.817  0.00  0.00     0.024 H 
ENDBRANCH  24  26
BRANCH  24  30
ATOM     30  C   LIG d   1       5.637  -2.051  -4.181  0.00  0.00     0.219 C 
ATOM     31  O   LIG d   1       5.144  -2.898  -4.895  0.00  0.00    -0.275 OA
ATOM     32  N   LIG d   1       4.872  -1.395  -3.286  0.00  0.00    -0.297 N 
ATOM     33  C   LIG d   1       3.418  -1.608  -3.232  0.00  0.00     0.038 C 
ATOM     34  C   LIG d   1       5.469  -0.448  -2.330  0.00  0.00     0.038 C 
ATOM     35  C   LIG d   1       2.728  -0.239  -3.256  0.00  0.00     0.064 C 
ATOM     36  H   LIG d   1       3.101  -2.194  -4.094  0.00  0.00     0.049 H 
ATOM     37  H   LIG d   1       3.157  -2.135  -2.314  0.00  0.00     0.049 H 
ATOM     38  O   LIG d   1       3.286   0.588  -2.233  0.00  0.00    -0.377 OA
ATOM     39  H   LIG d   1       2.882   0.229  -4.227  0.00  0.00     0.058 H 
ATOM     40  H   LIG d   1       1.659  -0.367  -3.080  0.00  0.00     0.058 H 
ATOM     41  C   LIG d   1       4.678   0.868  -2.401  0.00  0.00     0.064 C 
ATOM     42  H   LIG d   1       4.840   1.340  -3.369  0.00  0.00     0.058 H 
ATOM     43  H   LIG d   1       5.013   1.537  -1.609  0.00  0.00     0.058 H 
ATOM     44  H   LIG d   1       5.411  -0.860  -1.322  0.00  0.00     0.049 H 
ATOM     45  H   LIG d   1       6.511  -0.267  -2.593  0.00  0.00     0.049 H 
ENDBRANCH  24  30
ENDBRANCH  14  24
BRANCH  12  46
ATOM     46  O   LIG d   1       9.682  -2.174  -5.517  0.00  0.00    -0.391 OA
ATOM     47  H   LIG d   1      10.356  -2.017  -4.842  0.00  0.00     0.210 HD
ENDBRANCH  12  46
BRANCH   1  48
ATOM     48  C   LIG d   1      11.617  -0.744  -4.611  0.00  0.00    -0.057 C 
ATOM     49  H   LIG d   1      10.956  -1.565  -4.335  0.00  0.00     0.024 H 
ATOM     50  H   LIG d   1      12.295  -1.072  -5.398  0.00  0.00     0.024 H 
ATOM     51  H   LIG d   1      12.194  -0.433  -3.740  0.00  0.00     0.024 H 
ENDBRANCH   1  48
BRANCH   9  52
ATOM     52  C   LIG d   1       8.813   1.907  -6.611  0.00  0.00    -0.059 C 
ATOM     53  H   LIG d   1       9.894   1.876  -6.743  0.00  0.00     0.024 H 
ATOM     54  H   LIG d   1       8.337   1.290  -7.374  0.00  0.00     0.024 H 
ATOM     55  H   LIG d   1       8.465   2.935  -6.706  0.00  0.00     0.024 H 
ENDBRANCH   9  52
BRANCH   6  56
ATOM     56  N   LIG d   1      13.937   3.594  -2.958  0.00  0.00    -0.327 N 
ATOM     57  H   LIG d   1      13.993   4.377  -2.388  0.00  0.00     0.148 HD
BRANCH  56  58
ATOM     58  C   LIG d   1      15.160   2.916  -3.393  0.00  0.00    -0.001 C 
ATOM     59  H   LIG d   1      14.956   2.347  -4.300  0.00  0.00     0.043 H 
ATOM     60  H   LIG d   1      15.934   3.657  -3.595  0.00  0.00     0.043 H 
ATOM     61  H   LIG d   1      15.500   2.241  -2.608  0.00  0.00     0.043 H 
ENDBRANCH  56  58
ENDBRANCH   6  56
TORSDOF 8
ENDMDL
MODEL 9
REMARK VINA RESULT:      -4.7      3.530      6.101
REMARK  8 active torsions:
REMARK  status: ('A' for Active; 'I' for Inactive)
REMARK    1  A    between atoms: C_1  and  C_2 
REMARK    2  A    between atoms: C_7  and  N_9 
REMARK    3  A    between atoms: N_9  and  C_10 
REMARK    4  A    between atoms: C_12  and  C_33 
REMARK    5  A    between atoms: C_15  and  O_32 
REMARK    6  A    between atoms: C_17  and  C_21 
REMARK    7  A    between atoms: C_21  and  C_23 
REMARK    8  A    between atoms: C_21  and  C_24 
REMARK       I    between atoms: C_24  and  N_26 
ROOT
ATOM      1  C   LIG d   1       7.361  -1.905  -9.138  0.00  0.00     0.005 C 
ATOM      2  H   LIG d   1       6.637  -2.136  -9.919  0.00  0.00     0.036 H 
ATOM      3  C   LIG d   1       8.120  -0.641  -9.510  0.00  0.00     0.057 A 
ATOM      4  C   LIG d   1       7.790   0.545  -8.940  0.00  0.00     0.015 A 
ATOM      5  S   LIG d   1       8.932   1.673  -9.693  0.00  0.00    -0.057 SA
ATOM      6  C   LIG d   1       9.753   0.509 -10.690  0.00  0.00     0.158 A 
ATOM      7  N   LIG d   1       9.122  -0.607 -10.389  0.00  0.00    -0.229 NA
ATOM      8  C   LIG d   1       6.726   0.806  -7.933  0.00  0.00    -0.014 C 
ATOM      9  C   LIG d   1       5.784  -0.413  -7.871  0.00  0.00    -0.022 C 
ATOM     10  C   LIG d   1       6.626  -1.689  -7.809  0.00  0.00    -0.001 C 
ATOM     11  H   LIG d   1       7.347  -1.612  -6.995  0.00  0.00     0.034 H 
ATOM     12  C   LIG d   1       5.722  -2.906  -7.580  0.00  0.00     0.063 C 
ATOM     13  H   LIG d   1       5.037  -3.008  -8.422  0.00  0.00     0.060 H 
ATOM     14  C   LIG d   1       4.919  -2.738  -6.292  0.00  0.00    -0.004 C 
ATOM     15  H   LIG d   1       4.290  -3.614  -6.137  0.00  0.00     0.033 H 
ATOM     16  C   LIG d   1       4.028  -1.499  -6.441  0.00  0.00    -0.047 C 
ATOM     17  C   LIG d   1       4.931  -0.278  -6.605  0.00  0.00    -0.047 C 
ATOM     18  H   LIG d   1       6.159   1.690  -8.223  0.00  0.00     0.032 H 
ATOM     19  H   LIG d   1       7.181   0.966  -6.956  0.00  0.00     0.032 H 
ATOM     20  H   LIG d   1       3.421  -1.386  -5.543  0.00  0.00     0.027 H 
ATOM     21  H   LIG d   1       3.379  -1.593  -7.312  0.00  0.00     0.027 H 
ATOM     22  H   LIG d   1       5.585  -0.194  -5.738  0.00  0.00     0.027 H 
ATOM     23  H   LIG d   1       4.313   0.617  -6.680  0.00  0.00     0.027 H 
ENDROOT
BRANCH  14  24
ATOM     24  C   LIG d   1       5.877  -2.574  -5.109  0.00  0.00     0.038 C 
ATOM     25  H   LIG d   1       6.540  -1.728  -5.293  0.00  0.00     0.040 H 
BRANCH  24  26
ATOM     26  C   LIG d   1       6.709  -3.848  -4.946  0.00  0.00    -0.054 C 
ATOM     27  H   LIG d   1       6.648  -4.191  -3.914  0.00  0.00     0.024 H 
ATOM     28  H   LIG d   1       6.323  -4.621  -5.611  0.00  0.00     0.024 H 
ATOM     29  H   LIG d   1       7.748  -3.637  -5.200  0.00  0.00     0.024 H 
ENDBRANCH  24  26
BRANCH  24  30
ATOM     30  C   LIG d   1       5.083  -2.327  -3.852  0.00  0.00     0.219 C 
ATOM     31  O   LIG d   1       4.164  -3.062  -3.561  0.00  0.00    -0.275 OA
ATOM     32  N   LIG d   1       5.396  -1.289  -3.051  0.00  0.00    -0.297 N 
ATOM     33  C   LIG d   1       4.569  -0.962  -1.879  0.00  0.00     0.038 C 
ATOM     34  C   LIG d   1       6.578  -0.454  -3.319  0.00  0.00     0.038 C 
ATOM     35  C   LIG d   1       4.230   0.533  -1.929  0.00  0.00     0.064 C 
ATOM     36  H   LIG d   1       3.651  -1.547  -1.902  0.00  0.00     0.049 H 
ATOM     37  H   LIG d   1       5.122  -1.182  -0.966  0.00  0.00     0.049 H 
ATOM     38  O   LIG d   1       5.436   1.285  -2.085  0.00  0.00    -0.377 OA
ATOM     39  H   LIG d   1       3.569   0.728  -2.772  0.00  0.00     0.058 H 
ATOM     40  H   LIG d   1       3.735   0.826  -1.003  0.00  0.00     0.058 H 
ATOM     41  C   LIG d   1       6.138   1.019  -3.303  0.00  0.00     0.064 C 
ATOM     42  H   LIG d   1       5.483   1.215  -4.151  0.00  0.00     0.058 H 
ATOM     43  H   LIG d   1       7.017   1.661  -3.364  0.00  0.00     0.058 H 
ATOM     44  H   LIG d   1       7.330  -0.625  -2.548  0.00  0.00     0.049 H 
ATOM     45  H   LIG d   1       6.991  -0.705  -4.296  0.00  0.00     0.049 H 
ENDBRANCH  24  30
ENDBRANCH  14  24
BRANCH  12  46
ATOM     46  O   LIG d   1       6.530  -4.081  -7.481  0.00  0.00    -0.391 OA
ATOM     47  H   LIG d   1       7.383  -4.010  -7.930  0.00  0.00     0.210 HD
ENDBRANCH  12  46
BRANCH   1  48
ATOM     48  C   LIG d   1       8.344  -3.068  -8.994  0.00  0.00    -0.057 C 
ATOM     49  H   LIG d   1       8.159  -3.799  -9.780  0.00  0.00     0.024 H 
ATOM     50  H   LIG d   1       9.364  -2.693  -9.080  0.00  0.00     0.024 H 
ATOM     51  H   LIG d   1       8.210  -3.537  -8.020  0.00  0.00     0.024 H 
ENDBRANCH   1  48
BRANCH   9  52
ATOM     52  C   LIG d   1       4.883  -0.441  -9.107  0.00  0.00    -0.059 C 
ATOM     53  H   LIG d   1       4.418   0.535  -9.241  0.00  0.00     0.024 H 
ATOM     54  H   LIG d   1       5.481  -0.682  -9.987  0.00  0.00     0.024 H 
ATOM     55  H   LIG d   1       4.109  -1.198  -8.976  0.00  0.00     0.024 H 
ENDBRANCH   9  52
BRANCH   6  56
ATOM     56  N   LIG d   1      10.803   0.705 -11.575  0.00  0.00    -0.327 N 
ATOM     57  H   LIG d   1      11.692   0.391 -11.349  0.00  0.00     0.148 HD
BRANCH  56  58
ATOM     58  C   LIG d   1      10.569   1.387 -12.850  0.00  0.00    -0.001 C 
ATOM     59  H   LIG d   1       9.597   1.093 -13.246  0.00  0.00     0.043 H 
ATOM     60  H   LIG d   1      10.587   2.466 -12.693  0.00  0.00     0.043 H 
ATOM     61  H   LIG d   1      11.349   1.109 -13.559  0.00  0.00     0.043 H 
ENDBRANCH  56  58
ENDBRANCH   6  56
TORSDOF 8
ENDMDL
MODEL 10
REMARK VINA RESULT:      -4.7      7.541     10.925
REMARK  8 active torsions:
REMARK  status: ('A' for Active; 'I' for Inactive)
REMARK    1  A    between atoms: C_1  and  C_2 
REMARK    2  A    between atoms: C_7  and  N_9 
REMARK    3  A    between atoms: N_9  and  C_10 
REMARK    4  A    between atoms: C_12  and  C_33 
REMARK    5  A    between atoms: C_15  and  O_32 
REMARK    6  A    between atoms: C_17  and  C_21 
REMARK    7  A    between atoms: C_21  and  C_23 
REMARK    8  A    between atoms: C_21  and  C_24 
REMARK       I    between atoms: C_24  and  N_26 
ROOT
ATOM      1  C   LIG d   1      11.146   4.396  -4.325  0.00  0.00     0.005 C 
ATOM      2  H   LIG d   1      10.141   3.985  -4.431  0.00  0.00     0.036 H 
ATOM      3  C   LIG d   1      11.632   4.901  -5.673  0.00  0.00     0.057 A 
ATOM      4  C   LIG d   1      11.598   6.227  -5.957  0.00  0.00     0.015 A 
ATOM      5  S   LIG d   1      12.244   6.292  -7.606  0.00  0.00    -0.057 SA
ATOM      6  C   LIG d   1      12.512   4.584  -7.796  0.00  0.00     0.158 A 
ATOM      7  N   LIG d   1      12.104   4.110  -6.637  0.00  0.00    -0.229 NA
ATOM      8  C   LIG d   1      11.129   7.334  -5.080  0.00  0.00    -0.014 C 
ATOM      9  C   LIG d   1      10.335   6.737  -3.900  0.00  0.00    -0.022 C 
ATOM     10  C   LIG d   1      11.118   5.556  -3.321  0.00  0.00    -0.001 C 
ATOM     11  H   LIG d   1      12.136   5.871  -3.090  0.00  0.00     0.034 H 
ATOM     12  C   LIG d   1      10.437   5.047  -2.046  0.00  0.00     0.063 C 
ATOM     13  H   LIG d   1       9.438   4.686  -2.292  0.00  0.00     0.060 H 
ATOM     14  C   LIG d   1      10.331   6.168  -1.015  0.00  0.00    -0.004 C 
ATOM     15  H   LIG d   1       9.855   5.789  -0.111  0.00  0.00     0.033 H 
ATOM     16  C   LIG d   1       9.464   7.285  -1.609  0.00  0.00    -0.047 C 
ATOM     17  C   LIG d   1      10.175   7.836  -2.844  0.00  0.00    -0.047 C 
ATOM     18  H   LIG d   1      10.485   8.003  -5.649  0.00  0.00     0.032 H 
ATOM     19  H   LIG d   1      11.987   7.887  -4.699  0.00  0.00     0.032 H 
ATOM     20  H   LIG d   1       9.348   8.077  -0.870  0.00  0.00     0.027 H 
ATOM     21  H   LIG d   1       8.483   6.903  -1.892  0.00  0.00     0.027 H 
ATOM     22  H   LIG d   1      11.158   8.207  -2.558  0.00  0.00     0.027 H 
ATOM     23  H   LIG d   1       9.587   8.653  -3.260  0.00  0.00     0.027 H 
ENDROOT
BRANCH  14  24
ATOM     24  C   LIG d   1      11.729   6.691  -0.681  0.00  0.00     0.038 C 
ATOM     25  H   LIG d   1      12.116   7.260  -1.527  0.00  0.00     0.040 H 
BRANCH  24  26
ATOM     26  C   LIG d   1      12.660   5.511  -0.393  0.00  0.00    -0.054 C 
ATOM     27  H   LIG d   1      13.590   5.638  -0.948  0.00  0.00     0.024 H 
ATOM     28  H   LIG d   1      12.876   5.470   0.674  0.00  0.00     0.024 H 
ATOM     29  H   LIG d   1      12.176   4.584  -0.701  0.00  0.00     0.024 H 
ENDBRANCH  24  26
BRANCH  24  30
ATOM     30  C   LIG d   1      11.656   7.582   0.533  0.00  0.00     0.219 C 
ATOM     31  O   LIG d   1      11.231   7.144   1.580  0.00  0.00    -0.275 OA
ATOM     32  N   LIG d   1      12.063   8.864   0.453  0.00  0.00    -0.297 N 
ATOM     33  C   LIG d   1      11.898   9.782   1.591  0.00  0.00     0.038 C 
ATOM     34  C   LIG d   1      12.690   9.385  -0.772  0.00  0.00     0.038 C 
ATOM     35  C   LIG d   1      11.220  11.061   1.085  0.00  0.00     0.064 C 
ATOM     36  H   LIG d   1      11.276   9.314   2.353  0.00  0.00     0.049 H 
ATOM     37  H   LIG d   1      12.874  10.025   2.011  0.00  0.00     0.049 H 
ATOM     38  O   LIG d   1      11.945  11.566  -0.038  0.00  0.00    -0.377 OA
ATOM     39  H   LIG d   1      10.196  10.837   0.786  0.00  0.00     0.058 H 
ATOM     40  H   LIG d   1      11.212  11.808   1.880  0.00  0.00     0.058 H 
ATOM     41  C   LIG d   1      11.969  10.685  -1.164  0.00  0.00     0.064 C 
ATOM     42  H   LIG d   1      10.948  10.459  -1.471  0.00  0.00     0.058 H 
ATOM     43  H   LIG d   1      12.500  11.160  -1.988  0.00  0.00     0.058 H 
ATOM     44  H   LIG d   1      13.745   9.589  -0.585  0.00  0.00     0.049 H 
ATOM     45  H   LIG d   1      12.594   8.654  -1.574  0.00  0.00     0.049 H 
ENDBRANCH  24  30
ENDBRANCH  14  24
BRANCH  12  46
ATOM     46  O   LIG d   1      11.206   3.974  -1.497  0.00  0.00    -0.391 OA
ATOM     47  H   LIG d   1      11.753   4.230  -0.742  0.00  0.00     0.210 HD
ENDBRANCH  12  46
BRANCH   1  48
ATOM     48  C   LIG d   1      12.091   3.305  -3.817  0.00  0.00    -0.057 C 
ATOM     49  H   LIG d   1      12.060   2.453  -4.495  0.00  0.00     0.024 H 
ATOM     50  H   LIG d   1      13.106   3.698  -3.771  0.00  0.00     0.024 H 
ATOM     51  H   LIG d   1      11.779   2.990  -2.821  0.00  0.00     0.024 H 
ENDBRANCH   1  48
BRANCH   9  52
ATOM     52  C   LIG d   1       8.960   6.268  -4.379  0.00  0.00    -0.059 C 
ATOM     53  H   LIG d   1       8.346   7.133  -4.624  0.00  0.00     0.024 H 
ATOM     54  H   LIG d   1       9.078   5.643  -5.264  0.00  0.00     0.024 H 
ATOM     55  H   LIG d   1       8.477   5.691  -3.589  0.00  0.00     0.024 H 
ENDBRANCH   9  52
BRANCH   6  56
ATOM     56  N   LIG d   1      13.022   3.898  -8.888  0.00  0.00    -0.327 N 
ATOM     57  H   LIG d   1      13.873   4.162  -9.271  0.00  0.00     0.148 HD
BRANCH  56  58
ATOM     58  C   LIG d   1      12.277   2.776  -9.462  0.00  0.00    -0.001 C 
ATOM     59  H   LIG d   1      11.935   3.041 -10.462  0.00  0.00     0.043 H 
ATOM     60  H   LIG d   1      12.925   1.901  -9.520  0.00  0.00     0.043 H 
ATOM     61  H   LIG d   1      11.417   2.550  -8.832  0.00  0.00     0.043 H 
ENDBRANCH  56  58
ENDBRANCH   6  56
TORSDOF 8
ENDMDL
