MODEL 1
REMARK VINA RESULT:      -6.8      0.000      0.000
REMARK  6 active torsions:
REMARK  status: ('A' for Active; 'I' for Inactive)
REMARK    1  A    between atoms: C_1  and  O_2 
REMARK    2  A    between atoms: O_2  and  C_3 
REMARK    3  A    between atoms: C_6  and  C_9 
REMARK    4  A    between atoms: C_11  and  C_14 
REMARK    5  A    between atoms: N_24  and  C_25 
REMARK    6  A    between atoms: C_25  and  C_26 
ROOT
ATOM      1  C   LIG d   1       5.170  -2.669  -4.608  0.00  0.00     0.098 C 
ATOM      2  H   LIG d   1       6.237  -2.676  -4.387  0.00  0.00     0.057 H 
ATOM      3  C   LIG d   1       4.382  -2.404  -3.317  0.00  0.00     0.037 C 
ATOM      4  C   LIG d   1       4.600  -0.964  -2.931  0.00  0.00     0.148 A 
ATOM      5  C   LIG d   1       5.102  -0.033  -3.775  0.00  0.00     0.159 A 
ATOM      6  N   LIG d   1       5.167   1.125  -3.116  0.00  0.00    -0.246 N 
ATOM      7  C   LIG d   1       4.723   0.952  -1.898  0.00  0.00     0.243 A 
ATOM      8  N   LIG d   1       4.360  -0.344  -1.747  0.00  0.00    -0.247 N 
ATOM      9  H   LIG d   1       3.995  -0.752  -0.946  0.00  0.00     0.310 HD
ATOM     10  C   LIG d   1       5.494  -0.333  -5.200  0.00  0.00     0.066 C 
ATOM     11  N   LIG d   1       4.879  -1.614  -5.589  0.00  0.00    -0.279 N 
ATOM     12  H   LIG d   1       3.319  -2.583  -3.490  0.00  0.00     0.037 H 
ATOM     13  H   LIG d   1       4.742  -3.057  -2.524  0.00  0.00     0.037 H 
ATOM     14  H   LIG d   1       4.659   1.716  -1.138  0.00  0.00     0.158 H 
ATOM     15  H   LIG d   1       5.133   0.461  -5.855  0.00  0.00     0.051 H 
ATOM     16  H   LIG d   1       6.578  -0.408  -5.275  0.00  0.00     0.051 H 
ATOM     17  H   LIG d   1       5.491   1.963  -3.483  0.00  0.00     0.310 HD
ENDROOT
BRANCH   1  18
ATOM     18  C   LIG d   1       4.767  -4.006  -5.176  0.00  0.00     0.245 A 
ATOM     19  N   LIG d   1       5.466  -5.103  -5.109  0.00  0.00    -0.190 NA
ATOM     20  C   LIG d   1       4.808  -6.106  -5.718  0.00  0.00     0.202 A 
ATOM     21  N   LIG d   1       3.676  -5.641  -6.187  0.00  0.00    -0.056 NA
ATOM     22  O   LIG d   1       3.630  -4.266  -5.835  0.00  0.00    -0.336 OA
BRANCH  20  23
ATOM     23  C   LIG d   1       5.287  -7.505  -5.845  0.00  0.00     0.023 A 
ATOM     24  C   LIG d   1       6.375  -7.941  -5.092  0.00  0.00    -0.048 A 
ATOM     25  C   LIG d   1       6.819  -9.241  -5.212  0.00  0.00    -0.019 A 
ATOM     26  H   LIG d   1       6.872  -7.261  -4.416  0.00  0.00     0.063 H 
ATOM     27  C   LIG d   1       6.181 -10.116  -6.082  0.00  0.00     0.120 A 
ATOM     28  H   LIG d   1       7.662  -9.579  -4.629  0.00  0.00     0.065 H 
ATOM     29  C   LIG d   1       5.099  -9.682  -6.837  0.00  0.00    -0.019 A 
ATOM     30  C   LIG d   1       4.648  -8.385  -6.717  0.00  0.00    -0.048 A 
ATOM     31  H   LIG d   1       4.607 -10.364  -7.515  0.00  0.00     0.065 H 
ATOM     32  H   LIG d   1       3.804  -8.050  -7.302  0.00  0.00     0.063 H 
BRANCH  27  33
ATOM     33  O   LIG d   1       6.619 -11.396  -6.198  0.00  0.00    -0.495 OA
BRANCH  33  34
ATOM     34  C   LIG d   1       6.782 -12.138  -4.988  0.00  0.00     0.079 C 
ATOM     35  H   LIG d   1       5.878 -12.055  -4.386  0.00  0.00     0.066 H 
ATOM     36  H   LIG d   1       6.965 -13.186  -5.226  0.00  0.00     0.066 H 
ATOM     37  H   LIG d   1       7.629 -11.739  -4.429  0.00  0.00     0.066 H 
ENDBRANCH  33  34
ENDBRANCH  27  33
ENDBRANCH  20  23
ENDBRANCH   1  18
BRANCH  11  38
ATOM     38  C   LIG d   1       5.306  -2.015  -6.935  0.00  0.00     0.025 C 
ATOM     39  H   LIG d   1       6.196  -1.453  -7.218  0.00  0.00     0.048 H 
ATOM     40  H   LIG d   1       5.532  -3.082  -6.943  0.00  0.00     0.048 H 
BRANCH  38  41
ATOM     41  C   LIG d   1       4.199  -1.730  -7.918  0.00  0.00    -0.033 A 
ATOM     42  C   LIG d   1       3.420  -0.597  -7.773  0.00  0.00    -0.056 A 
ATOM     43  C   LIG d   1       2.409  -0.332  -8.676  0.00  0.00    -0.043 A 
ATOM     44  H   LIG d   1       3.605   0.083  -6.954  0.00  0.00     0.062 H 
ATOM     45  C   LIG d   1       2.169  -1.206  -9.721  0.00  0.00     0.041 A 
ATOM     46  H   LIG d   1       1.804   0.556  -8.566  0.00  0.00     0.063 H 
ATOM     47  C   LIG d   1       2.945  -2.343  -9.864  0.00  0.00    -0.043 A 
ATOM     48 CL   LIG d   1       0.895  -0.877 -10.854  0.00  0.00    -0.084 Cl
ATOM     49  C   LIG d   1       3.959  -2.604  -8.963  0.00  0.00    -0.056 A 
ATOM     50  H   LIG d   1       2.759  -3.026 -10.680  0.00  0.00     0.063 H 
ATOM     51  H   LIG d   1       4.566  -3.491  -9.074  0.00  0.00     0.062 H 
ENDBRANCH  38  41
ENDBRANCH  11  38
TORSDOF 6
ENDMDL
MODEL 2
REMARK VINA RESULT:      -6.8      2.983      5.007
REMARK  6 active torsions:
REMARK  status: ('A' for Active; 'I' for Inactive)
REMARK    1  A    between atoms: C_1  and  O_2 
REMARK    2  A    between atoms: O_2  and  C_3 
REMARK    3  A    between atoms: C_6  and  C_9 
REMARK    4  A    between atoms: C_11  and  C_14 
REMARK    5  A    between atoms: N_24  and  C_25 
REMARK    6  A    between atoms: C_25  and  C_26 
ROOT
ATOM      1  C   LIG d   1       4.165  -4.662  -6.875  0.00  0.00     0.098 C 
ATOM      2  H   LIG d   1       3.306  -4.502  -6.224  0.00  0.00     0.057 H 
ATOM      3  C   LIG d   1       3.711  -4.610  -8.341  0.00  0.00     0.037 C 
ATOM      4  C   LIG d   1       3.370  -3.178  -8.668  0.00  0.00     0.148 A 
ATOM      5  C   LIG d   1       3.748  -2.129  -7.903  0.00  0.00     0.159 A 
ATOM      6  N   LIG d   1       3.281  -1.016  -8.473  0.00  0.00    -0.246 N 
ATOM      7  C   LIG d   1       2.631  -1.334  -9.563  0.00  0.00     0.243 A 
ATOM      8  N   LIG d   1       2.667  -2.679  -9.716  0.00  0.00    -0.247 N 
ATOM      9  H   LIG d   1       2.267  -3.188 -10.438  0.00  0.00     0.310 HD
ATOM     10  C   LIG d   1       4.558  -2.274  -6.639  0.00  0.00     0.066 C 
ATOM     11  N   LIG d   1       5.167  -3.615  -6.632  0.00  0.00    -0.279 N 
ATOM     12  H   LIG d   1       4.517  -4.954  -8.990  0.00  0.00     0.037 H 
ATOM     13  H   LIG d   1       2.832  -5.238  -8.478  0.00  0.00     0.037 H 
ATOM     14  H   LIG d   1       2.145  -0.637 -10.230  0.00  0.00     0.158 H 
ATOM     15  H   LIG d   1       5.341  -1.515  -6.615  0.00  0.00     0.051 H 
ATOM     16  H   LIG d   1       3.909  -2.160  -5.771  0.00  0.00     0.051 H 
ATOM     17  H   LIG d   1       3.405  -0.116  -8.134  0.00  0.00     0.310 HD
ENDROOT
BRANCH   1  18
ATOM     18  C   LIG d   1       4.769  -6.012  -6.585  0.00  0.00     0.245 A 
ATOM     19  N   LIG d   1       4.650  -6.675  -5.470  0.00  0.00    -0.190 NA
ATOM     20  C   LIG d   1       5.315  -7.841  -5.555  0.00  0.00     0.202 A 
ATOM     21  N   LIG d   1       5.872  -7.921  -6.739  0.00  0.00    -0.056 NA
ATOM     22  O   LIG d   1       5.519  -6.732  -7.430  0.00  0.00    -0.336 OA
BRANCH  20  23
ATOM     23  C   LIG d   1       5.409  -8.865  -4.485  0.00  0.00     0.023 A 
ATOM     24  C   LIG d   1       6.637  -9.137  -3.884  0.00  0.00    -0.048 A 
ATOM     25  C   LIG d   1       6.721 -10.087  -2.889  0.00  0.00    -0.019 A 
ATOM     26  H   LIG d   1       7.522  -8.603  -4.198  0.00  0.00     0.063 H 
ATOM     27  C   LIG d   1       5.583 -10.774  -2.486  0.00  0.00     0.120 A 
ATOM     28  H   LIG d   1       7.672 -10.299  -2.424  0.00  0.00     0.065 H 
ATOM     29  C   LIG d   1       4.359 -10.509  -3.086  0.00  0.00    -0.019 A 
ATOM     30  C   LIG d   1       4.269  -9.555  -4.076  0.00  0.00    -0.048 A 
ATOM     31  H   LIG d   1       3.477 -11.047  -2.772  0.00  0.00     0.065 H 
ATOM     32  H   LIG d   1       3.315  -9.346  -4.540  0.00  0.00     0.063 H 
BRANCH  27  33
ATOM     33  O   LIG d   1       5.669 -11.711  -1.506  0.00  0.00    -0.495 OA
BRANCH  33  34
ATOM     34  C   LIG d   1       6.844 -11.692  -0.692  0.00  0.00     0.079 C 
ATOM     35  H   LIG d   1       7.683 -11.311  -1.273  0.00  0.00     0.066 H 
ATOM     36  H   LIG d   1       6.677 -11.046   0.171  0.00  0.00     0.066 H 
ATOM     37  H   LIG d   1       7.066 -12.703  -0.352  0.00  0.00     0.066 H 
ENDBRANCH  33  34
ENDBRANCH  27  33
ENDBRANCH  20  23
ENDBRANCH   1  18
BRANCH  11  38
ATOM     38  C   LIG d   1       5.888  -3.859  -5.376  0.00  0.00     0.025 C 
ATOM     39  H   LIG d   1       5.583  -4.820  -4.961  0.00  0.00     0.048 H 
ATOM     40  H   LIG d   1       6.961  -3.869  -5.570  0.00  0.00     0.048 H 
BRANCH  38  41
ATOM     41  C   LIG d   1       5.567  -2.763  -4.391  0.00  0.00    -0.033 A 
ATOM     42  C   LIG d   1       4.425  -2.843  -3.616  0.00  0.00    -0.056 A 
ATOM     43  C   LIG d   1       4.132  -1.843  -2.710  0.00  0.00    -0.043 A 
ATOM     44  H   LIG d   1       3.764  -3.692  -3.717  0.00  0.00     0.062 H 
ATOM     45  C   LIG d   1       4.977  -0.754  -2.586  0.00  0.00     0.041 A 
ATOM     46  H   LIG d   1       3.243  -1.908  -2.100  0.00  0.00     0.063 H 
ATOM     47  C   LIG d   1       6.117  -0.671  -3.366  0.00  0.00    -0.043 A 
ATOM     48 CL   LIG d   1       4.607   0.508  -1.452  0.00  0.00    -0.084 Cl
ATOM     49  C   LIG d   1       6.411  -1.675  -4.268  0.00  0.00    -0.056 A 
ATOM     50  H   LIG d   1       6.777   0.179  -3.270  0.00  0.00     0.063 H 
ATOM     51  H   LIG d   1       7.301  -1.611  -4.877  0.00  0.00     0.062 H 
ENDBRANCH  38  41
ENDBRANCH  11  38
TORSDOF 6
ENDMDL
MODEL 3
REMARK VINA RESULT:      -6.7      4.205      8.565
REMARK  6 active torsions:
REMARK  status: ('A' for Active; 'I' for Inactive)
REMARK    1  A    between atoms: C_1  and  O_2 
REMARK    2  A    between atoms: O_2  and  C_3 
REMARK    3  A    between atoms: C_6  and  C_9 
REMARK    4  A    between atoms: C_11  and  C_14 
REMARK    5  A    between atoms: N_24  and  C_25 
REMARK    6  A    between atoms: C_25  and  C_26 
ROOT
ATOM      1  C   LIG d   1       6.209  -2.019  -4.170  0.00  0.00     0.098 C 
ATOM      2  H   LIG d   1       5.692  -2.431  -3.303  0.00  0.00     0.057 H 
ATOM      3  C   LIG d   1       7.478  -2.839  -4.446  0.00  0.00     0.037 C 
ATOM      4  C   LIG d   1       7.052  -4.182  -4.981  0.00  0.00     0.148 A 
ATOM      5  C   LIG d   1       5.810  -4.439  -5.449  0.00  0.00     0.159 A 
ATOM      6  N   LIG d   1       5.773  -5.714  -5.838  0.00  0.00    -0.246 N 
ATOM      7  C   LIG d   1       6.945  -6.259  -5.633  0.00  0.00     0.243 A 
ATOM      8  N   LIG d   1       7.770  -5.329  -5.097  0.00  0.00    -0.247 N 
ATOM      9  H   LIG d   1       8.698  -5.457  -4.846  0.00  0.00     0.310 HD
ATOM     10  C   LIG d   1       4.712  -3.406  -5.493  0.00  0.00     0.066 C 
ATOM     11  N   LIG d   1       5.323  -2.074  -5.341  0.00  0.00    -0.279 N 
ATOM     12  H   LIG d   1       8.096  -2.326  -5.184  0.00  0.00     0.037 H 
ATOM     13  H   LIG d   1       8.040  -2.971  -3.522  0.00  0.00     0.037 H 
ATOM     14  H   LIG d   1       7.208  -7.283  -5.853  0.00  0.00     0.158 H 
ATOM     15  H   LIG d   1       4.190  -3.464  -6.449  0.00  0.00     0.051 H 
ATOM     16  H   LIG d   1       4.009  -3.582  -4.679  0.00  0.00     0.051 H 
ATOM     17  H   LIG d   1       5.001  -6.165  -6.215  0.00  0.00     0.310 HD
ENDROOT
BRANCH   1  18
ATOM     18  C   LIG d   1       6.587  -0.586  -3.894  0.00  0.00     0.245 A 
ATOM     19  N   LIG d   1       7.531   0.081  -4.495  0.00  0.00    -0.190 NA
ATOM     20  C   LIG d   1       7.595   1.331  -4.004  0.00  0.00     0.202 A 
ATOM     21  N   LIG d   1       6.682   1.463  -3.072  0.00  0.00    -0.056 NA
ATOM     22  O   LIG d   1       6.008   0.216  -2.991  0.00  0.00    -0.336 OA
BRANCH  20  23
ATOM     23  C   LIG d   1       8.545   2.385  -4.439  0.00  0.00     0.023 A 
ATOM     24  C   LIG d   1       8.758   2.615  -5.796  0.00  0.00    -0.048 A 
ATOM     25  C   LIG d   1       9.641   3.595  -6.198  0.00  0.00    -0.019 A 
ATOM     26  H   LIG d   1       8.231   2.027  -6.534  0.00  0.00     0.063 H 
ATOM     27  C   LIG d   1      10.319   4.351  -5.251  0.00  0.00     0.120 A 
ATOM     28  H   LIG d   1       9.807   3.774  -7.250  0.00  0.00     0.065 H 
ATOM     29  C   LIG d   1      10.112   4.120  -3.897  0.00  0.00    -0.019 A 
ATOM     30  C   LIG d   1       9.226   3.146  -3.490  0.00  0.00    -0.048 A 
ATOM     31  H   LIG d   1      10.643   4.708  -3.163  0.00  0.00     0.065 H 
ATOM     32  H   LIG d   1       9.063   2.969  -2.437  0.00  0.00     0.063 H 
BRANCH  27  33
ATOM     33  O   LIG d   1      11.188   5.316  -5.649  0.00  0.00    -0.495 OA
BRANCH  33  34
ATOM     34  C   LIG d   1      11.792   6.108  -4.624  0.00  0.00     0.079 C 
ATOM     35  H   LIG d   1      12.826   6.321  -4.891  0.00  0.00     0.066 H 
ATOM     36  H   LIG d   1      11.244   7.045  -4.520  0.00  0.00     0.066 H 
ATOM     37  H   LIG d   1      11.764   5.563  -3.681  0.00  0.00     0.066 H 
ENDBRANCH  33  34
ENDBRANCH  27  33
ENDBRANCH  20  23
ENDBRANCH   1  18
BRANCH  11  38
ATOM     38  C   LIG d   1       4.295  -1.028  -5.272  0.00  0.00     0.025 C 
ATOM     39  H   LIG d   1       3.336  -1.476  -5.010  0.00  0.00     0.048 H 
ATOM     40  H   LIG d   1       4.573  -0.293  -4.516  0.00  0.00     0.048 H 
BRANCH  38  41
ATOM     41  C   LIG d   1       4.180  -0.348  -6.613  0.00  0.00    -0.033 A 
ATOM     42  C   LIG d   1       5.308  -0.153  -7.388  0.00  0.00    -0.056 A 
ATOM     43  C   LIG d   1       5.203   0.465  -8.619  0.00  0.00    -0.043 A 
ATOM     44  H   LIG d   1       6.271  -0.489  -7.032  0.00  0.00     0.062 H 
ATOM     45  C   LIG d   1       3.970   0.900  -9.072  0.00  0.00     0.041 A 
ATOM     46  H   LIG d   1       6.084   0.612  -9.227  0.00  0.00     0.063 H 
ATOM     47  C   LIG d   1       2.841   0.710  -8.293  0.00  0.00    -0.043 A 
ATOM     48 CL   LIG d   1       3.838   1.682 -10.616  0.00  0.00    -0.084 Cl
ATOM     49  C   LIG d   1       2.948   0.087  -7.065  0.00  0.00    -0.056 A 
ATOM     50  H   LIG d   1       1.879   1.049  -8.646  0.00  0.00     0.063 H 
ATOM     51  H   LIG d   1       2.067  -0.062  -6.457  0.00  0.00     0.062 H 
ENDBRANCH  38  41
ENDBRANCH  11  38
TORSDOF 6
ENDMDL
MODEL 4
REMARK VINA RESULT:      -6.6      6.660     11.697
REMARK  6 active torsions:
REMARK  status: ('A' for Active; 'I' for Inactive)
REMARK    1  A    between atoms: C_1  and  O_2 
REMARK    2  A    between atoms: O_2  and  C_3 
REMARK    3  A    between atoms: C_6  and  C_9 
REMARK    4  A    between atoms: C_11  and  C_14 
REMARK    5  A    between atoms: N_24  and  C_25 
REMARK    6  A    between atoms: C_25  and  C_26 
ROOT
ATOM      1  C   LIG d   1       9.380   2.033  -5.207  0.00  0.00     0.098 C 
ATOM      2  H   LIG d   1      10.008   1.167  -5.413  0.00  0.00     0.057 H 
ATOM      3  C   LIG d   1       9.371   2.961  -6.431  0.00  0.00     0.037 C 
ATOM      4  C   LIG d   1       8.573   2.285  -7.516  0.00  0.00     0.148 A 
ATOM      5  C   LIG d   1       7.747   1.238  -7.292  0.00  0.00     0.159 A 
ATOM      6  N   LIG d   1       7.206   0.885  -8.460  0.00  0.00    -0.246 N 
ATOM      7  C   LIG d   1       7.662   1.673  -9.399  0.00  0.00     0.243 A 
ATOM      8  N   LIG d   1       8.520   2.562  -8.845  0.00  0.00    -0.247 N 
ATOM      9  H   LIG d   1       9.004   3.263  -9.308  0.00  0.00     0.310 HD
ATOM     10  C   LIG d   1       7.527   0.633  -5.929  0.00  0.00     0.066 C 
ATOM     11  N   LIG d   1       8.010   1.588  -4.916  0.00  0.00    -0.279 N 
ATOM     12  H   LIG d   1       8.906   3.913  -6.169  0.00  0.00     0.037 H 
ATOM     13  H   LIG d   1      10.391   3.130  -6.773  0.00  0.00     0.037 H 
ATOM     14  H   LIG d   1       7.398   1.622 -10.445  0.00  0.00     0.158 H 
ATOM     15  H   LIG d   1       6.464   0.444  -5.777  0.00  0.00     0.051 H 
ATOM     16  H   LIG d   1       8.082  -0.301  -5.846  0.00  0.00     0.051 H 
ATOM     17  H   LIG d   1       6.575   0.160  -8.591  0.00  0.00     0.310 HD
ENDROOT
BRANCH   1  18
ATOM     18  C   LIG d   1       9.928   2.778  -4.017  0.00  0.00     0.245 A 
ATOM     19  N   LIG d   1       9.633   4.002  -3.683  0.00  0.00    -0.190 NA
ATOM     20  C   LIG d   1      10.301   4.348  -2.568  0.00  0.00     0.202 A 
ATOM     21  N   LIG d   1      11.037   3.333  -2.187  0.00  0.00    -0.056 NA
ATOM     22  O   LIG d   1      10.800   2.292  -3.123  0.00  0.00    -0.336 OA
BRANCH  20  23
ATOM     23  C   LIG d   1      10.222   5.664  -1.885  0.00  0.00     0.023 A 
ATOM     24  C   LIG d   1       9.601   6.741  -2.514  0.00  0.00    -0.048 A 
ATOM     25  C   LIG d   1       9.529   7.962  -1.878  0.00  0.00    -0.019 A 
ATOM     26  H   LIG d   1       9.176   6.620  -3.501  0.00  0.00     0.063 H 
ATOM     27  C   LIG d   1      10.075   8.119  -0.611  0.00  0.00     0.120 A 
ATOM     28  H   LIG d   1       9.048   8.797  -2.365  0.00  0.00     0.065 H 
ATOM     29  C   LIG d   1      10.699   7.048   0.016  0.00  0.00    -0.019 A 
ATOM     30  C   LIG d   1      10.768   5.824  -0.613  0.00  0.00    -0.048 A 
ATOM     31  H   LIG d   1      11.125   7.174   1.001  0.00  0.00     0.065 H 
ATOM     32  H   LIG d   1      11.250   4.991  -0.122  0.00  0.00     0.063 H 
BRANCH  27  33
ATOM     33  O   LIG d   1      10.003   9.323   0.014  0.00  0.00    -0.495 OA
BRANCH  33  34
ATOM     34  C   LIG d   1      10.772  10.390  -0.544  0.00  0.00     0.079 C 
ATOM     35  H   LIG d   1      11.652  10.565   0.073  0.00  0.00     0.066 H 
ATOM     36  H   LIG d   1      11.083  10.124  -1.554  0.00  0.00     0.066 H 
ATOM     37  H   LIG d   1      10.166  11.295  -0.577  0.00  0.00     0.066 H 
ENDBRANCH  33  34
ENDBRANCH  27  33
ENDBRANCH  20  23
ENDBRANCH   1  18
BRANCH  11  38
ATOM     38  C   LIG d   1       7.918   1.016  -3.567  0.00  0.00     0.025 C 
ATOM     39  H   LIG d   1       8.623   0.190  -3.473  0.00  0.00     0.048 H 
ATOM     40  H   LIG d   1       8.156   1.783  -2.829  0.00  0.00     0.048 H 
BRANCH  38  41
ATOM     41  C   LIG d   1       6.518   0.509  -3.330  0.00  0.00    -0.033 A 
ATOM     42  C   LIG d   1       6.262  -0.849  -3.347  0.00  0.00    -0.056 A 
ATOM     43  C   LIG d   1       4.981  -1.314  -3.125  0.00  0.00    -0.043 A 
ATOM     44  H   LIG d   1       7.067  -1.546  -3.529  0.00  0.00     0.062 H 
ATOM     45  C   LIG d   1       3.950  -0.419  -2.897  0.00  0.00     0.041 A 
ATOM     46  H   LIG d   1       4.782  -2.376  -3.132  0.00  0.00     0.063 H 
ATOM     47  C   LIG d   1       4.205   0.941  -2.886  0.00  0.00    -0.043 A 
ATOM     48 CL   LIG d   1       2.338  -1.002  -2.624  0.00  0.00    -0.084 Cl
ATOM     49  C   LIG d   1       5.488   1.404  -3.103  0.00  0.00    -0.056 A 
ATOM     50  H   LIG d   1       3.401   1.640  -2.708  0.00  0.00     0.063 H 
ATOM     51  H   LIG d   1       5.688   2.466  -3.094  0.00  0.00     0.062 H 
ENDBRANCH  38  41
ENDBRANCH  11  38
TORSDOF 6
ENDMDL
MODEL 5
REMARK VINA RESULT:      -6.5      7.488     11.981
REMARK  6 active torsions:
REMARK  status: ('A' for Active; 'I' for Inactive)
REMARK    1  A    between atoms: C_1  and  O_2 
REMARK    2  A    between atoms: O_2  and  C_3 
REMARK    3  A    between atoms: C_6  and  C_9 
REMARK    4  A    between atoms: C_11  and  C_14 
REMARK    5  A    between atoms: N_24  and  C_25 
REMARK    6  A    between atoms: C_25  and  C_26 
ROOT
ATOM      1  C   LIG d   1       8.120   1.627  -4.659  0.00  0.00     0.098 C 
ATOM      2  H   LIG d   1       7.589   1.723  -5.606  0.00  0.00     0.057 H 
ATOM      3  C   LIG d   1       7.118   1.298  -3.543  0.00  0.00     0.037 C 
ATOM      4  C   LIG d   1       6.648  -0.119  -3.748  0.00  0.00     0.148 A 
ATOM      5  C   LIG d   1       7.278  -1.005  -4.553  0.00  0.00     0.159 A 
ATOM      6  N   LIG d   1       6.601  -2.154  -4.508  0.00  0.00    -0.246 N 
ATOM      7  C   LIG d   1       5.576  -2.017  -3.706  0.00  0.00     0.243 A 
ATOM      8  N   LIG d   1       5.574  -0.756  -3.213  0.00  0.00    -0.247 N 
ATOM      9  H   LIG d   1       4.930  -0.379  -2.593  0.00  0.00     0.310 HD
ATOM     10  C   LIG d   1       8.527  -0.675  -5.330  0.00  0.00     0.066 C 
ATOM     11  N   LIG d   1       9.115   0.551  -4.762  0.00  0.00    -0.279 N 
ATOM     12  H   LIG d   1       7.606   1.387  -2.571  0.00  0.00     0.037 H 
ATOM     13  H   LIG d   1       6.270   1.979  -3.595  0.00  0.00     0.037 H 
ATOM     14  H   LIG d   1       4.851  -2.784  -3.477  0.00  0.00     0.158 H 
ATOM     15  H   LIG d   1       9.240  -1.496  -5.248  0.00  0.00     0.051 H 
ATOM     16  H   LIG d   1       8.276  -0.510  -6.377  0.00  0.00     0.051 H 
ATOM     17  H   LIG d   1       6.832  -2.962  -4.993  0.00  0.00     0.310 HD
ENDROOT
BRANCH   1  18
ATOM     18  C   LIG d   1       8.817   2.926  -4.341  0.00  0.00     0.245 A 
ATOM     19  N   LIG d   1       9.222   3.303  -3.162  0.00  0.00    -0.190 NA
ATOM     20  C   LIG d   1       9.803   4.513  -3.241  0.00  0.00     0.202 A 
ATOM     21  N   LIG d   1       9.764   4.917  -4.487  0.00  0.00    -0.056 NA
ATOM     22  O   LIG d   1       9.125   3.885  -5.224  0.00  0.00    -0.336 OA
BRANCH  20  23
ATOM     23  C   LIG d   1      10.387   5.269  -2.105  0.00  0.00     0.023 A 
ATOM     24  C   LIG d   1       9.807   6.467  -1.693  0.00  0.00    -0.048 A 
ATOM     25  C   LIG d   1      10.351   7.167  -0.636  0.00  0.00    -0.019 A 
ATOM     26  H   LIG d   1       8.933   6.848  -2.201  0.00  0.00     0.063 H 
ATOM     27  C   LIG d   1      11.475   6.679   0.016  0.00  0.00     0.120 A 
ATOM     28  H   LIG d   1       9.903   8.096  -0.317  0.00  0.00     0.065 H 
ATOM     29  C   LIG d   1      12.057   5.487  -0.396  0.00  0.00    -0.019 A 
ATOM     30  C   LIG d   1      11.514   4.781  -1.447  0.00  0.00    -0.048 A 
ATOM     31  H   LIG d   1      12.933   5.111   0.112  0.00  0.00     0.065 H 
ATOM     32  H   LIG d   1      11.965   3.851  -1.764  0.00  0.00     0.063 H 
BRANCH  27  33
ATOM     33  O   LIG d   1      12.009   7.370   1.056  0.00  0.00    -0.495 OA
BRANCH  33  34
ATOM     34  C   LIG d   1      11.525   8.698   1.269  0.00  0.00     0.079 C 
ATOM     35  H   LIG d   1      10.439   8.681   1.349  0.00  0.00     0.066 H 
ATOM     36  H   LIG d   1      11.951   9.097   2.189  0.00  0.00     0.066 H 
ATOM     37  H   LIG d   1      11.817   9.329   0.429  0.00  0.00     0.066 H 
ENDBRANCH  33  34
ENDBRANCH  27  33
ENDBRANCH  20  23
ENDBRANCH   1  18
BRANCH  11  38
ATOM     38  C   LIG d   1      10.282   0.985  -5.540  0.00  0.00     0.025 C 
ATOM     39  H   LIG d   1      10.288   0.474  -6.503  0.00  0.00     0.048 H 
ATOM     40  H   LIG d   1      10.232   2.063  -5.700  0.00  0.00     0.048 H 
BRANCH  38  41
ATOM     41  C   LIG d   1      11.543   0.648  -4.786  0.00  0.00    -0.033 A 
ATOM     42  C   LIG d   1      11.986  -0.660  -4.730  0.00  0.00    -0.056 A 
ATOM     43  C   LIG d   1      13.144  -0.970  -4.043  0.00  0.00    -0.043 A 
ATOM     44  H   LIG d   1      11.427  -1.440  -5.227  0.00  0.00     0.062 H 
ATOM     45  C   LIG d   1      13.855   0.029  -3.402  0.00  0.00     0.041 A 
ATOM     46  H   LIG d   1      13.493  -1.991  -4.005  0.00  0.00     0.063 H 
ATOM     47  C   LIG d   1      13.409   1.338  -3.454  0.00  0.00    -0.043 A 
ATOM     48 CL   LIG d   1      15.308  -0.360  -2.534  0.00  0.00    -0.084 Cl
ATOM     49  C   LIG d   1      12.253   1.646  -4.145  0.00  0.00    -0.056 A 
ATOM     50  H   LIG d   1      13.964   2.117  -2.954  0.00  0.00     0.063 H 
ATOM     51  H   LIG d   1      11.905   2.668  -4.186  0.00  0.00     0.062 H 
ENDBRANCH  38  41
ENDBRANCH  11  38
TORSDOF 6
ENDMDL
MODEL 6
REMARK VINA RESULT:      -6.4      7.437     10.450
REMARK  6 active torsions:
REMARK  status: ('A' for Active; 'I' for Inactive)
REMARK    1  A    between atoms: C_1  and  O_2 
REMARK    2  A    between atoms: O_2  and  C_3 
REMARK    3  A    between atoms: C_6  and  C_9 
REMARK    4  A    between atoms: C_11  and  C_14 
REMARK    5  A    between atoms: N_24  and  C_25 
REMARK    6  A    between atoms: C_25  and  C_26 
ROOT
ATOM      1  C   LIG d   1      10.529   6.152  -2.632  0.00  0.00     0.098 C 
ATOM      2  H   LIG d   1      11.467   6.288  -2.095  0.00  0.00     0.057 H 
ATOM      3  C   LIG d   1       9.369   6.680  -1.777  0.00  0.00     0.037 C 
ATOM      4  C   LIG d   1       9.464   8.184  -1.748  0.00  0.00     0.148 A 
ATOM      5  C   LIG d   1      10.220   8.900  -2.611  0.00  0.00     0.159 A 
ATOM      6  N   LIG d   1      10.079  10.192  -2.306  0.00  0.00    -0.246 N 
ATOM      7  C   LIG d   1       9.264  10.306  -1.289  0.00  0.00     0.243 A 
ATOM      8  N   LIG d   1       8.859   9.069  -0.914  0.00  0.00    -0.247 N 
ATOM      9  H   LIG d   1       8.252   8.856  -0.188  0.00  0.00     0.310 HD
ATOM     10  C   LIG d   1      11.048   8.273  -3.704  0.00  0.00     0.066 C 
ATOM     11  N   LIG d   1      10.581   6.890  -3.902  0.00  0.00    -0.279 N 
ATOM     12  H   LIG d   1       8.418   6.379  -2.218  0.00  0.00     0.037 H 
ATOM     13  H   LIG d   1       9.447   6.286  -0.764  0.00  0.00     0.037 H 
ATOM     14  H   LIG d   1       8.965  11.234  -0.826  0.00  0.00     0.158 H 
ATOM     15  H   LIG d   1      10.926   8.838  -4.629  0.00  0.00     0.051 H 
ATOM     16  H   LIG d   1      12.098   8.267  -3.413  0.00  0.00     0.051 H 
ATOM     17  H   LIG d   1      10.512  10.928  -2.766  0.00  0.00     0.310 HD
ENDROOT
BRANCH   1  18
ATOM     18  C   LIG d   1      10.319   4.686  -2.913  0.00  0.00     0.245 A 
ATOM     19  N   LIG d   1       9.318   4.173  -3.568  0.00  0.00    -0.190 NA
ATOM     20  C   LIG d   1       9.447   2.835  -3.633  0.00  0.00     0.202 A 
ATOM     21  N   LIG d   1      10.544   2.490  -3.004  0.00  0.00    -0.056 NA
ATOM     22  O   LIG d   1      11.132   3.692  -2.531  0.00  0.00    -0.336 OA
BRANCH  20  23
ATOM     23  C   LIG d   1       8.502   1.905  -4.298  0.00  0.00     0.023 A 
ATOM     24  C   LIG d   1       7.553   1.217  -3.545  0.00  0.00    -0.048 A 
ATOM     25  C   LIG d   1       6.675   0.353  -4.167  0.00  0.00    -0.019 A 
ATOM     26  H   LIG d   1       7.505   1.359  -2.476  0.00  0.00     0.063 H 
ATOM     27  C   LIG d   1       6.737   0.169  -5.542  0.00  0.00     0.120 A 
ATOM     28  H   LIG d   1       5.940  -0.181  -3.583  0.00  0.00     0.065 H 
ATOM     29  C   LIG d   1       7.686   0.850  -6.294  0.00  0.00    -0.019 A 
ATOM     30  C   LIG d   1       8.561   1.719  -5.679  0.00  0.00    -0.048 A 
ATOM     31  H   LIG d   1       7.733   0.703  -7.363  0.00  0.00     0.065 H 
ATOM     32  H   LIG d   1       9.296   2.252  -6.265  0.00  0.00     0.063 H 
BRANCH  27  33
ATOM     33  O   LIG d   1       5.872  -0.682  -6.151  0.00  0.00    -0.495 OA
BRANCH  33  34
ATOM     34  C   LIG d   1       4.492  -0.568  -5.797  0.00  0.00     0.079 C 
ATOM     35  H   LIG d   1       3.876  -0.722  -6.681  0.00  0.00     0.066 H 
ATOM     36  H   LIG d   1       4.247  -1.320  -5.047  0.00  0.00     0.066 H 
ATOM     37  H   LIG d   1       4.303   0.426  -5.390  0.00  0.00     0.066 H 
ENDBRANCH  33  34
ENDBRANCH  27  33
ENDBRANCH  20  23
ENDBRANCH   1  18
BRANCH  11  38
ATOM     38  C   LIG d   1      11.415   6.188  -4.885  0.00  0.00     0.025 C 
ATOM     39  H   LIG d   1      12.351   6.730  -5.022  0.00  0.00     0.048 H 
ATOM     40  H   LIG d   1      11.628   5.180  -4.528  0.00  0.00     0.048 H 
BRANCH  38  41
ATOM     41  C   LIG d   1      10.684   6.110  -6.201  0.00  0.00    -0.033 A 
ATOM     42  C   LIG d   1      10.273   7.269  -6.833  0.00  0.00    -0.056 A 
ATOM     43  C   LIG d   1       9.607   7.199  -8.041  0.00  0.00    -0.043 A 
ATOM     44  H   LIG d   1      10.476   8.230  -6.382  0.00  0.00     0.062 H 
ATOM     45  C   LIG d   1       9.343   5.968  -8.615  0.00  0.00     0.041 A 
ATOM     46  H   LIG d   1       9.291   8.105  -8.538  0.00  0.00     0.063 H 
ATOM     47  C   LIG d   1       9.749   4.808  -7.980  0.00  0.00    -0.043 A 
ATOM     48 CL   LIG d   1       8.501   5.879 -10.131  0.00  0.00    -0.084 Cl
ATOM     49  C   LIG d   1      10.419   4.880  -6.774  0.00  0.00    -0.056 A 
ATOM     50  H   LIG d   1       9.543   3.847  -8.427  0.00  0.00     0.063 H 
ATOM     51  H   LIG d   1      10.737   3.974  -6.278  0.00  0.00     0.062 H 
ENDBRANCH  38  41
ENDBRANCH  11  38
TORSDOF 6
ENDMDL
MODEL 7
REMARK VINA RESULT:      -6.3      7.623     11.089
REMARK  6 active torsions:
REMARK  status: ('A' for Active; 'I' for Inactive)
REMARK    1  A    between atoms: C_1  and  O_2 
REMARK    2  A    between atoms: O_2  and  C_3 
REMARK    3  A    between atoms: C_6  and  C_9 
REMARK    4  A    between atoms: C_11  and  C_14 
REMARK    5  A    between atoms: N_24  and  C_25 
REMARK    6  A    between atoms: C_25  and  C_26 
ROOT
ATOM      1  C   LIG d   1       9.883   4.854  -5.702  0.00  0.00     0.098 C 
ATOM      2  H   LIG d   1       9.062   5.054  -6.391  0.00  0.00     0.057 H 
ATOM      3  C   LIG d   1      11.175   4.626  -6.500  0.00  0.00     0.037 C 
ATOM      4  C   LIG d   1      11.603   5.953  -7.073  0.00  0.00     0.148 A 
ATOM      5  C   LIG d   1      11.117   7.141  -6.647  0.00  0.00     0.159 A 
ATOM      6  N   LIG d   1      11.701   8.104  -7.363  0.00  0.00    -0.246 N 
ATOM      7  C   LIG d   1      12.531   7.560  -8.216  0.00  0.00     0.243 A 
ATOM      8  N   LIG d   1      12.495   6.215  -8.063  0.00  0.00    -0.247 N 
ATOM      9  H   LIG d   1      13.010   5.564  -8.563  0.00  0.00     0.310 HD
ATOM     10  C   LIG d   1      10.097   7.271  -5.544  0.00  0.00     0.066 C 
ATOM     11  N   LIG d   1      10.056   6.000  -4.800  0.00  0.00    -0.279 N 
ATOM     12  H   LIG d   1      11.954   4.241  -5.840  0.00  0.00     0.037 H 
ATOM     13  H   LIG d   1      10.991   3.918  -7.306  0.00  0.00     0.037 H 
ATOM     14  H   LIG d   1      13.142   8.097  -8.927  0.00  0.00     0.158 H 
ATOM     15  H   LIG d   1      10.382   8.081  -4.872  0.00  0.00     0.051 H 
ATOM     16  H   LIG d   1       9.117   7.477  -5.973  0.00  0.00     0.051 H 
ATOM     17  H   LIG d   1      11.536   9.055  -7.267  0.00  0.00     0.310 HD
ENDROOT
BRANCH   1  18
ATOM     18  C   LIG d   1       9.569   3.622  -4.892  0.00  0.00     0.245 A 
ATOM     19  N   LIG d   1       8.435   2.981  -4.890  0.00  0.00    -0.190 NA
ATOM     20  C   LIG d   1       8.503   1.929  -4.055  0.00  0.00     0.202 A 
ATOM     21  N   LIG d   1       9.696   1.900  -3.513  0.00  0.00    -0.056 NA
ATOM     22  O   LIG d   1      10.410   3.001  -4.055  0.00  0.00    -0.336 OA
BRANCH  20  23
ATOM     23  C   LIG d   1       7.408   0.964  -3.788  0.00  0.00     0.023 A 
ATOM     24  C   LIG d   1       7.554  -0.375  -4.145  0.00  0.00    -0.048 A 
ATOM     25  C   LIG d   1       6.534  -1.270  -3.895  0.00  0.00    -0.019 A 
ATOM     26  H   LIG d   1       8.465  -0.713  -4.617  0.00  0.00     0.063 H 
ATOM     27  C   LIG d   1       5.363  -0.837  -3.288  0.00  0.00     0.120 A 
ATOM     28  H   LIG d   1       6.647  -2.307  -4.172  0.00  0.00     0.065 H 
ATOM     29  C   LIG d   1       5.212   0.499  -2.936  0.00  0.00    -0.019 A 
ATOM     30  C   LIG d   1       6.231   1.395  -3.178  0.00  0.00    -0.048 A 
ATOM     31  H   LIG d   1       4.299   0.833  -2.466  0.00  0.00     0.065 H 
ATOM     32  H   LIG d   1       6.115   2.433  -2.900  0.00  0.00     0.063 H 
BRANCH  27  33
ATOM     33  O   LIG d   1       4.360  -1.720  -3.043  0.00  0.00    -0.495 OA
BRANCH  33  34
ATOM     34  C   LIG d   1       3.036  -1.190  -2.958  0.00  0.00     0.079 C 
ATOM     35  H   LIG d   1       3.037  -0.308  -2.318  0.00  0.00     0.066 H 
ATOM     36  H   LIG d   1       2.691  -0.914  -3.955  0.00  0.00     0.066 H 
ATOM     37  H   LIG d   1       2.370  -1.943  -2.538  0.00  0.00     0.066 H 
ENDBRANCH  33  34
ENDBRANCH  27  33
ENDBRANCH  20  23
ENDBRANCH   1  18
BRANCH  11  38
ATOM     38  C   LIG d   1       9.006   6.026  -3.773  0.00  0.00     0.025 C 
ATOM     39  H   LIG d   1       8.240   6.749  -4.053  0.00  0.00     0.048 H 
ATOM     40  H   LIG d   1       8.558   5.035  -3.687  0.00  0.00     0.048 H 
BRANCH  38  41
ATOM     41  C   LIG d   1       9.609   6.421  -2.449  0.00  0.00    -0.033 A 
ATOM     42  C   LIG d   1      10.368   5.512  -1.736  0.00  0.00    -0.056 A 
ATOM     43  C   LIG d   1      10.924   5.874  -0.525  0.00  0.00    -0.043 A 
ATOM     44  H   LIG d   1      10.529   4.518  -2.129  0.00  0.00     0.062 H 
ATOM     45  C   LIG d   1      10.713   7.145  -0.020  0.00  0.00     0.041 A 
ATOM     46  H   LIG d   1      11.522   5.166   0.029  0.00  0.00     0.063 H 
ATOM     47  C   LIG d   1       9.949   8.054  -0.731  0.00  0.00    -0.043 A 
ATOM     48 CL   LIG d   1      11.407   7.600   1.505  0.00  0.00    -0.084 Cl
ATOM     49  C   LIG d   1       9.397   7.690  -1.944  0.00  0.00    -0.056 A 
ATOM     50  H   LIG d   1       9.783   9.045  -0.337  0.00  0.00     0.063 H 
ATOM     51  H   LIG d   1       8.800   8.399  -2.500  0.00  0.00     0.062 H 
ENDBRANCH  38  41
ENDBRANCH  11  38
TORSDOF 6
ENDMDL
MODEL 8
REMARK VINA RESULT:      -6.3      5.055      9.187
REMARK  6 active torsions:
REMARK  status: ('A' for Active; 'I' for Inactive)
REMARK    1  A    between atoms: C_1  and  O_2 
REMARK    2  A    between atoms: O_2  and  C_3 
REMARK    3  A    between atoms: C_6  and  C_9 
REMARK    4  A    between atoms: C_11  and  C_14 
REMARK    5  A    between atoms: N_24  and  C_25 
REMARK    6  A    between atoms: C_25  and  C_26 
ROOT
ATOM      1  C   LIG d   1       5.632  -1.139  -8.692  0.00  0.00     0.098 C 
ATOM      2  H   LIG d   1       5.922  -2.016  -9.271  0.00  0.00     0.057 H 
ATOM      3  C   LIG d   1       5.069  -0.066  -9.635  0.00  0.00     0.037 C 
ATOM      4  C   LIG d   1       3.724  -0.541 -10.123  0.00  0.00     0.148 A 
ATOM      5  C   LIG d   1       3.031  -1.546  -9.540  0.00  0.00     0.159 A 
ATOM      6  N   LIG d   1       1.895  -1.709 -10.220  0.00  0.00    -0.246 N 
ATOM      7  C   LIG d   1       1.853  -0.843 -11.200  0.00  0.00     0.243 A 
ATOM      8  N   LIG d   1       2.982  -0.095 -11.169  0.00  0.00    -0.247 N 
ATOM      9  H   LIG d   1       3.215   0.623 -11.778  0.00  0.00     0.310 HD
ATOM     10  C   LIG d   1       3.526  -2.300  -8.332  0.00  0.00     0.066 C 
ATOM     11  N   LIG d   1       4.608  -1.518  -7.709  0.00  0.00    -0.279 N 
ATOM     12  H   LIG d   1       4.954   0.876  -9.096  0.00  0.00     0.037 H 
ATOM     13  H   LIG d   1       5.741   0.071 -10.481  0.00  0.00     0.037 H 
ATOM     14  H   LIG d   1       1.051  -0.743 -11.915  0.00  0.00     0.158 H 
ATOM     15  H   LIG d   1       2.710  -2.431  -7.620  0.00  0.00     0.051 H 
ATOM     16  H   LIG d   1       3.906  -3.275  -8.637  0.00  0.00     0.051 H 
ATOM     17  H   LIG d   1       1.209  -2.364 -10.018  0.00  0.00     0.310 HD
ENDROOT
BRANCH   1  18
ATOM     18  C   LIG d   1       6.839  -0.592  -7.972  0.00  0.00     0.245 A 
ATOM     19  N   LIG d   1       6.931   0.590  -7.433  0.00  0.00    -0.190 NA
ATOM     20  C   LIG d   1       8.145   0.746  -6.875  0.00  0.00     0.202 A 
ATOM     21  N   LIG d   1       8.839  -0.349  -7.066  0.00  0.00    -0.056 NA
ATOM     22  O   LIG d   1       7.995  -1.240  -7.779  0.00  0.00    -0.336 OA
BRANCH  20  23
ATOM     23  C   LIG d   1       8.622   1.960  -6.167  0.00  0.00     0.023 A 
ATOM     24  C   LIG d   1       8.344   2.133  -4.812  0.00  0.00    -0.048 A 
ATOM     25  C   LIG d   1       8.788   3.261  -4.156  0.00  0.00    -0.019 A 
ATOM     26  H   LIG d   1       7.780   1.383  -4.276  0.00  0.00     0.063 H 
ATOM     27  C   LIG d   1       9.513   4.226  -4.845  0.00  0.00     0.120 A 
ATOM     28  H   LIG d   1       8.573   3.396  -3.107  0.00  0.00     0.065 H 
ATOM     29  C   LIG d   1       9.787   4.058  -6.196  0.00  0.00    -0.019 A 
ATOM     30  C   LIG d   1       9.350   2.929  -6.855  0.00  0.00    -0.048 A 
ATOM     31  H   LIG d   1      10.348   4.812  -6.729  0.00  0.00     0.065 H 
ATOM     32  H   LIG d   1       9.568   2.798  -7.905  0.00  0.00     0.063 H 
BRANCH  27  33
ATOM     33  O   LIG d   1       9.949   5.337  -4.197  0.00  0.00    -0.495 OA
BRANCH  33  34
ATOM     34  C   LIG d   1       9.238   6.552  -4.441  0.00  0.00     0.079 C 
ATOM     35  H   LIG d   1       8.197   6.429  -4.145  0.00  0.00     0.066 H 
ATOM     36  H   LIG d   1       9.688   7.358  -3.862  0.00  0.00     0.066 H 
ATOM     37  H   LIG d   1       9.288   6.794  -5.503  0.00  0.00     0.066 H 
ENDBRANCH  33  34
ENDBRANCH  27  33
ENDBRANCH  20  23
ENDBRANCH   1  18
BRANCH  11  38
ATOM     38  C   LIG d   1       5.203  -2.248  -6.582  0.00  0.00     0.025 C 
ATOM     39  H   LIG d   1       4.700  -3.208  -6.463  0.00  0.00     0.048 H 
ATOM     40  H   LIG d   1       6.263  -2.415  -6.777  0.00  0.00     0.048 H 
BRANCH  38  41
ATOM     41  C   LIG d   1       5.047  -1.439  -5.320  0.00  0.00    -0.033 A 
ATOM     42  C   LIG d   1       6.051  -1.438  -4.370  0.00  0.00    -0.056 A 
ATOM     43  C   LIG d   1       5.910  -0.693  -3.216  0.00  0.00    -0.043 A 
ATOM     44  H   LIG d   1       6.948  -2.017  -4.534  0.00  0.00     0.062 H 
ATOM     45  C   LIG d   1       4.758   0.045  -3.005  0.00  0.00     0.041 A 
ATOM     46  H   LIG d   1       6.697  -0.687  -2.476  0.00  0.00     0.063 H 
ATOM     47  C   LIG d   1       3.751   0.039  -3.953  0.00  0.00    -0.043 A 
ATOM     48 CL   LIG d   1       4.578   0.977  -1.552  0.00  0.00    -0.084 Cl
ATOM     49  C   LIG d   1       3.895  -0.703  -5.110  0.00  0.00    -0.056 A 
ATOM     50  H   LIG d   1       2.852   0.614  -3.789  0.00  0.00     0.063 H 
ATOM     51  H   LIG d   1       3.109  -0.707  -5.850  0.00  0.00     0.062 H 
ENDBRANCH  38  41
ENDBRANCH  11  38
TORSDOF 6
ENDMDL
MODEL 9
REMARK VINA RESULT:      -6.3      4.452      9.511
REMARK  6 active torsions:
REMARK  status: ('A' for Active; 'I' for Inactive)
REMARK    1  A    between atoms: C_1  and  O_2 
REMARK    2  A    between atoms: O_2  and  C_3 
REMARK    3  A    between atoms: C_6  and  C_9 
REMARK    4  A    between atoms: C_11  and  C_14 
REMARK    5  A    between atoms: N_24  and  C_25 
REMARK    6  A    between atoms: C_25  and  C_26 
ROOT
ATOM      1  C   LIG d   1       6.490  -7.268  -7.041  0.00  0.00     0.098 C 
ATOM      2  H   LIG d   1       7.339  -6.752  -7.488  0.00  0.00     0.057 H 
ATOM      3  C   LIG d   1       5.582  -7.814  -8.152  0.00  0.00     0.037 C 
ATOM      4  C   LIG d   1       6.299  -8.964  -8.811  0.00  0.00     0.148 A 
ATOM      5  C   LIG d   1       7.368  -9.587  -8.265  0.00  0.00     0.159 A 
ATOM      6  N   LIG d   1       7.755 -10.549  -9.105  0.00  0.00    -0.246 N 
ATOM      7  C   LIG d   1       6.967 -10.550 -10.149  0.00  0.00     0.243 A 
ATOM      8  N   LIG d   1       6.044  -9.571  -9.999  0.00  0.00    -0.247 N 
ATOM      9  H   LIG d   1       5.334  -9.346 -10.621  0.00  0.00     0.310 HD
ATOM     10  C   LIG d   1       7.959  -9.204  -6.932  0.00  0.00     0.066 C 
ATOM     11  N   LIG d   1       6.974  -8.379  -6.210  0.00  0.00    -0.279 N 
ATOM     12  H   LIG d   1       4.642  -8.163  -7.722  0.00  0.00     0.037 H 
ATOM     13  H   LIG d   1       5.386  -7.033  -8.885  0.00  0.00     0.037 H 
ATOM     14  H   LIG d   1       7.043 -11.220 -10.993  0.00  0.00     0.158 H 
ATOM     15  H   LIG d   1       8.179 -10.102  -6.354  0.00  0.00     0.051 H 
ATOM     16  H   LIG d   1       8.874  -8.632  -7.086  0.00  0.00     0.051 H 
ATOM     17  H   LIG d   1       8.502 -11.153  -8.963  0.00  0.00     0.310 HD
ENDROOT
BRANCH   1  18
ATOM     18  C   LIG d   1       5.711  -6.304  -6.184  0.00  0.00     0.245 A 
ATOM     19  N   LIG d   1       6.143  -5.157  -5.744  0.00  0.00    -0.190 NA
ATOM     20  C   LIG d   1       5.188  -4.556  -5.011  0.00  0.00     0.202 A 
ATOM     21  N   LIG d   1       4.134  -5.333  -4.978  0.00  0.00    -0.056 NA
ATOM     22  O   LIG d   1       4.457  -6.482  -5.748  0.00  0.00    -0.336 OA
BRANCH  20  23
ATOM     23  C   LIG d   1       5.311  -3.236  -4.345  0.00  0.00     0.023 A 
ATOM     24  C   LIG d   1       4.205  -2.663  -3.720  0.00  0.00    -0.048 A 
ATOM     25  C   LIG d   1       4.322  -1.436  -3.101  0.00  0.00    -0.019 A 
ATOM     26  H   LIG d   1       3.256  -3.179  -3.721  0.00  0.00     0.063 H 
ATOM     27  C   LIG d   1       5.541  -0.771  -3.101  0.00  0.00     0.120 A 
ATOM     28  H   LIG d   1       3.465  -0.992  -2.618  0.00  0.00     0.065 H 
ATOM     29  C   LIG d   1       6.644  -1.337  -3.727  0.00  0.00    -0.019 A 
ATOM     30  C   LIG d   1       6.534  -2.566  -4.341  0.00  0.00    -0.048 A 
ATOM     31  H   LIG d   1       7.590  -0.816  -3.727  0.00  0.00     0.065 H 
ATOM     32  H   LIG d   1       7.393  -3.008  -4.825  0.00  0.00     0.063 H 
BRANCH  27  33
ATOM     33  O   LIG d   1       5.653   0.437  -2.491  0.00  0.00    -0.495 OA
BRANCH  33  34
ATOM     34  C   LIG d   1       4.556   0.858  -1.679  0.00  0.00     0.079 C 
ATOM     35  H   LIG d   1       3.742   1.202  -2.317  0.00  0.00     0.066 H 
ATOM     36  H   LIG d   1       4.211   0.022  -1.071  0.00  0.00     0.066 H 
ATOM     37  H   LIG d   1       4.876   1.673  -1.029  0.00  0.00     0.066 H 
ENDBRANCH  33  34
ENDBRANCH  27  33
ENDBRANCH  20  23
ENDBRANCH   1  18
BRANCH  11  38
ATOM     38  C   LIG d   1       7.529  -7.886  -4.943  0.00  0.00     0.025 C 
ATOM     39  H   LIG d   1       8.614  -7.820  -5.021  0.00  0.00     0.048 H 
ATOM     40  H   LIG d   1       7.119  -6.899  -4.726  0.00  0.00     0.048 H 
BRANCH  38  41
ATOM     41  C   LIG d   1       7.163  -8.836  -3.831  0.00  0.00    -0.033 A 
ATOM     42  C   LIG d   1       5.999  -9.577  -3.909  0.00  0.00    -0.056 A 
ATOM     43  C   LIG d   1       5.665 -10.452  -2.893  0.00  0.00    -0.043 A 
ATOM     44  H   LIG d   1       5.352  -9.474  -4.768  0.00  0.00     0.062 H 
ATOM     45  C   LIG d   1       6.492 -10.579  -1.791  0.00  0.00     0.041 A 
ATOM     46  H   LIG d   1       4.759 -11.035  -2.958  0.00  0.00     0.063 H 
ATOM     47  C   LIG d   1       7.656  -9.833  -1.710  0.00  0.00    -0.043 A 
ATOM     48 CL   LIG d   1       6.072 -11.673  -0.511  0.00  0.00    -0.084 Cl
ATOM     49  C   LIG d   1       7.990  -8.962  -2.729  0.00  0.00    -0.056 A 
ATOM     50  H   LIG d   1       8.301  -9.932  -0.850  0.00  0.00     0.063 H 
ATOM     51  H   LIG d   1       8.898  -8.381  -2.667  0.00  0.00     0.062 H 
ENDBRANCH  38  41
ENDBRANCH  11  38
TORSDOF 6
ENDMDL
MODEL 10
REMARK VINA RESULT:      -6.2      5.781      7.430
REMARK  6 active torsions:
REMARK  status: ('A' for Active; 'I' for Inactive)
REMARK    1  A    between atoms: C_1  and  O_2 
REMARK    2  A    between atoms: O_2  and  C_3 
REMARK    3  A    between atoms: C_6  and  C_9 
REMARK    4  A    between atoms: C_11  and  C_14 
REMARK    5  A    between atoms: N_24  and  C_25 
REMARK    6  A    between atoms: C_25  and  C_26 
ROOT
ATOM      1  C   LIG d   1       3.937  -0.448  -6.178  0.00  0.00     0.098 C 
ATOM      2  H   LIG d   1       3.833  -1.526  -6.056  0.00  0.00     0.057 H 
ATOM      3  C   LIG d   1       3.103   0.271  -5.108  0.00  0.00     0.037 C 
ATOM      4  C   LIG d   1       3.787   0.070  -3.779  0.00  0.00     0.148 A 
ATOM      5  C   LIG d   1       5.064  -0.357  -3.655  0.00  0.00     0.159 A 
ATOM      6  N   LIG d   1       5.348  -0.428  -2.353  0.00  0.00    -0.246 N 
ATOM      7  C   LIG d   1       4.298  -0.060  -1.664  0.00  0.00     0.243 A 
ATOM      8  N   LIG d   1       3.302   0.258  -2.525  0.00  0.00    -0.247 N 
ATOM      9  H   LIG d   1       2.412   0.564  -2.290  0.00  0.00     0.310 HD
ATOM     10  C   LIG d   1       5.950  -0.673  -4.833  0.00  0.00     0.066 C 
ATOM     11  N   LIG d   1       5.350  -0.072  -6.037  0.00  0.00    -0.279 N 
ATOM     12  H   LIG d   1       3.048   1.336  -5.336  0.00  0.00     0.037 H 
ATOM     13  H   LIG d   1       2.101  -0.153  -5.074  0.00  0.00     0.037 H 
ATOM     14  H   LIG d   1       4.236  -0.020  -0.587  0.00  0.00     0.158 H 
ATOM     15  H   LIG d   1       6.944  -0.253  -4.670  0.00  0.00     0.051 H 
ATOM     16  H   LIG d   1       6.024  -1.753  -4.959  0.00  0.00     0.051 H 
ATOM     17  H   LIG d   1       6.198  -0.707  -1.977  0.00  0.00     0.310 HD
ENDROOT
BRANCH   1  18
ATOM     18  C   LIG d   1       3.447  -0.050  -7.547  0.00  0.00     0.245 A 
ATOM     19  N   LIG d   1       3.188  -0.865  -8.530  0.00  0.00    -0.190 NA
ATOM     20  C   LIG d   1       2.770  -0.172  -9.604  0.00  0.00     0.202 A 
ATOM     21  N   LIG d   1       2.767   1.104  -9.305  0.00  0.00    -0.056 NA
ATOM     22  O   LIG d   1       3.202   1.202  -7.957  0.00  0.00    -0.336 OA
BRANCH  20  23
ATOM     23  C   LIG d   1       2.383  -0.755 -10.913  0.00  0.00     0.023 A 
ATOM     24  C   LIG d   1       1.075  -1.185 -11.126  0.00  0.00    -0.048 A 
ATOM     25  C   LIG d   1       0.718  -1.726 -12.344  0.00  0.00    -0.019 A 
ATOM     26  H   LIG d   1       0.341  -1.095 -10.339  0.00  0.00     0.063 H 
ATOM     27  C   LIG d   1       1.661  -1.843 -13.356  0.00  0.00     0.120 A 
ATOM     28  H   LIG d   1      -0.296  -2.059 -12.509  0.00  0.00     0.065 H 
ATOM     29  C   LIG d   1       2.967  -1.420 -13.144  0.00  0.00    -0.019 A 
ATOM     30  C   LIG d   1       3.327  -0.873 -11.931  0.00  0.00    -0.048 A 
ATOM     31  H   LIG d   1       3.699  -1.515 -13.933  0.00  0.00     0.065 H 
ATOM     32  H   LIG d   1       4.343  -0.540 -11.769  0.00  0.00     0.063 H 
BRANCH  27  33
ATOM     33  O   LIG d   1       1.307  -2.376 -14.554  0.00  0.00    -0.495 OA
BRANCH  33  34
ATOM     34  C   LIG d   1       2.166  -2.105 -15.664  0.00  0.00     0.079 C 
ATOM     35  H   LIG d   1       3.193  -2.348 -15.396  0.00  0.00     0.066 H 
ATOM     36  H   LIG d   1       1.860  -2.711 -16.516  0.00  0.00     0.066 H 
ATOM     37  H   LIG d   1       2.099  -1.049 -15.925  0.00  0.00     0.066 H 
ENDBRANCH  33  34
ENDBRANCH  27  33
ENDBRANCH  20  23
ENDBRANCH   1  18
BRANCH  11  38
ATOM     38  C   LIG d   1       6.113  -0.430  -7.240  0.00  0.00     0.025 C 
ATOM     39  H   LIG d   1       6.724  -1.310  -7.035  0.00  0.00     0.048 H 
ATOM     40  H   LIG d   1       5.423  -0.648  -8.056  0.00  0.00     0.048 H 
BRANCH  38  41
ATOM     41  C   LIG d   1       7.006   0.720  -7.630  0.00  0.00    -0.033 A 
ATOM     42  C   LIG d   1       8.183   0.946  -6.942  0.00  0.00    -0.056 A 
ATOM     43  C   LIG d   1       9.004   1.997  -7.302  0.00  0.00    -0.043 A 
ATOM     44  H   LIG d   1       8.463   0.297  -6.125  0.00  0.00     0.062 H 
ATOM     45  C   LIG d   1       8.642   2.831  -8.346  0.00  0.00     0.041 A 
ATOM     46  H   LIG d   1       9.927   2.170  -6.769  0.00  0.00     0.063 H 
ATOM     47  C   LIG d   1       7.460   2.608  -9.031  0.00  0.00    -0.043 A 
ATOM     48 CL   LIG d   1       9.670   4.156  -8.795  0.00  0.00    -0.084 Cl
ATOM     49  C   LIG d   1       6.643   1.554  -8.672  0.00  0.00    -0.056 A 
ATOM     50  H   LIG d   1       7.177   3.259  -9.845  0.00  0.00     0.063 H 
ATOM     51  H   LIG d   1       5.721   1.379  -9.207  0.00  0.00     0.062 H 
ENDBRANCH  38  41
ENDBRANCH  11  38
TORSDOF 6
ENDMDL
