MODEL 1
REMARK VINA RESULT:      -6.8      0.000      0.000
REMARK  6 active torsions:
REMARK  status: ('A' for Active; 'I' for Inactive)
REMARK    1  A    between atoms: C_1  and  O_2 
REMARK    2  A    between atoms: O_2  and  C_3 
REMARK    3  A    between atoms: C_3  and  C_5 
REMARK    4  A    between atoms: C_21  and  C_31 
REMARK    5  A    between atoms: C_24  and  N_27 
REMARK    6  A    between atoms: N_27  and  C_28 
ROOT
ATOM      1  C   LIG d   1       5.169  -0.099  -8.158  0.00  0.00     0.113 C 
ATOM      2  H   LIG d   1       4.128   0.209  -8.257  0.00  0.00     0.058 H 
ATOM      3  C   LIG d   1       5.675   0.256  -6.752  0.00  0.00     0.001 C 
ATOM      4  C   LIG d   1       5.021  -0.679  -5.766  0.00  0.00    -0.016 A 
ATOM      5  C   LIG d   1       4.921  -0.569  -4.328  0.00  0.00     0.003 A 
ATOM      6  C   LIG d   1       5.370   0.388  -3.415  0.00  0.00    -0.052 A 
ATOM      7  C   LIG d   1       5.089   0.163  -2.090  0.00  0.00    -0.061 A 
ATOM      8  C   LIG d   1       4.394  -0.957  -1.665  0.00  0.00    -0.060 A 
ATOM      9  C   LIG d   1       3.938  -1.921  -2.547  0.00  0.00    -0.038 A 
ATOM     10  C   LIG d   1       4.207  -1.719  -3.899  0.00  0.00     0.047 A 
ATOM     11  N   LIG d   1       3.909  -2.453  -5.011  0.00  0.00    -0.356 N 
ATOM     12  H   LIG d   1       3.424  -3.292  -5.012  0.00  0.00     0.166 HD
ATOM     13  C   LIG d   1       4.397  -1.825  -6.125  0.00  0.00     0.038 A 
ATOM     14  C   LIG d   1       4.288  -2.283  -7.558  0.00  0.00     0.057 C 
ATOM     15  H   LIG d   1       3.285  -2.078  -7.931  0.00  0.00     0.053 H 
ATOM     16  N   LIG d   1       5.273  -1.548  -8.363  0.00  0.00    -0.274 N 
ATOM     17  C   LIG d   1       5.162  -1.905  -9.783  0.00  0.00     0.042 C 
ATOM     18  H   LIG d   1       5.873  -1.317 -10.363  0.00  0.00     0.051 H 
ATOM     19  C   LIG d   1       5.470  -3.394  -9.954  0.00  0.00     0.010 C 
ATOM     20  C   LIG d   1       4.488  -4.219  -9.117  0.00  0.00    -0.019 C 
ATOM     21  H   LIG d   1       4.740  -5.276  -9.198  0.00  0.00     0.085 H 
ATOM     22  C   LIG d   1       4.572  -3.783  -7.649  0.00  0.00     0.011 C 
ATOM     23  H   LIG d   1       6.758   0.138  -6.710  0.00  0.00     0.033 H 
ATOM     24  H   LIG d   1       5.408   1.286  -6.514  0.00  0.00     0.033 H 
ATOM     25  H   LIG d   1       5.913   1.265  -3.737  0.00  0.00     0.062 H 
ATOM     26  H   LIG d   1       5.421   0.883  -1.356  0.00  0.00     0.062 H 
ATOM     27  H   LIG d   1       4.203  -1.083  -0.609  0.00  0.00     0.062 H 
ATOM     28  H   LIG d   1       3.397  -2.791  -2.203  0.00  0.00     0.064 H 
ATOM     29  H   LIG d   1       5.369  -3.667 -11.004  0.00  0.00     0.034 H 
ATOM     30  H   LIG d   1       6.488  -3.595  -9.622  0.00  0.00     0.034 H 
ATOM     31  H   LIG d   1       5.573  -3.989  -7.270  0.00  0.00     0.034 H 
ATOM     32  H   LIG d   1       3.837  -4.331  -7.060  0.00  0.00     0.034 H 
ENDROOT
BRANCH  17  33
ATOM     33  C   LIG d   1       3.763  -1.620 -10.266  0.00  0.00    -0.029 A 
ATOM     34  C   LIG d   1       3.409  -1.910 -11.570  0.00  0.00    -0.039 A 
ATOM     35  C   LIG d   1       2.123  -1.654 -12.011  0.00  0.00     0.041 A 
ATOM     36  H   LIG d   1       4.135  -2.342 -12.243  0.00  0.00     0.064 H 
ATOM     37  C   LIG d   1       1.195  -1.096 -11.150  0.00  0.00    -0.043 A 
ATOM     38 CL   LIG d   1       1.675  -2.026 -13.646  0.00  0.00    -0.084 Cl
ATOM     39  C   LIG d   1       1.552  -0.799  -9.847  0.00  0.00    -0.060 A 
ATOM     40  H   LIG d   1       0.192  -0.891 -11.494  0.00  0.00     0.063 H 
ATOM     41  C   LIG d   1       2.835  -1.061  -9.405  0.00  0.00    -0.057 A 
ATOM     42  H   LIG d   1       0.829  -0.363  -9.175  0.00  0.00     0.062 H 
ATOM     43  H   LIG d   1       3.114  -0.830  -8.387  0.00  0.00     0.062 H 
ENDBRANCH  17  33
BRANCH   1  44
ATOM     44  C   LIG d   1       6.005   0.616  -9.188  0.00  0.00     0.325 C 
ATOM     45  O   LIG d   1       7.196   0.414  -9.244  0.00  0.00    -0.249 OA
BRANCH  44  46
ATOM     46  O   LIG d   1       5.429   1.476 -10.042  0.00  0.00    -0.467 OA
BRANCH  46  47
ATOM     47  C   LIG d   1       4.377   2.295  -9.528  0.00  0.00     0.082 C 
ATOM     48  H   LIG d   1       4.449   2.338  -8.442  0.00  0.00     0.066 H 
ATOM     49  H   LIG d   1       4.464   3.300  -9.940  0.00  0.00     0.066 H 
ATOM     50  H   LIG d   1       3.415   1.869  -9.811  0.00  0.00     0.066 H 
ENDBRANCH  46  47
ENDBRANCH  44  46
ENDBRANCH   1  44
BRANCH  20  51
ATOM     51  N   LIG d   1       3.121  -4.001  -9.608  0.00  0.00     0.231 N 
ATOM     52  H   LIG d   1       2.548  -3.639  -8.861  0.00  0.00     0.202 HD
ATOM     53  H   LIG d   1       3.140  -3.339 -10.369  0.00  0.00     0.202 HD
BRANCH  51  54
ATOM     54  C   LIG d   1       2.563  -5.275 -10.081  0.00  0.00    -0.022 A 
ATOM     55  C   LIG d   1       1.133  -5.260 -10.623  0.00  0.00    -0.005 A 
ATOM     56  C   LIG d   1       2.313  -5.423 -11.583  0.00  0.00    -0.005 A 
ATOM     57  H   LIG d   1       0.513  -6.138 -10.435  0.00  0.00     0.032 H 
ATOM     58  H   LIG d   1       0.606  -4.307 -10.630  0.00  0.00     0.032 H 
ATOM     59  H   LIG d   1       2.563  -4.574 -12.221  0.00  0.00     0.032 H 
ATOM     60  H   LIG d   1       2.471  -6.406 -12.026  0.00  0.00     0.032 H 
ATOM     61  H   LIG d   1       2.885  -6.161  -9.535  0.00  0.00     0.085 H 
ENDBRANCH  51  54
ENDBRANCH  20  51
TORSDOF 6
ENDMDL
MODEL 2
REMARK VINA RESULT:      -6.5      4.405      7.010
REMARK  6 active torsions:
REMARK  status: ('A' for Active; 'I' for Inactive)
REMARK    1  A    between atoms: C_1  and  O_2 
REMARK    2  A    between atoms: O_2  and  C_3 
REMARK    3  A    between atoms: C_3  and  C_5 
REMARK    4  A    between atoms: C_21  and  C_31 
REMARK    5  A    between atoms: C_24  and  N_27 
REMARK    6  A    between atoms: N_27  and  C_28 
ROOT
ATOM      1  C   LIG d   1       5.866  -4.267  -5.690  0.00  0.00     0.113 C 
ATOM      2  H   LIG d   1       6.131  -3.601  -6.511  0.00  0.00     0.058 H 
ATOM      3  C   LIG d   1       6.983  -5.301  -5.489  0.00  0.00     0.001 C 
ATOM      4  C   LIG d   1       8.174  -4.597  -4.891  0.00  0.00    -0.016 A 
ATOM      5  C   LIG d   1       9.548  -5.038  -4.800  0.00  0.00     0.003 A 
ATOM      6  C   LIG d   1      10.201  -6.202  -5.213  0.00  0.00    -0.052 A 
ATOM      7  C   LIG d   1      11.548  -6.284  -4.955  0.00  0.00    -0.061 A 
ATOM      8  C   LIG d   1      12.237  -5.267  -4.316  0.00  0.00    -0.060 A 
ATOM      9  C   LIG d   1      11.616  -4.104  -3.896  0.00  0.00    -0.038 A 
ATOM     10  C   LIG d   1      10.250  -3.992  -4.145  0.00  0.00     0.047 A 
ATOM     11  N   LIG d   1       9.348  -3.004  -3.871  0.00  0.00    -0.356 N 
ATOM     12  H   LIG d   1       9.554  -2.168  -3.426  0.00  0.00     0.166 HD
ATOM     13  C   LIG d   1       8.108  -3.371  -4.322  0.00  0.00     0.038 A 
ATOM     14  C   LIG d   1       6.829  -2.578  -4.232  0.00  0.00     0.057 C 
ATOM     15  H   LIG d   1       6.829  -1.797  -4.992  0.00  0.00     0.053 H 
ATOM     16  N   LIG d   1       5.696  -3.486  -4.460  0.00  0.00    -0.274 N 
ATOM     17  C   LIG d   1       4.425  -2.752  -4.453  0.00  0.00     0.042 C 
ATOM     18  H   LIG d   1       3.606  -3.439  -4.665  0.00  0.00     0.051 H 
ATOM     19  C   LIG d   1       4.216  -2.117  -3.076  0.00  0.00     0.010 C 
ATOM     20  C   LIG d   1       5.381  -1.173  -2.767  0.00  0.00    -0.019 C 
ATOM     21  H   LIG d   1       5.259  -0.761  -1.765  0.00  0.00     0.085 H 
ATOM     22  C   LIG d   1       6.703  -1.944  -2.845  0.00  0.00     0.011 C 
ATOM     23  H   LIG d   1       6.641  -6.086  -4.815  0.00  0.00     0.033 H 
ATOM     24  H   LIG d   1       7.257  -5.737  -6.451  0.00  0.00     0.033 H 
ATOM     25  H   LIG d   1       9.672  -7.001  -5.712  0.00  0.00     0.062 H 
ATOM     26  H   LIG d   1      12.085  -7.170  -5.261  0.00  0.00     0.062 H 
ATOM     27  H   LIG d   1      13.296  -5.386  -4.138  0.00  0.00     0.062 H 
ATOM     28  H   LIG d   1      12.166  -3.319  -3.398  0.00  0.00     0.064 H 
ATOM     29  H   LIG d   1       3.282  -1.554  -3.074  0.00  0.00     0.034 H 
ATOM     30  H   LIG d   1       4.171  -2.899  -2.318  0.00  0.00     0.034 H 
ATOM     31  H   LIG d   1       6.710  -2.725  -2.086  0.00  0.00     0.034 H 
ATOM     32  H   LIG d   1       7.538  -1.264  -2.678  0.00  0.00     0.034 H 
ENDROOT
BRANCH  17  33
ATOM     33  C   LIG d   1       4.461  -1.674  -5.506  0.00  0.00    -0.029 A 
ATOM     34  C   LIG d   1       5.573  -1.534  -6.314  0.00  0.00    -0.039 A 
ATOM     35  C   LIG d   1       5.603  -0.548  -7.284  0.00  0.00     0.041 A 
ATOM     36  H   LIG d   1       6.416  -2.199  -6.193  0.00  0.00     0.064 H 
ATOM     37  C   LIG d   1       4.525   0.305  -7.436  0.00  0.00    -0.043 A 
ATOM     38 CL   LIG d   1       6.996  -0.378  -8.306  0.00  0.00    -0.084 Cl
ATOM     39  C   LIG d   1       3.416   0.170  -6.622  0.00  0.00    -0.060 A 
ATOM     40  H   LIG d   1       4.550   1.078  -8.190  0.00  0.00     0.063 H 
ATOM     41  C   LIG d   1       3.384  -0.819  -5.657  0.00  0.00    -0.057 A 
ATOM     42  H   LIG d   1       2.575   0.836  -6.740  0.00  0.00     0.062 H 
ATOM     43  H   LIG d   1       2.517  -0.926  -5.022  0.00  0.00     0.062 H 
ENDBRANCH  17  33
BRANCH   1  44
ATOM     44  C   LIG d   1       4.577  -4.978  -6.016  0.00  0.00     0.325 C 
ATOM     45  O   LIG d   1       4.139  -5.812  -5.258  0.00  0.00    -0.249 OA
BRANCH  44  46
ATOM     46  O   LIG d   1       3.914  -4.684  -7.146  0.00  0.00    -0.467 OA
BRANCH  46  47
ATOM     47  C   LIG d   1       3.852  -5.704  -8.144  0.00  0.00     0.082 C 
ATOM     48  H   LIG d   1       3.426  -6.609  -7.712  0.00  0.00     0.066 H 
ATOM     49  H   LIG d   1       3.227  -5.366  -8.971  0.00  0.00     0.066 H 
ATOM     50  H   LIG d   1       4.856  -5.914  -8.512  0.00  0.00     0.066 H 
ENDBRANCH  46  47
ENDBRANCH  44  46
ENDBRANCH   1  44
BRANCH  20  51
ATOM     51  N   LIG d   1       5.400  -0.080  -3.748  0.00  0.00     0.231 N 
ATOM     52  H   LIG d   1       6.308  -0.037  -4.186  0.00  0.00     0.202 HD
ATOM     53  H   LIG d   1       4.694  -0.246  -4.449  0.00  0.00     0.202 HD
BRANCH  51  54
ATOM     54  C   LIG d   1       5.124   1.193  -3.068  0.00  0.00    -0.022 A 
ATOM     55  C   LIG d   1       3.658   1.559  -2.825  0.00  0.00    -0.005 A 
ATOM     56  C   LIG d   1       4.543   1.126  -1.654  0.00  0.00    -0.005 A 
ATOM     57  H   LIG d   1       3.386   2.614  -2.887  0.00  0.00     0.032 H 
ATOM     58  H   LIG d   1       2.900   0.857  -3.170  0.00  0.00     0.032 H 
ATOM     59  H   LIG d   1       4.366   0.138  -1.229  0.00  0.00     0.032 H 
ATOM     60  H   LIG d   1       4.852   1.894  -0.946  0.00  0.00     0.032 H 
ATOM     61  H   LIG d   1       5.816   2.005  -3.289  0.00  0.00     0.085 H 
ENDBRANCH  51  54
ENDBRANCH  20  51
TORSDOF 6
ENDMDL
MODEL 3
REMARK VINA RESULT:      -6.5      2.662      4.293
REMARK  6 active torsions:
REMARK  status: ('A' for Active; 'I' for Inactive)
REMARK    1  A    between atoms: C_1  and  O_2 
REMARK    2  A    between atoms: O_2  and  C_3 
REMARK    3  A    between atoms: C_3  and  C_5 
REMARK    4  A    between atoms: C_21  and  C_31 
REMARK    5  A    between atoms: C_24  and  N_27 
REMARK    6  A    between atoms: N_27  and  C_28 
ROOT
ATOM      1  C   LIG d   1       4.906  -3.692  -6.703  0.00  0.00     0.113 C 
ATOM      2  H   LIG d   1       5.901  -3.322  -6.949  0.00  0.00     0.058 H 
ATOM      3  C   LIG d   1       4.631  -3.465  -5.209  0.00  0.00     0.001 C 
ATOM      4  C   LIG d   1       4.433  -1.988  -4.985  0.00  0.00    -0.016 A 
ATOM      5  C   LIG d   1       4.456  -1.238  -3.749  0.00  0.00     0.003 A 
ATOM      6  C   LIG d   1       4.657  -1.609  -2.417  0.00  0.00    -0.052 A 
ATOM      7  C   LIG d   1       4.609  -0.606  -1.479  0.00  0.00    -0.061 A 
ATOM      8  C   LIG d   1       4.372   0.713  -1.824  0.00  0.00    -0.060 A 
ATOM      9  C   LIG d   1       4.168   1.108  -3.135  0.00  0.00    -0.038 A 
ATOM     10  C   LIG d   1       4.213   0.114  -4.110  0.00  0.00     0.047 A 
ATOM     11  N   LIG d   1       4.059   0.153  -5.466  0.00  0.00    -0.356 N 
ATOM     12  H   LIG d   1       3.882   0.953  -5.984  0.00  0.00     0.166 HD
ATOM     13  C   LIG d   1       4.194  -1.106  -5.984  0.00  0.00     0.038 A 
ATOM     14  C   LIG d   1       4.104  -1.516  -7.433  0.00  0.00     0.057 C 
ATOM     15  H   LIG d   1       5.028  -1.250  -7.945  0.00  0.00     0.053 H 
ATOM     16  N   LIG d   1       3.906  -2.971  -7.498  0.00  0.00    -0.274 N 
ATOM     17  C   LIG d   1       3.881  -3.435  -8.891  0.00  0.00     0.042 C 
ATOM     18  H   LIG d   1       3.774  -4.519  -8.911  0.00  0.00     0.051 H 
ATOM     19  C   LIG d   1       2.697  -2.791  -9.617  0.00  0.00     0.010 C 
ATOM     20  C   LIG d   1       2.832  -1.267  -9.563  0.00  0.00    -0.019 C 
ATOM     21  H   LIG d   1       1.964  -0.808 -10.034  0.00  0.00     0.085 H 
ATOM     22  C   LIG d   1       2.924  -0.810  -8.103  0.00  0.00     0.011 C 
ATOM     23  H   LIG d   1       3.731  -4.007  -4.914  0.00  0.00     0.033 H 
ATOM     24  H   LIG d   1       5.480  -3.817  -4.622  0.00  0.00     0.033 H 
ATOM     25  H   LIG d   1       4.843  -2.636  -2.138  0.00  0.00     0.062 H 
ATOM     26  H   LIG d   1       4.760  -0.857  -0.439  0.00  0.00     0.062 H 
ATOM     27  H   LIG d   1       4.343   1.460  -1.044  0.00  0.00     0.062 H 
ATOM     28  H   LIG d   1       3.983   2.142  -3.391  0.00  0.00     0.064 H 
ATOM     29  H   LIG d   1       2.688  -3.118 -10.656  0.00  0.00     0.034 H 
ATOM     30  H   LIG d   1       1.768  -3.090  -9.133  0.00  0.00     0.034 H 
ATOM     31  H   LIG d   1       2.001  -1.071  -7.585  0.00  0.00     0.034 H 
ATOM     32  H   LIG d   1       3.073   0.269  -8.063  0.00  0.00     0.034 H 
ENDROOT
BRANCH  17  33
ATOM     33  C   LIG d   1       5.166  -3.043  -9.574  0.00  0.00    -0.029 A 
ATOM     34  C   LIG d   1       5.409  -3.448 -10.873  0.00  0.00    -0.039 A 
ATOM     35  C   LIG d   1       6.586  -3.083 -11.503  0.00  0.00     0.041 A 
ATOM     36  H   LIG d   1       4.678  -4.044 -11.399  0.00  0.00     0.064 H 
ATOM     37  C   LIG d   1       7.524  -2.324 -10.827  0.00  0.00    -0.043 A 
ATOM     38 CL   LIG d   1       6.889  -3.584 -13.137  0.00  0.00    -0.084 Cl
ATOM     39  C   LIG d   1       7.283  -1.925  -9.525  0.00  0.00    -0.060 A 
ATOM     40  H   LIG d   1       8.446  -2.042 -11.315  0.00  0.00     0.063 H 
ATOM     41  C   LIG d   1       6.105  -2.285  -8.899  0.00  0.00    -0.057 A 
ATOM     42  H   LIG d   1       8.015  -1.332  -8.997  0.00  0.00     0.062 H 
ATOM     43  H   LIG d   1       5.916  -1.972  -7.882  0.00  0.00     0.062 H 
ENDBRANCH  17  33
BRANCH   1  44
ATOM     44  C   LIG d   1       4.825  -5.165  -7.011  0.00  0.00     0.325 C 
ATOM     45  O   LIG d   1       3.823  -5.785  -6.741  0.00  0.00    -0.249 OA
BRANCH  44  46
ATOM     46  O   LIG d   1       5.866  -5.789  -7.585  0.00  0.00    -0.467 OA
BRANCH  46  47
ATOM     47  C   LIG d   1       7.173  -5.393  -7.165  0.00  0.00     0.082 C 
ATOM     48  H   LIG d   1       7.278  -5.566  -6.094  0.00  0.00     0.066 H 
ATOM     49  H   LIG d   1       7.921  -5.974  -7.703  0.00  0.00     0.066 H 
ATOM     50  H   LIG d   1       7.316  -4.333  -7.376  0.00  0.00     0.066 H 
ENDBRANCH  46  47
ENDBRANCH  44  46
ENDBRANCH   1  44
BRANCH  20  51
ATOM     51  N   LIG d   1       4.050  -0.857 -10.275  0.00  0.00     0.231 N 
ATOM     52  H   LIG d   1       4.592  -0.240  -9.688  0.00  0.00     0.202 HD
ATOM     53  H   LIG d   1       4.598  -1.674 -10.501  0.00  0.00     0.202 HD
BRANCH  51  54
ATOM     54  C   LIG d   1       3.681  -0.158 -11.513  0.00  0.00    -0.022 A 
ATOM     55  C   LIG d   1       4.606  -0.325 -12.720  0.00  0.00    -0.005 A 
ATOM     56  C   LIG d   1       3.239  -1.013 -12.702  0.00  0.00    -0.005 A 
ATOM     57  H   LIG d   1       4.728   0.532 -13.383  0.00  0.00     0.032 H 
ATOM     58  H   LIG d   1       5.487  -0.953 -12.597  0.00  0.00     0.032 H 
ATOM     59  H   LIG d   1       3.222  -2.095 -12.565  0.00  0.00     0.032 H 
ATOM     60  H   LIG d   1       2.463  -0.609 -13.352  0.00  0.00     0.032 H 
ATOM     61  H   LIG d   1       3.196   0.809 -11.381  0.00  0.00     0.085 H 
ENDBRANCH  51  54
ENDBRANCH  20  51
TORSDOF 6
ENDMDL
MODEL 4
REMARK VINA RESULT:      -6.5      5.950      8.401
REMARK  6 active torsions:
REMARK  status: ('A' for Active; 'I' for Inactive)
REMARK    1  A    between atoms: C_1  and  O_2 
REMARK    2  A    between atoms: O_2  and  C_3 
REMARK    3  A    between atoms: C_3  and  C_5 
REMARK    4  A    between atoms: C_21  and  C_31 
REMARK    5  A    between atoms: C_24  and  N_27 
REMARK    6  A    between atoms: N_27  and  C_28 
ROOT
ATOM      1  C   LIG d   1       6.795  -4.222  -4.896  0.00  0.00     0.113 C 
ATOM      2  H   LIG d   1       7.037  -4.611  -3.907  0.00  0.00     0.058 H 
ATOM      3  C   LIG d   1       5.500  -3.402  -4.820  0.00  0.00     0.001 C 
ATOM      4  C   LIG d   1       5.798  -2.117  -4.089  0.00  0.00    -0.016 A 
ATOM      5  C   LIG d   1       4.883  -1.168  -3.496  0.00  0.00     0.003 A 
ATOM      6  C   LIG d   1       3.490  -1.121  -3.404  0.00  0.00    -0.052 A 
ATOM      7  C   LIG d   1       2.945  -0.041  -2.753  0.00  0.00    -0.061 A 
ATOM      8  C   LIG d   1       3.730   0.962  -2.209  0.00  0.00    -0.060 A 
ATOM      9  C   LIG d   1       5.111   0.942  -2.286  0.00  0.00    -0.038 A 
ATOM     10  C   LIG d   1       5.693  -0.142  -2.940  0.00  0.00     0.047 A 
ATOM     11  N   LIG d   1       6.995  -0.469  -3.190  0.00  0.00    -0.356 N 
ATOM     12  H   LIG d   1       7.764   0.056  -2.922  0.00  0.00     0.166 HD
ATOM     13  C   LIG d   1       7.051  -1.653  -3.876  0.00  0.00     0.038 A 
ATOM     14  C   LIG d   1       8.285  -2.381  -4.348  0.00  0.00     0.057 C 
ATOM     15  H   LIG d   1       8.751  -2.893  -3.507  0.00  0.00     0.053 H 
ATOM     16  N   LIG d   1       7.889  -3.365  -5.366  0.00  0.00    -0.274 N 
ATOM     17  C   LIG d   1       9.045  -4.153  -5.811  0.00  0.00     0.042 C 
ATOM     18  H   LIG d   1       8.719  -4.901  -6.533  0.00  0.00     0.051 H 
ATOM     19  C   LIG d   1      10.069  -3.223  -6.465  0.00  0.00     0.010 C 
ATOM     20  C   LIG d   1      10.505  -2.154  -5.459  0.00  0.00    -0.019 C 
ATOM     21  H   LIG d   1      11.195  -1.461  -5.940  0.00  0.00     0.085 H 
ATOM     22  C   LIG d   1       9.276  -1.388  -4.957  0.00  0.00     0.011 C 
ATOM     23  H   LIG d   1       5.145  -3.180  -5.826  0.00  0.00     0.033 H 
ATOM     24  H   LIG d   1       4.739  -3.965  -4.278  0.00  0.00     0.033 H 
ATOM     25  H   LIG d   1       2.869  -1.899  -3.825  0.00  0.00     0.062 H 
ATOM     26  H   LIG d   1       1.871   0.027  -2.662  0.00  0.00     0.062 H 
ATOM     27  H   LIG d   1       3.247   1.789  -1.709  0.00  0.00     0.062 H 
ATOM     28  H   LIG d   1       5.713   1.732  -1.859  0.00  0.00     0.064 H 
ATOM     29  H   LIG d   1      10.937  -3.802  -6.779  0.00  0.00     0.034 H 
ATOM     30  H   LIG d   1       9.620  -2.741  -7.334  0.00  0.00     0.034 H 
ATOM     31  H   LIG d   1       8.808  -0.871  -5.794  0.00  0.00     0.034 H 
ATOM     32  H   LIG d   1       9.578  -0.662  -4.201  0.00  0.00     0.034 H 
ENDROOT
BRANCH  17  33
ATOM     33  C   LIG d   1       9.673  -4.840  -4.625  0.00  0.00    -0.029 A 
ATOM     34  C   LIG d   1      10.749  -5.687  -4.806  0.00  0.00    -0.039 A 
ATOM     35  C   LIG d   1      11.329  -6.313  -3.717  0.00  0.00     0.041 A 
ATOM     36  H   LIG d   1      11.142  -5.857  -5.798  0.00  0.00     0.064 H 
ATOM     37  C   LIG d   1      10.822  -6.098  -2.447  0.00  0.00    -0.043 A 
ATOM     38 CL   LIG d   1      12.686  -7.370  -3.943  0.00  0.00    -0.084 Cl
ATOM     39  C   LIG d   1       9.741  -5.256  -2.267  0.00  0.00    -0.060 A 
ATOM     40  H   LIG d   1      11.271  -6.590  -1.596  0.00  0.00     0.063 H 
ATOM     41  C   LIG d   1       9.166  -4.627  -3.355  0.00  0.00    -0.057 A 
ATOM     42  H   LIG d   1       9.345  -5.089  -1.277  0.00  0.00     0.062 H 
ATOM     43  H   LIG d   1       8.322  -3.968  -3.215  0.00  0.00     0.062 H 
ENDBRANCH  17  33
BRANCH   1  44
ATOM     44  C   LIG d   1       6.608  -5.368  -5.856  0.00  0.00     0.325 C 
ATOM     45  O   LIG d   1       6.322  -5.149  -7.010  0.00  0.00    -0.249 OA
BRANCH  44  46
ATOM     46  O   LIG d   1       6.759  -6.633  -5.431  0.00  0.00    -0.467 OA
BRANCH  46  47
ATOM     47  C   LIG d   1       5.592  -7.457  -5.422  0.00  0.00     0.082 C 
ATOM     48  H   LIG d   1       5.578  -8.056  -4.512  0.00  0.00     0.066 H 
ATOM     49  H   LIG d   1       4.702  -6.830  -5.459  0.00  0.00     0.066 H 
ATOM     50  H   LIG d   1       5.607  -8.117  -6.290  0.00  0.00     0.066 H 
ENDBRANCH  46  47
ENDBRANCH  44  46
ENDBRANCH   1  44
BRANCH  20  51
ATOM     51  N   LIG d   1      11.173  -2.798  -4.319  0.00  0.00     0.231 N 
ATOM     52  H   LIG d   1      10.739  -2.494  -3.460  0.00  0.00     0.202 HD
ATOM     53  H   LIG d   1      11.089  -3.800  -4.403  0.00  0.00     0.202 HD
BRANCH  51  54
ATOM     54  C   LIG d   1      12.593  -2.424  -4.311  0.00  0.00    -0.022 A 
ATOM     55  C   LIG d   1      13.559  -3.340  -3.556  0.00  0.00    -0.005 A 
ATOM     56  C   LIG d   1      13.564  -3.318  -5.086  0.00  0.00    -0.005 A 
ATOM     57  H   LIG d   1      14.401  -2.872  -3.044  0.00  0.00     0.032 H 
ATOM     58  H   LIG d   1      13.141  -4.219  -3.066  0.00  0.00     0.032 H 
ATOM     59  H   LIG d   1      13.147  -4.184  -5.602  0.00  0.00     0.032 H 
ATOM     60  H   LIG d   1      14.407  -2.837  -5.580  0.00  0.00     0.032 H 
ATOM     61  H   LIG d   1      12.799  -1.354  -4.295  0.00  0.00     0.085 H 
ENDBRANCH  51  54
ENDBRANCH  20  51
TORSDOF 6
ENDMDL
MODEL 5
REMARK VINA RESULT:      -6.4      2.467      4.408
REMARK  6 active torsions:
REMARK  status: ('A' for Active; 'I' for Inactive)
REMARK    1  A    between atoms: C_1  and  O_2 
REMARK    2  A    between atoms: O_2  and  C_3 
REMARK    3  A    between atoms: C_3  and  C_5 
REMARK    4  A    between atoms: C_21  and  C_31 
REMARK    5  A    between atoms: C_24  and  N_27 
REMARK    6  A    between atoms: N_27  and  C_28 
ROOT
ATOM      1  C   LIG d   1       4.637  -3.229  -7.209  0.00  0.00     0.113 C 
ATOM      2  H   LIG d   1       5.627  -2.838  -7.441  0.00  0.00     0.058 H 
ATOM      3  C   LIG d   1       4.437  -3.243  -5.687  0.00  0.00     0.001 C 
ATOM      4  C   LIG d   1       4.282  -1.818  -5.218  0.00  0.00    -0.016 A 
ATOM      5  C   LIG d   1       4.379  -1.279  -3.881  0.00  0.00     0.003 A 
ATOM      6  C   LIG d   1       4.635  -1.863  -2.637  0.00  0.00    -0.052 A 
ATOM      7  C   LIG d   1       4.653  -1.025  -1.549  0.00  0.00    -0.061 A 
ATOM      8  C   LIG d   1       4.429   0.337  -1.666  0.00  0.00    -0.060 A 
ATOM      9  C   LIG d   1       4.173   0.941  -2.883  0.00  0.00    -0.038 A 
ATOM     10  C   LIG d   1       4.149   0.117  -4.007  0.00  0.00     0.047 A 
ATOM     11  N   LIG d   1       3.933   0.377  -5.329  0.00  0.00    -0.356 N 
ATOM     12  H   LIG d   1       3.750   1.253  -5.702  0.00  0.00     0.166 HD
ATOM     13  C   LIG d   1       4.016  -0.784  -6.049  0.00  0.00     0.038 A 
ATOM     14  C   LIG d   1       3.849  -0.953  -7.538  0.00  0.00     0.057 C 
ATOM     15  H   LIG d   1       4.753  -0.621  -8.047  0.00  0.00     0.053 H 
ATOM     16  N   LIG d   1       3.616  -2.375  -7.827  0.00  0.00    -0.274 N 
ATOM     17  C   LIG d   1       3.516  -2.607  -9.274  0.00  0.00     0.042 C 
ATOM     18  H   LIG d   1       3.385  -3.673  -9.463  0.00  0.00     0.051 H 
ATOM     19  C   LIG d   1       2.314  -1.838  -9.826  0.00  0.00     0.010 C 
ATOM     20  C   LIG d   1       2.485  -0.345  -9.535  0.00  0.00    -0.019 C 
ATOM     21  H   LIG d   1       1.605   0.197  -9.882  0.00  0.00     0.085 H 
ATOM     22  C   LIG d   1       2.655  -0.131  -8.027  0.00  0.00     0.011 C 
ATOM     23  H   LIG d   1       3.541  -3.812  -5.438  0.00  0.00     0.033 H 
ATOM     24  H   LIG d   1       5.305  -3.697  -5.206  0.00  0.00     0.033 H 
ATOM     25  H   LIG d   1       4.811  -2.924  -2.536  0.00  0.00     0.062 H 
ATOM     26  H   LIG d   1       4.847  -1.442  -0.572  0.00  0.00     0.062 H 
ATOM     27  H   LIG d   1       4.453   0.948  -0.775  0.00  0.00     0.062 H 
ATOM     28  H   LIG d   1       3.998   2.005  -2.961  0.00  0.00     0.064 H 
ATOM     29  H   LIG d   1       2.248  -1.993 -10.903  0.00  0.00     0.034 H 
ATOM     30  H   LIG d   1       1.402  -2.199  -9.351  0.00  0.00     0.034 H 
ATOM     31  H   LIG d   1       1.752  -0.459  -7.513  0.00  0.00     0.034 H 
ATOM     32  H   LIG d   1       2.830   0.925  -7.821  0.00  0.00     0.034 H 
ENDROOT
BRANCH  17  33
ATOM     33  C   LIG d   1       4.776  -2.129  -9.948  0.00  0.00    -0.029 A 
ATOM     34  C   LIG d   1       4.921  -2.263 -11.316  0.00  0.00    -0.039 A 
ATOM     35  C   LIG d   1       6.075  -1.819 -11.936  0.00  0.00     0.041 A 
ATOM     36  H   LIG d   1       4.132  -2.711 -11.902  0.00  0.00     0.064 H 
ATOM     37  C   LIG d   1       7.088  -1.250 -11.185  0.00  0.00    -0.043 A 
ATOM     38 CL   LIG d   1       6.255  -1.980 -13.655  0.00  0.00    -0.084 Cl
ATOM     39  C   LIG d   1       6.945  -1.122  -9.816  0.00  0.00    -0.060 A 
ATOM     40  H   LIG d   1       7.991  -0.906 -11.667  0.00  0.00     0.063 H 
ATOM     41  C   LIG d   1       5.789  -1.561  -9.198  0.00  0.00    -0.057 A 
ATOM     42  H   LIG d   1       7.735  -0.678  -9.229  0.00  0.00     0.062 H 
ATOM     43  H   LIG d   1       5.676  -1.460  -8.128  0.00  0.00     0.062 H 
ENDBRANCH  17  33
BRANCH   1  44
ATOM     44  C   LIG d   1       4.509  -4.631  -7.745  0.00  0.00     0.325 C 
ATOM     45  O   LIG d   1       3.523  -5.285  -7.499  0.00  0.00    -0.249 OA
BRANCH  44  46
ATOM     46  O   LIG d   1       5.491  -5.155  -8.496  0.00  0.00    -0.467 OA
BRANCH  46  47
ATOM     47  C   LIG d   1       6.832  -4.936  -8.056  0.00  0.00     0.082 C 
ATOM     48  H   LIG d   1       7.208  -5.838  -7.574  0.00  0.00     0.066 H 
ATOM     49  H   LIG d   1       7.461  -4.691  -8.911  0.00  0.00     0.066 H 
ATOM     50  H   LIG d   1       6.851  -4.111  -7.344  0.00  0.00     0.066 H 
ENDBRANCH  46  47
ENDBRANCH  44  46
ENDBRANCH   1  44
BRANCH  20  51
ATOM     51  N   LIG d   1       3.677   0.157 -10.232  0.00  0.00     0.231 N 
ATOM     52  H   LIG d   1       4.504  -0.124  -9.728  0.00  0.00     0.202 HD
ATOM     53  H   LIG d   1       3.705  -0.224 -11.166  0.00  0.00     0.202 HD
BRANCH  51  54
ATOM     54  C   LIG d   1       3.620   1.623 -10.303  0.00  0.00    -0.022 A 
ATOM     55  C   LIG d   1       3.141   2.372  -9.058  0.00  0.00    -0.005 A 
ATOM     56  C   LIG d   1       4.619   2.411  -9.453  0.00  0.00    -0.005 A 
ATOM     57  H   LIG d   1       2.556   3.280  -9.209  0.00  0.00     0.032 H 
ATOM     58  H   LIG d   1       2.869   1.778  -8.186  0.00  0.00     0.032 H 
ATOM     59  H   LIG d   1       5.319   1.841  -8.841  0.00  0.00     0.032 H 
ATOM     60  H   LIG d   1       5.006   3.343  -9.864  0.00  0.00     0.032 H 
ATOM     61  H   LIG d   1       3.350   2.038 -11.274  0.00  0.00     0.085 H 
ENDBRANCH  51  54
ENDBRANCH  20  51
TORSDOF 6
ENDMDL
MODEL 6
REMARK VINA RESULT:      -6.4      4.035      7.395
REMARK  6 active torsions:
REMARK  status: ('A' for Active; 'I' for Inactive)
REMARK    1  A    between atoms: C_1  and  O_2 
REMARK    2  A    between atoms: O_2  and  C_3 
REMARK    3  A    between atoms: C_3  and  C_5 
REMARK    4  A    between atoms: C_21  and  C_31 
REMARK    5  A    between atoms: C_24  and  N_27 
REMARK    6  A    between atoms: N_27  and  C_28 
ROOT
ATOM      1  C   LIG d   1       7.121  -4.095  -4.979  0.00  0.00     0.113 C 
ATOM      2  H   LIG d   1       6.442  -4.284  -4.148  0.00  0.00     0.058 H 
ATOM      3  C   LIG d   1       7.405  -5.411  -5.717  0.00  0.00     0.001 C 
ATOM      4  C   LIG d   1       6.160  -5.806  -6.471  0.00  0.00    -0.016 A 
ATOM      5  C   LIG d   1       5.809  -7.081  -7.054  0.00  0.00     0.003 A 
ATOM      6  C   LIG d   1       6.467  -8.312  -7.113  0.00  0.00    -0.052 A 
ATOM      7  C   LIG d   1       5.819  -9.333  -7.765  0.00  0.00    -0.061 A 
ATOM      8  C   LIG d   1       4.572  -9.162  -8.342  0.00  0.00    -0.060 A 
ATOM      9  C   LIG d   1       3.897  -7.955  -8.299  0.00  0.00    -0.038 A 
ATOM     10  C   LIG d   1       4.529  -6.900  -7.643  0.00  0.00     0.047 A 
ATOM     11  N   LIG d   1       4.156  -5.606  -7.419  0.00  0.00    -0.356 N 
ATOM     12  H   LIG d   1       3.323  -5.207  -7.713  0.00  0.00     0.166 HD
ATOM     13  C   LIG d   1       5.135  -4.957  -6.716  0.00  0.00     0.038 A 
ATOM     14  C   LIG d   1       5.132  -3.522  -6.254  0.00  0.00     0.057 C 
ATOM     15  H   LIG d   1       4.493  -3.422  -5.377  0.00  0.00     0.053 H 
ATOM     16  N   LIG d   1       6.508  -3.138  -5.906  0.00  0.00    -0.274 N 
ATOM     17  C   LIG d   1       6.553  -1.767  -5.381  0.00  0.00     0.042 C 
ATOM     18  H   LIG d   1       7.575  -1.522  -5.093  0.00  0.00     0.051 H 
ATOM     19  C   LIG d   1       6.080  -0.796  -6.464  0.00  0.00     0.010 C 
ATOM     20  C   LIG d   1       4.654  -1.159  -6.889  0.00  0.00    -0.019 C 
ATOM     21  H   LIG d   1       4.336  -0.500  -7.697  0.00  0.00     0.085 H 
ATOM     22  C   LIG d   1       4.616  -2.614  -7.371  0.00  0.00     0.011 C 
ATOM     23  H   LIG d   1       8.230  -5.271  -6.416  0.00  0.00     0.033 H 
ATOM     24  H   LIG d   1       7.661  -6.189  -4.997  0.00  0.00     0.033 H 
ATOM     25  H   LIG d   1       7.440  -8.455  -6.666  0.00  0.00     0.062 H 
ATOM     26  H   LIG d   1       6.298 -10.299  -7.830  0.00  0.00     0.062 H 
ATOM     27  H   LIG d   1       4.109 -10.000  -8.843  0.00  0.00     0.062 H 
ATOM     28  H   LIG d   1       2.924  -7.835  -8.754  0.00  0.00     0.064 H 
ATOM     29  H   LIG d   1       6.094   0.221  -6.071  0.00  0.00     0.034 H 
ATOM     30  H   LIG d   1       6.743  -0.861  -7.326  0.00  0.00     0.034 H 
ATOM     31  H   LIG d   1       5.252  -2.719  -8.249  0.00  0.00     0.034 H 
ATOM     32  H   LIG d   1       3.593  -2.892  -7.624  0.00  0.00     0.034 H 
ENDROOT
BRANCH  17  33
ATOM     33  C   LIG d   1       5.652  -1.660  -4.177  0.00  0.00    -0.029 A 
ATOM     34  C   LIG d   1       5.591  -0.478  -3.463  0.00  0.00    -0.039 A 
ATOM     35  C   LIG d   1       4.760  -0.377  -2.362  0.00  0.00     0.041 A 
ATOM     36  H   LIG d   1       6.188   0.369  -3.769  0.00  0.00     0.064 H 
ATOM     37  C   LIG d   1       3.999  -1.464  -1.969  0.00  0.00    -0.043 A 
ATOM     38 CL   LIG d   1       4.675   1.110  -1.470  0.00  0.00    -0.084 Cl
ATOM     39  C   LIG d   1       4.066  -2.648  -2.680  0.00  0.00    -0.060 A 
ATOM     40  H   LIG d   1       3.353  -1.388  -1.107  0.00  0.00     0.063 H 
ATOM     41  C   LIG d   1       4.893  -2.746  -3.783  0.00  0.00    -0.057 A 
ATOM     42  H   LIG d   1       3.473  -3.496  -2.373  0.00  0.00     0.062 H 
ATOM     43  H   LIG d   1       4.944  -3.671  -4.339  0.00  0.00     0.062 H 
ENDBRANCH  17  33
BRANCH   1  44
ATOM     44  C   LIG d   1       8.414  -3.527  -4.453  0.00  0.00     0.325 C 
ATOM     45  O   LIG d   1       9.289  -3.203  -5.221  0.00  0.00    -0.249 OA
BRANCH  44  46
ATOM     46  O   LIG d   1       8.594  -3.379  -3.130  0.00  0.00    -0.467 OA
BRANCH  46  47
ATOM     47  C   LIG d   1       9.588  -4.201  -2.515  0.00  0.00     0.082 C 
ATOM     48  H   LIG d   1      10.082  -4.804  -3.276  0.00  0.00     0.066 H 
ATOM     49  H   LIG d   1      10.323  -3.571  -2.016  0.00  0.00     0.066 H 
ATOM     50  H   LIG d   1       9.115  -4.856  -1.784  0.00  0.00     0.066 H 
ENDBRANCH  46  47
ENDBRANCH  44  46
ENDBRANCH   1  44
BRANCH  20  51
ATOM     51  N   LIG d   1       3.747  -1.004  -5.744  0.00  0.00     0.231 N 
ATOM     52  H   LIG d   1       3.220  -1.855  -5.615  0.00  0.00     0.202 HD
ATOM     53  H   LIG d   1       4.286  -0.812  -4.913  0.00  0.00     0.202 HD
BRANCH  51  54
ATOM     54  C   LIG d   1       2.824   0.110  -5.998  0.00  0.00    -0.022 A 
ATOM     55  C   LIG d   1       1.597   0.231  -5.092  0.00  0.00    -0.005 A 
ATOM     56  C   LIG d   1       2.754   1.223  -4.951  0.00  0.00    -0.005 A 
ATOM     57  H   LIG d   1       0.673   0.597  -5.542  0.00  0.00     0.032 H 
ATOM     58  H   LIG d   1       1.475  -0.516  -4.308  0.00  0.00     0.032 H 
ATOM     59  H   LIG d   1       3.393   1.127  -4.072  0.00  0.00     0.032 H 
ATOM     60  H   LIG d   1       2.592   2.240  -5.306  0.00  0.00     0.032 H 
ATOM     61  H   LIG d   1       2.708   0.395  -7.044  0.00  0.00     0.085 H 
ENDBRANCH  51  54
ENDBRANCH  20  51
TORSDOF 6
ENDMDL
MODEL 7
REMARK VINA RESULT:      -6.4      3.136      7.568
REMARK  6 active torsions:
REMARK  status: ('A' for Active; 'I' for Inactive)
REMARK    1  A    between atoms: C_1  and  O_2 
REMARK    2  A    between atoms: O_2  and  C_3 
REMARK    3  A    between atoms: C_3  and  C_5 
REMARK    4  A    between atoms: C_21  and  C_31 
REMARK    5  A    between atoms: C_24  and  N_27 
REMARK    6  A    between atoms: N_27  and  C_28 
ROOT
ATOM      1  C   LIG d   1       4.765  -3.160  -6.591  0.00  0.00     0.113 C 
ATOM      2  H   LIG d   1       3.888  -2.632  -6.216  0.00  0.00     0.058 H 
ATOM      3  C   LIG d   1       4.590  -3.443  -8.090  0.00  0.00     0.001 C 
ATOM      4  C   LIG d   1       4.723  -2.139  -8.834  0.00  0.00    -0.016 A 
ATOM      5  C   LIG d   1       4.343  -1.816 -10.191  0.00  0.00     0.003 A 
ATOM      6  C   LIG d   1       3.756  -2.563 -11.216  0.00  0.00    -0.052 A 
ATOM      7  C   LIG d   1       3.533  -1.916 -12.407  0.00  0.00    -0.061 A 
ATOM      8  C   LIG d   1       3.870  -0.587 -12.596  0.00  0.00    -0.060 A 
ATOM      9  C   LIG d   1       4.452   0.176 -11.599  0.00  0.00    -0.038 A 
ATOM     10  C   LIG d   1       4.690  -0.452 -10.378  0.00  0.00     0.047 A 
ATOM     11  N   LIG d   1       5.236  -0.006  -9.210  0.00  0.00    -0.356 N 
ATOM     12  H   LIG d   1       5.562   0.894  -9.054  0.00  0.00     0.166 HD
ATOM     13  C   LIG d   1       5.251  -1.018  -8.289  0.00  0.00     0.038 A 
ATOM     14  C   LIG d   1       5.760  -0.960  -6.871  0.00  0.00     0.057 C 
ATOM     15  H   LIG d   1       5.030  -0.453  -6.241  0.00  0.00     0.053 H 
ATOM     16  N   LIG d   1       5.960  -2.333  -6.386  0.00  0.00    -0.274 N 
ATOM     17  C   LIG d   1       6.389  -2.337  -4.982  0.00  0.00     0.042 C 
ATOM     18  H   LIG d   1       6.490  -3.366  -4.635  0.00  0.00     0.051 H 
ATOM     19  C   LIG d   1       7.738  -1.624  -4.865  0.00  0.00     0.010 C 
ATOM     20  C   LIG d   1       7.603  -0.188  -5.380  0.00  0.00    -0.019 C 
ATOM     21  H   LIG d   1       8.575   0.304  -5.345  0.00  0.00     0.085 H 
ATOM     22  C   LIG d   1       7.090  -0.205  -6.823  0.00  0.00     0.011 C 
ATOM     23  H   LIG d   1       5.359  -4.139  -8.425  0.00  0.00     0.033 H 
ATOM     24  H   LIG d   1       3.604  -3.872  -8.270  0.00  0.00     0.033 H 
ATOM     25  H   LIG d   1       3.489  -3.601 -11.078  0.00  0.00     0.062 H 
ATOM     26  H   LIG d   1       3.081  -2.463 -13.221  0.00  0.00     0.062 H 
ATOM     27  H   LIG d   1       3.672  -0.129 -13.555  0.00  0.00     0.062 H 
ATOM     28  H   LIG d   1       4.711   1.213 -11.760  0.00  0.00     0.064 H 
ATOM     29  H   LIG d   1       8.051  -1.607  -3.821  0.00  0.00     0.034 H 
ATOM     30  H   LIG d   1       8.483  -2.153  -5.459  0.00  0.00     0.034 H 
ATOM     31  H   LIG d   1       7.818  -0.708  -7.459  0.00  0.00     0.034 H 
ATOM     32  H   LIG d   1       6.942   0.817  -7.175  0.00  0.00     0.034 H 
ENDROOT
BRANCH  17  33
ATOM     33  C   LIG d   1       5.365  -1.621  -4.140  0.00  0.00    -0.029 A 
ATOM     34  C   LIG d   1       4.256  -1.052  -4.737  0.00  0.00    -0.039 A 
ATOM     35  C   LIG d   1       3.313  -0.399  -3.963  0.00  0.00     0.041 A 
ATOM     36  H   LIG d   1       4.123  -1.121  -5.807  0.00  0.00     0.064 H 
ATOM     37  C   LIG d   1       3.487  -0.306  -2.594  0.00  0.00    -0.043 A 
ATOM     38 CL   LIG d   1       1.915   0.309  -4.711  0.00  0.00    -0.084 Cl
ATOM     39  C   LIG d   1       4.600  -0.870  -1.999  0.00  0.00    -0.060 A 
ATOM     40  H   LIG d   1       2.753   0.207  -1.989  0.00  0.00     0.063 H 
ATOM     41  C   LIG d   1       5.539  -1.526  -2.771  0.00  0.00    -0.057 A 
ATOM     42  H   LIG d   1       4.736  -0.797  -0.930  0.00  0.00     0.062 H 
ATOM     43  H   LIG d   1       6.408  -1.968  -2.306  0.00  0.00     0.062 H 
ENDBRANCH  17  33
BRANCH   1  44
ATOM     44  C   LIG d   1       4.923  -4.462  -5.849  0.00  0.00     0.325 C 
ATOM     45  O   LIG d   1       4.174  -4.734  -4.939  0.00  0.00    -0.249 OA
BRANCH  44  46
ATOM     46  O   LIG d   1       5.894  -5.321  -6.198  0.00  0.00    -0.467 OA
BRANCH  46  47
ATOM     47  C   LIG d   1       5.769  -6.666  -5.730  0.00  0.00     0.082 C 
ATOM     48  H   LIG d   1       6.684  -7.214  -5.954  0.00  0.00     0.066 H 
ATOM     49  H   LIG d   1       5.601  -6.663  -4.653  0.00  0.00     0.066 H 
ATOM     50  H   LIG d   1       4.926  -7.147  -6.227  0.00  0.00     0.066 H 
ENDBRANCH  46  47
ENDBRANCH  44  46
ENDBRANCH   1  44
BRANCH  20  51
ATOM     51  N   LIG d   1       6.651   0.547  -4.536  0.00  0.00     0.231 N 
ATOM     52  H   LIG d   1       5.919   0.934  -5.113  0.00  0.00     0.202 HD
ATOM     53  H   LIG d   1       6.249  -0.081  -3.858  0.00  0.00     0.202 HD
BRANCH  51  54
ATOM     54  C   LIG d   1       7.353   1.634  -3.841  0.00  0.00    -0.022 A 
ATOM     55  C   LIG d   1       8.881   1.570  -3.791  0.00  0.00    -0.005 A 
ATOM     56  C   LIG d   1       8.187   2.595  -4.691  0.00  0.00    -0.005 A 
ATOM     57  H   LIG d   1       9.372   1.942  -2.891  0.00  0.00     0.032 H 
ATOM     58  H   LIG d   1       9.365   0.722  -4.273  0.00  0.00     0.032 H 
ATOM     59  H   LIG d   1       8.215   2.419  -5.767  0.00  0.00     0.032 H 
ATOM     60  H   LIG d   1       8.221   3.640  -4.384  0.00  0.00     0.032 H 
ATOM     61  H   LIG d   1       6.838   2.048  -2.973  0.00  0.00     0.085 H 
ENDBRANCH  51  54
ENDBRANCH  20  51
TORSDOF 6
ENDMDL
MODEL 8
REMARK VINA RESULT:      -6.3      3.562      5.115
REMARK  6 active torsions:
REMARK  status: ('A' for Active; 'I' for Inactive)
REMARK    1  A    between atoms: C_1  and  O_2 
REMARK    2  A    between atoms: O_2  and  C_3 
REMARK    3  A    between atoms: C_3  and  C_5 
REMARK    4  A    between atoms: C_21  and  C_31 
REMARK    5  A    between atoms: C_24  and  N_27 
REMARK    6  A    between atoms: N_27  and  C_28 
ROOT
ATOM      1  C   LIG d   1       7.768  -3.276  -4.916  0.00  0.00     0.113 C 
ATOM      2  H   LIG d   1       7.743  -2.726  -5.856  0.00  0.00     0.058 H 
ATOM      3  C   LIG d   1       7.388  -2.336  -3.763  0.00  0.00     0.001 C 
ATOM      4  C   LIG d   1       5.914  -2.038  -3.863  0.00  0.00    -0.016 A 
ATOM      5  C   LIG d   1       5.145  -0.992  -3.227  0.00  0.00     0.003 A 
ATOM      6  C   LIG d   1       5.490   0.041  -2.351  0.00  0.00    -0.052 A 
ATOM      7  C   LIG d   1       4.475   0.869  -1.937  0.00  0.00    -0.061 A 
ATOM      8  C   LIG d   1       3.168   0.699  -2.361  0.00  0.00    -0.060 A 
ATOM      9  C   LIG d   1       2.798  -0.315  -3.227  0.00  0.00    -0.038 A 
ATOM     10  C   LIG d   1       3.806  -1.171  -3.665  0.00  0.00     0.047 A 
ATOM     11  N   LIG d   1       3.792  -2.249  -4.503  0.00  0.00    -0.356 N 
ATOM     12  H   LIG d   1       3.005  -2.598  -4.949  0.00  0.00     0.166 HD
ATOM     13  C   LIG d   1       5.055  -2.763  -4.619  0.00  0.00     0.038 A 
ATOM     14  C   LIG d   1       5.491  -3.946  -5.445  0.00  0.00     0.057 C 
ATOM     15  H   LIG d   1       5.557  -3.656  -6.493  0.00  0.00     0.053 H 
ATOM     16  N   LIG d   1       6.812  -4.388  -4.974  0.00  0.00    -0.274 N 
ATOM     17  C   LIG d   1       7.317  -5.498  -5.792  0.00  0.00     0.042 C 
ATOM     18  H   LIG d   1       8.313  -5.779  -5.448  0.00  0.00     0.051 H 
ATOM     19  C   LIG d   1       6.373  -6.694  -5.657  0.00  0.00     0.010 C 
ATOM     20  C   LIG d   1       4.968  -6.291  -6.113  0.00  0.00    -0.019 C 
ATOM     21  H   LIG d   1       4.284  -7.127  -5.968  0.00  0.00     0.085 H 
ATOM     22  C   LIG d   1       4.487  -5.089  -5.292  0.00  0.00     0.011 C 
ATOM     23  H   LIG d   1       7.603  -2.818  -2.808  0.00  0.00     0.033 H 
ATOM     24  H   LIG d   1       7.957  -1.409  -3.842  0.00  0.00     0.033 H 
ATOM     25  H   LIG d   1       6.507   0.181  -2.015  0.00  0.00     0.062 H 
ATOM     26  H   LIG d   1       4.705   1.678  -1.260  0.00  0.00     0.062 H 
ATOM     27  H   LIG d   1       2.410   1.380  -2.002  0.00  0.00     0.062 H 
ATOM     28  H   LIG d   1       1.774  -0.437  -3.549  0.00  0.00     0.064 H 
ATOM     29  H   LIG d   1       6.734  -7.514  -6.279  0.00  0.00     0.034 H 
ATOM     30  H   LIG d   1       6.339  -7.016  -4.617  0.00  0.00     0.034 H 
ATOM     31  H   LIG d   1       4.417  -5.375  -4.243  0.00  0.00     0.034 H 
ATOM     32  H   LIG d   1       3.509  -4.766  -5.649  0.00  0.00     0.034 H 
ENDROOT
BRANCH  17  33
ATOM     33  C   LIG d   1       7.386  -5.068  -7.235  0.00  0.00    -0.029 A 
ATOM     34  C   LIG d   1       7.059  -3.772  -7.586  0.00  0.00    -0.039 A 
ATOM     35  C   LIG d   1       7.127  -3.376  -8.910  0.00  0.00     0.041 A 
ATOM     36  H   LIG d   1       6.755  -3.067  -6.827  0.00  0.00     0.064 H 
ATOM     37  C   LIG d   1       7.512  -4.282  -9.883  0.00  0.00    -0.043 A 
ATOM     38 CL   LIG d   1       6.725  -1.746  -9.352  0.00  0.00    -0.084 Cl
ATOM     39  C   LIG d   1       7.832  -5.580  -9.531  0.00  0.00    -0.060 A 
ATOM     40  H   LIG d   1       7.561  -3.975 -10.918  0.00  0.00     0.063 H 
ATOM     41  C   LIG d   1       7.768  -5.973  -8.208  0.00  0.00    -0.057 A 
ATOM     42  H   LIG d   1       8.131  -6.287 -10.290  0.00  0.00     0.062 H 
ATOM     43  H   LIG d   1       8.020  -6.987  -7.932  0.00  0.00     0.062 H 
ENDBRANCH  17  33
BRANCH   1  44
ATOM     44  C   LIG d   1       9.155  -3.819  -4.685  0.00  0.00     0.325 C 
ATOM     45  O   LIG d   1      10.023  -3.626  -5.505  0.00  0.00    -0.249 OA
BRANCH  44  46
ATOM     46  O   LIG d   1       9.427  -4.516  -3.570  0.00  0.00    -0.467 OA
BRANCH  46  47
ATOM     47  C   LIG d   1      10.652  -4.212  -2.900  0.00  0.00     0.082 C 
ATOM     48  H   LIG d   1      10.483  -4.202  -1.823  0.00  0.00     0.066 H 
ATOM     49  H   LIG d   1      11.398  -4.968  -3.144  0.00  0.00     0.066 H 
ATOM     50  H   LIG d   1      11.009  -3.234  -3.220  0.00  0.00     0.066 H 
ENDBRANCH  46  47
ENDBRANCH  44  46
ENDBRANCH   1  44
BRANCH  20  51
ATOM     51  N   LIG d   1       5.000  -5.923  -7.535  0.00  0.00     0.231 N 
ATOM     52  H   LIG d   1       5.644  -5.159  -7.670  0.00  0.00     0.202 HD
ATOM     53  H   LIG d   1       5.300  -6.717  -8.080  0.00  0.00     0.202 HD
BRANCH  51  54
ATOM     54  C   LIG d   1       3.656  -5.514  -7.964  0.00  0.00    -0.022 A 
ATOM     55  C   LIG d   1       3.543  -4.248  -8.816  0.00  0.00    -0.005 A 
ATOM     56  C   LIG d   1       3.327  -5.622  -9.455  0.00  0.00    -0.005 A 
ATOM     57  H   LIG d   1       2.665  -3.618  -8.668  0.00  0.00     0.032 H 
ATOM     58  H   LIG d   1       4.465  -3.719  -9.057  0.00  0.00     0.032 H 
ATOM     59  H   LIG d   1       4.109  -5.996 -10.116  0.00  0.00     0.032 H 
ATOM     60  H   LIG d   1       2.309  -5.896  -9.727  0.00  0.00     0.032 H 
ATOM     61  H   LIG d   1       2.853  -5.717  -7.256  0.00  0.00     0.085 H 
ENDBRANCH  51  54
ENDBRANCH  20  51
TORSDOF 6
ENDMDL
MODEL 9
REMARK VINA RESULT:      -6.2      2.000      2.793
REMARK  6 active torsions:
REMARK  status: ('A' for Active; 'I' for Inactive)
REMARK    1  A    between atoms: C_1  and  O_2 
REMARK    2  A    between atoms: O_2  and  C_3 
REMARK    3  A    between atoms: C_3  and  C_5 
REMARK    4  A    between atoms: C_21  and  C_31 
REMARK    5  A    between atoms: C_24  and  N_27 
REMARK    6  A    between atoms: N_27  and  C_28 
ROOT
ATOM      1  C   LIG d   1       6.963  -0.375  -7.687  0.00  0.00     0.113 C 
ATOM      2  H   LIG d   1       6.369   0.409  -8.157  0.00  0.00     0.058 H 
ATOM      3  C   LIG d   1       7.071  -0.100  -6.180  0.00  0.00     0.001 C 
ATOM      4  C   LIG d   1       5.725  -0.369  -5.555  0.00  0.00    -0.016 A 
ATOM      5  C   LIG d   1       5.224   0.023  -4.257  0.00  0.00     0.003 A 
ATOM      6  C   LIG d   1       5.785   0.746  -3.201  0.00  0.00    -0.052 A 
ATOM      7  C   LIG d   1       5.000   0.934  -2.090  0.00  0.00    -0.061 A 
ATOM      8  C   LIG d   1       3.711   0.435  -2.008  0.00  0.00    -0.060 A 
ATOM      9  C   LIG d   1       3.130  -0.283  -3.038  0.00  0.00    -0.038 A 
ATOM     10  C   LIG d   1       3.902  -0.490  -4.179  0.00  0.00     0.047 A 
ATOM     11  N   LIG d   1       3.646  -1.139  -5.353  0.00  0.00    -0.356 N 
ATOM     12  H   LIG d   1       2.815  -1.586  -5.573  0.00  0.00     0.166 HD
ATOM     13  C   LIG d   1       4.740  -1.062  -6.173  0.00  0.00     0.038 A 
ATOM     14  C   LIG d   1       4.888  -1.635  -7.560  0.00  0.00     0.057 C 
ATOM     15  H   LIG d   1       4.359  -1.004  -8.274  0.00  0.00     0.053 H 
ATOM     16  N   LIG d   1       6.317  -1.674  -7.902  0.00  0.00    -0.274 N 
ATOM     17  C   LIG d   1       6.514  -2.160  -9.274  0.00  0.00     0.042 C 
ATOM     18  H   LIG d   1       7.577  -2.141  -9.516  0.00  0.00     0.051 H 
ATOM     19  C   LIG d   1       5.991  -3.594  -9.381  0.00  0.00     0.010 C 
ATOM     20  C   LIG d   1       4.505  -3.624  -9.012  0.00  0.00    -0.019 C 
ATOM     21  H   LIG d   1       4.145  -4.652  -9.039  0.00  0.00     0.085 H 
ATOM     22  C   LIG d   1       4.313  -3.051  -7.604  0.00  0.00     0.011 C 
ATOM     23  H   LIG d   1       7.820  -0.758  -5.739  0.00  0.00     0.033 H 
ATOM     24  H   LIG d   1       7.352   0.940  -6.015  0.00  0.00     0.033 H 
ATOM     25  H   LIG d   1       6.790   1.139  -3.255  0.00  0.00     0.062 H 
ATOM     26  H   LIG d   1       5.401   1.487  -1.254  0.00  0.00     0.062 H 
ATOM     27  H   LIG d   1       3.139   0.612  -1.108  0.00  0.00     0.062 H 
ATOM     28  H   LIG d   1       2.123  -0.668  -2.961  0.00  0.00     0.064 H 
ATOM     29  H   LIG d   1       6.118  -3.950 -10.404  0.00  0.00     0.034 H 
ATOM     30  H   LIG d   1       6.547  -4.237  -8.700  0.00  0.00     0.034 H 
ATOM     31  H   LIG d   1       4.838  -3.680  -6.885  0.00  0.00     0.034 H 
ATOM     32  H   LIG d   1       3.251  -3.023  -7.358  0.00  0.00     0.034 H 
ENDROOT
BRANCH  17  33
ATOM     33  C   LIG d   1       5.763  -1.274 -10.234  0.00  0.00    -0.029 A 
ATOM     34  C   LIG d   1       5.139  -0.129  -9.775  0.00  0.00    -0.039 A 
ATOM     35  C   LIG d   1       4.454   0.687 -10.658  0.00  0.00     0.041 A 
ATOM     36  H   LIG d   1       5.191   0.131  -8.728  0.00  0.00     0.064 H 
ATOM     37  C   LIG d   1       4.385   0.350 -11.998  0.00  0.00    -0.043 A 
ATOM     38 CL   LIG d   1       3.678   2.129 -10.084  0.00  0.00    -0.084 Cl
ATOM     39  C   LIG d   1       5.003  -0.799 -12.455  0.00  0.00    -0.060 A 
ATOM     40  H   LIG d   1       3.846   0.983 -12.687  0.00  0.00     0.063 H 
ATOM     41  C   LIG d   1       5.692  -1.611 -11.573  0.00  0.00    -0.057 A 
ATOM     42  H   LIG d   1       4.948  -1.063 -13.500  0.00  0.00     0.062 H 
ATOM     43  H   LIG d   1       6.176  -2.508 -11.931  0.00  0.00     0.062 H 
ENDBRANCH  17  33
BRANCH   1  44
ATOM     44  C   LIG d   1       8.342  -0.393  -8.294  0.00  0.00     0.325 C 
ATOM     45  O   LIG d   1       8.631   0.396  -9.163  0.00  0.00    -0.249 OA
BRANCH  44  46
ATOM     46  O   LIG d   1       9.251  -1.287  -7.871  0.00  0.00    -0.467 OA
BRANCH  46  47
ATOM     47  C   LIG d   1      10.454  -1.399  -8.632  0.00  0.00     0.082 C 
ATOM     48  H   LIG d   1      10.267  -1.073  -9.655  0.00  0.00     0.066 H 
ATOM     49  H   LIG d   1      11.227  -0.773  -8.186  0.00  0.00     0.066 H 
ATOM     50  H   LIG d   1      10.786  -2.437  -8.637  0.00  0.00     0.066 H 
ENDBRANCH  46  47
ENDBRANCH  44  46
ENDBRANCH   1  44
BRANCH  20  51
ATOM     51  N   LIG d   1       3.744  -2.813  -9.972  0.00  0.00     0.231 N 
ATOM     52  H   LIG d   1       4.131  -1.882 -10.005  0.00  0.00     0.202 HD
ATOM     53  H   LIG d   1       3.801  -3.234 -10.887  0.00  0.00     0.202 HD
BRANCH  51  54
ATOM     54  C   LIG d   1       2.339  -2.746  -9.550  0.00  0.00    -0.022 A 
ATOM     55  C   LIG d   1       1.559  -1.475  -9.891  0.00  0.00    -0.005 A 
ATOM     56  C   LIG d   1       1.270  -2.775 -10.645  0.00  0.00    -0.005 A 
ATOM     57  H   LIG d   1       0.813  -1.133  -9.173  0.00  0.00     0.032 H 
ATOM     58  H   LIG d   1       2.089  -0.688 -10.429  0.00  0.00     0.032 H 
ATOM     59  H   LIG d   1       1.611  -2.844 -11.678  0.00  0.00     0.032 H 
ATOM     60  H   LIG d   1       0.335  -3.288 -10.422  0.00  0.00     0.032 H 
ATOM     61  H   LIG d   1       2.106  -3.241  -8.607  0.00  0.00     0.085 H 
ENDBRANCH  51  54
ENDBRANCH  20  51
TORSDOF 6
ENDMDL
MODEL 10
REMARK VINA RESULT:      -6.1      3.228      6.966
REMARK  6 active torsions:
REMARK  status: ('A' for Active; 'I' for Inactive)
REMARK    1  A    between atoms: C_1  and  O_2 
REMARK    2  A    between atoms: O_2  and  C_3 
REMARK    3  A    between atoms: C_3  and  C_5 
REMARK    4  A    between atoms: C_21  and  C_31 
REMARK    5  A    between atoms: C_24  and  N_27 
REMARK    6  A    between atoms: N_27  and  C_28 
ROOT
ATOM      1  C   LIG d   1       3.608  -0.115  -6.044  0.00  0.00     0.113 C 
ATOM      2  H   LIG d   1       4.336   0.615  -6.398  0.00  0.00     0.058 H 
ATOM      3  C   LIG d   1       2.488  -0.267  -7.083  0.00  0.00     0.001 C 
ATOM      4  C   LIG d   1       3.049  -1.000  -8.276  0.00  0.00    -0.016 A 
ATOM      5  C   LIG d   1       2.511  -1.119  -9.612  0.00  0.00     0.003 A 
ATOM      6  C   LIG d   1       1.354  -0.623 -10.219  0.00  0.00    -0.052 A 
ATOM      7  C   LIG d   1       1.159  -0.943 -11.540  0.00  0.00    -0.061 A 
ATOM      8  C   LIG d   1       2.058  -1.722 -12.249  0.00  0.00    -0.060 A 
ATOM      9  C   LIG d   1       3.211  -2.227 -11.674  0.00  0.00    -0.038 A 
ATOM     10  C   LIG d   1       3.438  -1.918 -10.335  0.00  0.00     0.047 A 
ATOM     11  N   LIG d   1       4.450  -2.244  -9.479  0.00  0.00    -0.356 N 
ATOM     12  H   LIG d   1       5.221  -2.784  -9.707  0.00  0.00     0.166 HD
ATOM     13  C   LIG d   1       4.213  -1.691  -8.249  0.00  0.00     0.038 A 
ATOM     14  C   LIG d   1       5.075  -1.793  -7.016  0.00  0.00     0.057 C 
ATOM     15  H   LIG d   1       5.927  -1.121  -7.109  0.00  0.00     0.053 H 
ATOM     16  N   LIG d   1       4.270  -1.410  -5.847  0.00  0.00    -0.274 N 
ATOM     17  C   LIG d   1       5.082  -1.424  -4.624  0.00  0.00     0.042 C 
ATOM     18  H   LIG d   1       4.475  -1.098  -3.780  0.00  0.00     0.051 H 
ATOM     19  C   LIG d   1       5.587  -2.847  -4.370  0.00  0.00     0.010 C 
ATOM     20  C   LIG d   1       6.416  -3.317  -5.568  0.00  0.00    -0.019 C 
ATOM     21  H   LIG d   1       6.732  -4.347  -5.411  0.00  0.00     0.085 H 
ATOM     22  C   LIG d   1       5.572  -3.230  -6.844  0.00  0.00     0.011 C 
ATOM     23  H   LIG d   1       1.663  -0.837  -6.655  0.00  0.00     0.033 H 
ATOM     24  H   LIG d   1       2.135   0.718  -7.389  0.00  0.00     0.033 H 
ATOM     25  H   LIG d   1       0.647  -0.015  -9.674  0.00  0.00     0.062 H 
ATOM     26  H   LIG d   1       0.275  -0.576 -12.041  0.00  0.00     0.062 H 
ATOM     27  H   LIG d   1       1.852  -1.943 -13.286  0.00  0.00     0.062 H 
ATOM     28  H   LIG d   1       3.904  -2.834 -12.238  0.00  0.00     0.064 H 
ATOM     29  H   LIG d   1       6.206  -2.858  -3.473  0.00  0.00     0.034 H 
ATOM     30  H   LIG d   1       4.737  -3.515  -4.233  0.00  0.00     0.034 H 
ATOM     31  H   LIG d   1       4.719  -3.903  -6.758  0.00  0.00     0.034 H 
ATOM     32  H   LIG d   1       6.175  -3.513  -7.707  0.00  0.00     0.034 H 
ENDROOT
BRANCH  17  33
ATOM     33  C   LIG d   1       6.257  -0.494  -4.788  0.00  0.00    -0.029 A 
ATOM     34  C   LIG d   1       6.501   0.100  -6.012  0.00  0.00    -0.039 A 
ATOM     35  C   LIG d   1       7.576   0.959  -6.161  0.00  0.00     0.041 A 
ATOM     36  H   LIG d   1       5.850  -0.101  -6.850  0.00  0.00     0.064 H 
ATOM     37  C   LIG d   1       8.412   1.212  -5.088  0.00  0.00    -0.043 A 
ATOM     38 CL   LIG d   1       7.879   1.713  -7.695  0.00  0.00    -0.084 Cl
ATOM     39  C   LIG d   1       8.171   0.611  -3.867  0.00  0.00    -0.060 A 
ATOM     40  H   LIG d   1       9.254   1.879  -5.205  0.00  0.00     0.063 H 
ATOM     41  C   LIG d   1       7.094  -0.242  -3.717  0.00  0.00    -0.057 A 
ATOM     42  H   LIG d   1       8.823   0.809  -3.029  0.00  0.00     0.062 H 
ATOM     43  H   LIG d   1       6.904  -0.710  -2.762  0.00  0.00     0.062 H 
ENDBRANCH  17  33
BRANCH   1  44
ATOM     44  C   LIG d   1       3.021   0.352  -4.737  0.00  0.00     0.325 C 
ATOM     45  O   LIG d   1       2.073  -0.227  -4.260  0.00  0.00    -0.249 OA
BRANCH  44  46
ATOM     46  O   LIG d   1       3.550   1.410  -4.103  0.00  0.00    -0.467 OA
BRANCH  46  47
ATOM     47  C   LIG d   1       3.654   1.328  -2.681  0.00  0.00     0.082 C 
ATOM     48  H   LIG d   1       3.664   2.332  -2.259  0.00  0.00     0.066 H 
ATOM     49  H   LIG d   1       2.804   0.775  -2.284  0.00  0.00     0.066 H 
ATOM     50  H   LIG d   1       4.578   0.813  -2.414  0.00  0.00     0.066 H 
ENDBRANCH  46  47
ENDBRANCH  44  46
ENDBRANCH   1  44
BRANCH  20  51
ATOM     51  N   LIG d   1       7.600  -2.458  -5.712  0.00  0.00     0.231 N 
ATOM     52  H   LIG d   1       7.639  -2.094  -6.653  0.00  0.00     0.202 HD
ATOM     53  H   LIG d   1       7.541  -1.693  -5.057  0.00  0.00     0.202 HD
BRANCH  51  54
ATOM     54  C   LIG d   1       8.810  -3.244  -5.440  0.00  0.00    -0.022 A 
ATOM     55  C   LIG d   1      10.050  -2.486  -4.961  0.00  0.00    -0.005 A 
ATOM     56  C   LIG d   1       9.263  -3.362  -3.983  0.00  0.00    -0.005 A 
ATOM     57  H   LIG d   1      11.023  -2.852  -5.292  0.00  0.00     0.032 H 
ATOM     58  H   LIG d   1       9.968  -1.406  -4.848  0.00  0.00     0.032 H 
ATOM     59  H   LIG d   1       8.662  -2.855  -3.227  0.00  0.00     0.032 H 
ATOM     60  H   LIG d   1       9.717  -4.302  -3.671  0.00  0.00     0.032 H 
ATOM     61  H   LIG d   1       8.967  -4.107  -6.086  0.00  0.00     0.085 H 
ENDBRANCH  51  54
ENDBRANCH  20  51
TORSDOF 6
ENDMDL
