MODEL 1
REMARK VINA RESULT:      -6.6      0.000      0.000
REMARK  18 active torsions:
REMARK  status: ('A' for Active; 'I' for Inactive)
REMARK    1  A    between atoms: C_1  and  C_2 
REMARK    2  A    between atoms: C_2  and  C_4 
REMARK    3  A    between atoms: C_2  and  N_24 
REMARK       I    between atoms: C_4  and  N_6 
REMARK    4  A    between atoms: N_6  and  C_7 
REMARK    5  A    between atoms: C_7  and  C_8 
REMARK       I    between atoms: C_8  and  N_10 
REMARK    6  A    between atoms: N_10  and  C_11 
REMARK    7  A    between atoms: C_11  and  C_13 
REMARK    8  A    between atoms: C_11  and  C_17 
REMARK    9  A    between atoms: C_13  and  C_14 
REMARK   10  A    between atoms: C_14  and  C_15 
REMARK   11  A    between atoms: C_14  and  C_16 
REMARK       I    between atoms: C_17  and  N_19 
REMARK   12  A    between atoms: N_19  and  C_20 
REMARK   13  A    between atoms: C_20  and  C_21 
REMARK       I    between atoms: C_21  and  N_23 
REMARK       I    between atoms: N_24  and  C_25 
REMARK   14  A    between atoms: C_25  and  C_27 
REMARK   15  A    between atoms: C_27  and  C_29 
REMARK   16  A    between atoms: C_27  and  N_37 
REMARK   17  A    between atoms: C_29  and  C_30 
REMARK   18  A    between atoms: C_33  and  O_36 
ROOT
ATOM      1  C   LIG d   1       3.220  -5.252  -8.487  0.00  0.00     0.234 C 
ATOM      2  O   LIG d   1       3.447  -6.366  -8.066  0.00  0.00    -0.274 OA
ATOM      3  N   LIG d   1       3.599  -4.172  -7.773  0.00  0.00    -0.305 N 
ATOM      4  H   LIG d   1       3.417  -3.281  -8.110  0.00  0.00     0.149 HD
ENDROOT
BRANCH   3   5
ATOM      5  C   LIG d   1       4.285  -4.346  -6.491  0.00  0.00     0.088 C 
ATOM      6  H   LIG d   1       3.666  -4.950  -5.828  0.00  0.00     0.056 H 
ATOM      7  H   LIG d   1       5.239  -4.846  -6.653  0.00  0.00     0.056 H 
BRANCH   5   8
ATOM      8  C   LIG d   1       4.524  -2.997  -5.863  0.00  0.00     0.231 C 
ATOM      9  O   LIG d   1       4.492  -1.995  -6.547  0.00  0.00    -0.274 OA
ATOM     10  N   LIG d   1       4.775  -2.903  -4.542  0.00  0.00    -0.303 N 
ATOM     11  H   LIG d   1       4.801  -3.703  -3.996  0.00  0.00     0.149 HD
BRANCH  10  12
ATOM     12  C   LIG d   1       5.008  -1.592  -3.932  0.00  0.00     0.100 C 
ATOM     13  H   LIG d   1       4.412  -0.840  -4.449  0.00  0.00     0.059 H 
BRANCH  12  14
ATOM     14  C   LIG d   1       4.605  -1.637  -2.457  0.00  0.00    -0.024 C 
ATOM     15  H   LIG d   1       4.074  -2.566  -2.253  0.00  0.00     0.029 H 
ATOM     16  H   LIG d   1       5.498  -1.584  -1.834  0.00  0.00     0.029 H 
BRANCH  14  17
ATOM     17  C   LIG d   1       3.693  -0.449  -2.142  0.00  0.00    -0.045 C 
ATOM     18  H   LIG d   1       3.045  -0.701  -1.302  0.00  0.00     0.030 H 
BRANCH  17  19
ATOM     19  C   LIG d   1       4.548   0.767  -1.779  0.00  0.00    -0.063 C 
ATOM     20  H   LIG d   1       3.900   1.606  -1.529  0.00  0.00     0.023 H 
ATOM     21  H   LIG d   1       5.177   0.526  -0.921  0.00  0.00     0.023 H 
ATOM     22  H   LIG d   1       5.178   1.034  -2.627  0.00  0.00     0.023 H 
ENDBRANCH  17  19
BRANCH  17  23
ATOM     23  C   LIG d   1       2.837  -0.123  -3.367  0.00  0.00    -0.063 C 
ATOM     24  H   LIG d   1       1.945   0.419  -3.053  0.00  0.00     0.023 H 
ATOM     25  H   LIG d   1       3.412   0.491  -4.059  0.00  0.00     0.023 H 
ATOM     26  H   LIG d   1       2.544  -1.050  -3.861  0.00  0.00     0.023 H 
ENDBRANCH  17  23
ENDBRANCH  14  17
ENDBRANCH  12  14
BRANCH  12  27
ATOM     27  C   LIG d   1       6.469  -1.239  -4.043  0.00  0.00     0.234 C 
ATOM     28  O   LIG d   1       7.284  -1.808  -3.349  0.00  0.00    -0.274 OA
ATOM     29  N   LIG d   1       6.868  -0.290  -4.912  0.00  0.00    -0.305 N 
ATOM     30  H   LIG d   1       6.216   0.166  -5.468  0.00  0.00     0.149 HD
BRANCH  29  31
ATOM     31  C   LIG d   1       8.289   0.055  -5.019  0.00  0.00     0.088 C 
ATOM     32  H   LIG d   1       8.880  -0.660  -4.446  0.00  0.00     0.056 H 
ATOM     33  H   LIG d   1       8.592   0.021  -6.066  0.00  0.00     0.056 H 
BRANCH  31  34
ATOM     34  C   LIG d   1       8.512   1.441  -4.476  0.00  0.00     0.228 C 
ATOM     35  O   LIG d   1       7.745   2.337  -4.763  0.00  0.00    -0.274 OA
ATOM     36  N   LIG d   1       9.564   1.689  -3.670  0.00  0.00    -0.328 N 
ATOM     37  H   LIG d   1      10.177   0.974  -3.440  0.00  0.00     0.145 HD
ATOM     38  H   LIG d   1       9.707   2.582  -3.320  0.00  0.00     0.145 HD
ENDBRANCH  31  34
ENDBRANCH  29  31
ENDBRANCH  12  27
ENDBRANCH  10  12
ENDBRANCH   5   8
ENDBRANCH   3   5
BRANCH   1  39
ATOM     39  C   LIG d   1       2.515  -5.074  -9.807  0.00  0.00     0.097 C 
ATOM     40  H   LIG d   1       1.475  -5.384  -9.708  0.00  0.00     0.059 H 
BRANCH  39  41
ATOM     41  C   LIG d   1       3.204  -5.929 -10.872  0.00  0.00    -0.038 C 
ATOM     42  H   LIG d   1       3.895  -6.621 -10.391  0.00  0.00     0.025 H 
ATOM     43  H   LIG d   1       2.454  -6.491 -11.429  0.00  0.00     0.025 H 
ATOM     44  H   LIG d   1       3.755  -5.282 -11.556  0.00  0.00     0.025 H 
ENDBRANCH  39  41
BRANCH  39  45
ATOM     45  N   LIG d   1       2.567  -3.665 -10.202  0.00  0.00    -0.300 N 
ATOM     46  C   LIG d   1       1.451  -3.042 -10.629  0.00  0.00     0.262 C 
ATOM     47  O   LIG d   1       0.403  -3.648 -10.685  0.00  0.00    -0.270 OA
ATOM     48  H   LIG d   1       3.406  -3.179 -10.158  0.00  0.00     0.150 HD
BRANCH  46  49
ATOM     49  C   LIG d   1       1.505  -1.592 -11.037  0.00  0.00     0.057 C 
ATOM     50  H   LIG d   1       2.461  -1.384 -11.517  0.00  0.00     0.095 H 
BRANCH  49  51
ATOM     51  C   LIG d   1       1.355  -0.707  -9.796  0.00  0.00     0.024 C 
ATOM     52  H   LIG d   1       0.441  -0.119  -9.878  0.00  0.00     0.037 H 
ATOM     53  H   LIG d   1       1.304  -1.336  -8.907  0.00  0.00     0.037 H 
BRANCH  51  54
ATOM     54  C   LIG d   1       2.541   0.216  -9.691  0.00  0.00    -0.041 A 
ATOM     55  C   LIG d   1       2.521   1.265  -8.790  0.00  0.00    -0.055 A 
ATOM     56  C   LIG d   1       3.609   2.109  -8.688  0.00  0.00    -0.020 A 
ATOM     57  H   LIG d   1       1.655   1.421  -8.163  0.00  0.00     0.062 H 
ATOM     58  C   LIG d   1       4.718   1.912  -9.497  0.00  0.00     0.117 A 
ATOM     59  H   LIG d   1       3.595   2.925  -7.980  0.00  0.00     0.065 H 
ATOM     60  C   LIG d   1       4.733   0.862 -10.404  0.00  0.00    -0.020 A 
ATOM     61  C   LIG d   1       3.645   0.017 -10.500  0.00  0.00    -0.055 A 
ATOM     62  H   LIG d   1       5.596   0.705 -11.035  0.00  0.00     0.065 H 
ATOM     63  H   LIG d   1       3.656  -0.801 -11.205  0.00  0.00     0.062 H 
BRANCH  58  64
ATOM     64  O   LIG d   1       5.788   2.744  -9.401  0.00  0.00    -0.507 OA
ATOM     65  H   LIG d   1       5.578   3.613  -9.034  0.00  0.00     0.292 HD
ENDBRANCH  58  64
ENDBRANCH  51  54
ENDBRANCH  49  51
BRANCH  49  66
ATOM     66  N   LIG d   1       0.413  -1.306 -11.976  0.00  0.00     0.228 N 
ATOM     67  H   LIG d   1      -0.469  -1.557 -11.554  0.00  0.00     0.200 HD
ATOM     68  H   LIG d   1       0.410  -0.323 -12.200  0.00  0.00     0.200 HD
ATOM     69  H   LIG d   1       0.546  -1.843 -12.820  0.00  0.00     0.200 HD
ENDBRANCH  49  66
ENDBRANCH  46  49
ENDBRANCH  39  45
ENDBRANCH   1  39
TORSDOF 18
ENDMDL
MODEL 2
REMARK VINA RESULT:      -6.4      2.139      5.954
REMARK  18 active torsions:
REMARK  status: ('A' for Active; 'I' for Inactive)
REMARK    1  A    between atoms: C_1  and  C_2 
REMARK    2  A    between atoms: C_2  and  C_4 
REMARK    3  A    between atoms: C_2  and  N_24 
REMARK       I    between atoms: C_4  and  N_6 
REMARK    4  A    between atoms: N_6  and  C_7 
REMARK    5  A    between atoms: C_7  and  C_8 
REMARK       I    between atoms: C_8  and  N_10 
REMARK    6  A    between atoms: N_10  and  C_11 
REMARK    7  A    between atoms: C_11  and  C_13 
REMARK    8  A    between atoms: C_11  and  C_17 
REMARK    9  A    between atoms: C_13  and  C_14 
REMARK   10  A    between atoms: C_14  and  C_15 
REMARK   11  A    between atoms: C_14  and  C_16 
REMARK       I    between atoms: C_17  and  N_19 
REMARK   12  A    between atoms: N_19  and  C_20 
REMARK   13  A    between atoms: C_20  and  C_21 
REMARK       I    between atoms: C_21  and  N_23 
REMARK       I    between atoms: N_24  and  C_25 
REMARK   14  A    between atoms: C_25  and  C_27 
REMARK   15  A    between atoms: C_27  and  C_29 
REMARK   16  A    between atoms: C_27  and  N_37 
REMARK   17  A    between atoms: C_29  and  C_30 
REMARK   18  A    between atoms: C_33  and  O_36 
ROOT
ATOM      1  C   LIG d   1       8.461   1.623  -7.044  0.00  0.00     0.234 C 
ATOM      2  O   LIG d   1       9.630   1.533  -6.732  0.00  0.00    -0.274 OA
ATOM      3  N   LIG d   1       7.501   1.414  -6.121  0.00  0.00    -0.305 N 
ATOM      4  H   LIG d   1       6.566   1.486  -6.371  0.00  0.00     0.149 HD
ENDROOT
BRANCH   3   5
ATOM      5  C   LIG d   1       7.869   1.079  -4.744  0.00  0.00     0.088 C 
ATOM      6  H   LIG d   1       8.887   0.692  -4.724  0.00  0.00     0.056 H 
ATOM      7  H   LIG d   1       7.808   1.973  -4.124  0.00  0.00     0.056 H 
BRANCH   5   8
ATOM      8  C   LIG d   1       6.923   0.033  -4.212  0.00  0.00     0.231 C 
ATOM      9  O   LIG d   1       7.003  -0.326  -3.055  0.00  0.00    -0.274 OA
ATOM     10  N   LIG d   1       5.989  -0.504  -5.021  0.00  0.00    -0.303 N 
ATOM     11  H   LIG d   1       5.925  -0.217  -5.945  0.00  0.00     0.149 HD
BRANCH  10  12
ATOM     12  C   LIG d   1       5.070  -1.521  -4.505  0.00  0.00     0.100 C 
ATOM     13  H   LIG d   1       5.351  -1.780  -3.484  0.00  0.00     0.059 H 
BRANCH  12  14
ATOM     14  C   LIG d   1       3.642  -0.970  -4.515  0.00  0.00    -0.024 C 
ATOM     15  H   LIG d   1       3.638   0.020  -4.969  0.00  0.00     0.029 H 
ATOM     16  H   LIG d   1       3.000  -1.637  -5.090  0.00  0.00     0.029 H 
BRANCH  14  17
ATOM     17  C   LIG d   1       3.122  -0.875  -3.078  0.00  0.00    -0.045 C 
ATOM     18  H   LIG d   1       2.035  -0.955  -3.080  0.00  0.00     0.030 H 
BRANCH  17  19
ATOM     19  C   LIG d   1       3.716  -2.013  -2.246  0.00  0.00    -0.063 C 
ATOM     20  H   LIG d   1       2.933  -2.729  -1.996  0.00  0.00     0.023 H 
ATOM     21  H   LIG d   1       4.496  -2.515  -2.820  0.00  0.00     0.023 H 
ATOM     22  H   LIG d   1       4.144  -1.608  -1.329  0.00  0.00     0.023 H 
ENDBRANCH  17  19
BRANCH  17  23
ATOM     23  C   LIG d   1       3.535   0.469  -2.474  0.00  0.00    -0.063 C 
ATOM     24  H   LIG d   1       4.621   0.559  -2.498  0.00  0.00     0.023 H 
ATOM     25  H   LIG d   1       3.089   1.278  -3.050  0.00  0.00     0.023 H 
ATOM     26  H   LIG d   1       3.189   0.524  -1.442  0.00  0.00     0.023 H 
ENDBRANCH  17  23
ENDBRANCH  14  17
ENDBRANCH  12  14
BRANCH  12  27
ATOM     27  C   LIG d   1       5.140  -2.750  -5.373  0.00  0.00     0.234 C 
ATOM     28  O   LIG d   1       5.994  -3.587  -5.171  0.00  0.00    -0.274 OA
ATOM     29  N   LIG d   1       4.255  -2.918  -6.375  0.00  0.00    -0.305 N 
ATOM     30  H   LIG d   1       3.572  -2.249  -6.538  0.00  0.00     0.149 HD
BRANCH  29  31
ATOM     31  C   LIG d   1       4.324  -4.114  -7.221  0.00  0.00     0.088 C 
ATOM     32  H   LIG d   1       5.362  -4.428  -7.321  0.00  0.00     0.056 H 
ATOM     33  H   LIG d   1       3.743  -4.915  -6.763  0.00  0.00     0.056 H 
BRANCH  31  34
ATOM     34  C   LIG d   1       3.760  -3.800  -8.582  0.00  0.00     0.228 C 
ATOM     35  O   LIG d   1       4.256  -2.922  -9.256  0.00  0.00    -0.274 OA
ATOM     36  N   LIG d   1       2.705  -4.495  -9.052  0.00  0.00    -0.328 N 
ATOM     37  H   LIG d   1       2.309  -5.197  -8.513  0.00  0.00     0.145 HD
ATOM     38  H   LIG d   1       2.343  -4.293  -9.929  0.00  0.00     0.145 HD
ENDBRANCH  31  34
ENDBRANCH  29  31
ENDBRANCH  12  27
ENDBRANCH  10  12
ENDBRANCH   5   8
ENDBRANCH   3   5
BRANCH   1  39
ATOM     39  C   LIG d   1       8.083   1.967  -8.461  0.00  0.00     0.097 C 
ATOM     40  H   LIG d   1       8.373   1.151  -9.124  0.00  0.00     0.059 H 
BRANCH  39  41
ATOM     41  C   LIG d   1       8.804   3.249  -8.884  0.00  0.00    -0.038 C 
ATOM     42  H   LIG d   1       8.505   4.067  -8.228  0.00  0.00     0.025 H 
ATOM     43  H   LIG d   1       9.881   3.100  -8.813  0.00  0.00     0.025 H 
ATOM     44  H   LIG d   1       8.537   3.492  -9.913  0.00  0.00     0.025 H 
ENDBRANCH  39  41
BRANCH  39  45
ATOM     45  N   LIG d   1       6.635   2.171  -8.545  0.00  0.00    -0.300 N 
ATOM     46  C   LIG d   1       5.882   1.354  -9.308  0.00  0.00     0.262 C 
ATOM     47  O   LIG d   1       6.403   0.451  -9.926  0.00  0.00    -0.270 OA
ATOM     48  H   LIG d   1       6.218   2.895  -8.051  0.00  0.00     0.150 HD
BRANCH  46  49
ATOM     49  C   LIG d   1       4.392   1.565  -9.394  0.00  0.00     0.057 C 
ATOM     50  H   LIG d   1       3.886   0.870  -8.725  0.00  0.00     0.095 H 
BRANCH  49  51
ATOM     51  C   LIG d   1       3.925   1.319 -10.831  0.00  0.00     0.024 C 
ATOM     52  H   LIG d   1       3.406   2.204 -11.201  0.00  0.00     0.037 H 
ATOM     53  H   LIG d   1       4.789   1.114 -11.464  0.00  0.00     0.037 H 
BRANCH  51  54
ATOM     54  C   LIG d   1       2.990   0.138 -10.860  0.00  0.00    -0.041 A 
ATOM     55  C   LIG d   1       2.142  -0.096  -9.793  0.00  0.00    -0.055 A 
ATOM     56  C   LIG d   1       1.280  -1.175  -9.820  0.00  0.00    -0.020 A 
ATOM     57  H   LIG d   1       2.150   0.568  -8.941  0.00  0.00     0.062 H 
ATOM     58  C   LIG d   1       1.273  -2.030 -10.912  0.00  0.00     0.117 A 
ATOM     59  H   LIG d   1       0.614  -1.355  -8.989  0.00  0.00     0.065 H 
ATOM     60  C   LIG d   1       2.129  -1.796 -11.978  0.00  0.00    -0.020 A 
ATOM     61  C   LIG d   1       2.986  -0.713 -11.950  0.00  0.00    -0.055 A 
ATOM     62  H   LIG d   1       2.126  -2.460 -12.830  0.00  0.00     0.065 H 
ATOM     63  H   LIG d   1       3.653  -0.530 -12.780  0.00  0.00     0.062 H 
BRANCH  58  64
ATOM     64  O   LIG d   1       0.429  -3.095 -10.938  0.00  0.00    -0.507 OA
ATOM     65  H   LIG d   1       0.852  -3.937 -10.724  0.00  0.00     0.292 HD
ENDBRANCH  58  64
ENDBRANCH  51  54
ENDBRANCH  49  51
BRANCH  49  66
ATOM     66  N   LIG d   1       4.069   2.944  -9.005  0.00  0.00     0.228 N 
ATOM     67  H   LIG d   1       3.227   3.239  -9.475  0.00  0.00     0.200 HD
ATOM     68  H   LIG d   1       3.929   2.988  -8.007  0.00  0.00     0.200 HD
ATOM     69  H   LIG d   1       4.830   3.554  -9.265  0.00  0.00     0.200 HD
ENDBRANCH  49  66
ENDBRANCH  46  49
ENDBRANCH  39  45
ENDBRANCH   1  39
TORSDOF 18
ENDMDL
MODEL 3
REMARK VINA RESULT:      -6.3      3.468      8.087
REMARK  18 active torsions:
REMARK  status: ('A' for Active; 'I' for Inactive)
REMARK    1  A    between atoms: C_1  and  C_2 
REMARK    2  A    between atoms: C_2  and  C_4 
REMARK    3  A    between atoms: C_2  and  N_24 
REMARK       I    between atoms: C_4  and  N_6 
REMARK    4  A    between atoms: N_6  and  C_7 
REMARK    5  A    between atoms: C_7  and  C_8 
REMARK       I    between atoms: C_8  and  N_10 
REMARK    6  A    between atoms: N_10  and  C_11 
REMARK    7  A    between atoms: C_11  and  C_13 
REMARK    8  A    between atoms: C_11  and  C_17 
REMARK    9  A    between atoms: C_13  and  C_14 
REMARK   10  A    between atoms: C_14  and  C_15 
REMARK   11  A    between atoms: C_14  and  C_16 
REMARK       I    between atoms: C_17  and  N_19 
REMARK   12  A    between atoms: N_19  and  C_20 
REMARK   13  A    between atoms: C_20  and  C_21 
REMARK       I    between atoms: C_21  and  N_23 
REMARK       I    between atoms: N_24  and  C_25 
REMARK   14  A    between atoms: C_25  and  C_27 
REMARK   15  A    between atoms: C_27  and  C_29 
REMARK   16  A    between atoms: C_27  and  N_37 
REMARK   17  A    between atoms: C_29  and  C_30 
REMARK   18  A    between atoms: C_33  and  O_36 
ROOT
ATOM      1  C   LIG d   1      10.547  -2.038  -5.187  0.00  0.00     0.234 C 
ATOM      2  O   LIG d   1      10.406  -2.597  -6.254  0.00  0.00    -0.274 OA
ATOM      3  N   LIG d   1       9.843  -2.447  -4.113  0.00  0.00    -0.305 N 
ATOM      4  H   LIG d   1       9.957  -2.000  -3.260  0.00  0.00     0.149 HD
ENDROOT
BRANCH   3   5
ATOM      5  C   LIG d   1       8.906  -3.567  -4.236  0.00  0.00     0.088 C 
ATOM      6  H   LIG d   1       9.133  -4.132  -5.139  0.00  0.00     0.056 H 
ATOM      7  H   LIG d   1       9.001  -4.218  -3.367  0.00  0.00     0.056 H 
BRANCH   5   8
ATOM      8  C   LIG d   1       7.498  -3.037  -4.314  0.00  0.00     0.231 C 
ATOM      9  O   LIG d   1       6.634  -3.687  -4.866  0.00  0.00    -0.274 OA
ATOM     10  N   LIG d   1       7.197  -1.840  -3.772  0.00  0.00    -0.303 N 
ATOM     11  H   LIG d   1       7.887  -1.321  -3.331  0.00  0.00     0.149 HD
BRANCH  10  12
ATOM     12  C   LIG d   1       5.829  -1.324  -3.848  0.00  0.00     0.100 C 
ATOM     13  H   LIG d   1       5.125  -2.156  -3.828  0.00  0.00     0.059 H 
BRANCH  12  14
ATOM     14  C   LIG d   1       5.563  -0.404  -2.655  0.00  0.00    -0.024 C 
ATOM     15  H   LIG d   1       6.339  -0.549  -1.905  0.00  0.00     0.029 H 
ATOM     16  H   LIG d   1       5.569   0.634  -2.989  0.00  0.00     0.029 H 
BRANCH  14  17
ATOM     17  C   LIG d   1       4.198  -0.736  -2.048  0.00  0.00    -0.045 C 
ATOM     18  H   LIG d   1       4.242  -0.614  -0.966  0.00  0.00     0.030 H 
BRANCH  17  19
ATOM     19  C   LIG d   1       3.141   0.207  -2.626  0.00  0.00    -0.063 C 
ATOM     20  H   LIG d   1       3.566   0.760  -3.464  0.00  0.00     0.023 H 
ATOM     21  H   LIG d   1       2.285  -0.374  -2.971  0.00  0.00     0.023 H 
ATOM     22  H   LIG d   1       2.818   0.907  -1.855  0.00  0.00     0.023 H 
ENDBRANCH  17  19
BRANCH  17  23
ATOM     23  C   LIG d   1       3.829  -2.183  -2.384  0.00  0.00    -0.063 C 
ATOM     24  H   LIG d   1       3.659  -2.274  -3.457  0.00  0.00     0.023 H 
ATOM     25  H   LIG d   1       4.643  -2.843  -2.087  0.00  0.00     0.023 H 
ATOM     26  H   LIG d   1       2.923  -2.460  -1.847  0.00  0.00     0.023 H 
ENDBRANCH  17  23
ENDBRANCH  14  17
ENDBRANCH  12  14
BRANCH  12  27
ATOM     27  C   LIG d   1       5.654  -0.549  -5.128  0.00  0.00     0.234 C 
ATOM     28  O   LIG d   1       6.124   0.564  -5.232  0.00  0.00    -0.274 OA
ATOM     29  N   LIG d   1       4.975  -1.093  -6.158  0.00  0.00    -0.305 N 
ATOM     30  H   LIG d   1       4.599  -1.983  -6.075  0.00  0.00     0.149 HD
BRANCH  29  31
ATOM     31  C   LIG d   1       4.805  -0.339  -7.403  0.00  0.00     0.088 C 
ATOM     32  H   LIG d   1       5.497   0.503  -7.416  0.00  0.00     0.056 H 
ATOM     33  H   LIG d   1       5.009  -0.991  -8.252  0.00  0.00     0.056 H 
BRANCH  31  34
ATOM     34  C   LIG d   1       3.391   0.172  -7.491  0.00  0.00     0.228 C 
ATOM     35  O   LIG d   1       3.127   1.296  -7.117  0.00  0.00    -0.274 OA
ATOM     36  N   LIG d   1       2.418  -0.618  -7.988  0.00  0.00    -0.328 N 
ATOM     37  H   LIG d   1       2.628  -1.515  -8.288  0.00  0.00     0.145 HD
ATOM     38  H   LIG d   1       1.507  -0.288  -8.045  0.00  0.00     0.145 HD
ENDBRANCH  31  34
ENDBRANCH  29  31
ENDBRANCH  12  27
ENDBRANCH  10  12
ENDBRANCH   5   8
ENDBRANCH   3   5
BRANCH   1  39
ATOM     39  C   LIG d   1      11.511  -0.886  -5.061  0.00  0.00     0.097 C 
ATOM     40  H   LIG d   1      11.814  -0.556  -6.055  0.00  0.00     0.059 H 
BRANCH  39  41
ATOM     41  C   LIG d   1      12.744  -1.336  -4.275  0.00  0.00    -0.038 C 
ATOM     42  H   LIG d   1      12.455  -1.573  -3.251  0.00  0.00     0.025 H 
ATOM     43  H   LIG d   1      13.173  -2.220  -4.746  0.00  0.00     0.025 H 
ATOM     44  H   LIG d   1      13.482  -0.534  -4.268  0.00  0.00     0.025 H 
ENDBRANCH  39  41
BRANCH  39  45
ATOM     45  N   LIG d   1      10.861   0.221  -4.357  0.00  0.00    -0.300 N 
ATOM     46  C   LIG d   1      10.114   1.110  -5.042  0.00  0.00     0.262 C 
ATOM     47  O   LIG d   1       9.982   0.993  -6.241  0.00  0.00    -0.270 OA
ATOM     48  H   LIG d   1      10.967   0.315  -3.397  0.00  0.00     0.150 HD
BRANCH  46  49
ATOM     49  C   LIG d   1       9.445   2.250  -4.317  0.00  0.00     0.057 C 
ATOM     50  H   LIG d   1       9.188   3.033  -5.029  0.00  0.00     0.095 H 
BRANCH  49  51
ATOM     51  C   LIG d   1      10.401   2.813  -3.262  0.00  0.00     0.024 C 
ATOM     52  H   LIG d   1      10.230   2.309  -2.311  0.00  0.00     0.037 H 
ATOM     53  H   LIG d   1      11.431   2.648  -3.580  0.00  0.00     0.037 H 
BRANCH  51  54
ATOM     54  C   LIG d   1      10.156   4.292  -3.101  0.00  0.00    -0.041 A 
ATOM     55  C   LIG d   1      10.442   4.911  -1.898  0.00  0.00    -0.055 A 
ATOM     56  C   LIG d   1      10.224   6.266  -1.749  0.00  0.00    -0.020 A 
ATOM     57  H   LIG d   1      10.840   4.334  -1.076  0.00  0.00     0.062 H 
ATOM     58  C   LIG d   1       9.707   7.005  -2.804  0.00  0.00     0.117 A 
ATOM     59  H   LIG d   1      10.452   6.750  -0.811  0.00  0.00     0.065 H 
ATOM     60  C   LIG d   1       9.415   6.380  -4.007  0.00  0.00    -0.020 A 
ATOM     61  C   LIG d   1       9.640   5.024  -4.154  0.00  0.00    -0.055 A 
ATOM     62  H   LIG d   1       9.013   6.952  -4.830  0.00  0.00     0.065 H 
ATOM     63  H   LIG d   1       9.413   4.537  -5.091  0.00  0.00     0.062 H 
BRANCH  58  64
ATOM     64  O   LIG d   1       9.487   8.338  -2.658  0.00  0.00    -0.507 OA
ATOM     65  H   LIG d   1      10.144   8.786  -2.108  0.00  0.00     0.292 HD
ENDBRANCH  58  64
ENDBRANCH  51  54
ENDBRANCH  49  51
BRANCH  49  66
ATOM     66  N   LIG d   1       8.224   1.764  -3.661  0.00  0.00     0.228 N 
ATOM     67  H   LIG d   1       8.179   0.759  -3.737  0.00  0.00     0.200 HD
ATOM     68  H   LIG d   1       8.238   2.027  -2.688  0.00  0.00     0.200 HD
ATOM     69  H   LIG d   1       7.417   2.172  -4.109  0.00  0.00     0.200 HD
ENDBRANCH  49  66
ENDBRANCH  46  49
ENDBRANCH  39  45
ENDBRANCH   1  39
TORSDOF 18
ENDMDL
MODEL 4
REMARK VINA RESULT:      -6.2      2.856      6.357
REMARK  18 active torsions:
REMARK  status: ('A' for Active; 'I' for Inactive)
REMARK    1  A    between atoms: C_1  and  C_2 
REMARK    2  A    between atoms: C_2  and  C_4 
REMARK    3  A    between atoms: C_2  and  N_24 
REMARK       I    between atoms: C_4  and  N_6 
REMARK    4  A    between atoms: N_6  and  C_7 
REMARK    5  A    between atoms: C_7  and  C_8 
REMARK       I    between atoms: C_8  and  N_10 
REMARK    6  A    between atoms: N_10  and  C_11 
REMARK    7  A    between atoms: C_11  and  C_13 
REMARK    8  A    between atoms: C_11  and  C_17 
REMARK    9  A    between atoms: C_13  and  C_14 
REMARK   10  A    between atoms: C_14  and  C_15 
REMARK   11  A    between atoms: C_14  and  C_16 
REMARK       I    between atoms: C_17  and  N_19 
REMARK   12  A    between atoms: N_19  and  C_20 
REMARK   13  A    between atoms: C_20  and  C_21 
REMARK       I    between atoms: C_21  and  N_23 
REMARK       I    between atoms: N_24  and  C_25 
REMARK   14  A    between atoms: C_25  and  C_27 
REMARK   15  A    between atoms: C_27  and  C_29 
REMARK   16  A    between atoms: C_27  and  N_37 
REMARK   17  A    between atoms: C_29  and  C_30 
REMARK   18  A    between atoms: C_33  and  O_36 
ROOT
ATOM      1  C   LIG d   1       4.546  -5.592  -6.755  0.00  0.00     0.234 C 
ATOM      2  O   LIG d   1       3.481  -5.563  -6.175  0.00  0.00    -0.274 OA
ATOM      3  N   LIG d   1       4.813  -4.689  -7.719  0.00  0.00    -0.305 N 
ATOM      4  H   LIG d   1       5.665  -4.712  -8.182  0.00  0.00     0.149 HD
ENDROOT
BRANCH   3   5
ATOM      5  C   LIG d   1       3.817  -3.672  -8.066  0.00  0.00     0.088 C 
ATOM      6  H   LIG d   1       3.759  -3.576  -9.149  0.00  0.00     0.056 H 
ATOM      7  H   LIG d   1       2.844  -3.967  -7.674  0.00  0.00     0.056 H 
BRANCH   5   8
ATOM      8  C   LIG d   1       4.220  -2.350  -7.464  0.00  0.00     0.231 C 
ATOM      9  O   LIG d   1       5.320  -2.219  -6.967  0.00  0.00    -0.274 OA
ATOM     10  N   LIG d   1       3.359  -1.313  -7.478  0.00  0.00    -0.303 N 
ATOM     11  H   LIG d   1       2.481  -1.418  -7.876  0.00  0.00     0.149 HD
BRANCH  10  12
ATOM     12  C   LIG d   1       3.750  -0.028  -6.895  0.00  0.00     0.100 C 
ATOM     13  H   LIG d   1       4.836   0.015  -6.806  0.00  0.00     0.059 H 
BRANCH  12  14
ATOM     14  C   LIG d   1       3.267   1.110  -7.796  0.00  0.00    -0.024 C 
ATOM     15  H   LIG d   1       2.223   0.948  -8.058  0.00  0.00     0.029 H 
ATOM     16  H   LIG d   1       3.367   2.059  -7.268  0.00  0.00     0.029 H 
BRANCH  14  17
ATOM     17  C   LIG d   1       4.114   1.146  -9.071  0.00  0.00    -0.045 C 
ATOM     18  H   LIG d   1       4.000   0.204  -9.607  0.00  0.00     0.030 H 
BRANCH  17  19
ATOM     19  C   LIG d   1       3.646   2.299  -9.960  0.00  0.00    -0.063 C 
ATOM     20  H   LIG d   1       2.563   2.395  -9.892  0.00  0.00     0.023 H 
ATOM     21  H   LIG d   1       4.114   3.227  -9.628  0.00  0.00     0.023 H 
ATOM     22  H   LIG d   1       3.930   2.100 -10.994  0.00  0.00     0.023 H 
ENDBRANCH  17  19
BRANCH  17  23
ATOM     23  C   LIG d   1       5.585   1.349  -8.701  0.00  0.00    -0.063 C 
ATOM     24  H   LIG d   1       5.696   2.289  -8.161  0.00  0.00     0.023 H 
ATOM     25  H   LIG d   1       5.918   0.525  -8.071  0.00  0.00     0.023 H 
ATOM     26  H   LIG d   1       6.186   1.378  -9.610  0.00  0.00     0.023 H 
ENDBRANCH  17  23
ENDBRANCH  14  17
ENDBRANCH  12  14
BRANCH  12  27
ATOM     27  C   LIG d   1       3.129   0.114  -5.530  0.00  0.00     0.234 C 
ATOM     28  O   LIG d   1       2.463   1.093  -5.266  0.00  0.00    -0.274 OA
ATOM     29  N   LIG d   1       3.313  -0.846  -4.602  0.00  0.00    -0.305 N 
ATOM     30  H   LIG d   1       3.845  -1.629  -4.813  0.00  0.00     0.149 HD
BRANCH  29  31
ATOM     31  C   LIG d   1       2.709  -0.707  -3.274  0.00  0.00     0.088 C 
ATOM     32  H   LIG d   1       1.808  -0.098  -3.346  0.00  0.00     0.056 H 
ATOM     33  H   LIG d   1       2.451  -1.694  -2.888  0.00  0.00     0.056 H 
BRANCH  31  34
ATOM     34  C   LIG d   1       3.689  -0.045  -2.342  0.00  0.00     0.228 C 
ATOM     35  O   LIG d   1       4.346  -0.717  -1.575  0.00  0.00    -0.274 OA
ATOM     36  N   LIG d   1       3.839   1.294  -2.362  0.00  0.00    -0.328 N 
ATOM     37  H   LIG d   1       3.315   1.832  -2.975  0.00  0.00     0.145 HD
ATOM     38  H   LIG d   1       4.472   1.721  -1.762  0.00  0.00     0.145 HD
ENDBRANCH  31  34
ENDBRANCH  29  31
ENDBRANCH  12  27
ENDBRANCH  10  12
ENDBRANCH   5   8
ENDBRANCH   3   5
BRANCH   1  39
ATOM     39  C   LIG d   1       5.570  -6.638  -6.397  0.00  0.00     0.097 C 
ATOM     40  H   LIG d   1       6.152  -6.895  -7.282  0.00  0.00     0.059 H 
BRANCH  39  41
ATOM     41  C   LIG d   1       4.861  -7.889  -5.872  0.00  0.00    -0.038 C 
ATOM     42  H   LIG d   1       5.424  -8.775  -6.165  0.00  0.00     0.025 H 
ATOM     43  H   LIG d   1       4.796  -7.841  -4.785  0.00  0.00     0.025 H 
ATOM     44  H   LIG d   1       3.857  -7.940  -6.294  0.00  0.00     0.025 H 
ENDBRANCH  39  41
BRANCH  39  45
ATOM     45  N   LIG d   1       6.463  -6.114  -5.362  0.00  0.00    -0.300 N 
ATOM     46  C   LIG d   1       7.621  -5.517  -5.709  0.00  0.00     0.262 C 
ATOM     47  O   LIG d   1       7.923  -5.416  -6.879  0.00  0.00    -0.270 OA
ATOM     48  H   LIG d   1       6.222  -6.195  -4.426  0.00  0.00     0.150 HD
BRANCH  46  49
ATOM     49  C   LIG d   1       8.541  -4.978  -4.644  0.00  0.00     0.057 C 
ATOM     50  H   LIG d   1       7.956  -4.685  -3.772  0.00  0.00     0.095 H 
BRANCH  49  51
ATOM     51  C   LIG d   1       9.290  -3.759  -5.187  0.00  0.00     0.024 C 
ATOM     52  H   LIG d   1      10.252  -3.668  -4.681  0.00  0.00     0.037 H 
ATOM     53  H   LIG d   1       9.454  -3.881  -6.258  0.00  0.00     0.037 H 
BRANCH  51  54
ATOM     54  C   LIG d   1       8.473  -2.516  -4.942  0.00  0.00    -0.041 A 
ATOM     55  C   LIG d   1       8.594  -1.433  -5.794  0.00  0.00    -0.055 A 
ATOM     56  C   LIG d   1       7.842  -0.296  -5.575  0.00  0.00    -0.020 A 
ATOM     57  H   LIG d   1       9.273  -1.479  -6.633  0.00  0.00     0.062 H 
ATOM     58  C   LIG d   1       6.974  -0.235  -4.494  0.00  0.00     0.117 A 
ATOM     59  H   LIG d   1       7.932   0.548  -6.243  0.00  0.00     0.065 H 
ATOM     60  C   LIG d   1       6.860  -1.321  -3.639  0.00  0.00    -0.020 A 
ATOM     61  C   LIG d   1       7.610  -2.459  -3.864  0.00  0.00    -0.055 A 
ATOM     62  H   LIG d   1       6.185  -1.277  -2.797  0.00  0.00     0.065 H 
ATOM     63  H   LIG d   1       7.521  -3.305  -3.198  0.00  0.00     0.062 H 
BRANCH  58  64
ATOM     64  O   LIG d   1       6.237   0.885  -4.275  0.00  0.00    -0.507 OA
ATOM     65  H   LIG d   1       5.357   0.711  -3.915  0.00  0.00     0.292 HD
ENDBRANCH  58  64
ENDBRANCH  51  54
ENDBRANCH  49  51
BRANCH  49  66
ATOM     66  N   LIG d   1       9.507  -6.015  -4.260  0.00  0.00     0.228 N 
ATOM     67  H   LIG d   1       9.157  -6.920  -4.537  0.00  0.00     0.200 HD
ATOM     68  H   LIG d   1      10.388  -5.841  -4.720  0.00  0.00     0.200 HD
ATOM     69  H   LIG d   1       9.640  -5.997  -3.260  0.00  0.00     0.200 HD
ENDBRANCH  49  66
ENDBRANCH  46  49
ENDBRANCH  39  45
ENDBRANCH   1  39
TORSDOF 18
ENDMDL
MODEL 5
REMARK VINA RESULT:      -6.1      3.699      7.945
REMARK  18 active torsions:
REMARK  status: ('A' for Active; 'I' for Inactive)
REMARK    1  A    between atoms: C_1  and  C_2 
REMARK    2  A    between atoms: C_2  and  C_4 
REMARK    3  A    between atoms: C_2  and  N_24 
REMARK       I    between atoms: C_4  and  N_6 
REMARK    4  A    between atoms: N_6  and  C_7 
REMARK    5  A    between atoms: C_7  and  C_8 
REMARK       I    between atoms: C_8  and  N_10 
REMARK    6  A    between atoms: N_10  and  C_11 
REMARK    7  A    between atoms: C_11  and  C_13 
REMARK    8  A    between atoms: C_11  and  C_17 
REMARK    9  A    between atoms: C_13  and  C_14 
REMARK   10  A    between atoms: C_14  and  C_15 
REMARK   11  A    between atoms: C_14  and  C_16 
REMARK       I    between atoms: C_17  and  N_19 
REMARK   12  A    between atoms: N_19  and  C_20 
REMARK   13  A    between atoms: C_20  and  C_21 
REMARK       I    between atoms: C_21  and  N_23 
REMARK       I    between atoms: N_24  and  C_25 
REMARK   14  A    between atoms: C_25  and  C_27 
REMARK   15  A    between atoms: C_27  and  C_29 
REMARK   16  A    between atoms: C_27  and  N_37 
REMARK   17  A    between atoms: C_29  and  C_30 
REMARK   18  A    between atoms: C_33  and  O_36 
ROOT
ATOM      1  C   LIG d   1       8.290   0.169  -5.575  0.00  0.00     0.234 C 
ATOM      2  O   LIG d   1       8.621   0.160  -6.742  0.00  0.00    -0.274 OA
ATOM      3  N   LIG d   1       7.442  -0.769  -5.108  0.00  0.00    -0.305 N 
ATOM      4  H   LIG d   1       7.178  -0.761  -4.175  0.00  0.00     0.149 HD
ENDROOT
BRANCH   3   5
ATOM      5  C   LIG d   1       6.922  -1.800  -6.010  0.00  0.00     0.088 C 
ATOM      6  H   LIG d   1       7.338  -1.654  -7.006  0.00  0.00     0.056 H 
ATOM      7  H   LIG d   1       7.205  -2.784  -5.639  0.00  0.00     0.056 H 
BRANCH   5   8
ATOM      8  C   LIG d   1       5.420  -1.699  -6.073  0.00  0.00     0.231 C 
ATOM      9  O   LIG d   1       4.756  -2.679  -6.342  0.00  0.00    -0.274 OA
ATOM     10  N   LIG d   1       4.813  -0.520  -5.830  0.00  0.00    -0.303 N 
ATOM     11  H   LIG d   1       5.343   0.262  -5.614  0.00  0.00     0.149 HD
BRANCH  10  12
ATOM     12  C   LIG d   1       3.353  -0.421  -5.890  0.00  0.00     0.100 C 
ATOM     13  H   LIG d   1       2.918  -1.418  -5.818  0.00  0.00     0.059 H 
BRANCH  12  14
ATOM     14  C   LIG d   1       2.851   0.439  -4.729  0.00  0.00    -0.024 C 
ATOM     15  H   LIG d   1       2.993   1.492  -4.968  0.00  0.00     0.029 H 
ATOM     16  H   LIG d   1       1.791   0.243  -4.564  0.00  0.00     0.029 H 
BRANCH  14  17
ATOM     17  C   LIG d   1       3.636   0.093  -3.461  0.00  0.00    -0.045 C 
ATOM     18  H   LIG d   1       4.668  -0.136  -3.725  0.00  0.00     0.030 H 
BRANCH  17  19
ATOM     19  C   LIG d   1       3.606   1.284  -2.502  0.00  0.00    -0.063 C 
ATOM     20  H   LIG d   1       4.566   1.800  -2.532  0.00  0.00     0.023 H 
ATOM     21  H   LIG d   1       2.815   1.973  -2.803  0.00  0.00     0.023 H 
ATOM     22  H   LIG d   1       3.413   0.931  -1.489  0.00  0.00     0.023 H 
ENDBRANCH  17  19
BRANCH  17  23
ATOM     23  C   LIG d   1       3.001  -1.124  -2.784  0.00  0.00    -0.063 C 
ATOM     24  H   LIG d   1       3.545  -2.024  -3.072  0.00  0.00     0.023 H 
ATOM     25  H   LIG d   1       3.046  -1.002  -1.702  0.00  0.00     0.023 H 
ATOM     26  H   LIG d   1       1.961  -1.211  -3.097  0.00  0.00     0.023 H 
ENDBRANCH  17  23
ENDBRANCH  14  17
ENDBRANCH  12  14
BRANCH  12  27
ATOM     27  C   LIG d   1       2.945   0.210  -7.196  0.00  0.00     0.234 C 
ATOM     28  O   LIG d   1       2.341  -0.440  -8.021  0.00  0.00    -0.274 OA
ATOM     29  N   LIG d   1       3.253   1.498  -7.446  0.00  0.00    -0.305 N 
ATOM     30  H   LIG d   1       3.737   2.019  -6.786  0.00  0.00     0.149 HD
BRANCH  29  31
ATOM     31  C   LIG d   1       2.858   2.113  -8.717  0.00  0.00     0.088 C 
ATOM     32  H   LIG d   1       2.029   1.552  -9.149  0.00  0.00     0.056 H 
ATOM     33  H   LIG d   1       2.546   3.142  -8.540  0.00  0.00     0.056 H 
BRANCH  31  34
ATOM     34  C   LIG d   1       4.025   2.098  -9.668  0.00  0.00     0.228 C 
ATOM     35  O   LIG d   1       5.049   2.682  -9.381  0.00  0.00    -0.274 OA
ATOM     36  N   LIG d   1       3.935   1.433 -10.837  0.00  0.00    -0.328 N 
ATOM     37  H   LIG d   1       3.117   0.966 -11.066  0.00  0.00     0.145 HD
ATOM     38  H   LIG d   1       4.687   1.423 -11.449  0.00  0.00     0.145 HD
ENDBRANCH  31  34
ENDBRANCH  29  31
ENDBRANCH  12  27
ENDBRANCH  10  12
ENDBRANCH   5   8
ENDBRANCH   3   5
BRANCH   1  39
ATOM     39  C   LIG d   1       8.826   1.230  -4.648  0.00  0.00     0.097 C 
ATOM     40  H   LIG d   1       9.634   0.812  -4.047  0.00  0.00     0.059 H 
BRANCH  39  41
ATOM     41  C   LIG d   1       7.705   1.717  -3.728  0.00  0.00    -0.038 C 
ATOM     42  H   LIG d   1       8.090   1.827  -2.714  0.00  0.00     0.025 H 
ATOM     43  H   LIG d   1       7.335   2.679  -4.083  0.00  0.00     0.025 H 
ATOM     44  H   LIG d   1       6.892   0.991  -3.731  0.00  0.00     0.025 H 
ENDBRANCH  39  41
BRANCH  39  45
ATOM     45  N   LIG d   1       9.335   2.355  -5.435  0.00  0.00    -0.300 N 
ATOM     46  C   LIG d   1      10.488   2.958  -5.083  0.00  0.00     0.262 C 
ATOM     47  O   LIG d   1      11.103   2.570  -4.114  0.00  0.00    -0.270 OA
ATOM     48  H   LIG d   1       8.842   2.667  -6.211  0.00  0.00     0.150 HD
BRANCH  46  49
ATOM     49  C   LIG d   1      11.010   4.117  -5.893  0.00  0.00     0.057 C 
ATOM     50  H   LIG d   1      10.755   5.053  -5.397  0.00  0.00     0.095 H 
BRANCH  49  51
ATOM     51  C   LIG d   1      10.379   4.090  -7.287  0.00  0.00     0.024 C 
ATOM     52  H   LIG d   1      11.124   3.774  -8.018  0.00  0.00     0.037 H 
ATOM     53  H   LIG d   1       9.544   3.389  -7.294  0.00  0.00     0.037 H 
BRANCH  51  54
ATOM     54  C   LIG d   1       9.880   5.468  -7.639  0.00  0.00    -0.041 A 
ATOM     55  C   LIG d   1       9.888   6.469  -6.685  0.00  0.00    -0.055 A 
ATOM     56  C   LIG d   1       9.437   7.734  -7.006  0.00  0.00    -0.020 A 
ATOM     57  H   LIG d   1      10.251   6.262  -5.689  0.00  0.00     0.062 H 
ATOM     58  C   LIG d   1       8.965   7.998  -8.284  0.00  0.00     0.117 A 
ATOM     59  H   LIG d   1       9.448   8.517  -6.262  0.00  0.00     0.065 H 
ATOM     60  C   LIG d   1       8.953   6.990  -9.237  0.00  0.00    -0.020 A 
ATOM     61  C   LIG d   1       9.410   5.727  -8.913  0.00  0.00    -0.055 A 
ATOM     62  H   LIG d   1       8.587   7.192 -10.233  0.00  0.00     0.065 H 
ATOM     63  H   LIG d   1       9.401   4.942  -9.655  0.00  0.00     0.062 H 
BRANCH  58  64
ATOM     64  O   LIG d   1       8.516   9.241  -8.601  0.00  0.00    -0.507 OA
ATOM     65  H   LIG d   1       7.553   9.322  -8.601  0.00  0.00     0.292 HD
ENDBRANCH  58  64
ENDBRANCH  51  54
ENDBRANCH  49  51
BRANCH  49  66
ATOM     66  N   LIG d   1      12.470   4.010  -6.015  0.00  0.00     0.228 N 
ATOM     67  H   LIG d   1      12.910   4.562  -5.294  0.00  0.00     0.200 HD
ATOM     68  H   LIG d   1      12.746   3.045  -5.916  0.00  0.00     0.200 HD
ATOM     69  H   LIG d   1      12.757   4.350  -6.921  0.00  0.00     0.200 HD
ENDBRANCH  49  66
ENDBRANCH  46  49
ENDBRANCH  39  45
ENDBRANCH   1  39
TORSDOF 18
ENDMDL
MODEL 6
REMARK VINA RESULT:      -6.1      4.912     10.659
REMARK  18 active torsions:
REMARK  status: ('A' for Active; 'I' for Inactive)
REMARK    1  A    between atoms: C_1  and  C_2 
REMARK    2  A    between atoms: C_2  and  C_4 
REMARK    3  A    between atoms: C_2  and  N_24 
REMARK       I    between atoms: C_4  and  N_6 
REMARK    4  A    between atoms: N_6  and  C_7 
REMARK    5  A    between atoms: C_7  and  C_8 
REMARK       I    between atoms: C_8  and  N_10 
REMARK    6  A    between atoms: N_10  and  C_11 
REMARK    7  A    between atoms: C_11  and  C_13 
REMARK    8  A    between atoms: C_11  and  C_17 
REMARK    9  A    between atoms: C_13  and  C_14 
REMARK   10  A    between atoms: C_14  and  C_15 
REMARK   11  A    between atoms: C_14  and  C_16 
REMARK       I    between atoms: C_17  and  N_19 
REMARK   12  A    between atoms: N_19  and  C_20 
REMARK   13  A    between atoms: C_20  and  C_21 
REMARK       I    between atoms: C_21  and  N_23 
REMARK       I    between atoms: N_24  and  C_25 
REMARK   14  A    between atoms: C_25  and  C_27 
REMARK   15  A    between atoms: C_27  and  C_29 
REMARK   16  A    between atoms: C_27  and  N_37 
REMARK   17  A    between atoms: C_29  and  C_30 
REMARK   18  A    between atoms: C_33  and  O_36 
ROOT
ATOM      1  C   LIG d   1       9.592   3.112  -4.980  0.00  0.00     0.234 C 
ATOM      2  O   LIG d   1       9.486   3.604  -6.084  0.00  0.00    -0.274 OA
ATOM      3  N   LIG d   1       8.883   2.010  -4.662  0.00  0.00    -0.305 N 
ATOM      4  H   LIG d   1       8.969   1.617  -3.780  0.00  0.00     0.149 HD
ENDROOT
BRANCH   3   5
ATOM      5  C   LIG d   1       7.983   1.409  -5.649  0.00  0.00     0.088 C 
ATOM      6  H   LIG d   1       7.280   2.160  -6.005  0.00  0.00     0.056 H 
ATOM      7  H   LIG d   1       8.566   1.029  -6.488  0.00  0.00     0.056 H 
BRANCH   5   8
ATOM      8  C   LIG d   1       7.225   0.273  -5.010  0.00  0.00     0.231 C 
ATOM      9  O   LIG d   1       7.825  -0.607  -4.429  0.00  0.00    -0.274 OA
ATOM     10  N   LIG d   1       5.880   0.236  -5.085  0.00  0.00    -0.303 N 
ATOM     11  H   LIG d   1       5.401   0.939  -5.549  0.00  0.00     0.149 HD
BRANCH  10  12
ATOM     12  C   LIG d   1       5.142  -0.867  -4.464  0.00  0.00     0.100 C 
ATOM     13  H   LIG d   1       5.656  -1.182  -3.556  0.00  0.00     0.059 H 
BRANCH  12  14
ATOM     14  C   LIG d   1       3.728  -0.401  -4.113  0.00  0.00    -0.024 C 
ATOM     15  H   LIG d   1       3.558   0.590  -4.530  0.00  0.00     0.029 H 
ATOM     16  H   LIG d   1       3.002  -1.101  -4.528  0.00  0.00     0.029 H 
BRANCH  14  17
ATOM     17  C   LIG d   1       3.572  -0.347  -2.591  0.00  0.00    -0.045 C 
ATOM     18  H   LIG d   1       2.523  -0.489  -2.329  0.00  0.00     0.030 H 
BRANCH  17  19
ATOM     19  C   LIG d   1       4.412  -1.456  -1.954  0.00  0.00    -0.063 C 
ATOM     20  H   LIG d   1       4.377  -1.361  -0.869  0.00  0.00     0.023 H 
ATOM     21  H   LIG d   1       4.014  -2.428  -2.247  0.00  0.00     0.023 H 
ATOM     22  H   LIG d   1       5.445  -1.369  -2.292  0.00  0.00     0.023 H 
ENDBRANCH  17  19
BRANCH  17  23
ATOM     23  C   LIG d   1       4.047   1.013  -2.077  0.00  0.00    -0.063 C 
ATOM     24  H   LIG d   1       3.206   1.707  -2.056  0.00  0.00     0.023 H 
ATOM     25  H   LIG d   1       4.451   0.901  -1.072  0.00  0.00     0.023 H 
ATOM     26  H   LIG d   1       4.822   1.400  -2.738  0.00  0.00     0.023 H 
ENDBRANCH  17  23
ENDBRANCH  14  17
ENDBRANCH  12  14
BRANCH  12  27
ATOM     27  C   LIG d   1       5.065  -2.025  -5.425  0.00  0.00     0.234 C 
ATOM     28  O   LIG d   1       4.427  -1.919  -6.451  0.00  0.00    -0.274 OA
ATOM     29  N   LIG d   1       5.705  -3.177  -5.144  0.00  0.00    -0.305 N 
ATOM     30  H   LIG d   1       6.216  -3.262  -4.324  0.00  0.00     0.149 HD
BRANCH  29  31
ATOM     31  C   LIG d   1       5.630  -4.303  -6.079  0.00  0.00     0.088 C 
ATOM     32  H   LIG d   1       5.726  -3.935  -7.101  0.00  0.00     0.056 H 
ATOM     33  H   LIG d   1       6.437  -5.005  -5.868  0.00  0.00     0.056 H 
BRANCH  31  34
ATOM     34  C   LIG d   1       4.305  -5.001  -5.920  0.00  0.00     0.228 C 
ATOM     35  O   LIG d   1       4.114  -5.734  -4.972  0.00  0.00    -0.274 OA
ATOM     36  N   LIG d   1       3.328  -4.811  -6.830  0.00  0.00    -0.328 N 
ATOM     37  H   LIG d   1       3.480  -4.225  -7.588  0.00  0.00     0.145 HD
ATOM     38  H   LIG d   1       2.475  -5.260  -6.727  0.00  0.00     0.145 HD
ENDBRANCH  31  34
ENDBRANCH  29  31
ENDBRANCH  12  27
ENDBRANCH  10  12
ENDBRANCH   5   8
ENDBRANCH   3   5
BRANCH   1  39
ATOM     39  C   LIG d   1      10.518   3.731  -3.965  0.00  0.00     0.097 C 
ATOM     40  H   LIG d   1      11.503   3.872  -4.410  0.00  0.00     0.059 H 
BRANCH  39  41
ATOM     41  C   LIG d   1      10.633   2.809  -2.749  0.00  0.00    -0.038 C 
ATOM     42  H   LIG d   1      11.404   3.188  -2.078  0.00  0.00     0.025 H 
ATOM     43  H   LIG d   1       9.678   2.777  -2.225  0.00  0.00     0.025 H 
ATOM     44  H   LIG d   1      10.901   1.806  -3.080  0.00  0.00     0.025 H 
ENDBRANCH  39  41
BRANCH  39  45
ATOM     45  N   LIG d   1       9.984   5.029  -3.544  0.00  0.00    -0.300 N 
ATOM     46  C   LIG d   1      10.756   6.131  -3.615  0.00  0.00     0.262 C 
ATOM     47  O   LIG d   1      11.894   6.048  -4.026  0.00  0.00    -0.270 OA
ATOM     48  H   LIG d   1       9.074   5.095  -3.215  0.00  0.00     0.150 HD
BRANCH  46  49
ATOM     49  C   LIG d   1      10.207   7.466  -3.181  0.00  0.00     0.057 C 
ATOM     50  H   LIG d   1      11.030   8.139  -2.945  0.00  0.00     0.095 H 
BRANCH  49  51
ATOM     51  C   LIG d   1       9.331   7.277  -1.940  0.00  0.00     0.024 C 
ATOM     52  H   LIG d   1       8.430   7.884  -2.036  0.00  0.00     0.037 H 
ATOM     53  H   LIG d   1       9.052   6.227  -1.849  0.00  0.00     0.037 H 
BRANCH  51  54
ATOM     54  C   LIG d   1      10.098   7.702  -0.715  0.00  0.00    -0.041 A 
ATOM     55  C   LIG d   1      10.661   6.746   0.112  0.00  0.00    -0.055 A 
ATOM     56  C   LIG d   1      11.369   7.133   1.232  0.00  0.00    -0.020 A 
ATOM     57  H   LIG d   1      10.550   5.697  -0.123  0.00  0.00     0.062 H 
ATOM     58  C   LIG d   1      11.506   8.480   1.536  0.00  0.00     0.117 A 
ATOM     59  H   LIG d   1      11.813   6.387   1.875  0.00  0.00     0.065 H 
ATOM     60  C   LIG d   1      10.935   9.435   0.708  0.00  0.00    -0.020 A 
ATOM     61  C   LIG d   1      10.232   9.045  -0.415  0.00  0.00    -0.055 A 
ATOM     62  H   LIG d   1      11.040  10.484   0.941  0.00  0.00     0.065 H 
ATOM     63  H   LIG d   1       9.787   9.788  -1.060  0.00  0.00     0.062 H 
BRANCH  58  64
ATOM     64  O   LIG d   1      12.199   8.862   2.641  0.00  0.00    -0.507 OA
ATOM     65  H   LIG d   1      12.293   8.166   3.305  0.00  0.00     0.292 HD
ENDBRANCH  58  64
ENDBRANCH  51  54
ENDBRANCH  49  51
BRANCH  49  66
ATOM     66  N   LIG d   1       9.400   8.039  -4.267  0.00  0.00     0.228 N 
ATOM     67  H   LIG d   1       8.568   7.484  -4.397  0.00  0.00     0.200 HD
ATOM     68  H   LIG d   1       9.140   8.984  -4.029  0.00  0.00     0.200 HD
ATOM     69  H   LIG d   1       9.939   8.043  -5.120  0.00  0.00     0.200 HD
ENDBRANCH  49  66
ENDBRANCH  46  49
ENDBRANCH  39  45
ENDBRANCH   1  39
TORSDOF 18
ENDMDL
MODEL 7
REMARK VINA RESULT:      -6.1      2.052      3.081
REMARK  18 active torsions:
REMARK  status: ('A' for Active; 'I' for Inactive)
REMARK    1  A    between atoms: C_1  and  C_2 
REMARK    2  A    between atoms: C_2  and  C_4 
REMARK    3  A    between atoms: C_2  and  N_24 
REMARK       I    between atoms: C_4  and  N_6 
REMARK    4  A    between atoms: N_6  and  C_7 
REMARK    5  A    between atoms: C_7  and  C_8 
REMARK       I    between atoms: C_8  and  N_10 
REMARK    6  A    between atoms: N_10  and  C_11 
REMARK    7  A    between atoms: C_11  and  C_13 
REMARK    8  A    between atoms: C_11  and  C_17 
REMARK    9  A    between atoms: C_13  and  C_14 
REMARK   10  A    between atoms: C_14  and  C_15 
REMARK   11  A    between atoms: C_14  and  C_16 
REMARK       I    between atoms: C_17  and  N_19 
REMARK   12  A    between atoms: N_19  and  C_20 
REMARK   13  A    between atoms: C_20  and  C_21 
REMARK       I    between atoms: C_21  and  N_23 
REMARK       I    between atoms: N_24  and  C_25 
REMARK   14  A    between atoms: C_25  and  C_27 
REMARK   15  A    between atoms: C_27  and  C_29 
REMARK   16  A    between atoms: C_27  and  N_37 
REMARK   17  A    between atoms: C_29  and  C_30 
REMARK   18  A    between atoms: C_33  and  O_36 
ROOT
ATOM      1  C   LIG d   1       2.681  -5.533  -9.728  0.00  0.00     0.234 C 
ATOM      2  O   LIG d   1       1.988  -6.425  -9.286  0.00  0.00    -0.274 OA
ATOM      3  N   LIG d   1       3.584  -4.925  -8.933  0.00  0.00    -0.305 N 
ATOM      4  H   LIG d   1       4.138  -4.212  -9.286  0.00  0.00     0.149 HD
ENDROOT
BRANCH   3   5
ATOM      5  C   LIG d   1       3.728  -5.342  -7.536  0.00  0.00     0.088 C 
ATOM      6  H   LIG d   1       2.745  -5.393  -7.069  0.00  0.00     0.056 H 
ATOM      7  H   LIG d   1       4.201  -6.322  -7.496  0.00  0.00     0.056 H 
BRANCH   5   8
ATOM      8  C   LIG d   1       4.583  -4.342  -6.800  0.00  0.00     0.231 C 
ATOM      9  O   LIG d   1       5.656  -4.679  -6.344  0.00  0.00    -0.274 OA
ATOM     10  N   LIG d   1       4.155  -3.073  -6.647  0.00  0.00    -0.303 N 
ATOM     11  H   LIG d   1       3.298  -2.804  -7.012  0.00  0.00     0.149 HD
BRANCH  10  12
ATOM     12  C   LIG d   1       4.984  -2.101  -5.932  0.00  0.00     0.100 C 
ATOM     13  H   LIG d   1       5.972  -2.527  -5.755  0.00  0.00     0.059 H 
BRANCH  12  14
ATOM     14  C   LIG d   1       5.122  -0.830  -6.774  0.00  0.00    -0.024 C 
ATOM     15  H   LIG d   1       4.329  -0.801  -7.520  0.00  0.00     0.029 H 
ATOM     16  H   LIG d   1       5.046   0.044  -6.127  0.00  0.00     0.029 H 
BRANCH  14  17
ATOM     17  C   LIG d   1       6.483  -0.828  -7.474  0.00  0.00    -0.045 C 
ATOM     18  H   LIG d   1       6.826   0.199  -7.597  0.00  0.00     0.030 H 
BRANCH  17  19
ATOM     19  C   LIG d   1       7.493  -1.606  -6.628  0.00  0.00    -0.063 C 
ATOM     20  H   LIG d   1       7.749  -1.024  -5.743  0.00  0.00     0.023 H 
ATOM     21  H   LIG d   1       7.055  -2.557  -6.323  0.00  0.00     0.023 H 
ATOM     22  H   LIG d   1       8.392  -1.792  -7.214  0.00  0.00     0.023 H 
ENDBRANCH  17  19
BRANCH  17  23
ATOM     23  C   LIG d   1       6.351  -1.490  -8.848  0.00  0.00    -0.063 C 
ATOM     24  H   LIG d   1       6.146  -0.727  -9.599  0.00  0.00     0.023 H 
ATOM     25  H   LIG d   1       7.279  -2.003  -9.094  0.00  0.00     0.023 H 
ATOM     26  H   LIG d   1       5.533  -2.209  -8.827  0.00  0.00     0.023 H 
ENDBRANCH  17  23
ENDBRANCH  14  17
ENDBRANCH  12  14
BRANCH  12  27
ATOM     27  C   LIG d   1       4.339  -1.762  -4.614  0.00  0.00     0.234 C 
ATOM     28  O   LIG d   1       4.573  -2.436  -3.633  0.00  0.00    -0.274 OA
ATOM     29  N   LIG d   1       3.501  -0.711  -4.524  0.00  0.00    -0.305 N 
ATOM     30  H   LIG d   1       3.313  -0.171  -5.308  0.00  0.00     0.149 HD
BRANCH  29  31
ATOM     31  C   LIG d   1       2.873  -0.382  -3.241  0.00  0.00     0.088 C 
ATOM     32  H   LIG d   1       1.817  -0.164  -3.399  0.00  0.00     0.056 H 
ATOM     33  H   LIG d   1       2.972  -1.228  -2.561  0.00  0.00     0.056 H 
BRANCH  31  34
ATOM     34  C   LIG d   1       3.550   0.824  -2.644  0.00  0.00     0.228 C 
ATOM     35  O   LIG d   1       4.067   0.750  -1.549  0.00  0.00    -0.274 OA
ATOM     36  N   LIG d   1       3.583   1.986  -3.327  0.00  0.00    -0.328 N 
ATOM     37  H   LIG d   1       3.170   2.046  -4.202  0.00  0.00     0.145 HD
ATOM     38  H   LIG d   1       4.020   2.762  -2.943  0.00  0.00     0.145 HD
ENDBRANCH  31  34
ENDBRANCH  29  31
ENDBRANCH  12  27
ENDBRANCH  10  12
ENDBRANCH   5   8
ENDBRANCH   3   5
BRANCH   1  39
ATOM     39  C   LIG d   1       2.532  -5.104 -11.165  0.00  0.00     0.097 C 
ATOM     40  H   LIG d   1       1.602  -5.505 -11.569  0.00  0.00     0.059 H 
BRANCH  39  41
ATOM     41  C   LIG d   1       3.713  -5.635 -11.980  0.00  0.00    -0.038 C 
ATOM     42  H   LIG d   1       3.466  -6.620 -12.378  0.00  0.00     0.025 H 
ATOM     43  H   LIG d   1       3.923  -4.952 -12.803  0.00  0.00     0.025 H 
ATOM     44  H   LIG d   1       4.591  -5.713 -11.339  0.00  0.00     0.025 H 
ENDBRANCH  39  41
BRANCH  39  45
ATOM     45  N   LIG d   1       2.506  -3.642 -11.239  0.00  0.00    -0.300 N 
ATOM     46  C   LIG d   1       1.328  -2.991 -11.319  0.00  0.00     0.262 C 
ATOM     47  O   LIG d   1       0.290  -3.618 -11.330  0.00  0.00    -0.270 OA
ATOM     48  H   LIG d   1       3.337  -3.141 -11.231  0.00  0.00     0.150 HD
BRANCH  46  49
ATOM     49  C   LIG d   1       1.302  -1.487 -11.395  0.00  0.00     0.057 C 
ATOM     50  H   LIG d   1       2.182  -1.134 -11.932  0.00  0.00     0.095 H 
BRANCH  49  51
ATOM     51  C   LIG d   1       1.301  -0.904  -9.980  0.00  0.00     0.024 C 
ATOM     52  H   LIG d   1       0.354  -0.395  -9.797  0.00  0.00     0.037 H 
ATOM     53  H   LIG d   1       1.425  -1.710  -9.256  0.00  0.00     0.037 H 
BRANCH  51  54
ATOM     54  C   LIG d   1       2.436   0.077  -9.840  0.00  0.00    -0.041 A 
ATOM     55  C   LIG d   1       2.467   0.947  -8.765  0.00  0.00    -0.055 A 
ATOM     56  C   LIG d   1       3.509   1.843  -8.631  0.00  0.00    -0.020 A 
ATOM     57  H   LIG d   1       1.678   0.922  -8.027  0.00  0.00     0.062 H 
ATOM     58  C   LIG d   1       4.519   1.879  -9.581  0.00  0.00     0.117 A 
ATOM     59  H   LIG d   1       3.535   2.519  -7.789  0.00  0.00     0.065 H 
ATOM     60  C   LIG d   1       4.482   1.009 -10.661  0.00  0.00    -0.020 A 
ATOM     61  C   LIG d   1       3.441   0.111 -10.789  0.00  0.00    -0.055 A 
ATOM     62  H   LIG d   1       5.267   1.034 -11.402  0.00  0.00     0.065 H 
ATOM     63  H   LIG d   1       3.411  -0.567 -11.630  0.00  0.00     0.062 H 
BRANCH  58  64
ATOM     64  O   LIG d   1       5.543   2.764  -9.454  0.00  0.00    -0.507 OA
ATOM     65  H   LIG d   1       5.697   3.057  -8.545  0.00  0.00     0.292 HD
ENDBRANCH  58  64
ENDBRANCH  51  54
ENDBRANCH  49  51
BRANCH  49  66
ATOM     66  N   LIG d   1       0.090  -1.053 -12.103  0.00  0.00     0.228 N 
ATOM     67  H   LIG d   1      -0.612  -1.776 -12.043  0.00  0.00     0.200 HD
ATOM     68  H   LIG d   1      -0.262  -0.207 -11.682  0.00  0.00     0.200 HD
ATOM     69  H   LIG d   1       0.311  -0.880 -13.073  0.00  0.00     0.200 HD
ENDBRANCH  49  66
ENDBRANCH  46  49
ENDBRANCH  39  45
ENDBRANCH   1  39
TORSDOF 18
ENDMDL
MODEL 8
REMARK VINA RESULT:      -6.1      2.607      4.280
REMARK  18 active torsions:
REMARK  status: ('A' for Active; 'I' for Inactive)
REMARK    1  A    between atoms: C_1  and  C_2 
REMARK    2  A    between atoms: C_2  and  C_4 
REMARK    3  A    between atoms: C_2  and  N_24 
REMARK       I    between atoms: C_4  and  N_6 
REMARK    4  A    between atoms: N_6  and  C_7 
REMARK    5  A    between atoms: C_7  and  C_8 
REMARK       I    between atoms: C_8  and  N_10 
REMARK    6  A    between atoms: N_10  and  C_11 
REMARK    7  A    between atoms: C_11  and  C_13 
REMARK    8  A    between atoms: C_11  and  C_17 
REMARK    9  A    between atoms: C_13  and  C_14 
REMARK   10  A    between atoms: C_14  and  C_15 
REMARK   11  A    between atoms: C_14  and  C_16 
REMARK       I    between atoms: C_17  and  N_19 
REMARK   12  A    between atoms: N_19  and  C_20 
REMARK   13  A    between atoms: C_20  and  C_21 
REMARK       I    between atoms: C_21  and  N_23 
REMARK       I    between atoms: N_24  and  C_25 
REMARK   14  A    between atoms: C_25  and  C_27 
REMARK   15  A    between atoms: C_27  and  C_29 
REMARK   16  A    between atoms: C_27  and  N_37 
REMARK   17  A    between atoms: C_29  and  C_30 
REMARK   18  A    between atoms: C_33  and  O_36 
ROOT
ATOM      1  C   LIG d   1       3.974  -5.220  -7.359  0.00  0.00     0.234 C 
ATOM      2  O   LIG d   1       3.440  -5.414  -6.288  0.00  0.00    -0.274 OA
ATOM      3  N   LIG d   1       5.066  -4.433  -7.435  0.00  0.00    -0.305 N 
ATOM      4  H   LIG d   1       5.493  -4.279  -8.291  0.00  0.00     0.149 HD
ENDROOT
BRANCH   3   5
ATOM      5  C   LIG d   1       5.605  -3.811  -6.223  0.00  0.00     0.088 C 
ATOM      6  H   LIG d   1       5.145  -4.266  -5.346  0.00  0.00     0.056 H 
ATOM      7  H   LIG d   1       6.684  -3.961  -6.187  0.00  0.00     0.056 H 
BRANCH   5   8
ATOM      8  C   LIG d   1       5.303  -2.335  -6.240  0.00  0.00     0.231 C 
ATOM      9  O   LIG d   1       6.129  -1.541  -5.838  0.00  0.00    -0.274 OA
ATOM     10  N   LIG d   1       4.116  -1.895  -6.702  0.00  0.00    -0.303 N 
ATOM     11  H   LIG d   1       3.456  -2.529  -7.023  0.00  0.00     0.149 HD
BRANCH  10  12
ATOM     12  C   LIG d   1       3.821  -0.461  -6.719  0.00  0.00     0.100 C 
ATOM     13  H   LIG d   1       4.739   0.096  -6.906  0.00  0.00     0.059 H 
BRANCH  12  14
ATOM     14  C   LIG d   1       2.809  -0.160  -7.826  0.00  0.00    -0.024 C 
ATOM     15  H   LIG d   1       2.563  -1.081  -8.353  0.00  0.00     0.029 H 
ATOM     16  H   LIG d   1       1.904   0.260  -7.386  0.00  0.00     0.029 H 
BRANCH  14  17
ATOM     17  C   LIG d   1       3.412   0.845  -8.810  0.00  0.00    -0.045 C 
ATOM     18  H   LIG d   1       3.174   0.542  -9.829  0.00  0.00     0.030 H 
BRANCH  17  19
ATOM     19  C   LIG d   1       2.829   2.234  -8.540  0.00  0.00    -0.063 C 
ATOM     20  H   LIG d   1       1.981   2.407  -9.202  0.00  0.00     0.023 H 
ATOM     21  H   LIG d   1       2.498   2.293  -7.503  0.00  0.00     0.023 H 
ATOM     22  H   LIG d   1       3.592   2.990  -8.721  0.00  0.00     0.023 H 
ENDBRANCH  17  19
BRANCH  17  23
ATOM     23  C   LIG d   1       4.931   0.886  -8.631  0.00  0.00    -0.063 C 
ATOM     24  H   LIG d   1       5.168   1.055  -7.580  0.00  0.00     0.023 H 
ATOM     25  H   LIG d   1       5.360  -0.062  -8.952  0.00  0.00     0.023 H 
ATOM     26  H   LIG d   1       5.346   1.695  -9.232  0.00  0.00     0.023 H 
ENDBRANCH  17  23
ENDBRANCH  14  17
ENDBRANCH  12  14
BRANCH  12  27
ATOM     27  C   LIG d   1       3.247  -0.049  -5.388  0.00  0.00     0.234 C 
ATOM     28  O   LIG d   1       2.839   1.081  -5.228  0.00  0.00    -0.274 OA
ATOM     29  N   LIG d   1       3.188  -0.937  -4.376  0.00  0.00    -0.305 N 
ATOM     30  H   LIG d   1       3.514  -1.842  -4.504  0.00  0.00     0.149 HD
BRANCH  29  31
ATOM     31  C   LIG d   1       2.629  -0.537  -3.081  0.00  0.00     0.088 C 
ATOM     32  H   LIG d   1       1.868   0.228  -3.235  0.00  0.00     0.056 H 
ATOM     33  H   LIG d   1       2.182  -1.404  -2.596  0.00  0.00     0.056 H 
BRANCH  31  34
ATOM     34  C   LIG d   1       3.727   0.015  -2.210  0.00  0.00     0.228 C 
ATOM     35  O   LIG d   1       4.407  -0.735  -1.542  0.00  0.00    -0.274 OA
ATOM     36  N   LIG d   1       3.956   1.343  -2.174  0.00  0.00    -0.328 N 
ATOM     37  H   LIG d   1       3.412   1.944  -2.708  0.00  0.00     0.145 HD
ATOM     38  H   LIG d   1       4.663   1.699  -1.613  0.00  0.00     0.145 HD
ENDBRANCH  31  34
ENDBRANCH  29  31
ENDBRANCH  12  27
ENDBRANCH  10  12
ENDBRANCH   5   8
ENDBRANCH   3   5
BRANCH   1  39
ATOM     39  C   LIG d   1       3.419  -5.861  -8.605  0.00  0.00     0.097 C 
ATOM     40  H   LIG d   1       2.773  -6.694  -8.329  0.00  0.00     0.059 H 
BRANCH  39  41
ATOM     41  C   LIG d   1       4.571  -6.374  -9.472  0.00  0.00    -0.038 C 
ATOM     42  H   LIG d   1       5.151  -5.528  -9.843  0.00  0.00     0.025 H 
ATOM     43  H   LIG d   1       5.213  -7.022  -8.877  0.00  0.00     0.025 H 
ATOM     44  H   LIG d   1       4.168  -6.935 -10.315  0.00  0.00     0.025 H 
ENDBRANCH  39  41
BRANCH  39  45
ATOM     45  N   LIG d   1       2.644  -4.873  -9.359  0.00  0.00    -0.300 N 
ATOM     46  C   LIG d   1       1.471  -5.223  -9.923  0.00  0.00     0.262 C 
ATOM     47  O   LIG d   1       1.058  -6.357  -9.807  0.00  0.00    -0.270 OA
ATOM     48  H   LIG d   1       2.975  -3.965  -9.452  0.00  0.00     0.150 HD
BRANCH  46  49
ATOM     49  C   LIG d   1       0.674  -4.206 -10.699  0.00  0.00     0.057 C 
ATOM     50  H   LIG d   1       0.746  -4.422 -11.764  0.00  0.00     0.095 H 
BRANCH  49  51
ATOM     51  C   LIG d   1       1.229  -2.806 -10.423  0.00  0.00     0.024 C 
ATOM     52  H   LIG d   1       0.409  -2.133 -10.170  0.00  0.00     0.037 H 
ATOM     53  H   LIG d   1       1.932  -2.851  -9.591  0.00  0.00     0.037 H 
BRANCH  51  54
ATOM     54  C   LIG d   1       1.937  -2.296 -11.652  0.00  0.00    -0.041 A 
ATOM     55  C   LIG d   1       1.592  -2.784 -12.899  0.00  0.00    -0.055 A 
ATOM     56  C   LIG d   1       2.236  -2.315 -14.027  0.00  0.00    -0.020 A 
ATOM     57  H   LIG d   1       0.816  -3.530 -12.991  0.00  0.00     0.062 H 
ATOM     58  C   LIG d   1       3.237  -1.362 -13.908  0.00  0.00     0.117 A 
ATOM     59  H   LIG d   1       1.963  -2.692 -15.002  0.00  0.00     0.065 H 
ATOM     60  C   LIG d   1       3.584  -0.878 -12.655  0.00  0.00    -0.020 A 
ATOM     61  C   LIG d   1       2.935  -1.347 -11.529  0.00  0.00    -0.055 A 
ATOM     62  H   LIG d   1       4.363  -0.136 -12.559  0.00  0.00     0.065 H 
ATOM     63  H   LIG d   1       3.204  -0.971 -10.554  0.00  0.00     0.062 H 
BRANCH  58  64
ATOM     64  O   LIG d   1       3.875  -0.902 -15.016  0.00  0.00    -0.507 OA
ATOM     65  H   LIG d   1       4.828  -1.064 -15.016  0.00  0.00     0.292 HD
ENDBRANCH  58  64
ENDBRANCH  51  54
ENDBRANCH  49  51
BRANCH  49  66
ATOM     66  N   LIG d   1      -0.734  -4.265 -10.281  0.00  0.00     0.228 N 
ATOM     67  H   LIG d   1      -1.123  -3.334 -10.278  0.00  0.00     0.200 HD
ATOM     68  H   LIG d   1      -1.251  -4.843 -10.925  0.00  0.00     0.200 HD
ATOM     69  H   LIG d   1      -0.793  -4.657  -9.354  0.00  0.00     0.200 HD
ENDBRANCH  49  66
ENDBRANCH  46  49
ENDBRANCH  39  45
ENDBRANCH   1  39
TORSDOF 18
ENDMDL
MODEL 9
REMARK VINA RESULT:      -6.0      2.427      3.524
REMARK  18 active torsions:
REMARK  status: ('A' for Active; 'I' for Inactive)
REMARK    1  A    between atoms: C_1  and  C_2 
REMARK    2  A    between atoms: C_2  and  C_4 
REMARK    3  A    between atoms: C_2  and  N_24 
REMARK       I    between atoms: C_4  and  N_6 
REMARK    4  A    between atoms: N_6  and  C_7 
REMARK    5  A    between atoms: C_7  and  C_8 
REMARK       I    between atoms: C_8  and  N_10 
REMARK    6  A    between atoms: N_10  and  C_11 
REMARK    7  A    between atoms: C_11  and  C_13 
REMARK    8  A    between atoms: C_11  and  C_17 
REMARK    9  A    between atoms: C_13  and  C_14 
REMARK   10  A    between atoms: C_14  and  C_15 
REMARK   11  A    between atoms: C_14  and  C_16 
REMARK       I    between atoms: C_17  and  N_19 
REMARK   12  A    between atoms: N_19  and  C_20 
REMARK   13  A    between atoms: C_20  and  C_21 
REMARK       I    between atoms: C_21  and  N_23 
REMARK       I    between atoms: N_24  and  C_25 
REMARK   14  A    between atoms: C_25  and  C_27 
REMARK   15  A    between atoms: C_27  and  C_29 
REMARK   16  A    between atoms: C_27  and  N_37 
REMARK   17  A    between atoms: C_29  and  C_30 
REMARK   18  A    between atoms: C_33  and  O_36 
ROOT
ATOM      1  C   LIG d   1       4.471  -5.948  -7.136  0.00  0.00     0.234 C 
ATOM      2  O   LIG d   1       4.413  -6.648  -6.147  0.00  0.00    -0.274 OA
ATOM      3  N   LIG d   1       5.203  -4.817  -7.119  0.00  0.00    -0.305 N 
ATOM      4  H   LIG d   1       5.249  -4.258  -7.911  0.00  0.00     0.149 HD
ENDROOT
BRANCH   3   5
ATOM      5  C   LIG d   1       5.929  -4.432  -5.906  0.00  0.00     0.088 C 
ATOM      6  H   LIG d   1       6.124  -5.319  -5.304  0.00  0.00     0.056 H 
ATOM      7  H   LIG d   1       6.873  -3.963  -6.180  0.00  0.00     0.056 H 
BRANCH   5   8
ATOM      8  C   LIG d   1       5.096  -3.459  -5.111  0.00  0.00     0.231 C 
ATOM      9  O   LIG d   1       4.265  -3.870  -4.328  0.00  0.00    -0.274 OA
ATOM     10  N   LIG d   1       5.274  -2.133  -5.271  0.00  0.00    -0.303 N 
ATOM     11  H   LIG d   1       5.938  -1.805  -5.896  0.00  0.00     0.149 HD
BRANCH  10  12
ATOM     12  C   LIG d   1       4.465  -1.187  -4.499  0.00  0.00     0.100 C 
ATOM     13  H   LIG d   1       3.870  -1.732  -3.766  0.00  0.00     0.059 H 
BRANCH  12  14
ATOM     14  C   LIG d   1       5.385  -0.201  -3.775  0.00  0.00    -0.024 C 
ATOM     15  H   LIG d   1       6.424  -0.484  -3.942  0.00  0.00     0.029 H 
ATOM     16  H   LIG d   1       5.215   0.804  -4.160  0.00  0.00     0.029 H 
BRANCH  14  17
ATOM     17  C   LIG d   1       5.083  -0.230  -2.275  0.00  0.00    -0.045 C 
ATOM     18  H   LIG d   1       6.019  -0.254  -1.717  0.00  0.00     0.030 H 
BRANCH  17  19
ATOM     19  C   LIG d   1       4.293   1.023  -1.891  0.00  0.00    -0.063 C 
ATOM     20  H   LIG d   1       3.378   1.071  -2.483  0.00  0.00     0.023 H 
ATOM     21  H   LIG d   1       4.037   0.981  -0.832  0.00  0.00     0.023 H 
ATOM     22  H   LIG d   1       4.898   1.908  -2.084  0.00  0.00     0.023 H 
ENDBRANCH  17  19
BRANCH  17  23
ATOM     23  C   LIG d   1       4.258  -1.475  -1.944  0.00  0.00    -0.063 C 
ATOM     24  H   LIG d   1       4.750  -2.035  -1.148  0.00  0.00     0.023 H 
ATOM     25  H   LIG d   1       3.263  -1.176  -1.617  0.00  0.00     0.023 H 
ATOM     26  H   LIG d   1       4.176  -2.102  -2.831  0.00  0.00     0.023 H 
ENDBRANCH  17  23
ENDBRANCH  14  17
ENDBRANCH  12  14
BRANCH  12  27
ATOM     27  C   LIG d   1       3.552  -0.431  -5.428  0.00  0.00     0.234 C 
ATOM     28  O   LIG d   1       2.753   0.363  -4.979  0.00  0.00    -0.274 OA
ATOM     29  N   LIG d   1       3.622  -0.638  -6.758  0.00  0.00    -0.305 N 
ATOM     30  H   LIG d   1       4.260  -1.273  -7.118  0.00  0.00     0.149 HD
BRANCH  29  31
ATOM     31  C   LIG d   1       2.732   0.097  -7.661  0.00  0.00     0.088 C 
ATOM     32  H   LIG d   1       2.555  -0.496  -8.559  0.00  0.00     0.056 H 
ATOM     33  H   LIG d   1       1.783   0.289  -7.160  0.00  0.00     0.056 H 
BRANCH  31  34
ATOM     34  C   LIG d   1       3.372   1.406  -8.042  0.00  0.00     0.228 C 
ATOM     35  O   LIG d   1       2.728   2.433  -7.995  0.00  0.00    -0.274 OA
ATOM     36  N   LIG d   1       4.662   1.437  -8.434  0.00  0.00    -0.328 N 
ATOM     37  H   LIG d   1       5.177   0.617  -8.471  0.00  0.00     0.145 HD
ATOM     38  H   LIG d   1       5.074   2.280  -8.679  0.00  0.00     0.145 HD
ENDBRANCH  31  34
ENDBRANCH  29  31
ENDBRANCH  12  27
ENDBRANCH  10  12
ENDBRANCH   5   8
ENDBRANCH   3   5
BRANCH   1  39
ATOM     39  C   LIG d   1       3.725  -6.345  -8.384  0.00  0.00     0.097 C 
ATOM     40  H   LIG d   1       2.849  -6.935  -8.112  0.00  0.00     0.059 H 
BRANCH  39  41
ATOM     41  C   LIG d   1       4.641  -7.176  -9.284  0.00  0.00    -0.038 C 
ATOM     42  H   LIG d   1       5.676  -6.874  -9.126  0.00  0.00     0.025 H 
ATOM     43  H   LIG d   1       4.529  -8.233  -9.040  0.00  0.00     0.025 H 
ATOM     44  H   LIG d   1       4.370  -7.013 -10.327  0.00  0.00     0.025 H 
ENDBRANCH  39  41
BRANCH  39  45
ATOM     45  N   LIG d   1       3.297  -5.142  -9.101  0.00  0.00    -0.300 N 
ATOM     46  C   LIG d   1       2.124  -5.132  -9.764  0.00  0.00     0.262 C 
ATOM     47  O   LIG d   1       1.422  -6.121  -9.768  0.00  0.00    -0.270 OA
ATOM     48  H   LIG d   1       3.859  -4.350  -9.099  0.00  0.00     0.150 HD
BRANCH  46  49
ATOM     49  C   LIG d   1       1.685  -3.894 -10.502  0.00  0.00     0.057 C 
ATOM     50  H   LIG d   1       1.834  -4.036 -11.572  0.00  0.00     0.095 H 
BRANCH  49  51
ATOM     51  C   LIG d   1       2.512  -2.697 -10.027  0.00  0.00     0.024 C 
ATOM     52  H   LIG d   1       1.878  -2.022  -9.452  0.00  0.00     0.037 H 
ATOM     53  H   LIG d   1       3.331  -3.049  -9.399  0.00  0.00     0.037 H 
BRANCH  51  54
ATOM     54  C   LIG d   1       3.072  -1.967 -11.221  0.00  0.00    -0.041 A 
ATOM     55  C   LIG d   1       3.811  -0.812 -11.039  0.00  0.00    -0.055 A 
ATOM     56  C   LIG d   1       4.330  -0.145 -12.131  0.00  0.00    -0.020 A 
ATOM     57  H   LIG d   1       3.985  -0.435 -10.042  0.00  0.00     0.062 H 
ATOM     58  C   LIG d   1       4.101  -0.627 -13.411  0.00  0.00     0.117 A 
ATOM     59  H   LIG d   1       4.911   0.754 -11.988  0.00  0.00     0.065 H 
ATOM     60  C   LIG d   1       3.355  -1.783 -13.591  0.00  0.00    -0.020 A 
ATOM     61  C   LIG d   1       2.841  -2.450 -12.496  0.00  0.00    -0.055 A 
ATOM     62  H   LIG d   1       3.175  -2.161 -14.586  0.00  0.00     0.065 H 
ATOM     63  H   LIG d   1       2.261  -3.350 -12.635  0.00  0.00     0.062 H 
BRANCH  58  64
ATOM     64  O   LIG d   1       4.607   0.031 -14.487  0.00  0.00    -0.507 OA
ATOM     65  H   LIG d   1       5.198  -0.506 -15.033  0.00  0.00     0.292 HD
ENDBRANCH  58  64
ENDBRANCH  51  54
ENDBRANCH  49  51
BRANCH  49  66
ATOM     66  N   LIG d   1       0.262  -3.642 -10.235  0.00  0.00     0.228 N 
ATOM     67  H   LIG d   1       0.147  -2.705  -9.879  0.00  0.00     0.200 HD
ATOM     68  H   LIG d   1      -0.264  -3.745 -11.089  0.00  0.00     0.200 HD
ATOM     69  H   LIG d   1      -0.073  -4.305  -9.551  0.00  0.00     0.200 HD
ENDBRANCH  49  66
ENDBRANCH  46  49
ENDBRANCH  39  45
ENDBRANCH   1  39
TORSDOF 18
ENDMDL
MODEL 10
REMARK VINA RESULT:      -6.0      2.846      7.643
REMARK  18 active torsions:
REMARK  status: ('A' for Active; 'I' for Inactive)
REMARK    1  A    between atoms: C_1  and  C_2 
REMARK    2  A    between atoms: C_2  and  C_4 
REMARK    3  A    between atoms: C_2  and  N_24 
REMARK       I    between atoms: C_4  and  N_6 
REMARK    4  A    between atoms: N_6  and  C_7 
REMARK    5  A    between atoms: C_7  and  C_8 
REMARK       I    between atoms: C_8  and  N_10 
REMARK    6  A    between atoms: N_10  and  C_11 
REMARK    7  A    between atoms: C_11  and  C_13 
REMARK    8  A    between atoms: C_11  and  C_17 
REMARK    9  A    between atoms: C_13  and  C_14 
REMARK   10  A    between atoms: C_14  and  C_15 
REMARK   11  A    between atoms: C_14  and  C_16 
REMARK       I    between atoms: C_17  and  N_19 
REMARK   12  A    between atoms: N_19  and  C_20 
REMARK   13  A    between atoms: C_20  and  C_21 
REMARK       I    between atoms: C_21  and  N_23 
REMARK       I    between atoms: N_24  and  C_25 
REMARK   14  A    between atoms: C_25  and  C_27 
REMARK   15  A    between atoms: C_27  and  C_29 
REMARK   16  A    between atoms: C_27  and  N_37 
REMARK   17  A    between atoms: C_29  and  C_30 
REMARK   18  A    between atoms: C_33  and  O_36 
ROOT
ATOM      1  C   LIG d   1       3.619  -0.265  -3.435  0.00  0.00     0.234 C 
ATOM      2  O   LIG d   1       2.769  -1.128  -3.367  0.00  0.00    -0.274 OA
ATOM      3  N   LIG d   1       3.534   0.692  -4.380  0.00  0.00    -0.305 N 
ATOM      4  H   LIG d   1       4.213   1.382  -4.434  0.00  0.00     0.149 HD
ENDROOT
BRANCH   3   5
ATOM      5  C   LIG d   1       2.415   0.689  -5.326  0.00  0.00     0.088 C 
ATOM      6  H   LIG d   1       1.640   0.011  -4.969  0.00  0.00     0.056 H 
ATOM      7  H   LIG d   1       2.007   1.696  -5.410  0.00  0.00     0.056 H 
BRANCH   5   8
ATOM      8  C   LIG d   1       2.901   0.230  -6.677  0.00  0.00     0.231 C 
ATOM      9  O   LIG d   1       2.102  -0.093  -7.532  0.00  0.00    -0.274 OA
ATOM     10  N   LIG d   1       4.222   0.178  -6.935  0.00  0.00    -0.303 N 
ATOM     11  H   LIG d   1       4.860   0.436  -6.252  0.00  0.00     0.149 HD
BRANCH  10  12
ATOM     12  C   LIG d   1       4.695  -0.268  -8.247  0.00  0.00     0.100 C 
ATOM     13  H   LIG d   1       3.844  -0.395  -8.916  0.00  0.00     0.059 H 
BRANCH  12  14
ATOM     14  C   LIG d   1       5.648   0.778  -8.829  0.00  0.00    -0.024 C 
ATOM     15  H   LIG d   1       5.975   1.451  -8.038  0.00  0.00     0.029 H 
ATOM     16  H   LIG d   1       6.514   0.279  -9.264  0.00  0.00     0.029 H 
BRANCH  14  17
ATOM     17  C   LIG d   1       4.924   1.580  -9.914  0.00  0.00    -0.045 C 
ATOM     18  H   LIG d   1       5.656   1.994 -10.608  0.00  0.00     0.030 H 
BRANCH  17  19
ATOM     19  C   LIG d   1       3.966   0.659 -10.672  0.00  0.00    -0.063 C 
ATOM     20  H   LIG d   1       4.531  -0.143 -11.148  0.00  0.00     0.023 H 
ATOM     21  H   LIG d   1       3.245   0.231  -9.975  0.00  0.00     0.023 H 
ATOM     22  H   LIG d   1       3.437   1.232 -11.434  0.00  0.00     0.023 H 
ENDBRANCH  17  19
BRANCH  17  23
ATOM     23  C   LIG d   1       4.133   2.718  -9.266  0.00  0.00    -0.063 C 
ATOM     24  H   LIG d   1       3.070   2.477  -9.283  0.00  0.00     0.023 H 
ATOM     25  H   LIG d   1       4.460   2.845  -8.234  0.00  0.00     0.023 H 
ATOM     26  H   LIG d   1       4.306   3.641  -9.819  0.00  0.00     0.023 H 
ENDBRANCH  17  23
ENDBRANCH  14  17
ENDBRANCH  12  14
BRANCH  12  27
ATOM     27  C   LIG d   1       5.420  -1.581  -8.101  0.00  0.00     0.234 C 
ATOM     28  O   LIG d   1       6.622  -1.630  -8.253  0.00  0.00    -0.274 OA
ATOM     29  N   LIG d   1       4.732  -2.701  -7.802  0.00  0.00    -0.305 N 
ATOM     30  H   LIG d   1       3.771  -2.662  -7.681  0.00  0.00     0.149 HD
BRANCH  29  31
ATOM     31  C   LIG d   1       5.438  -3.978  -7.661  0.00  0.00     0.088 C 
ATOM     32  H   LIG d   1       5.315  -4.564  -8.572  0.00  0.00     0.056 H 
ATOM     33  H   LIG d   1       6.497  -3.790  -7.489  0.00  0.00     0.056 H 
BRANCH  31  34
ATOM     34  C   LIG d   1       4.868  -4.740  -6.493  0.00  0.00     0.228 C 
ATOM     35  O   LIG d   1       5.610  -5.273  -5.695  0.00  0.00    -0.274 OA
ATOM     36  N   LIG d   1       3.532  -4.829  -6.334  0.00  0.00    -0.328 N 
ATOM     37  H   LIG d   1       2.938  -4.403  -6.971  0.00  0.00     0.145 HD
ATOM     38  H   LIG d   1       3.165  -5.320  -5.581  0.00  0.00     0.145 HD
ENDBRANCH  31  34
ENDBRANCH  29  31
ENDBRANCH  12  27
ENDBRANCH  10  12
ENDBRANCH   5   8
ENDBRANCH   3   5
BRANCH   1  39
ATOM     39  C   LIG d   1       4.770  -0.263  -2.462  0.00  0.00     0.097 C 
ATOM     40  H   LIG d   1       4.759  -1.187  -1.883  0.00  0.00     0.059 H 
BRANCH  39  41
ATOM     41  C   LIG d   1       4.636   0.933  -1.516  0.00  0.00    -0.038 C 
ATOM     42  H   LIG d   1       5.165   1.788  -1.935  0.00  0.00     0.025 H 
ATOM     43  H   LIG d   1       3.582   1.181  -1.391  0.00  0.00     0.025 H 
ATOM     44  H   LIG d   1       5.066   0.679  -0.547  0.00  0.00     0.025 H 
ENDBRANCH  39  41
BRANCH  39  45
ATOM     45  N   LIG d   1       6.032  -0.163  -3.197  0.00  0.00    -0.300 N 
ATOM     46  C   LIG d   1       6.566  -1.260  -3.773  0.00  0.00     0.262 C 
ATOM     47  O   LIG d   1       6.001  -2.328  -3.680  0.00  0.00    -0.270 OA
ATOM     48  H   LIG d   1       6.485   0.692  -3.271  0.00  0.00     0.150 HD
BRANCH  46  49
ATOM     49  C   LIG d   1       7.865  -1.157  -4.529  0.00  0.00     0.057 C 
ATOM     50  H   LIG d   1       8.699  -1.286  -3.840  0.00  0.00     0.095 H 
BRANCH  49  51
ATOM     51  C   LIG d   1       7.961   0.219  -5.194  0.00  0.00     0.024 C 
ATOM     52  H   LIG d   1       8.122   0.094  -6.265  0.00  0.00     0.037 H 
ATOM     53  H   LIG d   1       7.033   0.767  -5.027  0.00  0.00     0.037 H 
BRANCH  51  54
ATOM     54  C   LIG d   1       9.112   0.986  -4.596  0.00  0.00    -0.041 A 
ATOM     55  C   LIG d   1       8.865   2.033  -3.726  0.00  0.00    -0.055 A 
ATOM     56  C   LIG d   1       9.918   2.734  -3.173  0.00  0.00    -0.020 A 
ATOM     57  H   LIG d   1       7.848   2.299  -3.477  0.00  0.00     0.062 H 
ATOM     58  C   LIG d   1      11.224   2.396  -3.498  0.00  0.00     0.117 A 
ATOM     59  H   LIG d   1       9.725   3.548  -2.490  0.00  0.00     0.065 H 
ATOM     60  C   LIG d   1      11.467   1.349  -4.375  0.00  0.00    -0.020 A 
ATOM     61  C   LIG d   1      10.411   0.647  -4.923  0.00  0.00    -0.055 A 
ATOM     62  H   LIG d   1      12.483   1.083  -4.630  0.00  0.00     0.065 H 
ATOM     63  H   LIG d   1      10.601  -0.168  -5.606  0.00  0.00     0.062 H 
BRANCH  58  64
ATOM     64  O   LIG d   1      12.261   3.088  -2.958  0.00  0.00    -0.507 OA
ATOM     65  H   LIG d   1      13.105   2.617  -2.988  0.00  0.00     0.292 HD
ENDBRANCH  58  64
ENDBRANCH  51  54
ENDBRANCH  49  51
BRANCH  49  66
ATOM     66  N   LIG d   1       7.916  -2.202  -5.560  0.00  0.00     0.228 N 
ATOM     67  H   LIG d   1       8.373  -1.841  -6.383  0.00  0.00     0.200 HD
ATOM     68  H   LIG d   1       8.431  -2.995  -5.210  0.00  0.00     0.200 HD
ATOM     69  H   LIG d   1       6.977  -2.488  -5.795  0.00  0.00     0.200 HD
ENDBRANCH  49  66
ENDBRANCH  46  49
ENDBRANCH  39  45
ENDBRANCH   1  39
TORSDOF 18
ENDMDL
