MODEL 1
REMARK VINA RESULT:      -6.6      0.000      0.000
REMARK  3 active torsions:
REMARK  status: ('A' for Active; 'I' for Inactive)
REMARK    1  A    between atoms: C_2  and  C_3 
REMARK    2  A    between atoms: C_3  and  N_4 
REMARK    3  A    between atoms: C_7  and  N_16 
ROOT
ATOM      1  C   LIG d   1       1.573  -4.683 -10.571  0.00  0.00    -0.118 C 
ATOM      2  C   LIG d   1       1.398  -3.531 -10.715  0.00  0.00    -0.086 C 
ATOM      3  H   LIG d   1       1.729  -5.713 -10.443  0.00  0.00     0.123 H 
ENDROOT
BRANCH   2   4
ATOM      4  C   LIG d   1       1.179  -2.086 -10.896  0.00  0.00     0.081 C 
ATOM      5  H   LIG d   1       0.368  -1.928 -11.607  0.00  0.00     0.060 H 
ATOM      6  H   LIG d   1       0.917  -1.637  -9.938  0.00  0.00     0.060 H 
BRANCH   4   7
ATOM      7  N   LIG d   1       2.405  -1.466 -11.407  0.00  0.00    -0.254 N 
ATOM      8  C   LIG d   1       2.681  -1.483 -12.729  0.00  0.00     0.258 C 
ATOM      9  C   LIG d   1       3.962  -0.868 -13.233  0.00  0.00     0.166 C 
ATOM     10  O   LIG d   1       1.901  -1.988 -13.508  0.00  0.00    -0.272 OA
ATOM     11  O   LIG d   1       4.340   0.221 -12.387  0.00  0.00    -0.481 OA
ATOM     12  H   LIG d   1       3.818  -0.506 -14.250  0.00  0.00     0.080 H 
ATOM     13  H   LIG d   1       4.749  -1.623 -13.226  0.00  0.00     0.080 H 
ATOM     14  C   LIG d   1       4.285   0.002 -11.045  0.00  0.00     0.145 A 
ATOM     15  C   LIG d   1       3.311  -0.852 -10.529  0.00  0.00     0.081 A 
ATOM     16  C   LIG d   1       5.186   0.618 -10.193  0.00  0.00     0.019 A 
ATOM     17  C   LIG d   1       3.245  -1.088  -9.167  0.00  0.00    -0.012 A 
ATOM     18  C   LIG d   1       4.151  -0.470  -8.316  0.00  0.00     0.082 A 
ATOM     19  H   LIG d   1       2.492  -1.750  -8.767  0.00  0.00     0.066 H 
ATOM     20  C   LIG d   1       5.120   0.383  -8.831  0.00  0.00     0.149 A 
ATOM     21  F   LIG d   1       6.000   0.984  -8.000  0.00  0.00    -0.203 F 
ATOM     22  H   LIG d   1       5.939   1.282 -10.592  0.00  0.00     0.068 H 
BRANCH  18  23
ATOM     23  N   LIG d   1       4.088  -0.706  -6.933  0.00  0.00    -0.200 N 
ATOM     24  C   LIG d   1       4.686  -1.731  -6.292  0.00  0.00     0.254 A 
ATOM     25  C   LIG d   1       4.379  -1.617  -4.856  0.00  0.00     0.023 A 
ATOM     26  O   LIG d   1       5.362  -2.597  -6.808  0.00  0.00    -0.270 OA
ATOM     27  C   LIG d   1       3.600  -0.531  -4.706  0.00  0.00     0.023 A 
ATOM     28  C   LIG d   1       4.818  -2.511  -3.726  0.00  0.00    -0.022 C 
ATOM     29  C   LIG d   1       3.415   0.054  -6.045  0.00  0.00     0.254 A 
ATOM     30  C   LIG d   1       3.050  -0.054  -3.388  0.00  0.00    -0.022 C 
ATOM     31  O   LIG d   1       2.768   1.048  -6.304  0.00  0.00    -0.270 OA
ATOM     32  C   LIG d   1       3.169  -1.200  -2.374  0.00  0.00    -0.049 C 
ATOM     33  H   LIG d   1       3.623   0.805  -3.039  0.00  0.00     0.032 H 
ATOM     34  H   LIG d   1       2.004   0.225  -3.505  0.00  0.00     0.032 H 
ATOM     35  C   LIG d   1       4.591  -1.766  -2.405  0.00  0.00    -0.049 C 
ATOM     36  H   LIG d   1       2.458  -1.986  -2.629  0.00  0.00     0.027 H 
ATOM     37  H   LIG d   1       2.950  -0.823  -1.374  0.00  0.00     0.027 H 
ATOM     38  H   LIG d   1       4.726  -2.455  -1.571  0.00  0.00     0.027 H 
ATOM     39  H   LIG d   1       5.309  -0.950  -2.321  0.00  0.00     0.027 H 
ATOM     40  H   LIG d   1       4.230  -3.429  -3.736  0.00  0.00     0.032 H 
ATOM     41  H   LIG d   1       5.874  -2.751  -3.837  0.00  0.00     0.032 H 
ENDBRANCH  18  23
ENDBRANCH   4   7
ENDBRANCH   2   4
TORSDOF 3
ENDMDL
MODEL 2
REMARK VINA RESULT:      -6.5      0.129      1.727
REMARK  3 active torsions:
REMARK  status: ('A' for Active; 'I' for Inactive)
REMARK    1  A    between atoms: C_2  and  C_3 
REMARK    2  A    between atoms: C_3  and  N_4 
REMARK    3  A    between atoms: C_7  and  N_16 
ROOT
ATOM      1  C   LIG d   1       1.609  -4.667 -10.515  0.00  0.00    -0.118 C 
ATOM      2  C   LIG d   1       1.421  -3.515 -10.648  0.00  0.00    -0.086 C 
ATOM      3  H   LIG d   1       1.778  -5.696 -10.396  0.00  0.00     0.123 H 
ENDROOT
BRANCH   2   4
ATOM      4  C   LIG d   1       1.184  -2.072 -10.815  0.00  0.00     0.081 C 
ATOM      5  H   LIG d   1       0.361  -1.917 -11.512  0.00  0.00     0.060 H 
ATOM      6  H   LIG d   1       0.933  -1.632  -9.850  0.00  0.00     0.060 H 
BRANCH   4   7
ATOM      7  N   LIG d   1       2.396  -1.436 -11.341  0.00  0.00    -0.254 N 
ATOM      8  C   LIG d   1       2.666  -1.466 -12.665  0.00  0.00     0.258 C 
ATOM      9  C   LIG d   1       3.932  -0.835 -13.183  0.00  0.00     0.166 C 
ATOM     10  O   LIG d   1       1.891  -1.996 -13.432  0.00  0.00    -0.272 OA
ATOM     11  O   LIG d   1       4.293   0.273 -12.355  0.00  0.00    -0.481 OA
ATOM     12  H   LIG d   1       3.775  -0.489 -14.204  0.00  0.00     0.080 H 
ATOM     13  H   LIG d   1       4.733  -1.573 -13.170  0.00  0.00     0.080 H 
ATOM     14  C   LIG d   1       4.249   0.072 -11.009  0.00  0.00     0.145 A 
ATOM     15  C   LIG d   1       3.294  -0.793 -10.477  0.00  0.00     0.081 A 
ATOM     16  C   LIG d   1       5.142   0.718 -10.171  0.00  0.00     0.019 A 
ATOM     17  C   LIG d   1       3.240  -1.011  -9.111  0.00  0.00    -0.012 A 
ATOM     18  C   LIG d   1       4.137  -0.363  -8.273  0.00  0.00     0.082 A 
ATOM     19  H   LIG d   1       2.501  -1.681  -8.698  0.00  0.00     0.066 H 
ATOM     20  C   LIG d   1       5.087   0.500  -8.806  0.00  0.00     0.149 A 
ATOM     21  F   LIG d   1       5.960   1.130  -7.988  0.00  0.00    -0.203 F 
ATOM     22  H   LIG d   1       5.881   1.390 -10.583  0.00  0.00     0.068 H 
BRANCH  18  23
ATOM     23  N   LIG d   1       4.086  -0.582  -6.887  0.00  0.00    -0.200 N 
ATOM     24  C   LIG d   1       3.431   0.197  -6.001  0.00  0.00     0.254 A 
ATOM     25  C   LIG d   1       3.621  -0.375  -4.658  0.00  0.00     0.023 A 
ATOM     26  O   LIG d   1       2.793   1.195  -6.266  0.00  0.00    -0.270 OA
ATOM     27  C   LIG d   1       4.393  -1.467  -4.801  0.00  0.00     0.023 A 
ATOM     28  C   LIG d   1       3.086   0.121  -3.340  0.00  0.00    -0.022 C 
ATOM     29  C   LIG d   1       4.689  -1.598  -6.238  0.00  0.00     0.254 A 
ATOM     30  C   LIG d   1       4.837  -2.350  -3.665  0.00  0.00    -0.022 C 
ATOM     31  O   LIG d   1       5.362  -2.470  -6.749  0.00  0.00    -0.270 OA
ATOM     32  C   LIG d   1       4.628  -1.585  -2.351  0.00  0.00    -0.049 C 
ATOM     33  H   LIG d   1       4.243  -3.264  -3.656  0.00  0.00     0.032 H 
ATOM     34  H   LIG d   1       5.891  -2.597  -3.783  0.00  0.00     0.032 H 
ATOM     35  C   LIG d   1       3.210  -1.011  -2.312  0.00  0.00    -0.049 C 
ATOM     36  H   LIG d   1       5.352  -0.773  -2.285  0.00  0.00     0.027 H 
ATOM     37  H   LIG d   1       4.768  -2.265  -1.510  0.00  0.00     0.027 H 
ATOM     38  H   LIG d   1       3.003  -0.621  -1.316  0.00  0.00     0.027 H 
ATOM     39  H   LIG d   1       2.493  -1.797  -2.551  0.00  0.00     0.027 H 
ATOM     40  H   LIG d   1       3.666   0.983  -3.010  0.00  0.00     0.032 H 
ATOM     41  H   LIG d   1       2.040   0.404  -3.452  0.00  0.00     0.032 H 
ENDBRANCH  18  23
ENDBRANCH   4   7
ENDBRANCH   2   4
TORSDOF 3
ENDMDL
MODEL 3
REMARK VINA RESULT:      -6.2      2.455      3.312
REMARK  3 active torsions:
REMARK  status: ('A' for Active; 'I' for Inactive)
REMARK    1  A    between atoms: C_2  and  C_3 
REMARK    2  A    between atoms: C_3  and  N_4 
REMARK    3  A    between atoms: C_7  and  N_16 
ROOT
ATOM      1  C   LIG d   1       2.103  -0.785 -11.571  0.00  0.00    -0.118 C 
ATOM      2  C   LIG d   1       2.067  -1.773 -10.939  0.00  0.00    -0.086 C 
ATOM      3  H   LIG d   1       2.135   0.099 -12.137  0.00  0.00     0.123 H 
ENDROOT
BRANCH   2   4
ATOM      4  C   LIG d   1       2.023  -3.013 -10.146  0.00  0.00     0.081 C 
ATOM      5  H   LIG d   1       1.867  -2.767  -9.095  0.00  0.00     0.060 H 
ATOM      6  H   LIG d   1       1.203  -3.639 -10.498  0.00  0.00     0.060 H 
BRANCH   4   7
ATOM      7  N   LIG d   1       3.289  -3.735 -10.296  0.00  0.00    -0.254 N 
ATOM      8  C   LIG d   1       3.467  -4.601 -11.318  0.00  0.00     0.258 C 
ATOM      9  C   LIG d   1       4.765  -5.358 -11.438  0.00  0.00     0.166 C 
ATOM     10  O   LIG d   1       2.587  -4.766 -12.136  0.00  0.00    -0.272 OA
ATOM     11  O   LIG d   1       5.834  -4.569 -10.911  0.00  0.00    -0.481 OA
ATOM     12  H   LIG d   1       4.961  -5.581 -12.486  0.00  0.00     0.080 H 
ATOM     13  H   LIG d   1       4.690  -6.290 -10.878  0.00  0.00     0.080 H 
ATOM     14  C   LIG d   1       5.618  -3.969  -9.708  0.00  0.00     0.145 A 
ATOM     15  C   LIG d   1       4.333  -3.540  -9.379  0.00  0.00     0.081 A 
ATOM     16  C   LIG d   1       6.659  -3.783  -8.816  0.00  0.00     0.019 A 
ATOM     17  C   LIG d   1       4.096  -2.932  -8.158  0.00  0.00    -0.012 A 
ATOM     18  C   LIG d   1       5.142  -2.748  -7.265  0.00  0.00     0.082 A 
ATOM     19  H   LIG d   1       3.101  -2.601  -7.902  0.00  0.00     0.066 H 
ATOM     20  C   LIG d   1       6.422  -3.175  -7.596  0.00  0.00     0.149 A 
ATOM     21  F   LIG d   1       7.440  -2.994  -6.725  0.00  0.00    -0.203 F 
ATOM     22  H   LIG d   1       7.656  -4.113  -9.072  0.00  0.00     0.068 H 
BRANCH  18  23
ATOM     23  N   LIG d   1       4.906  -2.132  -6.025  0.00  0.00    -0.200 N 
ATOM     24  C   LIG d   1       4.981  -0.806  -5.790  0.00  0.00     0.254 A 
ATOM     25  C   LIG d   1       4.661  -0.572  -4.371  0.00  0.00     0.023 A 
ATOM     26  O   LIG d   1       5.261   0.047  -6.606  0.00  0.00    -0.270 OA
ATOM     27  C   LIG d   1       4.420  -1.774  -3.819  0.00  0.00     0.023 A 
ATOM     28  C   LIG d   1       4.603   0.734  -3.624  0.00  0.00    -0.022 C 
ATOM     29  C   LIG d   1       4.578  -2.776  -4.887  0.00  0.00     0.254 A 
ATOM     30  C   LIG d   1       4.060  -1.990  -2.373  0.00  0.00    -0.022 C 
ATOM     31  O   LIG d   1       4.437  -3.976  -4.763  0.00  0.00    -0.270 OA
ATOM     32  C   LIG d   1       4.422  -0.719  -1.593  0.00  0.00    -0.049 C 
ATOM     33  H   LIG d   1       2.991  -2.183  -2.285  0.00  0.00     0.032 H 
ATOM     34  H   LIG d   1       4.621  -2.836  -1.977  0.00  0.00     0.032 H 
ATOM     35  C   LIG d   1       3.845   0.504  -2.309  0.00  0.00    -0.049 C 
ATOM     36  H   LIG d   1       5.507  -0.627  -1.532  0.00  0.00     0.027 H 
ATOM     37  H   LIG d   1       4.006  -0.780  -0.587  0.00  0.00     0.027 H 
ATOM     38  H   LIG d   1       3.949   1.382  -1.672  0.00  0.00     0.027 H 
ATOM     39  H   LIG d   1       2.790   0.335  -2.525  0.00  0.00     0.027 H 
ATOM     40  H   LIG d   1       5.614   1.079  -3.409  0.00  0.00     0.032 H 
ATOM     41  H   LIG d   1       4.081   1.478  -4.224  0.00  0.00     0.032 H 
ENDBRANCH  18  23
ENDBRANCH   4   7
ENDBRANCH   2   4
TORSDOF 3
ENDMDL
MODEL 4
REMARK VINA RESULT:      -6.2      1.963      2.212
REMARK  3 active torsions:
REMARK  status: ('A' for Active; 'I' for Inactive)
REMARK    1  A    between atoms: C_2  and  C_3 
REMARK    2  A    between atoms: C_3  and  N_4 
REMARK    3  A    between atoms: C_7  and  N_16 
ROOT
ATOM      1  C   LIG d   1       5.441  -5.007  -9.469  0.00  0.00    -0.118 C 
ATOM      2  C   LIG d   1       4.325  -4.642  -9.482  0.00  0.00    -0.086 C 
ATOM      3  H   LIG d   1       6.439  -5.332  -9.456  0.00  0.00     0.123 H 
ENDROOT
BRANCH   2   4
ATOM      4  C   LIG d   1       2.925  -4.185  -9.500  0.00  0.00     0.081 C 
ATOM      5  H   LIG d   1       2.296  -4.958  -9.941  0.00  0.00     0.060 H 
ATOM      6  H   LIG d   1       2.596  -3.986  -8.480  0.00  0.00     0.060 H 
BRANCH   4   7
ATOM      7  N   LIG d   1       2.822  -2.958 -10.295  0.00  0.00    -0.254 N 
ATOM      8  C   LIG d   1       2.732  -3.020 -11.642  0.00  0.00     0.258 C 
ATOM      9  C   LIG d   1       2.658  -1.747 -12.446  0.00  0.00     0.166 C 
ATOM     10  O   LIG d   1       2.707  -4.096 -12.202  0.00  0.00    -0.272 OA
ATOM     11  O   LIG d   1       2.003  -0.732 -11.682  0.00  0.00    -0.481 OA
ATOM     12  H   LIG d   1       2.102  -1.928 -13.364  0.00  0.00     0.080 H 
ATOM     13  H   LIG d   1       3.668  -1.420 -12.693  0.00  0.00     0.080 H 
ATOM     14  C   LIG d   1       2.401  -0.584 -10.389  0.00  0.00     0.145 A 
ATOM     15  C   LIG d   1       2.822  -1.703  -9.670  0.00  0.00     0.081 A 
ATOM     16  C   LIG d   1       2.392   0.662  -9.786  0.00  0.00     0.019 A 
ATOM     17  C   LIG d   1       3.234  -1.568  -8.356  0.00  0.00    -0.012 A 
ATOM     18  C   LIG d   1       3.225  -0.317  -7.754  0.00  0.00     0.082 A 
ATOM     19  H   LIG d   1       3.560  -2.433  -7.798  0.00  0.00     0.066 H 
ATOM     20  C   LIG d   1       2.804   0.796  -8.472  0.00  0.00     0.149 A 
ATOM     21  F   LIG d   1       2.795   2.014  -7.885  0.00  0.00    -0.203 F 
ATOM     22  H   LIG d   1       2.064   1.528 -10.342  0.00  0.00     0.068 H 
BRANCH  18  23
ATOM     23  N   LIG d   1       3.642  -0.175  -6.421  0.00  0.00    -0.200 N 
ATOM     24  C   LIG d   1       4.917  -0.272  -5.991  0.00  0.00     0.254 A 
ATOM     25  C   LIG d   1       4.928  -0.058  -4.534  0.00  0.00     0.023 A 
ATOM     26  O   LIG d   1       5.888  -0.493  -6.686  0.00  0.00    -0.270 OA
ATOM     27  C   LIG d   1       3.654   0.146  -4.157  0.00  0.00     0.023 A 
ATOM     28  C   LIG d   1       6.104  -0.060  -3.593  0.00  0.00    -0.022 C 
ATOM     29  C   LIG d   1       2.828   0.071  -5.375  0.00  0.00     0.254 A 
ATOM     30  C   LIG d   1       3.217   0.399  -2.739  0.00  0.00    -0.022 C 
ATOM     31  O   LIG d   1       1.623   0.207  -5.426  0.00  0.00    -0.270 OA
ATOM     32  C   LIG d   1       4.355  -0.024  -1.801  0.00  0.00    -0.049 C 
ATOM     33  H   LIG d   1       3.003   1.459  -2.603  0.00  0.00     0.032 H 
ATOM     34  H   LIG d   1       2.324  -0.187  -2.520  0.00  0.00     0.032 H 
ATOM     35  C   LIG d   1       5.669   0.600  -2.277  0.00  0.00    -0.049 C 
ATOM     36  H   LIG d   1       4.445  -1.111  -1.806  0.00  0.00     0.027 H 
ATOM     37  H   LIG d   1       4.138   0.317  -0.789  0.00  0.00     0.027 H 
ATOM     38  H   LIG d   1       6.440   0.446  -1.522  0.00  0.00     0.027 H 
ATOM     39  H   LIG d   1       5.527   1.668  -2.438  0.00  0.00     0.027 H 
ATOM     40  H   LIG d   1       6.420  -1.086  -3.403  0.00  0.00     0.032 H 
ATOM     41  H   LIG d   1       6.927   0.502  -4.032  0.00  0.00     0.032 H 
ENDBRANCH  18  23
ENDBRANCH   4   7
ENDBRANCH   2   4
TORSDOF 3
ENDMDL
MODEL 5
REMARK VINA RESULT:      -6.0      2.378      2.800
REMARK  3 active torsions:
REMARK  status: ('A' for Active; 'I' for Inactive)
REMARK    1  A    between atoms: C_2  and  C_3 
REMARK    2  A    between atoms: C_3  and  N_4 
REMARK    3  A    between atoms: C_7  and  N_16 
ROOT
ATOM      1  C   LIG d   1       1.304  -1.284 -10.188  0.00  0.00    -0.118 C 
ATOM      2  C   LIG d   1       2.358  -0.798 -10.368  0.00  0.00    -0.086 C 
ATOM      3  H   LIG d   1       0.362  -1.719 -10.027  0.00  0.00     0.123 H 
ENDROOT
BRANCH   2   4
ATOM      4  C   LIG d   1       3.679  -0.188 -10.593  0.00  0.00     0.081 C 
ATOM      5  H   LIG d   1       3.641   0.443 -11.481  0.00  0.00     0.060 H 
ATOM      6  H   LIG d   1       3.952   0.416  -9.728  0.00  0.00     0.060 H 
BRANCH   4   7
ATOM      7  N   LIG d   1       4.677  -1.244 -10.787  0.00  0.00    -0.254 N 
ATOM      8  C   LIG d   1       4.840  -1.820 -11.998  0.00  0.00     0.258 C 
ATOM      9  C   LIG d   1       5.849  -2.926 -12.170  0.00  0.00     0.166 C 
ATOM     10  O   LIG d   1       4.178  -1.446 -12.943  0.00  0.00    -0.272 OA
ATOM     11  O   LIG d   1       6.938  -2.730 -11.265  0.00  0.00    -0.481 OA
ATOM     12  H   LIG d   1       6.222  -2.923 -13.194  0.00  0.00     0.080 H 
ATOM     13  H   LIG d   1       5.372  -3.883 -11.962  0.00  0.00     0.080 H 
ATOM     14  C   LIG d   1       6.618  -2.427  -9.978  0.00  0.00     0.145 A 
ATOM     15  C   LIG d   1       5.474  -1.675  -9.715  0.00  0.00     0.081 A 
ATOM     16  C   LIG d   1       7.417  -2.858  -8.933  0.00  0.00     0.019 A 
ATOM     17  C   LIG d   1       5.133  -1.362  -8.411  0.00  0.00    -0.012 A 
ATOM     18  C   LIG d   1       5.935  -1.797  -7.365  0.00  0.00     0.082 A 
ATOM     19  H   LIG d   1       4.246  -0.780  -8.207  0.00  0.00     0.066 H 
ATOM     20  C   LIG d   1       7.076  -2.545  -7.629  0.00  0.00     0.149 A 
ATOM     21  F   LIG d   1       7.857  -2.967  -6.609  0.00  0.00    -0.203 F 
ATOM     22  H   LIG d   1       8.305  -3.439  -9.135  0.00  0.00     0.068 H 
BRANCH  18  23
ATOM     23  N   LIG d   1       5.593  -1.482  -6.040  0.00  0.00    -0.200 N 
ATOM     24  C   LIG d   1       4.851  -2.258  -5.223  0.00  0.00     0.254 A 
ATOM     25  C   LIG d   1       4.727  -1.573  -3.926  0.00  0.00     0.023 A 
ATOM     26  O   LIG d   1       4.372  -3.336  -5.507  0.00  0.00    -0.270 OA
ATOM     27  C   LIG d   1       5.394  -0.409  -4.030  0.00  0.00     0.023 A 
ATOM     28  C   LIG d   1       4.005  -2.031  -2.686  0.00  0.00    -0.022 C 
ATOM     29  C   LIG d   1       5.951  -0.355  -5.393  0.00  0.00     0.254 A 
ATOM     30  C   LIG d   1       5.511   0.606  -2.925  0.00  0.00    -0.022 C 
ATOM     31  O   LIG d   1       6.616   0.551  -5.853  0.00  0.00    -0.270 OA
ATOM     32  C   LIG d   1       4.439   0.297  -1.871  0.00  0.00    -0.049 C 
ATOM     33  H   LIG d   1       6.500   0.544  -2.472  0.00  0.00     0.032 H 
ATOM     34  H   LIG d   1       5.353   1.607  -3.327  0.00  0.00     0.032 H 
ATOM     35  C   LIG d   1       4.498  -1.188  -1.502  0.00  0.00    -0.049 C 
ATOM     36  H   LIG d   1       3.455   0.533  -2.274  0.00  0.00     0.027 H 
ATOM     37  H   LIG d   1       4.621   0.899  -0.980  0.00  0.00     0.027 H 
ATOM     38  H   LIG d   1       3.862  -1.372  -0.636  0.00  0.00     0.027 H 
ATOM     39  H   LIG d   1       5.525  -1.463  -1.264  0.00  0.00     0.027 H 
ATOM     40  H   LIG d   1       2.932  -1.892  -2.814  0.00  0.00     0.032 H 
ATOM     41  H   LIG d   1       4.220  -3.083  -2.503  0.00  0.00     0.032 H 
ENDBRANCH  18  23
ENDBRANCH   4   7
ENDBRANCH   2   4
TORSDOF 3
ENDMDL
MODEL 6
REMARK VINA RESULT:      -6.0      3.351      4.860
REMARK  3 active torsions:
REMARK  status: ('A' for Active; 'I' for Inactive)
REMARK    1  A    between atoms: C_2  and  C_3 
REMARK    2  A    between atoms: C_3  and  N_4 
REMARK    3  A    between atoms: C_7  and  N_16 
ROOT
ATOM      1  C   LIG d   1       1.287  -2.990 -10.291  0.00  0.00    -0.118 C 
ATOM      2  C   LIG d   1       2.355  -2.503 -10.296  0.00  0.00    -0.086 C 
ATOM      3  H   LIG d   1       0.331  -3.426 -10.286  0.00  0.00     0.123 H 
ENDROOT
BRANCH   2   4
ATOM      4  C   LIG d   1       3.695  -1.892 -10.302  0.00  0.00     0.081 C 
ATOM      5  H   LIG d   1       4.446  -2.662 -10.129  0.00  0.00     0.060 H 
ATOM      6  H   LIG d   1       3.873  -1.419 -11.267  0.00  0.00     0.060 H 
BRANCH   4   7
ATOM      7  N   LIG d   1       3.776  -0.884  -9.241  0.00  0.00    -0.254 N 
ATOM      8  C   LIG d   1       3.605   0.426  -9.527  0.00  0.00     0.258 C 
ATOM      9  C   LIG d   1       3.724   1.452  -8.428  0.00  0.00     0.166 C 
ATOM     10  O   LIG d   1       3.354   0.774 -10.661  0.00  0.00    -0.272 OA
ATOM     11  O   LIG d   1       3.306   0.879  -7.187  0.00  0.00    -0.481 OA
ATOM     12  H   LIG d   1       3.096   2.310  -8.662  0.00  0.00     0.080 H 
ATOM     13  H   LIG d   1       4.762   1.774  -8.349  0.00  0.00     0.080 H 
ATOM     14  C   LIG d   1       3.792  -0.356  -6.887  0.00  0.00     0.145 A 
ATOM     15  C   LIG d   1       4.038  -1.263  -7.917  0.00  0.00     0.081 A 
ATOM     16  C   LIG d   1       4.043  -0.715  -5.574  0.00  0.00     0.019 A 
ATOM     17  C   LIG d   1       4.537  -2.522  -7.628  0.00  0.00    -0.012 A 
ATOM     18  C   LIG d   1       4.789  -2.879  -6.311  0.00  0.00     0.082 A 
ATOM     19  H   LIG d   1       4.728  -3.225  -8.425  0.00  0.00     0.066 H 
ATOM     20  C   LIG d   1       4.541  -1.974  -5.286  0.00  0.00     0.149 A 
ATOM     21  F   LIG d   1       4.787  -2.323  -4.003  0.00  0.00    -0.203 F 
ATOM     22  H   LIG d   1       3.851  -0.013  -4.775  0.00  0.00     0.068 H 
BRANCH  18  23
ATOM     23  N   LIG d   1       5.294  -4.155  -6.013  0.00  0.00    -0.200 N 
ATOM     24  C   LIG d   1       6.593  -4.443  -5.790  0.00  0.00     0.254 A 
ATOM     25  C   LIG d   1       6.702  -5.885  -5.511  0.00  0.00     0.023 A 
ATOM     26  O   LIG d   1       7.512  -3.651  -5.812  0.00  0.00    -0.270 OA
ATOM     27  C   LIG d   1       5.460  -6.396  -5.591  0.00  0.00     0.023 A 
ATOM     28  C   LIG d   1       7.934  -6.692  -5.195  0.00  0.00    -0.022 C 
ATOM     29  C   LIG d   1       4.556  -5.279  -5.914  0.00  0.00     0.254 A 
ATOM     30  C   LIG d   1       5.123  -7.848  -5.381  0.00  0.00    -0.022 C 
ATOM     31  O   LIG d   1       3.354  -5.357  -6.065  0.00  0.00    -0.270 OA
ATOM     32  C   LIG d   1       6.419  -8.664  -5.482  0.00  0.00    -0.049 C 
ATOM     33  H   LIG d   1       4.680  -7.984  -4.394  0.00  0.00     0.032 H 
ATOM     34  H   LIG d   1       4.421  -8.177  -6.147  0.00  0.00     0.032 H 
ATOM     35  C   LIG d   1       7.492  -8.032  -4.593  0.00  0.00    -0.049 C 
ATOM     36  H   LIG d   1       6.762  -8.672  -6.517  0.00  0.00     0.027 H 
ATOM     37  H   LIG d   1       6.231  -9.686  -5.154  0.00  0.00     0.027 H 
ATOM     38  H   LIG d   1       8.350  -8.701  -4.528  0.00  0.00     0.027 H 
ATOM     39  H   LIG d   1       7.086  -7.865  -3.596  0.00  0.00     0.027 H 
ATOM     40  H   LIG d   1       8.501  -6.868  -6.109  0.00  0.00     0.032 H 
ATOM     41  H   LIG d   1       8.552  -6.152  -4.478  0.00  0.00     0.032 H 
ENDBRANCH  18  23
ENDBRANCH   4   7
ENDBRANCH   2   4
TORSDOF 3
ENDMDL
MODEL 7
REMARK VINA RESULT:      -5.9      5.468      7.556
REMARK  3 active torsions:
REMARK  status: ('A' for Active; 'I' for Inactive)
REMARK    1  A    between atoms: C_2  and  C_3 
REMARK    2  A    between atoms: C_3  and  N_4 
REMARK    3  A    between atoms: C_7  and  N_16 
ROOT
ATOM      1  C   LIG d   1       8.917  -8.013  -2.177  0.00  0.00    -0.118 C 
ATOM      2  C   LIG d   1       9.375  -7.165  -2.847  0.00  0.00    -0.086 C 
ATOM      3  H   LIG d   1       8.507  -8.772  -1.577  0.00  0.00     0.123 H 
ENDROOT
BRANCH   2   4
ATOM      4  C   LIG d   1       9.949  -6.102  -3.688  0.00  0.00     0.081 C 
ATOM      5  H   LIG d   1       9.638  -5.130  -3.307  0.00  0.00     0.060 H 
ATOM      6  H   LIG d   1      11.037  -6.170  -3.666  0.00  0.00     0.060 H 
BRANCH   4   7
ATOM      7  N   LIG d   1       9.477  -6.261  -5.066  0.00  0.00    -0.254 N 
ATOM      8  C   LIG d   1      10.115  -7.094  -5.917  0.00  0.00     0.258 C 
ATOM      9  C   LIG d   1       9.634  -7.221  -7.340  0.00  0.00     0.166 C 
ATOM     10  O   LIG d   1      11.069  -7.740  -5.537  0.00  0.00    -0.272 OA
ATOM     11  O   LIG d   1       8.221  -7.011  -7.392  0.00  0.00    -0.481 OA
ATOM     12  H   LIG d   1       9.868  -8.216  -7.717  0.00  0.00     0.080 H 
ATOM     13  H   LIG d   1      10.135  -6.474  -7.956  0.00  0.00     0.080 H 
ATOM     14  C   LIG d   1       7.734  -5.942  -6.704  0.00  0.00     0.145 A 
ATOM     15  C   LIG d   1       8.360  -5.546  -5.523  0.00  0.00     0.081 A 
ATOM     16  C   LIG d   1       6.629  -5.249  -7.168  0.00  0.00     0.019 A 
ATOM     17  C   LIG d   1       7.879  -4.459  -4.814  0.00  0.00    -0.012 A 
ATOM     18  C   LIG d   1       6.772  -3.765  -5.282  0.00  0.00     0.082 A 
ATOM     19  H   LIG d   1       8.363  -4.151  -3.899  0.00  0.00     0.066 H 
ATOM     20  C   LIG d   1       6.149  -4.162  -6.459  0.00  0.00     0.149 A 
ATOM     21  F   LIG d   1       5.070  -3.486  -6.913  0.00  0.00    -0.203 F 
ATOM     22  H   LIG d   1       6.143  -5.557  -8.082  0.00  0.00     0.068 H 
BRANCH  18  23
ATOM     23  N   LIG d   1       6.281  -2.661  -4.566  0.00  0.00    -0.200 N 
ATOM     24  C   LIG d   1       5.117  -2.631  -3.886  0.00  0.00     0.254 A 
ATOM     25  C   LIG d   1       4.975  -1.298  -3.276  0.00  0.00     0.023 A 
ATOM     26  O   LIG d   1       4.325  -3.546  -3.789  0.00  0.00    -0.270 OA
ATOM     27  C   LIG d   1       6.059  -0.586  -3.631  0.00  0.00     0.023 A 
ATOM     28  C   LIG d   1       3.856  -0.772  -2.416  0.00  0.00    -0.022 C 
ATOM     29  C   LIG d   1       6.898  -1.467  -4.461  0.00  0.00     0.254 A 
ATOM     30  C   LIG d   1       6.310   0.841  -3.223  0.00  0.00    -0.022 C 
ATOM     31  O   LIG d   1       7.963  -1.168  -4.964  0.00  0.00    -0.270 OA
ATOM     32  C   LIG d   1       4.987   1.440  -2.727  0.00  0.00    -0.049 C 
ATOM     33  H   LIG d   1       7.049   0.871  -2.423  0.00  0.00     0.032 H 
ATOM     34  H   LIG d   1       6.671   1.410  -4.080  0.00  0.00     0.032 H 
ATOM     35  C   LIG d   1       4.349   0.496  -1.705  0.00  0.00    -0.049 C 
ATOM     36  H   LIG d   1       4.310   1.575  -3.571  0.00  0.00     0.027 H 
ATOM     37  H   LIG d   1       5.179   2.406  -2.258  0.00  0.00     0.027 H 
ATOM     38  H   LIG d   1       3.506   0.994  -1.226  0.00  0.00     0.027 H 
ATOM     39  H   LIG d   1       5.087   0.224  -0.951  0.00  0.00     0.027 H 
ATOM     40  H   LIG d   1       2.995  -0.532  -3.041  0.00  0.00     0.032 H 
ATOM     41  H   LIG d   1       3.576  -1.522  -1.678  0.00  0.00     0.032 H 
ENDBRANCH  18  23
ENDBRANCH   4   7
ENDBRANCH   2   4
TORSDOF 3
ENDMDL
MODEL 8
REMARK VINA RESULT:      -5.8      5.976      8.536
REMARK  3 active torsions:
REMARK  status: ('A' for Active; 'I' for Inactive)
REMARK    1  A    between atoms: C_2  and  C_3 
REMARK    2  A    between atoms: C_3  and  N_4 
REMARK    3  A    between atoms: C_7  and  N_16 
ROOT
ATOM      1  C   LIG d   1       4.661   0.654  -1.668  0.00  0.00    -0.118 C 
ATOM      2  C   LIG d   1       4.887   0.363  -2.783  0.00  0.00    -0.086 C 
ATOM      3  H   LIG d   1       4.459   0.913  -0.671  0.00  0.00     0.123 H 
ENDROOT
BRANCH   2   4
ATOM      4  C   LIG d   1       5.170  -0.000  -4.181  0.00  0.00     0.081 C 
ATOM      5  H   LIG d   1       4.315  -0.532  -4.599  0.00  0.00     0.060 H 
ATOM      6  H   LIG d   1       5.355   0.904  -4.761  0.00  0.00     0.060 H 
BRANCH   4   7
ATOM      7  N   LIG d   1       6.354  -0.863  -4.231  0.00  0.00    -0.254 N 
ATOM      8  C   LIG d   1       6.258  -2.177  -3.932  0.00  0.00     0.258 C 
ATOM      9  C   LIG d   1       7.492  -3.041  -3.958  0.00  0.00     0.166 C 
ATOM     10  O   LIG d   1       5.182  -2.658  -3.646  0.00  0.00    -0.272 OA
ATOM     11  O   LIG d   1       8.407  -2.547  -4.939  0.00  0.00    -0.481 OA
ATOM     12  H   LIG d   1       7.214  -4.066  -4.204  0.00  0.00     0.080 H 
ATOM     13  H   LIG d   1       7.966  -3.021  -2.976  0.00  0.00     0.080 H 
ATOM     14  C   LIG d   1       8.634  -1.205  -4.943  0.00  0.00     0.145 A 
ATOM     15  C   LIG d   1       7.605  -0.335  -4.586  0.00  0.00     0.081 A 
ATOM     16  C   LIG d   1       9.873  -0.701  -5.298  0.00  0.00     0.019 A 
ATOM     17  C   LIG d   1       7.821   1.032  -4.582  0.00  0.00    -0.012 A 
ATOM     18  C   LIG d   1       9.066   1.535  -4.936  0.00  0.00     0.082 A 
ATOM     19  H   LIG d   1       7.025   1.706  -4.304  0.00  0.00     0.066 H 
ATOM     20  C   LIG d   1      10.090   0.666  -5.294  0.00  0.00     0.149 A 
ATOM     21  F   LIG d   1      11.301   1.157  -5.640  0.00  0.00    -0.203 F 
ATOM     22  H   LIG d   1      10.671  -1.374  -5.577  0.00  0.00     0.068 H 
BRANCH  18  23
ATOM     23  N   LIG d   1       9.290   2.921  -4.933  0.00  0.00    -0.200 N 
ATOM     24  C   LIG d   1       9.329   3.704  -6.031  0.00  0.00     0.254 A 
ATOM     25  C   LIG d   1       9.584   5.089  -5.598  0.00  0.00     0.023 A 
ATOM     26  O   LIG d   1       9.177   3.333  -7.176  0.00  0.00    -0.270 OA
ATOM     27  C   LIG d   1       9.697   5.068  -4.258  0.00  0.00     0.023 A 
ATOM     28  C   LIG d   1       9.708   6.330  -6.443  0.00  0.00    -0.022 C 
ATOM     29  C   LIG d   1       9.506   3.670  -3.834  0.00  0.00     0.254 A 
ATOM     30  C   LIG d   1       9.968   6.280  -3.408  0.00  0.00    -0.022 C 
ATOM     31  O   LIG d   1       9.539   3.263  -2.690  0.00  0.00    -0.270 OA
ATOM     32  C   LIG d   1      10.493   7.399  -4.319  0.00  0.00    -0.049 C 
ATOM     33  H   LIG d   1       9.047   6.603  -2.923  0.00  0.00     0.032 H 
ATOM     34  H   LIG d   1      10.717   6.040  -2.654  0.00  0.00     0.032 H 
ATOM     35  C   LIG d   1       9.565   7.553  -5.527  0.00  0.00    -0.049 C 
ATOM     36  H   LIG d   1      11.497   7.148  -4.660  0.00  0.00     0.027 H 
ATOM     37  H   LIG d   1      10.522   8.336  -3.762  0.00  0.00     0.027 H 
ATOM     38  H   LIG d   1       9.834   8.453  -6.079  0.00  0.00     0.027 H 
ATOM     39  H   LIG d   1       8.533   7.630  -5.186  0.00  0.00     0.027 H 
ATOM     40  H   LIG d   1      10.684   6.346  -6.928  0.00  0.00     0.032 H 
ATOM     41  H   LIG d   1       8.923   6.341  -7.197  0.00  0.00     0.032 H 
ENDBRANCH  18  23
ENDBRANCH   4   7
ENDBRANCH   2   4
TORSDOF 3
ENDMDL
MODEL 9
REMARK VINA RESULT:      -5.8      1.876      7.060
REMARK  3 active torsions:
REMARK  status: ('A' for Active; 'I' for Inactive)
REMARK    1  A    between atoms: C_2  and  C_3 
REMARK    2  A    between atoms: C_3  and  N_4 
REMARK    3  A    between atoms: C_7  and  N_16 
ROOT
ATOM      1  C   LIG d   1       3.972  -5.215  -6.535  0.00  0.00    -0.118 C 
ATOM      2  C   LIG d   1       4.612  -4.241  -6.393  0.00  0.00    -0.086 C 
ATOM      3  H   LIG d   1       3.400  -6.087  -6.661  0.00  0.00     0.123 H 
ENDROOT
BRANCH   2   4
ATOM      4  C   LIG d   1       5.414  -3.020  -6.216  0.00  0.00     0.081 C 
ATOM      5  H   LIG d   1       6.199  -3.204  -5.482  0.00  0.00     0.060 H 
ATOM      6  H   LIG d   1       5.865  -2.740  -7.168  0.00  0.00     0.060 H 
BRANCH   4   7
ATOM      7  N   LIG d   1       4.551  -1.933  -5.746  0.00  0.00    -0.254 N 
ATOM      8  C   LIG d   1       4.311  -1.770  -4.426  0.00  0.00     0.258 C 
ATOM      9  C   LIG d   1       3.395  -0.665  -3.964  0.00  0.00     0.166 C 
ATOM     10  O   LIG d   1       4.832  -2.508  -3.617  0.00  0.00    -0.272 OA
ATOM     11  O   LIG d   1       3.478   0.439  -4.867  0.00  0.00    -0.481 OA
ATOM     12  H   LIG d   1       3.689  -0.342  -2.966  0.00  0.00     0.080 H 
ATOM     13  H   LIG d   1       2.370  -1.036  -3.937  0.00  0.00     0.080 H 
ATOM     14  C   LIG d   1       3.420   0.151  -6.196  0.00  0.00     0.145 A 
ATOM     15  C   LIG d   1       3.958  -1.049  -6.660  0.00  0.00     0.081 A 
ATOM     16  C   LIG d   1       2.834   1.035  -7.084  0.00  0.00     0.019 A 
ATOM     17  C   LIG d   1       3.903  -1.359  -8.007  0.00  0.00    -0.012 A 
ATOM     18  C   LIG d   1       3.313  -0.470  -8.896  0.00  0.00     0.082 A 
ATOM     19  H   LIG d   1       4.319  -2.288  -8.368  0.00  0.00     0.066 H 
ATOM     20  C   LIG d   1       2.779   0.726  -8.432  0.00  0.00     0.149 A 
ATOM     21  F   LIG d   1       2.205   1.590  -9.299  0.00  0.00    -0.203 F 
ATOM     22  H   LIG d   1       2.419   1.966  -6.726  0.00  0.00     0.068 H 
BRANCH  18  23
ATOM     23  N   LIG d   1       3.255  -0.781 -10.265  0.00  0.00    -0.200 N 
ATOM     24  C   LIG d   1       2.347  -1.597 -10.838  0.00  0.00     0.254 A 
ATOM     25  C   LIG d   1       2.629  -1.653 -12.283  0.00  0.00     0.023 A 
ATOM     26  O   LIG d   1       1.451  -2.181 -10.265  0.00  0.00    -0.270 OA
ATOM     27  C   LIG d   1       3.702  -0.874 -12.505  0.00  0.00     0.023 A 
ATOM     28  C   LIG d   1       1.897  -2.418 -13.354  0.00  0.00    -0.022 C 
ATOM     29  C   LIG d   1       4.102  -0.313 -11.203  0.00  0.00     0.254 A 
ATOM     30  C   LIG d   1       4.330  -0.657 -13.856  0.00  0.00    -0.022 C 
ATOM     31  O   LIG d   1       5.035   0.440 -11.010  0.00  0.00    -0.270 OA
ATOM     32  C   LIG d   1       3.828  -1.755 -14.803  0.00  0.00    -0.049 C 
ATOM     33  H   LIG d   1       4.044   0.320 -14.243  0.00  0.00     0.032 H 
ATOM     34  H   LIG d   1       5.415  -0.715 -13.770  0.00  0.00     0.032 H 
ATOM     35  C   LIG d   1       2.302  -1.846 -14.719  0.00  0.00    -0.049 C 
ATOM     36  H   LIG d   1       4.266  -2.711 -14.515  0.00  0.00     0.027 H 
ATOM     37  H   LIG d   1       4.122  -1.515 -15.825  0.00  0.00     0.027 H 
ATOM     38  H   LIG d   1       1.933  -2.497 -15.510  0.00  0.00     0.027 H 
ATOM     39  H   LIG d   1       1.873  -0.851 -14.836  0.00  0.00     0.027 H 
ATOM     40  H   LIG d   1       2.169  -3.473 -13.302  0.00  0.00     0.032 H 
ATOM     41  H   LIG d   1       0.822  -2.309 -13.214  0.00  0.00     0.032 H 
ENDBRANCH  18  23
ENDBRANCH   4   7
ENDBRANCH   2   4
TORSDOF 3
ENDMDL
MODEL 10
REMARK VINA RESULT:      -5.8      5.578      7.843
REMARK  3 active torsions:
REMARK  status: ('A' for Active; 'I' for Inactive)
REMARK    1  A    between atoms: C_2  and  C_3 
REMARK    2  A    between atoms: C_3  and  N_4 
REMARK    3  A    between atoms: C_7  and  N_16 
ROOT
ATOM      1  C   LIG d   1      12.839  -3.071  -5.260  0.00  0.00    -0.118 C 
ATOM      2  C   LIG d   1      12.661  -2.010  -4.790  0.00  0.00    -0.086 C 
ATOM      3  H   LIG d   1      12.997  -4.020  -5.680  0.00  0.00     0.123 H 
ENDROOT
BRANCH   2   4
ATOM      4  C   LIG d   1      12.439  -0.679  -4.200  0.00  0.00     0.081 C 
ATOM      5  H   LIG d   1      11.568  -0.712  -3.546  0.00  0.00     0.060 H 
ATOM      6  H   LIG d   1      13.316  -0.387  -3.623  0.00  0.00     0.060 H 
BRANCH   4   7
ATOM      7  N   LIG d   1      12.210   0.297  -5.269  0.00  0.00    -0.254 N 
ATOM      8  C   LIG d   1      13.247   0.968  -5.818  0.00  0.00     0.258 C 
ATOM      9  C   LIG d   1      12.990   1.991  -6.895  0.00  0.00     0.166 C 
ATOM     10  O   LIG d   1      14.380   0.746  -5.447  0.00  0.00    -0.272 OA
ATOM     11  O   LIG d   1      11.837   1.613  -7.652  0.00  0.00    -0.481 OA
ATOM     12  H   LIG d   1      13.854   2.051  -7.554  0.00  0.00     0.080 H 
ATOM     13  H   LIG d   1      12.818   2.963  -6.433  0.00  0.00     0.080 H 
ATOM     14  C   LIG d   1      10.742   1.220  -6.947  0.00  0.00     0.145 A 
ATOM     15  C   LIG d   1      10.912   0.552  -5.735  0.00  0.00     0.081 A 
ATOM     16  C   LIG d   1       9.468   1.477  -7.422  0.00  0.00     0.019 A 
ATOM     17  C   LIG d   1       9.808   0.148  -5.004  0.00  0.00    -0.012 A 
ATOM     18  C   LIG d   1       8.531   0.409  -5.483  0.00  0.00     0.082 A 
ATOM     19  H   LIG d   1       9.938  -0.368  -4.065  0.00  0.00     0.066 H 
ATOM     20  C   LIG d   1       8.364   1.074  -6.692  0.00  0.00     0.149 A 
ATOM     21  F   LIG d   1       7.120   1.326  -7.156  0.00  0.00    -0.203 F 
ATOM     22  H   LIG d   1       9.335   1.993  -8.362  0.00  0.00     0.068 H 
BRANCH  18  23
ATOM     23  N   LIG d   1       7.408   0.002  -4.744  0.00  0.00    -0.200 N 
ATOM     24  C   LIG d   1       6.797  -1.196  -4.855  0.00  0.00     0.254 A 
ATOM     25  C   LIG d   1       5.669  -1.225  -3.910  0.00  0.00     0.023 A 
ATOM     26  O   LIG d   1       7.124  -2.095  -5.602  0.00  0.00    -0.270 OA
ATOM     27  C   LIG d   1       5.650  -0.036  -3.282  0.00  0.00     0.023 A 
ATOM     28  C   LIG d   1       4.688  -2.339  -3.650  0.00  0.00    -0.022 C 
ATOM     29  C   LIG d   1       6.771   0.752  -3.822  0.00  0.00     0.254 A 
ATOM     30  C   LIG d   1       4.643   0.357  -2.234  0.00  0.00    -0.022 C 
ATOM     31  O   LIG d   1       7.071   1.882  -3.493  0.00  0.00    -0.270 OA
ATOM     32  C   LIG d   1       3.458  -0.614  -2.317  0.00  0.00    -0.049 C 
ATOM     33  H   LIG d   1       5.099   0.297  -1.246  0.00  0.00     0.032 H 
ATOM     34  H   LIG d   1       4.298   1.374  -2.419  0.00  0.00     0.032 H 
ATOM     35  C   LIG d   1       3.975  -2.054  -2.322  0.00  0.00    -0.049 C 
ATOM     36  H   LIG d   1       2.897  -0.425  -3.233  0.00  0.00     0.027 H 
ATOM     37  H   LIG d   1       2.806  -0.465  -1.455  0.00  0.00     0.027 H 
ATOM     38  H   LIG d   1       3.137  -2.742  -2.205  0.00  0.00     0.027 H 
ATOM     39  H   LIG d   1       4.675  -2.192  -1.499  0.00  0.00     0.027 H 
ATOM     40  H   LIG d   1       3.958  -2.379  -4.459  0.00  0.00     0.032 H 
ATOM     41  H   LIG d   1       5.219  -3.288  -3.587  0.00  0.00     0.032 H 
ENDBRANCH  18  23
ENDBRANCH   4   7
ENDBRANCH   2   4
TORSDOF 3
ENDMDL
