MODEL 1
REMARK VINA RESULT:      -6.5      0.000      0.000
REMARK  14 active torsions:
REMARK  status: ('A' for Active; 'I' for Inactive)
REMARK    1  A    between atoms: C_1  and  C_2 
REMARK    2  A    between atoms: C_5  and  O_38 
REMARK    3  A    between atoms: C_7  and  C_35 
REMARK    4  A    between atoms: C_7  and  C_36 
REMARK    5  A    between atoms: C_14  and  N_16 
REMARK       I    between atoms: N_16  and  C_17 
REMARK    6  A    between atoms: C_17  and  C_19 
REMARK    7  A    between atoms: C_19  and  C_20 
REMARK    8  A    between atoms: C_20  and  C_21 
REMARK    9  A    between atoms: C_20  and  C_22 
REMARK   10  A    between atoms: C_20  and  C_23 
REMARK   11  A    between atoms: C_24  and  C_26 
REMARK   12  A    between atoms: C_26  and  C_27 
REMARK       I    between atoms: C_27  and  N_29 
REMARK   13  A    between atoms: N_29  and  C_30 
REMARK   14  A    between atoms: C_36  and  O_37 
ROOT
ATOM      1  C   LIG d   1      10.949   4.433  -5.109  0.00  0.00    -0.019 C 
ATOM      2  C   LIG d   1      11.708   5.709  -4.732  0.00  0.00    -0.044 C 
ATOM      3  C   LIG d   1      12.667   6.108  -5.851  0.00  0.00    -0.026 C 
ATOM      4  C   LIG d   1      11.857   6.375  -7.123  0.00  0.00     0.063 C 
ATOM      5  H   LIG d   1      11.126   7.160  -6.933  0.00  0.00     0.060 H 
ATOM      6  C   LIG d   1      11.138   5.088  -7.526  0.00  0.00     0.021 C 
ATOM      7  C   LIG d   1      10.181   4.643  -6.417  0.00  0.00    -0.021 C 
ATOM      8  H   LIG d   1       9.402   5.392  -6.274  0.00  0.00     0.032 H 
ATOM      9  C   LIG d   1       9.566   3.300  -6.858  0.00  0.00    -0.016 C 
ATOM     10  C   LIG d   1       8.914   2.658  -5.686  0.00  0.00     0.015 A 
ATOM     11  C   LIG d   1       9.057   2.980  -4.375  0.00  0.00     0.058 A 
ATOM     12  N   LIG d   1       8.359   2.244  -3.513  0.00  0.00    -0.229 NA
ATOM     13  C   LIG d   1       7.572   1.263  -3.904  0.00  0.00     0.165 A 
ATOM     14  S   LIG d   1       7.770   1.303  -5.630  0.00  0.00    -0.057 SA
ATOM     15  C   LIG d   1       9.974   4.122  -3.966  0.00  0.00     0.016 C 
ATOM     16  H   LIG d   1       9.376   5.008  -3.749  0.00  0.00     0.037 H 
ATOM     17  H   LIG d   1      10.995   6.517  -4.564  0.00  0.00     0.027 H 
ATOM     18  H   LIG d   1      12.273   5.535  -3.816  0.00  0.00     0.027 H 
ATOM     19  H   LIG d   1      13.207   7.011  -5.565  0.00  0.00     0.029 H 
ATOM     20  H   LIG d   1      13.375   5.299  -6.031  0.00  0.00     0.029 H 
ATOM     21  H   LIG d   1       8.826   3.477  -7.636  0.00  0.00     0.032 H 
ATOM     22  H   LIG d   1      10.352   2.649  -7.242  0.00  0.00     0.032 H 
ENDROOT
BRANCH  13  23
ATOM     23  N   LIG d   1       6.786   0.414  -3.134  0.00  0.00    -0.265 N 
ATOM     24  C   LIG d   1       5.509   0.745  -2.855  0.00  0.00     0.219 C 
ATOM     25  O   LIG d   1       5.047   1.784  -3.275  0.00  0.00    -0.275 OA
ATOM     26  H   LIG d   1       7.155  -0.418  -2.798  0.00  0.00     0.157 HD
BRANCH  24  27
ATOM     27  C   LIG d   1       4.657  -0.176  -2.022  0.00  0.00     0.029 C 
ATOM     28  H   LIG d   1       5.296  -0.775  -1.373  0.00  0.00     0.036 H 
ATOM     29  H   LIG d   1       3.972   0.414  -1.412  0.00  0.00     0.036 H 
BRANCH  27  30
ATOM     30  C   LIG d   1       3.855  -1.099  -2.940  0.00  0.00    -0.029 C 
BRANCH  30  31
ATOM     31  C   LIG d   1       2.456  -0.517  -3.153  0.00  0.00    -0.060 C 
ATOM     32  H   LIG d   1       1.773  -0.930  -2.409  0.00  0.00     0.024 H 
ATOM     33  H   LIG d   1       2.494   0.567  -3.048  0.00  0.00     0.024 H 
ATOM     34  H   LIG d   1       2.103  -0.774  -4.151  0.00  0.00     0.024 H 
ENDBRANCH  30  31
BRANCH  30  35
ATOM     35  C   LIG d   1       4.567  -1.222  -4.289  0.00  0.00    -0.060 C 
ATOM     36  H   LIG d   1       4.822  -2.265  -4.472  0.00  0.00     0.024 H 
ATOM     37  H   LIG d   1       3.909  -0.864  -5.081  0.00  0.00     0.024 H 
ATOM     38  H   LIG d   1       5.478  -0.623  -4.274  0.00  0.00     0.024 H 
ENDBRANCH  30  35
BRANCH  30  39
ATOM     39  C   LIG d   1       3.738  -2.484  -2.298  0.00  0.00    -0.060 C 
ATOM     40  H   LIG d   1       4.730  -2.841  -2.023  0.00  0.00     0.024 H 
ATOM     41  H   LIG d   1       3.116  -2.418  -1.405  0.00  0.00     0.024 H 
ATOM     42  H   LIG d   1       3.286  -3.176  -3.007  0.00  0.00     0.024 H 
ENDBRANCH  30  39
ENDBRANCH  27  30
ENDBRANCH  24  27
ENDBRANCH  13  23
BRANCH  15  43
ATOM     43  C   LIG d   1      10.763   3.722  -2.717  0.00  0.00     0.033 C 
ATOM     44  H   LIG d   1      11.802   3.536  -2.988  0.00  0.00     0.036 H 
ATOM     45  H   LIG d   1      10.330   2.816  -2.290  0.00  0.00     0.036 H 
BRANCH  43  46
ATOM     46  C   LIG d   1      10.699   4.834  -1.704  0.00  0.00     0.219 C 
ATOM     47  O   LIG d   1       9.882   5.722  -1.829  0.00  0.00    -0.275 OA
ATOM     48  N   LIG d   1      11.553   4.847  -0.662  0.00  0.00    -0.265 N 
ATOM     49  H   LIG d   1      12.206   4.137  -0.561  0.00  0.00     0.157 HD
BRANCH  48  50
ATOM     50  C   LIG d   1      11.498   5.877   0.270  0.00  0.00     0.164 A 
ATOM     51  S   LIG d   1      11.872   7.559   0.060  0.00  0.00    -0.060 SA
ATOM     52  C   LIG d   1      11.523   8.086   1.732  0.00  0.00    -0.003 A 
ATOM     53  C   LIG d   1      11.156   6.909   2.295  0.00  0.00     0.037 A 
ATOM     54  H   LIG d   1      11.590   9.069   2.173  0.00  0.00     0.071 H 
ATOM     55  N   LIG d   1      11.154   5.826   1.542  0.00  0.00    -0.233 NA
ATOM     56  H   LIG d   1      10.874   6.859   3.336  0.00  0.00     0.084 H 
ENDBRANCH  48  50
ENDBRANCH  43  46
ENDBRANCH  15  43
BRANCH   1  57
ATOM     57  C   LIG d   1      11.939   3.276  -5.266  0.00  0.00    -0.059 C 
ATOM     58  H   LIG d   1      12.450   3.105  -4.318  0.00  0.00     0.024 H 
ATOM     59  H   LIG d   1      11.400   2.374  -5.556  0.00  0.00     0.024 H 
ATOM     60  H   LIG d   1      12.671   3.526  -6.034  0.00  0.00     0.024 H 
ENDBRANCH   1  57
BRANCH   6  61
ATOM     61  C   LIG d   1      10.344   5.334  -8.811  0.00  0.00    -0.055 C 
ATOM     62  H   LIG d   1       9.533   4.609  -8.881  0.00  0.00     0.024 H 
ATOM     63  H   LIG d   1       9.930   6.341  -8.795  0.00  0.00     0.024 H 
ATOM     64  H   LIG d   1      11.004   5.226  -9.672  0.00  0.00     0.024 H 
ENDBRANCH   6  61
BRANCH   6  65
ATOM     65  C   LIG d   1      12.172   3.988  -7.776  0.00  0.00     0.052 C 
ATOM     66  H   LIG d   1      13.071   4.195  -7.195  0.00  0.00     0.056 H 
ATOM     67  H   LIG d   1      11.758   3.026  -7.474  0.00  0.00     0.056 H 
BRANCH  65  68
ATOM     68  O   LIG d   1      12.502   3.951  -9.166  0.00  0.00    -0.394 OA
ATOM     69  H   LIG d   1      13.234   4.534  -9.412  0.00  0.00     0.209 HD
ENDBRANCH  65  68
ENDBRANCH   6  65
BRANCH   4  70
ATOM     70  O   LIG d   1      12.735   6.783  -8.174  0.00  0.00    -0.391 OA
ATOM     71  H   LIG d   1      13.605   6.360  -8.148  0.00  0.00     0.210 HD
ENDBRANCH   4  70
TORSDOF 14
ENDMDL
MODEL 2
REMARK VINA RESULT:      -6.4      3.618      6.314
REMARK  14 active torsions:
REMARK  status: ('A' for Active; 'I' for Inactive)
REMARK    1  A    between atoms: C_1  and  C_2 
REMARK    2  A    between atoms: C_5  and  O_38 
REMARK    3  A    between atoms: C_7  and  C_35 
REMARK    4  A    between atoms: C_7  and  C_36 
REMARK    5  A    between atoms: C_14  and  N_16 
REMARK       I    between atoms: N_16  and  C_17 
REMARK    6  A    between atoms: C_17  and  C_19 
REMARK    7  A    between atoms: C_19  and  C_20 
REMARK    8  A    between atoms: C_20  and  C_21 
REMARK    9  A    between atoms: C_20  and  C_22 
REMARK   10  A    between atoms: C_20  and  C_23 
REMARK   11  A    between atoms: C_24  and  C_26 
REMARK   12  A    between atoms: C_26  and  C_27 
REMARK       I    between atoms: C_27  and  N_29 
REMARK   13  A    between atoms: N_29  and  C_30 
REMARK   14  A    between atoms: C_36  and  O_37 
ROOT
ATOM      1  C   LIG d   1      10.005   3.090  -4.525  0.00  0.00    -0.019 C 
ATOM      2  C   LIG d   1      10.042   3.414  -3.028  0.00  0.00    -0.044 C 
ATOM      3  C   LIG d   1      11.402   3.993  -2.644  0.00  0.00    -0.026 C 
ATOM      4  C   LIG d   1      11.629   5.286  -3.433  0.00  0.00     0.063 C 
ATOM      5  H   LIG d   1      10.826   5.990  -3.218  0.00  0.00     0.060 H 
ATOM      6  C   LIG d   1      11.639   4.955  -4.924  0.00  0.00     0.021 C 
ATOM      7  C   LIG d   1      10.296   4.350  -5.345  0.00  0.00    -0.021 C 
ATOM      8  H   LIG d   1       9.498   5.079  -5.203  0.00  0.00     0.032 H 
ATOM      9  C   LIG d   1      10.417   3.963  -6.832  0.00  0.00    -0.016 C 
ATOM     10  C   LIG d   1       9.288   3.065  -7.193  0.00  0.00     0.015 A 
ATOM     11  C   LIG d   1       8.445   2.412  -6.352  0.00  0.00     0.058 A 
ATOM     12  N   LIG d   1       7.510   1.660  -6.930  0.00  0.00    -0.229 NA
ATOM     13  C   LIG d   1       7.404   1.556  -8.238  0.00  0.00     0.165 A 
ATOM     14  S   LIG d   1       8.700   2.574  -8.792  0.00  0.00    -0.057 SA
ATOM     15  C   LIG d   1       8.601   2.562  -4.847  0.00  0.00     0.016 C 
ATOM     16  H   LIG d   1       7.854   3.265  -4.473  0.00  0.00     0.037 H 
ATOM     17  H   LIG d   1       9.263   4.141  -2.797  0.00  0.00     0.027 H 
ATOM     18  H   LIG d   1       9.863   2.503  -2.458  0.00  0.00     0.027 H 
ATOM     19  H   LIG d   1      11.419   4.209  -1.575  0.00  0.00     0.029 H 
ATOM     20  H   LIG d   1      12.187   3.275  -2.885  0.00  0.00     0.029 H 
ATOM     21  H   LIG d   1      10.379   4.862  -7.446  0.00  0.00     0.032 H 
ATOM     22  H   LIG d   1      11.363   3.447  -6.998  0.00  0.00     0.032 H 
ENDROOT
BRANCH  13  23
ATOM     23  N   LIG d   1       6.491   0.821  -8.985  0.00  0.00    -0.265 N 
ATOM     24  C   LIG d   1       5.411   1.427  -9.518  0.00  0.00     0.219 C 
ATOM     25  O   LIG d   1       5.236   2.615  -9.345  0.00  0.00    -0.275 OA
ATOM     26  H   LIG d   1       6.631  -0.129  -9.124  0.00  0.00     0.157 HD
BRANCH  24  27
ATOM     27  C   LIG d   1       4.422   0.630 -10.328  0.00  0.00     0.029 C 
ATOM     28  H   LIG d   1       4.131   1.200 -11.210  0.00  0.00     0.036 H 
ATOM     29  H   LIG d   1       4.880  -0.309 -10.638  0.00  0.00     0.036 H 
BRANCH  27  30
ATOM     30  C   LIG d   1       3.185   0.338  -9.478  0.00  0.00    -0.029 C 
BRANCH  30  31
ATOM     31  C   LIG d   1       2.144  -0.396 -10.327  0.00  0.00    -0.060 C 
ATOM     32  H   LIG d   1       1.376   0.308 -10.649  0.00  0.00     0.024 H 
ATOM     33  H   LIG d   1       2.629  -0.830 -11.201  0.00  0.00     0.024 H 
ATOM     34  H   LIG d   1       1.686  -1.188  -9.735  0.00  0.00     0.024 H 
ENDBRANCH  30  31
BRANCH  30  35
ATOM     35  C   LIG d   1       3.579  -0.536  -8.285  0.00  0.00    -0.060 C 
ATOM     36  H   LIG d   1       3.745  -1.558  -8.623  0.00  0.00     0.024 H 
ATOM     37  H   LIG d   1       4.493  -0.147  -7.837  0.00  0.00     0.024 H 
ATOM     38  H   LIG d   1       2.778  -0.523  -7.546  0.00  0.00     0.024 H 
ENDBRANCH  30  35
BRANCH  30  39
ATOM     39  C   LIG d   1       2.591   1.655  -8.971  0.00  0.00    -0.060 C 
ATOM     40  H   LIG d   1       2.892   1.813  -7.936  0.00  0.00     0.024 H 
ATOM     41  H   LIG d   1       2.957   2.478  -9.586  0.00  0.00     0.024 H 
ATOM     42  H   LIG d   1       1.505   1.610  -9.031  0.00  0.00     0.024 H 
ENDBRANCH  30  39
ENDBRANCH  27  30
ENDBRANCH  24  27
ENDBRANCH  13  23
BRANCH  15  43
ATOM     43  C   LIG d   1       8.400   1.202  -4.175  0.00  0.00     0.033 C 
ATOM     44  H   LIG d   1       8.985   1.162  -3.256  0.00  0.00     0.036 H 
ATOM     45  H   LIG d   1       8.728   0.412  -4.850  0.00  0.00     0.036 H 
BRANCH  43  46
ATOM     46  C   LIG d   1       6.942   1.012  -3.850  0.00  0.00     0.219 C 
ATOM     47  O   LIG d   1       6.388   1.768  -3.079  0.00  0.00    -0.275 OA
ATOM     48  N   LIG d   1       6.253  -0.002  -4.410  0.00  0.00    -0.265 N 
ATOM     49  H   LIG d   1       6.695  -0.607  -5.026  0.00  0.00     0.157 HD
BRANCH  48  50
ATOM     50  C   LIG d   1       4.909  -0.181  -4.106  0.00  0.00     0.164 A 
ATOM     51  S   LIG d   1       4.194  -1.132  -2.840  0.00  0.00    -0.060 SA
ATOM     52  C   LIG d   1       2.484  -0.769  -3.214  0.00  0.00    -0.003 A 
ATOM     53  C   LIG d   1       2.629   0.048  -4.286  0.00  0.00     0.037 A 
ATOM     54  H   LIG d   1       1.584  -1.110  -2.724  0.00  0.00     0.071 H 
ATOM     55  N   LIG d   1       3.848   0.322  -4.707  0.00  0.00    -0.233 NA
ATOM     56  H   LIG d   1       1.766   0.464  -4.784  0.00  0.00     0.084 H 
ENDBRANCH  48  50
ENDBRANCH  43  46
ENDBRANCH  15  43
BRANCH   1  57
ATOM     57  C   LIG d   1      11.042   2.011  -4.842  0.00  0.00    -0.059 C 
ATOM     58  H   LIG d   1      12.025   2.472  -4.948  0.00  0.00     0.024 H 
ATOM     59  H   LIG d   1      11.069   1.283  -4.031  0.00  0.00     0.024 H 
ATOM     60  H   LIG d   1      10.774   1.511  -5.773  0.00  0.00     0.024 H 
ENDBRANCH   1  57
BRANCH   6  61
ATOM     61  C   LIG d   1      11.890   6.235  -5.724  0.00  0.00    -0.055 C 
ATOM     62  H   LIG d   1      11.592   7.099  -5.131  0.00  0.00     0.024 H 
ATOM     63  H   LIG d   1      12.949   6.310  -5.967  0.00  0.00     0.024 H 
ATOM     64  H   LIG d   1      11.307   6.208  -6.645  0.00  0.00     0.024 H 
ENDBRANCH   6  61
BRANCH   6  65
ATOM     65  C   LIG d   1      12.759   3.954  -5.213  0.00  0.00     0.052 C 
ATOM     66  H   LIG d   1      12.899   3.306  -4.348  0.00  0.00     0.056 H 
ATOM     67  H   LIG d   1      12.491   3.349  -6.080  0.00  0.00     0.056 H 
BRANCH  65  68
ATOM     68  O   LIG d   1      13.973   4.660  -5.481  0.00  0.00    -0.394 OA
ATOM     69  H   LIG d   1      14.264   4.606  -6.402  0.00  0.00     0.209 HD
ENDBRANCH  65  68
ENDBRANCH   6  65
BRANCH   4  70
ATOM     70  O   LIG d   1      12.883   5.861  -3.061  0.00  0.00    -0.391 OA
ATOM     71  H   LIG d   1      13.521   5.918  -3.785  0.00  0.00     0.210 HD
ENDBRANCH   4  70
TORSDOF 14
ENDMDL
MODEL 3
REMARK VINA RESULT:      -6.0      2.993      8.269
REMARK  14 active torsions:
REMARK  status: ('A' for Active; 'I' for Inactive)
REMARK    1  A    between atoms: C_1  and  C_2 
REMARK    2  A    between atoms: C_5  and  O_38 
REMARK    3  A    between atoms: C_7  and  C_35 
REMARK    4  A    between atoms: C_7  and  C_36 
REMARK    5  A    between atoms: C_14  and  N_16 
REMARK       I    between atoms: N_16  and  C_17 
REMARK    6  A    between atoms: C_17  and  C_19 
REMARK    7  A    between atoms: C_19  and  C_20 
REMARK    8  A    between atoms: C_20  and  C_21 
REMARK    9  A    between atoms: C_20  and  C_22 
REMARK   10  A    between atoms: C_20  and  C_23 
REMARK   11  A    between atoms: C_24  and  C_26 
REMARK   12  A    between atoms: C_26  and  C_27 
REMARK       I    between atoms: C_27  and  N_29 
REMARK   13  A    between atoms: N_29  and  C_30 
REMARK   14  A    between atoms: C_36  and  O_37 
ROOT
ATOM      1  C   LIG d   1      10.878   6.337  -2.157  0.00  0.00    -0.019 C 
ATOM      2  C   LIG d   1      10.808   5.227  -1.103  0.00  0.00    -0.044 C 
ATOM      3  C   LIG d   1      11.554   5.647   0.161  0.00  0.00    -0.026 C 
ATOM      4  C   LIG d   1      10.894   6.907   0.728  0.00  0.00     0.063 C 
ATOM      5  H   LIG d   1       9.844   6.706   0.939  0.00  0.00     0.060 H 
ATOM      6  C   LIG d   1      11.006   8.027  -0.304  0.00  0.00     0.021 C 
ATOM      7  C   LIG d   1      10.287   7.633  -1.598  0.00  0.00    -0.021 C 
ATOM      8  H   LIG d   1       9.221   7.505  -1.408  0.00  0.00     0.032 H 
ATOM      9  C   LIG d   1      10.522   8.769  -2.613  0.00  0.00    -0.016 C 
ATOM     10  C   LIG d   1      10.154   8.289  -3.972  0.00  0.00     0.015 A 
ATOM     11  C   LIG d   1       9.940   7.009  -4.371  0.00  0.00     0.058 A 
ATOM     12  N   LIG d   1       9.623   6.842  -5.653  0.00  0.00    -0.229 NA
ATOM     13  C   LIG d   1       9.517   7.855  -6.487  0.00  0.00     0.165 A 
ATOM     14  S   LIG d   1       9.884   9.211  -5.462  0.00  0.00    -0.057 SA
ATOM     15  C   LIG d   1      10.070   5.868  -3.374  0.00  0.00     0.016 C 
ATOM     16  H   LIG d   1       9.076   5.554  -3.051  0.00  0.00     0.037 H 
ATOM     17  H   LIG d   1       9.764   5.030  -0.856  0.00  0.00     0.027 H 
ATOM     18  H   LIG d   1      11.259   4.320  -1.504  0.00  0.00     0.027 H 
ATOM     19  H   LIG d   1      11.505   4.845   0.898  0.00  0.00     0.029 H 
ATOM     20  H   LIG d   1      12.596   5.858  -0.082  0.00  0.00     0.029 H 
ATOM     21  H   LIG d   1       9.904   9.627  -2.350  0.00  0.00     0.032 H 
ATOM     22  H   LIG d   1      11.572   9.059  -2.599  0.00  0.00     0.032 H 
ENDROOT
BRANCH  13  23
ATOM     23  N   LIG d   1       9.195   7.845  -7.839  0.00  0.00    -0.265 N 
ATOM     24  C   LIG d   1      10.171   7.746  -8.764  0.00  0.00     0.219 C 
ATOM     25  O   LIG d   1      11.330   7.666  -8.417  0.00  0.00    -0.275 OA
ATOM     26  H   LIG d   1       8.268   7.908  -8.118  0.00  0.00     0.157 HD
BRANCH  24  27
ATOM     27  C   LIG d   1       9.821   7.734 -10.230  0.00  0.00     0.029 C 
ATOM     28  H   LIG d   1       8.957   8.375 -10.402  0.00  0.00     0.036 H 
ATOM     29  H   LIG d   1      10.668   8.103 -10.809  0.00  0.00     0.036 H 
BRANCH  27  30
ATOM     30  C   LIG d   1       9.490   6.305 -10.664  0.00  0.00    -0.029 C 
BRANCH  30  31
ATOM     31  C   LIG d   1      10.730   5.423 -10.503  0.00  0.00    -0.060 C 
ATOM     32  H   LIG d   1      10.432   4.440 -10.137  0.00  0.00     0.024 H 
ATOM     33  H   LIG d   1      11.227   5.316 -11.467  0.00  0.00     0.024 H 
ATOM     34  H   LIG d   1      11.414   5.883  -9.790  0.00  0.00     0.024 H 
ENDBRANCH  30  31
BRANCH  30  35
ATOM     35  C   LIG d   1       8.357   5.756  -9.794  0.00  0.00    -0.060 C 
ATOM     36  H   LIG d   1       7.843   4.958 -10.328  0.00  0.00     0.024 H 
ATOM     37  H   LIG d   1       8.770   5.365  -8.864  0.00  0.00     0.024 H 
ATOM     38  H   LIG d   1       7.651   6.557  -9.570  0.00  0.00     0.024 H 
ENDBRANCH  30  35
BRANCH  30  39
ATOM     39  C   LIG d   1       9.052   6.306 -12.131  0.00  0.00    -0.060 C 
ATOM     40  H   LIG d   1       8.254   7.033 -12.270  0.00  0.00     0.024 H 
ATOM     41  H   LIG d   1       9.900   6.570 -12.762  0.00  0.00     0.024 H 
ATOM     42  H   LIG d   1       8.692   5.314 -12.402  0.00  0.00     0.024 H 
ENDBRANCH  30  39
ENDBRANCH  27  30
ENDBRANCH  24  27
ENDBRANCH  13  23
BRANCH  15  43
ATOM     43  C   LIG d   1      10.784   4.689  -4.038  0.00  0.00     0.033 C 
ATOM     44  H   LIG d   1      11.759   4.546  -3.572  0.00  0.00     0.036 H 
ATOM     45  H   LIG d   1      10.915   4.896  -5.100  0.00  0.00     0.036 H 
BRANCH  43  46
ATOM     46  C   LIG d   1       9.959   3.440  -3.868  0.00  0.00     0.219 C 
ATOM     47  O   LIG d   1      10.339   2.558  -3.128  0.00  0.00    -0.275 OA
ATOM     48  N   LIG d   1       8.801   3.299  -4.543  0.00  0.00    -0.265 N 
ATOM     49  H   LIG d   1       8.496   4.005  -5.135  0.00  0.00     0.157 HD
BRANCH  48  50
ATOM     50  C   LIG d   1       8.043   2.145  -4.391  0.00  0.00     0.164 A 
ATOM     51  S   LIG d   1       8.135   0.654  -5.277  0.00  0.00    -0.060 SA
ATOM     52  C   LIG d   1       6.829  -0.210  -4.415  0.00  0.00    -0.003 A 
ATOM     53  C   LIG d   1       6.442   0.739  -3.528  0.00  0.00     0.037 A 
ATOM     54  H   LIG d   1       6.450  -1.210  -4.563  0.00  0.00     0.071 H 
ATOM     55  N   LIG d   1       7.065   1.902  -3.540  0.00  0.00    -0.233 NA
ATOM     56  H   LIG d   1       5.642   0.549  -2.829  0.00  0.00     0.084 H 
ENDBRANCH  48  50
ENDBRANCH  43  46
ENDBRANCH  15  43
BRANCH   1  57
ATOM     57  C   LIG d   1      12.335   6.563  -2.567  0.00  0.00    -0.059 C 
ATOM     58  H   LIG d   1      12.701   5.687  -3.105  0.00  0.00     0.024 H 
ATOM     59  H   LIG d   1      12.400   7.438  -3.214  0.00  0.00     0.024 H 
ATOM     60  H   LIG d   1      12.943   6.722  -1.677  0.00  0.00     0.024 H 
ENDBRANCH   1  57
BRANCH   6  61
ATOM     61  C   LIG d   1      10.372   9.301   0.260  0.00  0.00    -0.055 C 
ATOM     62  H   LIG d   1      11.111  10.102   0.269  0.00  0.00     0.024 H 
ATOM     63  H   LIG d   1       9.528   9.593  -0.365  0.00  0.00     0.024 H 
ATOM     64  H   LIG d   1      10.025   9.115   1.276  0.00  0.00     0.024 H 
ENDBRANCH   6  61
BRANCH   6  65
ATOM     65  C   LIG d   1      12.483   8.292  -0.605  0.00  0.00     0.052 C 
ATOM     66  H   LIG d   1      13.037   7.354  -0.559  0.00  0.00     0.056 H 
ATOM     67  H   LIG d   1      12.579   8.721  -1.603  0.00  0.00     0.056 H 
BRANCH  65  68
ATOM     68  O   LIG d   1      13.011   9.204   0.360  0.00  0.00    -0.394 OA
ATOM     69  H   LIG d   1      12.561   9.175   1.216  0.00  0.00     0.209 HD
ENDBRANCH  65  68
ENDBRANCH   6  65
BRANCH   4  70
ATOM     70  O   LIG d   1      11.558   7.296   1.932  0.00  0.00    -0.391 OA
ATOM     71  H   LIG d   1      12.359   7.819   1.789  0.00  0.00     0.210 HD
ENDBRANCH   4  70
TORSDOF 14
ENDMDL
MODEL 4
REMARK VINA RESULT:      -5.7      7.174     10.095
REMARK  14 active torsions:
REMARK  status: ('A' for Active; 'I' for Inactive)
REMARK    1  A    between atoms: C_1  and  C_2 
REMARK    2  A    between atoms: C_5  and  O_38 
REMARK    3  A    between atoms: C_7  and  C_35 
REMARK    4  A    between atoms: C_7  and  C_36 
REMARK    5  A    between atoms: C_14  and  N_16 
REMARK       I    between atoms: N_16  and  C_17 
REMARK    6  A    between atoms: C_17  and  C_19 
REMARK    7  A    between atoms: C_19  and  C_20 
REMARK    8  A    between atoms: C_20  and  C_21 
REMARK    9  A    between atoms: C_20  and  C_22 
REMARK   10  A    between atoms: C_20  and  C_23 
REMARK   11  A    between atoms: C_24  and  C_26 
REMARK   12  A    between atoms: C_26  and  C_27 
REMARK       I    between atoms: C_27  and  N_29 
REMARK   13  A    between atoms: N_29  and  C_30 
REMARK   14  A    between atoms: C_36  and  O_37 
ROOT
ATOM      1  C   LIG d   1       3.468  -1.927  -9.432  0.00  0.00    -0.019 C 
ATOM      2  C   LIG d   1       2.789  -0.580  -9.697  0.00  0.00    -0.044 C 
ATOM      3  C   LIG d   1       2.199  -0.550 -11.105  0.00  0.00    -0.026 C 
ATOM      4  C   LIG d   1       1.151  -1.661 -11.223  0.00  0.00     0.063 C 
ATOM      5  H   LIG d   1       0.378  -1.517 -10.469  0.00  0.00     0.060 H 
ATOM      6  C   LIG d   1       1.837  -3.009 -11.006  0.00  0.00     0.021 C 
ATOM      7  C   LIG d   1       2.463  -3.068  -9.609  0.00  0.00    -0.021 C 
ATOM      8  H   LIG d   1       1.685  -3.000  -8.848  0.00  0.00     0.032 H 
ATOM      9  C   LIG d   1       3.208  -4.413  -9.501  0.00  0.00    -0.016 C 
ATOM     10  C   LIG d   1       4.113  -4.372  -8.322  0.00  0.00     0.015 A 
ATOM     11  C   LIG d   1       4.500  -3.284  -7.608  0.00  0.00     0.058 A 
ATOM     12  N   LIG d   1       5.326  -3.516  -6.590  0.00  0.00    -0.229 NA
ATOM     13  C   LIG d   1       5.742  -4.727  -6.287  0.00  0.00     0.165 A 
ATOM     14  S   LIG d   1       4.953  -5.697  -7.495  0.00  0.00    -0.057 SA
ATOM     15  C   LIG d   1       3.992  -1.902  -7.990  0.00  0.00     0.016 C 
ATOM     16  H   LIG d   1       3.185  -1.613  -7.315  0.00  0.00     0.037 H 
ATOM     17  H   LIG d   1       1.992  -0.427  -8.969  0.00  0.00     0.027 H 
ATOM     18  H   LIG d   1       3.523   0.220  -9.597  0.00  0.00     0.027 H 
ATOM     19  H   LIG d   1       1.728   0.417 -11.284  0.00  0.00     0.029 H 
ATOM     20  H   LIG d   1       2.990  -0.714 -11.837  0.00  0.00     0.029 H 
ATOM     21  H   LIG d   1       2.487  -5.220  -9.380  0.00  0.00     0.032 H 
ATOM     22  H   LIG d   1       3.793  -4.579 -10.406  0.00  0.00     0.032 H 
ENDROOT
BRANCH  13  23
ATOM     23  N   LIG d   1       6.594  -5.129  -5.265  0.00  0.00    -0.265 N 
ATOM     24  C   LIG d   1       7.928  -5.002  -5.409  0.00  0.00     0.219 C 
ATOM     25  O   LIG d   1       8.386  -4.538  -6.432  0.00  0.00    -0.275 OA
ATOM     26  H   LIG d   1       6.229  -5.500  -4.446  0.00  0.00     0.157 HD
BRANCH  24  27
ATOM     27  C   LIG d   1       8.851  -5.437  -4.300  0.00  0.00     0.029 C 
ATOM     28  H   LIG d   1       8.311  -6.084  -3.611  0.00  0.00     0.036 H 
ATOM     29  H   LIG d   1       9.696  -5.982  -4.723  0.00  0.00     0.036 H 
BRANCH  27  30
ATOM     30  C   LIG d   1       9.363  -4.207  -3.550  0.00  0.00    -0.029 C 
BRANCH  30  31
ATOM     31  C   LIG d   1       9.675  -4.585  -2.101  0.00  0.00    -0.060 C 
ATOM     32  H   LIG d   1      10.730  -4.847  -2.013  0.00  0.00     0.024 H 
ATOM     33  H   LIG d   1       9.455  -3.740  -1.450  0.00  0.00     0.024 H 
ATOM     34  H   LIG d   1       9.064  -5.438  -1.808  0.00  0.00     0.024 H 
ENDBRANCH  30  31
BRANCH  30  35
ATOM     35  C   LIG d   1      10.634  -3.688  -4.227  0.00  0.00    -0.060 C 
ATOM     36  H   LIG d   1      11.323  -4.516  -4.390  0.00  0.00     0.024 H 
ATOM     37  H   LIG d   1      10.376  -3.234  -5.184  0.00  0.00     0.024 H 
ATOM     38  H   LIG d   1      11.107  -2.943  -3.587  0.00  0.00     0.024 H 
ENDBRANCH  30  35
BRANCH  30  39
ATOM     39  C   LIG d   1       8.291  -3.113  -3.572  0.00  0.00    -0.060 C 
ATOM     40  H   LIG d   1       7.724  -3.181  -4.500  0.00  0.00     0.024 H 
ATOM     41  H   LIG d   1       7.620  -3.247  -2.724  0.00  0.00     0.024 H 
ATOM     42  H   LIG d   1       8.769  -2.136  -3.509  0.00  0.00     0.024 H 
ENDBRANCH  30  39
ENDBRANCH  27  30
ENDBRANCH  24  27
ENDBRANCH  13  23
BRANCH  15  43
ATOM     43  C   LIG d   1       5.135  -0.890  -7.879  0.00  0.00     0.033 C 
ATOM     44  H   LIG d   1       4.982  -0.089  -8.603  0.00  0.00     0.036 H 
ATOM     45  H   LIG d   1       6.082  -1.389  -8.084  0.00  0.00     0.036 H 
BRANCH  43  46
ATOM     46  C   LIG d   1       5.162  -0.312  -6.489  0.00  0.00     0.219 C 
ATOM     47  O   LIG d   1       6.071   0.417  -6.153  0.00  0.00    -0.275 OA
ATOM     48  N   LIG d   1       4.180  -0.608  -5.615  0.00  0.00    -0.265 N 
ATOM     49  H   LIG d   1       3.452  -1.191  -5.883  0.00  0.00     0.157 HD
BRANCH  48  50
ATOM     50  C   LIG d   1       4.208  -0.079  -4.330  0.00  0.00     0.164 A 
ATOM     51  S   LIG d   1       5.050  -0.663  -2.928  0.00  0.00    -0.060 SA
ATOM     52  C   LIG d   1       4.516   0.608  -1.791  0.00  0.00    -0.003 A 
ATOM     53  C   LIG d   1       3.733   1.359  -2.602  0.00  0.00     0.037 A 
ATOM     54  H   LIG d   1       4.750   0.738  -0.744  0.00  0.00     0.071 H 
ATOM     55  N   LIG d   1       3.598   0.992  -3.862  0.00  0.00    -0.233 NA
ATOM     56  H   LIG d   1       3.230   2.237  -2.226  0.00  0.00     0.084 H 
ENDBRANCH  48  50
ENDBRANCH  43  46
ENDBRANCH  15  43
BRANCH   1  57
ATOM     57  C   LIG d   1       4.640  -2.110 -10.399  0.00  0.00    -0.059 C 
ATOM     58  H   LIG d   1       5.051  -3.113 -10.285  0.00  0.00     0.024 H 
ATOM     59  H   LIG d   1       4.291  -1.975 -11.423  0.00  0.00     0.024 H 
ATOM     60  H   LIG d   1       5.412  -1.373 -10.178  0.00  0.00     0.024 H 
ENDBRANCH   1  57
BRANCH   6  61
ATOM     61  C   LIG d   1       0.806  -4.130 -11.146  0.00  0.00    -0.055 C 
ATOM     62  H   LIG d   1       0.545  -4.254 -12.197  0.00  0.00     0.024 H 
ATOM     63  H   LIG d   1       1.227  -5.060 -10.765  0.00  0.00     0.024 H 
ATOM     64  H   LIG d   1      -0.088  -3.875 -10.577  0.00  0.00     0.024 H 
ENDBRANCH   6  61
BRANCH   6  65
ATOM     65  C   LIG d   1       2.930  -3.196 -12.060  0.00  0.00     0.052 C 
ATOM     66  H   LIG d   1       3.353  -2.225 -12.321  0.00  0.00     0.056 H 
ATOM     67  H   LIG d   1       3.716  -3.837 -11.658  0.00  0.00     0.056 H 
BRANCH  65  68
ATOM     68  O   LIG d   1       2.369  -3.801 -13.226  0.00  0.00    -0.394 OA
ATOM     69  H   LIG d   1       1.478  -4.154 -13.096  0.00  0.00     0.209 HD
ENDBRANCH  65  68
ENDBRANCH   6  65
BRANCH   4  70
ATOM     70  O   LIG d   1       0.562  -1.628 -12.525  0.00  0.00    -0.391 OA
ATOM     71  H   LIG d   1      -0.326  -2.010 -12.565  0.00  0.00     0.210 HD
ENDBRANCH   4  70
TORSDOF 14
ENDMDL
MODEL 5
REMARK VINA RESULT:      -5.7      4.231      7.057
REMARK  14 active torsions:
REMARK  status: ('A' for Active; 'I' for Inactive)
REMARK    1  A    between atoms: C_1  and  C_2 
REMARK    2  A    between atoms: C_5  and  O_38 
REMARK    3  A    between atoms: C_7  and  C_35 
REMARK    4  A    between atoms: C_7  and  C_36 
REMARK    5  A    between atoms: C_14  and  N_16 
REMARK       I    between atoms: N_16  and  C_17 
REMARK    6  A    between atoms: C_17  and  C_19 
REMARK    7  A    between atoms: C_19  and  C_20 
REMARK    8  A    between atoms: C_20  and  C_21 
REMARK    9  A    between atoms: C_20  and  C_22 
REMARK   10  A    between atoms: C_20  and  C_23 
REMARK   11  A    between atoms: C_24  and  C_26 
REMARK   12  A    between atoms: C_26  and  C_27 
REMARK       I    between atoms: C_27  and  N_29 
REMARK   13  A    between atoms: N_29  and  C_30 
REMARK   14  A    between atoms: C_36  and  O_37 
ROOT
ATOM      1  C   LIG d   1       9.747   2.714  -8.833  0.00  0.00    -0.019 C 
ATOM      2  C   LIG d   1       9.735   2.578 -10.359  0.00  0.00    -0.044 C 
ATOM      3  C   LIG d   1      10.927   3.313 -10.967  0.00  0.00    -0.026 C 
ATOM      4  C   LIG d   1      12.218   2.689 -10.429  0.00  0.00     0.063 C 
ATOM      5  H   LIG d   1      12.241   1.628 -10.675  0.00  0.00     0.060 H 
ATOM      6  C   LIG d   1      12.253   2.866  -8.912  0.00  0.00     0.021 C 
ATOM      7  C   LIG d   1      11.057   2.161  -8.265  0.00  0.00    -0.021 C 
ATOM      8  H   LIG d   1      11.116   1.087  -8.445  0.00  0.00     0.032 H 
ATOM      9  C   LIG d   1      11.114   2.460  -6.754  0.00  0.00    -0.016 C 
ATOM     10  C   LIG d   1       9.807   2.104  -6.140  0.00  0.00     0.015 A 
ATOM     11  C   LIG d   1       8.633   1.850  -6.773  0.00  0.00     0.058 A 
ATOM     12  N   LIG d   1       7.599   1.553  -5.988  0.00  0.00    -0.229 NA
ATOM     13  C   LIG d   1       7.704   1.505  -4.677  0.00  0.00     0.165 A 
ATOM     14  S   LIG d   1       9.379   1.901  -4.431  0.00  0.00    -0.057 SA
ATOM     15  C   LIG d   1       8.555   1.914  -8.290  0.00  0.00     0.016 C 
ATOM     16  H   LIG d   1       8.581   0.903  -8.698  0.00  0.00     0.037 H 
ATOM     17  H   LIG d   1       9.786   1.523 -10.628  0.00  0.00     0.027 H 
ATOM     18  H   LIG d   1       8.810   3.003 -10.751  0.00  0.00     0.027 H 
ATOM     19  H   LIG d   1      10.900   3.217 -12.053  0.00  0.00     0.029 H 
ATOM     20  H   LIG d   1      10.887   4.367 -10.691  0.00  0.00     0.029 H 
ATOM     21  H   LIG d   1      11.906   1.870  -6.296  0.00  0.00     0.032 H 
ATOM     22  H   LIG d   1      11.313   3.521  -6.601  0.00  0.00     0.032 H 
ENDROOT
BRANCH  13  23
ATOM     23  N   LIG d   1       6.729   1.212  -3.732  0.00  0.00    -0.265 N 
ATOM     24  C   LIG d   1       6.399  -0.070  -3.478  0.00  0.00     0.219 C 
ATOM     25  O   LIG d   1       6.953  -0.969  -4.074  0.00  0.00    -0.275 OA
ATOM     26  H   LIG d   1       6.285   1.930  -3.254  0.00  0.00     0.157 HD
BRANCH  24  27
ATOM     27  C   LIG d   1       5.341  -0.387  -2.452  0.00  0.00     0.029 C 
ATOM     28  H   LIG d   1       5.393  -1.444  -2.191  0.00  0.00     0.036 H 
ATOM     29  H   LIG d   1       5.508   0.216  -1.560  0.00  0.00     0.036 H 
BRANCH  27  30
ATOM     30  C   LIG d   1       3.960  -0.072  -3.030  0.00  0.00    -0.029 C 
BRANCH  30  31
ATOM     31  C   LIG d   1       3.501   1.301  -2.534  0.00  0.00    -0.060 C 
ATOM     32  H   LIG d   1       4.277   2.039  -2.737  0.00  0.00     0.024 H 
ATOM     33  H   LIG d   1       2.585   1.586  -3.051  0.00  0.00     0.024 H 
ATOM     34  H   LIG d   1       3.315   1.257  -1.462  0.00  0.00     0.024 H 
ENDBRANCH  30  31
BRANCH  30  35
ATOM     35  C   LIG d   1       4.036  -0.064  -4.559  0.00  0.00    -0.060 C 
ATOM     36  H   LIG d   1       3.347  -0.806  -4.960  0.00  0.00     0.024 H 
ATOM     37  H   LIG d   1       3.764   0.924  -4.930  0.00  0.00     0.024 H 
ATOM     38  H   LIG d   1       5.052  -0.304  -4.873  0.00  0.00     0.024 H 
ENDBRANCH  30  35
BRANCH  30  39
ATOM     39  C   LIG d   1       2.961  -1.139  -2.575  0.00  0.00    -0.060 C 
ATOM     40  H   LIG d   1       1.954  -0.723  -2.592  0.00  0.00     0.024 H 
ATOM     41  H   LIG d   1       3.013  -1.995  -3.248  0.00  0.00     0.024 H 
ATOM     42  H   LIG d   1       3.206  -1.456  -1.562  0.00  0.00     0.024 H 
ENDBRANCH  30  39
ENDBRANCH  27  30
ENDBRANCH  24  27
ENDBRANCH  13  23
BRANCH  15  43
ATOM     43  C   LIG d   1       7.251   2.597  -8.706  0.00  0.00     0.033 C 
ATOM     44  H   LIG d   1       7.432   3.226  -9.577  0.00  0.00     0.036 H 
ATOM     45  H   LIG d   1       6.885   3.211  -7.883  0.00  0.00     0.036 H 
BRANCH  43  46
ATOM     46  C   LIG d   1       6.222   1.551  -9.048  0.00  0.00     0.219 C 
ATOM     47  O   LIG d   1       6.248   1.006 -10.131  0.00  0.00    -0.275 OA
ATOM     48  N   LIG d   1       5.269   1.224  -8.153  0.00  0.00    -0.265 N 
ATOM     49  H   LIG d   1       5.248   1.659  -7.286  0.00  0.00     0.157 HD
BRANCH  48  50
ATOM     50  C   LIG d   1       4.317   0.263  -8.471  0.00  0.00     0.164 A 
ATOM     51  S   LIG d   1       2.779   0.467  -9.252  0.00  0.00    -0.060 SA
ATOM     52  C   LIG d   1       2.280  -1.248  -9.235  0.00  0.00    -0.003 A 
ATOM     53  C   LIG d   1       3.347  -1.815  -8.621  0.00  0.00     0.037 A 
ATOM     54  H   LIG d   1       1.376  -1.707  -9.607  0.00  0.00     0.071 H 
ATOM     55  N   LIG d   1       4.346  -1.037  -8.252  0.00  0.00    -0.233 NA
ATOM     56  H   LIG d   1       3.378  -2.879  -8.437  0.00  0.00     0.084 H 
ENDBRANCH  48  50
ENDBRANCH  43  46
ENDBRANCH  15  43
BRANCH   1  57
ATOM     57  C   LIG d   1       9.593   4.187  -8.448  0.00  0.00    -0.059 C 
ATOM     58  H   LIG d   1      10.548   4.569  -8.087  0.00  0.00     0.024 H 
ATOM     59  H   LIG d   1       9.280   4.760  -9.320  0.00  0.00     0.024 H 
ATOM     60  H   LIG d   1       8.844   4.281  -7.662  0.00  0.00     0.024 H 
ENDBRANCH   1  57
BRANCH   6  61
ATOM     61  C   LIG d   1      13.550   2.270  -8.362  0.00  0.00    -0.055 C 
ATOM     62  H   LIG d   1      13.763   2.701  -7.384  0.00  0.00     0.024 H 
ATOM     63  H   LIG d   1      13.441   1.190  -8.266  0.00  0.00     0.024 H 
ATOM     64  H   LIG d   1      14.370   2.493  -9.045  0.00  0.00     0.024 H 
ENDBRANCH   6  61
BRANCH   6  65
ATOM     65  C   LIG d   1      12.204   4.358  -8.575  0.00  0.00     0.052 C 
ATOM     66  H   LIG d   1      11.630   4.884  -9.339  0.00  0.00     0.056 H 
ATOM     67  H   LIG d   1      11.726   4.496  -7.604  0.00  0.00     0.056 H 
BRANCH  65  68
ATOM     68  O   LIG d   1      13.533   4.882  -8.532  0.00  0.00    -0.394 OA
ATOM     69  H   LIG d   1      13.753   5.457  -9.278  0.00  0.00     0.209 HD
ENDBRANCH  65  68
ENDBRANCH   6  65
BRANCH   4  70
ATOM     70  O   LIG d   1      13.346   3.342 -11.014  0.00  0.00    -0.391 OA
ATOM     71  H   LIG d   1      13.187   4.266 -11.252  0.00  0.00     0.210 HD
ENDBRANCH   4  70
TORSDOF 14
ENDMDL
MODEL 6
REMARK VINA RESULT:      -5.5      4.683      9.280
REMARK  14 active torsions:
REMARK  status: ('A' for Active; 'I' for Inactive)
REMARK    1  A    between atoms: C_1  and  C_2 
REMARK    2  A    between atoms: C_5  and  O_38 
REMARK    3  A    between atoms: C_7  and  C_35 
REMARK    4  A    between atoms: C_7  and  C_36 
REMARK    5  A    between atoms: C_14  and  N_16 
REMARK       I    between atoms: N_16  and  C_17 
REMARK    6  A    between atoms: C_17  and  C_19 
REMARK    7  A    between atoms: C_19  and  C_20 
REMARK    8  A    between atoms: C_20  and  C_21 
REMARK    9  A    between atoms: C_20  and  C_22 
REMARK   10  A    between atoms: C_20  and  C_23 
REMARK   11  A    between atoms: C_24  and  C_26 
REMARK   12  A    between atoms: C_26  and  C_27 
REMARK       I    between atoms: C_27  and  N_29 
REMARK   13  A    between atoms: N_29  and  C_30 
REMARK   14  A    between atoms: C_36  and  O_37 
ROOT
ATOM      1  C   LIG d   1      10.405   5.584  -4.435  0.00  0.00    -0.019 C 
ATOM      2  C   LIG d   1      10.300   4.258  -3.677  0.00  0.00    -0.044 C 
ATOM      3  C   LIG d   1      10.835   4.414  -2.256  0.00  0.00    -0.026 C 
ATOM      4  C   LIG d   1       9.995   5.466  -1.525  0.00  0.00     0.063 C 
ATOM      5  H   LIG d   1       8.949   5.160  -1.521  0.00  0.00     0.060 H 
ATOM      6  C   LIG d   1      10.137   6.801  -2.254  0.00  0.00     0.021 C 
ATOM      7  C   LIG d   1       9.631   6.678  -3.694  0.00  0.00    -0.021 C 
ATOM      8  H   LIG d   1       8.565   6.446  -3.696  0.00  0.00     0.032 H 
ATOM      9  C   LIG d   1       9.890   8.031  -4.386  0.00  0.00    -0.016 C 
ATOM     10  C   LIG d   1       9.746   7.860  -5.856  0.00  0.00     0.015 A 
ATOM     11  C   LIG d   1       9.703   6.698  -6.557  0.00  0.00     0.058 A 
ATOM     12  N   LIG d   1       9.571   6.816  -7.876  0.00  0.00    -0.229 NA
ATOM     13  C   LIG d   1       9.482   7.987  -8.470  0.00  0.00     0.165 A 
ATOM     14  S   LIG d   1       9.589   9.086  -7.127  0.00  0.00    -0.057 SA
ATOM     15  C   LIG d   1       9.806   5.365  -5.831  0.00  0.00     0.016 C 
ATOM     16  H   LIG d   1       8.812   4.927  -5.735  0.00  0.00     0.037 H 
ATOM     17  H   LIG d   1       9.256   3.947  -3.636  0.00  0.00     0.027 H 
ATOM     18  H   LIG d   1      10.880   3.497  -4.199  0.00  0.00     0.027 H 
ATOM     19  H   LIG d   1      10.764   3.461  -1.731  0.00  0.00     0.029 H 
ATOM     20  H   LIG d   1      11.876   4.737  -2.290  0.00  0.00     0.029 H 
ATOM     21  H   LIG d   1       9.168   8.765  -4.031  0.00  0.00     0.032 H 
ATOM     22  H   LIG d   1      10.899   8.371  -4.153  0.00  0.00     0.032 H 
ENDROOT
BRANCH  13  23
ATOM     23  N   LIG d   1       9.340   8.273  -9.823  0.00  0.00    -0.265 N 
ATOM     24  C   LIG d   1      10.418   8.259 -10.632  0.00  0.00     0.219 C 
ATOM     25  O   LIG d   1      11.512   7.997 -10.181  0.00  0.00    -0.275 OA
ATOM     26  H   LIG d   1       8.465   8.483 -10.185  0.00  0.00     0.157 HD
BRANCH  24  27
ATOM     27  C   LIG d   1      10.263   8.569 -12.099  0.00  0.00     0.029 C 
ATOM     28  H   LIG d   1       9.370   9.175 -12.250  0.00  0.00     0.036 H 
ATOM     29  H   LIG d   1      11.137   9.119 -12.448  0.00  0.00     0.036 H 
BRANCH  27  30
ATOM     30  C   LIG d   1      10.133   7.264 -12.885  0.00  0.00    -0.029 C 
BRANCH  30  31
ATOM     31  C   LIG d   1       9.748   7.576 -14.332  0.00  0.00    -0.060 C 
ATOM     32  H   LIG d   1       9.260   6.707 -14.774  0.00  0.00     0.024 H 
ATOM     33  H   LIG d   1       9.064   8.425 -14.352  0.00  0.00     0.024 H 
ATOM     34  H   LIG d   1      10.644   7.818 -14.903  0.00  0.00     0.024 H 
ENDBRANCH  30  31
BRANCH  30  35
ATOM     35  C   LIG d   1      11.469   6.518 -12.861  0.00  0.00    -0.060 C 
ATOM     36  H   LIG d   1      11.758   6.258 -13.879  0.00  0.00     0.024 H 
ATOM     37  H   LIG d   1      12.233   7.157 -12.418  0.00  0.00     0.024 H 
ATOM     38  H   LIG d   1      11.367   5.609 -12.269  0.00  0.00     0.024 H 
ENDBRANCH  30  35
BRANCH  30  39
ATOM     39  C   LIG d   1       9.050   6.389 -12.247  0.00  0.00    -0.060 C 
ATOM     40  H   LIG d   1       9.267   6.259 -11.187  0.00  0.00     0.024 H 
ATOM     41  H   LIG d   1       8.079   6.872 -12.362  0.00  0.00     0.024 H 
ATOM     42  H   LIG d   1       9.034   5.417 -12.737  0.00  0.00     0.024 H 
ENDBRANCH  30  39
ENDBRANCH  27  30
ENDBRANCH  24  27
ENDBRANCH  13  23
BRANCH  15  43
ATOM     43  C   LIG d   1      10.705   4.418  -6.628  0.00  0.00     0.033 C 
ATOM     44  H   LIG d   1      11.467   4.001  -5.971  0.00  0.00     0.036 H 
ATOM     45  H   LIG d   1      11.184   4.968  -7.438  0.00  0.00     0.036 H 
BRANCH  43  46
ATOM     46  C   LIG d   1       9.874   3.301  -7.204  0.00  0.00     0.219 C 
ATOM     47  O   LIG d   1       9.693   2.287  -6.563  0.00  0.00    -0.275 OA
ATOM     48  N   LIG d   1       9.335   3.425  -8.433  0.00  0.00    -0.265 N 
ATOM     49  H   LIG d   1       9.480   4.236  -8.946  0.00  0.00     0.157 HD
BRANCH  48  50
ATOM     50  C   LIG d   1       8.573   2.393  -8.966  0.00  0.00     0.164 A 
ATOM     51  S   LIG d   1       6.891   2.039  -8.720  0.00  0.00    -0.060 SA
ATOM     52  C   LIG d   1       6.803   0.591  -9.765  0.00  0.00    -0.003 A 
ATOM     53  C   LIG d   1       8.084   0.516 -10.199  0.00  0.00     0.037 A 
ATOM     54  H   LIG d   1       5.962  -0.049  -9.985  0.00  0.00     0.071 H 
ATOM     55  N   LIG d   1       8.943   1.427  -9.785  0.00  0.00    -0.233 NA
ATOM     56  H   LIG d   1       8.395  -0.272 -10.869  0.00  0.00     0.084 H 
ENDBRANCH  48  50
ENDBRANCH  43  46
ENDBRANCH  15  43
BRANCH   1  57
ATOM     57  C   LIG d   1      11.876   5.985  -4.566  0.00  0.00    -0.059 C 
ATOM     58  H   LIG d   1      12.444   5.150  -4.976  0.00  0.00     0.024 H 
ATOM     59  H   LIG d   1      11.961   6.843  -5.233  0.00  0.00     0.024 H 
ATOM     60  H   LIG d   1      12.270   6.246  -3.585  0.00  0.00     0.024 H 
ENDBRANCH   1  57
BRANCH   6  61
ATOM     61  C   LIG d   1       9.323   7.868  -1.520  0.00  0.00    -0.055 C 
ATOM     62  H   LIG d   1       9.739   8.853  -1.731  0.00  0.00     0.024 H 
ATOM     63  H   LIG d   1       8.288   7.831  -1.860  0.00  0.00     0.024 H 
ATOM     64  H   LIG d   1       9.360   7.679  -0.448  0.00  0.00     0.024 H 
ENDBRANCH   6  61
BRANCH   6  65
ATOM     65  C   LIG d   1      11.610   7.215  -2.269  0.00  0.00     0.052 C 
ATOM     66  H   LIG d   1      12.238   6.324  -2.287  0.00  0.00     0.056 H 
ATOM     67  H   LIG d   1      11.809   7.817  -3.156  0.00  0.00     0.056 H 
BRANCH  65  68
ATOM     68  O   LIG d   1      11.903   7.979  -1.097  0.00  0.00    -0.394 OA
ATOM     69  H   LIG d   1      11.176   8.014  -0.459  0.00  0.00     0.209 HD
ENDBRANCH  65  68
ENDBRANCH   6  65
BRANCH   4  70
ATOM     70  O   LIG d   1      10.460   5.602  -0.181  0.00  0.00    -0.391 OA
ATOM     71  H   LIG d   1      11.423   5.580  -0.093  0.00  0.00     0.210 HD
ENDBRANCH   4  70
TORSDOF 14
ENDMDL
MODEL 7
REMARK VINA RESULT:      -5.4      7.754     11.718
REMARK  14 active torsions:
REMARK  status: ('A' for Active; 'I' for Inactive)
REMARK    1  A    between atoms: C_1  and  C_2 
REMARK    2  A    between atoms: C_5  and  O_38 
REMARK    3  A    between atoms: C_7  and  C_35 
REMARK    4  A    between atoms: C_7  and  C_36 
REMARK    5  A    between atoms: C_14  and  N_16 
REMARK       I    between atoms: N_16  and  C_17 
REMARK    6  A    between atoms: C_17  and  C_19 
REMARK    7  A    between atoms: C_19  and  C_20 
REMARK    8  A    between atoms: C_20  and  C_21 
REMARK    9  A    between atoms: C_20  and  C_22 
REMARK   10  A    between atoms: C_20  and  C_23 
REMARK   11  A    between atoms: C_24  and  C_26 
REMARK   12  A    between atoms: C_26  and  C_27 
REMARK       I    between atoms: C_27  and  N_29 
REMARK   13  A    between atoms: N_29  and  C_30 
REMARK   14  A    between atoms: C_36  and  O_37 
ROOT
ATOM      1  C   LIG d   1       4.819  -2.223  -4.653  0.00  0.00    -0.019 C 
ATOM      2  C   LIG d   1       4.451  -2.740  -3.260  0.00  0.00    -0.044 C 
ATOM      3  C   LIG d   1       4.527  -1.611  -2.236  0.00  0.00    -0.026 C 
ATOM      4  C   LIG d   1       3.531  -0.517  -2.633  0.00  0.00     0.063 C 
ATOM      5  H   LIG d   1       2.527  -0.937  -2.682  0.00  0.00     0.060 H 
ATOM      6  C   LIG d   1       3.926   0.033  -4.002  0.00  0.00     0.021 C 
ATOM      7  C   LIG d   1       3.884  -1.079  -5.055  0.00  0.00    -0.021 C 
ATOM      8  H   LIG d   1       2.865  -1.452  -5.163  0.00  0.00     0.032 H 
ATOM      9  C   LIG d   1       4.380  -0.469  -6.381  0.00  0.00    -0.016 C 
ATOM     10  C   LIG d   1       4.691  -1.568  -7.334  0.00  0.00     0.015 A 
ATOM     11  C   LIG d   1       4.835  -2.890  -7.059  0.00  0.00     0.058 A 
ATOM     12  N   LIG d   1       5.118  -3.675  -8.096  0.00  0.00    -0.229 NA
ATOM     13  C   LIG d   1       5.248  -3.203  -9.318  0.00  0.00     0.165 A 
ATOM     14  S   LIG d   1       4.965  -1.504  -9.084  0.00  0.00    -0.057 SA
ATOM     15  C   LIG d   1       4.674  -3.394  -5.633  0.00  0.00     0.016 C 
ATOM     16  H   LIG d   1       3.687  -3.844  -5.517  0.00  0.00     0.037 H 
ATOM     17  H   LIG d   1       3.437  -3.141  -3.280  0.00  0.00     0.027 H 
ATOM     18  H   LIG d   1       5.143  -3.533  -2.975  0.00  0.00     0.027 H 
ATOM     19  H   LIG d   1       4.273  -1.995  -1.247  0.00  0.00     0.029 H 
ATOM     20  H   LIG d   1       5.536  -1.198  -2.220  0.00  0.00     0.029 H 
ATOM     21  H   LIG d   1       3.603   0.169  -6.801  0.00  0.00     0.032 H 
ATOM     22  H   LIG d   1       5.277   0.121  -6.198  0.00  0.00     0.032 H 
ENDROOT
BRANCH  13  23
ATOM     23  N   LIG d   1       5.537  -3.886 -10.493  0.00  0.00    -0.265 N 
ATOM     24  C   LIG d   1       4.536  -4.314 -11.289  0.00  0.00     0.219 C 
ATOM     25  O   LIG d   1       3.383  -4.102 -10.979  0.00  0.00    -0.275 OA
ATOM     26  H   LIG d   1       6.459  -4.056 -10.742  0.00  0.00     0.157 HD
BRANCH  24  27
ATOM     27  C   LIG d   1       4.850  -5.054 -12.563  0.00  0.00     0.029 C 
ATOM     28  H   LIG d   1       4.016  -4.953 -13.257  0.00  0.00     0.036 H 
ATOM     29  H   LIG d   1       5.750  -4.636 -13.014  0.00  0.00     0.036 H 
BRANCH  27  30
ATOM     30  C   LIG d   1       5.076  -6.534 -12.250  0.00  0.00    -0.029 C 
BRANCH  30  31
ATOM     31  C   LIG d   1       6.540  -6.756 -11.865  0.00  0.00    -0.060 C 
ATOM     32  H   LIG d   1       7.113  -5.853 -12.076  0.00  0.00     0.024 H 
ATOM     33  H   LIG d   1       6.604  -6.987 -10.802  0.00  0.00     0.024 H 
ATOM     34  H   LIG d   1       6.946  -7.586 -12.442  0.00  0.00     0.024 H 
ENDBRANCH  30  31
BRANCH  30  35
ATOM     35  C   LIG d   1       4.172  -6.954 -11.088  0.00  0.00    -0.060 C 
ATOM     36  H   LIG d   1       4.711  -6.836 -10.148  0.00  0.00     0.024 H 
ATOM     37  H   LIG d   1       3.279  -6.329 -11.078  0.00  0.00     0.024 H 
ATOM     38  H   LIG d   1       3.884  -7.998 -11.212  0.00  0.00     0.024 H 
ENDBRANCH  30  35
BRANCH  30  39
ATOM     39  C   LIG d   1       4.741  -7.374 -13.486  0.00  0.00    -0.060 C 
ATOM     40  H   LIG d   1       5.496  -7.207 -14.253  0.00  0.00     0.024 H 
ATOM     41  H   LIG d   1       4.725  -8.429 -13.213  0.00  0.00     0.024 H 
ATOM     42  H   LIG d   1       3.763  -7.082 -13.868  0.00  0.00     0.024 H 
ENDBRANCH  30  39
ENDBRANCH  27  30
ENDBRANCH  24  27
ENDBRANCH  13  23
BRANCH  15  43
ATOM     43  C   LIG d   1       5.749  -4.443  -5.338  0.00  0.00     0.033 C 
ATOM     44  H   LIG d   1       6.146  -4.283  -4.335  0.00  0.00     0.036 H 
ATOM     45  H   LIG d   1       6.554  -4.351  -6.067  0.00  0.00     0.036 H 
BRANCH  43  46
ATOM     46  C   LIG d   1       5.146  -5.820  -5.426  0.00  0.00     0.219 C 
ATOM     47  O   LIG d   1       3.941  -5.957  -5.407  0.00  0.00    -0.275 OA
ATOM     48  N   LIG d   1       5.945  -6.902  -5.521  0.00  0.00    -0.265 N 
ATOM     49  H   LIG d   1       6.909  -6.792  -5.537  0.00  0.00     0.157 HD
BRANCH  48  50
ATOM     50  C   LIG d   1       5.388  -8.173  -5.597  0.00  0.00     0.164 A 
ATOM     51  S   LIG d   1       4.949  -9.089  -7.005  0.00  0.00    -0.060 SA
ATOM     52  C   LIG d   1       4.341 -10.541  -6.158  0.00  0.00    -0.003 A 
ATOM     53  C   LIG d   1       4.530 -10.176  -4.867  0.00  0.00     0.037 A 
ATOM     54  H   LIG d   1       3.932 -11.454  -6.563  0.00  0.00     0.071 H 
ATOM     55  N   LIG d   1       5.053  -8.990  -4.618  0.00  0.00    -0.233 NA
ATOM     56  H   LIG d   1       4.257 -10.839  -4.060  0.00  0.00     0.084 H 
ENDBRANCH  48  50
ENDBRANCH  43  46
ENDBRANCH  15  43
BRANCH   1  57
ATOM     57  C   LIG d   1       6.269  -1.734  -4.652  0.00  0.00    -0.059 C 
ATOM     58  H   LIG d   1       6.417  -1.035  -5.476  0.00  0.00     0.024 H 
ATOM     59  H   LIG d   1       6.483  -1.232  -3.708  0.00  0.00     0.024 H 
ATOM     60  H   LIG d   1       6.940  -2.584  -4.772  0.00  0.00     0.024 H 
ENDBRANCH   1  57
BRANCH   6  61
ATOM     61  C   LIG d   1       2.954   1.145  -4.401  0.00  0.00    -0.055 C 
ATOM     62  H   LIG d   1       1.991   0.708  -4.666  0.00  0.00     0.024 H 
ATOM     63  H   LIG d   1       2.824   1.831  -3.565  0.00  0.00     0.024 H 
ATOM     64  H   LIG d   1       3.354   1.688  -5.257  0.00  0.00     0.024 H 
ENDBRANCH   6  61
BRANCH   6  65
ATOM     65  C   LIG d   1       5.343   0.607  -3.927  0.00  0.00     0.052 C 
ATOM     66  H   LIG d   1       5.988  -0.087  -3.388  0.00  0.00     0.056 H 
ATOM     67  H   LIG d   1       5.730   0.751  -4.937  0.00  0.00     0.056 H 
BRANCH  65  68
ATOM     68  O   LIG d   1       5.314   1.861  -3.243  0.00  0.00    -0.394 OA
ATOM     69  H   LIG d   1       5.447   2.626  -3.820  0.00  0.00     0.209 HD
ENDBRANCH  65  68
ENDBRANCH   6  65
BRANCH   4  70
ATOM     70  O   LIG d   1       3.563   0.535  -1.667  0.00  0.00    -0.391 OA
ATOM     71  H   LIG d   1       3.265   1.391  -2.005  0.00  0.00     0.210 HD
ENDBRANCH   4  70
TORSDOF 14
ENDMDL
MODEL 8
REMARK VINA RESULT:      -5.4      7.693     11.723
REMARK  14 active torsions:
REMARK  status: ('A' for Active; 'I' for Inactive)
REMARK    1  A    between atoms: C_1  and  C_2 
REMARK    2  A    between atoms: C_5  and  O_38 
REMARK    3  A    between atoms: C_7  and  C_35 
REMARK    4  A    between atoms: C_7  and  C_36 
REMARK    5  A    between atoms: C_14  and  N_16 
REMARK       I    between atoms: N_16  and  C_17 
REMARK    6  A    between atoms: C_17  and  C_19 
REMARK    7  A    between atoms: C_19  and  C_20 
REMARK    8  A    between atoms: C_20  and  C_21 
REMARK    9  A    between atoms: C_20  and  C_22 
REMARK   10  A    between atoms: C_20  and  C_23 
REMARK   11  A    between atoms: C_24  and  C_26 
REMARK   12  A    between atoms: C_26  and  C_27 
REMARK       I    between atoms: C_27  and  N_29 
REMARK   13  A    between atoms: N_29  and  C_30 
REMARK   14  A    between atoms: C_36  and  O_37 
ROOT
ATOM      1  C   LIG d   1       4.955  -2.124  -4.966  0.00  0.00    -0.019 C 
ATOM      2  C   LIG d   1       4.949  -2.854  -3.619  0.00  0.00    -0.044 C 
ATOM      3  C   LIG d   1       5.258  -1.880  -2.485  0.00  0.00    -0.026 C 
ATOM      4  C   LIG d   1       4.178  -0.794  -2.460  0.00  0.00     0.063 C 
ATOM      5  H   LIG d   1       3.199  -1.255  -2.328  0.00  0.00     0.060 H 
ATOM      6  C   LIG d   1       4.215  -0.034  -3.785  0.00  0.00     0.021 C 
ATOM      7  C   LIG d   1       3.932  -0.985  -4.952  0.00  0.00    -0.021 C 
ATOM      8  H   LIG d   1       2.924  -1.391  -4.866  0.00  0.00     0.032 H 
ATOM      9  C   LIG d   1       4.076  -0.167  -6.250  0.00  0.00    -0.016 C 
ATOM     10  C   LIG d   1       4.160  -1.100  -7.405  0.00  0.00     0.015 A 
ATOM     11  C   LIG d   1       4.388  -2.439  -7.376  0.00  0.00     0.058 A 
ATOM     12  N   LIG d   1       4.418  -3.051  -8.558  0.00  0.00    -0.229 NA
ATOM     13  C   LIG d   1       4.236  -2.403  -9.689  0.00  0.00     0.165 A 
ATOM     14  S   LIG d   1       3.992  -0.772  -9.139  0.00  0.00    -0.057 SA
ATOM     15  C   LIG d   1       4.591  -3.149  -6.047  0.00  0.00     0.016 C 
ATOM     16  H   LIG d   1       3.670  -3.662  -5.766  0.00  0.00     0.037 H 
ATOM     17  H   LIG d   1       3.968  -3.300  -3.454  0.00  0.00     0.027 H 
ATOM     18  H   LIG d   1       5.703  -3.642  -3.633  0.00  0.00     0.027 H 
ATOM     19  H   LIG d   1       5.261  -2.414  -1.534  0.00  0.00     0.029 H 
ATOM     20  H   LIG d   1       6.233  -1.422  -2.651  0.00  0.00     0.029 H 
ATOM     21  H   LIG d   1       3.210   0.483  -6.369  0.00  0.00     0.032 H 
ATOM     22  H   LIG d   1       4.981   0.437  -6.201  0.00  0.00     0.032 H 
ENDROOT
BRANCH  13  23
ATOM     23  N   LIG d   1       4.236  -2.895 -10.989  0.00  0.00    -0.265 N 
ATOM     24  C   LIG d   1       3.072  -3.203 -11.594  0.00  0.00     0.219 C 
ATOM     25  O   LIG d   1       2.023  -3.051 -11.005  0.00  0.00    -0.275 OA
ATOM     26  H   LIG d   1       5.075  -3.017 -11.461  0.00  0.00     0.157 HD
BRANCH  24  27
ATOM     27  C   LIG d   1       3.074  -3.737 -13.004  0.00  0.00     0.029 C 
ATOM     28  H   LIG d   1       4.067  -4.111 -13.249  0.00  0.00     0.036 H 
ATOM     29  H   LIG d   1       2.350  -4.547 -13.086  0.00  0.00     0.036 H 
BRANCH  27  30
ATOM     30  C   LIG d   1       2.697  -2.616 -13.973  0.00  0.00    -0.029 C 
BRANCH  30  31
ATOM     31  C   LIG d   1       1.173  -2.481 -14.030  0.00  0.00    -0.060 C 
ATOM     32  H   LIG d   1       0.856  -1.671 -13.373  0.00  0.00     0.024 H 
ATOM     33  H   LIG d   1       0.866  -2.261 -15.052  0.00  0.00     0.024 H 
ATOM     34  H   LIG d   1       0.713  -3.413 -13.705  0.00  0.00     0.024 H 
ENDBRANCH  30  31
BRANCH  30  35
ATOM     35  C   LIG d   1       3.308  -1.297 -13.493  0.00  0.00    -0.060 C 
ATOM     36  H   LIG d   1       3.555  -0.677 -14.354  0.00  0.00     0.024 H 
ATOM     37  H   LIG d   1       2.592  -0.774 -12.860  0.00  0.00     0.024 H 
ATOM     38  H   LIG d   1       4.214  -1.504 -12.924  0.00  0.00     0.024 H 
ENDBRANCH  30  35
BRANCH  30  39
ATOM     39  C   LIG d   1       3.231  -2.947 -15.369  0.00  0.00    -0.060 C 
ATOM     40  H   LIG d   1       4.301  -3.143 -15.311  0.00  0.00     0.024 H 
ATOM     41  H   LIG d   1       2.720  -3.830 -15.753  0.00  0.00     0.024 H 
ATOM     42  H   LIG d   1       3.052  -2.104 -16.036  0.00  0.00     0.024 H 
ENDBRANCH  30  39
ENDBRANCH  27  30
ENDBRANCH  24  27
ENDBRANCH  13  23
BRANCH  15  43
ATOM     43  C   LIG d   1       5.721  -4.171  -6.183  0.00  0.00     0.033 C 
ATOM     44  H   LIG d   1       6.449  -4.016  -5.386  0.00  0.00     0.036 H 
ATOM     45  H   LIG d   1       6.209  -4.047  -7.150  0.00  0.00     0.036 H 
BRANCH  43  46
ATOM     46  C   LIG d   1       5.156  -5.564  -6.081  0.00  0.00     0.219 C 
ATOM     47  O   LIG d   1       3.995  -5.725  -5.769  0.00  0.00    -0.275 OA
ATOM     48  N   LIG d   1       5.940  -6.631  -6.331  0.00  0.00    -0.265 N 
ATOM     49  H   LIG d   1       6.869  -6.501  -6.581  0.00  0.00     0.157 HD
BRANCH  48  50
ATOM     50  C   LIG d   1       5.420  -7.915  -6.232  0.00  0.00     0.164 A 
ATOM     51  S   LIG d   1       5.224  -8.907  -4.820  0.00  0.00    -0.060 SA
ATOM     52  C   LIG d   1       4.505 -10.328  -5.632  0.00  0.00    -0.003 A 
ATOM     53  C   LIG d   1       4.491  -9.902  -6.918  0.00  0.00     0.037 A 
ATOM     54  H   LIG d   1       4.177 -11.268  -5.214  0.00  0.00     0.071 H 
ATOM     55  N   LIG d   1       4.953  -8.697  -7.187  0.00  0.00    -0.233 NA
ATOM     56  H   LIG d   1       4.112 -10.536  -7.706  0.00  0.00     0.084 H 
ENDBRANCH  48  50
ENDBRANCH  43  46
ENDBRANCH  15  43
BRANCH   1  57
ATOM     57  C   LIG d   1       6.353  -1.565  -5.240  0.00  0.00    -0.059 C 
ATOM     58  H   LIG d   1       6.412  -0.540  -4.873  0.00  0.00     0.024 H 
ATOM     59  H   LIG d   1       7.096  -2.177  -4.729  0.00  0.00     0.024 H 
ATOM     60  H   LIG d   1       6.546  -1.578  -6.313  0.00  0.00     0.024 H 
ENDBRANCH   1  57
BRANCH   6  61
ATOM     61  C   LIG d   1       3.157   1.071  -3.764  0.00  0.00    -0.055 C 
ATOM     62  H   LIG d   1       3.147   1.547  -2.784  0.00  0.00     0.024 H 
ATOM     63  H   LIG d   1       3.393   1.813  -4.526  0.00  0.00     0.024 H 
ATOM     64  H   LIG d   1       2.177   0.640  -3.968  0.00  0.00     0.024 H 
ENDBRANCH   6  61
BRANCH   6  65
ATOM     65  C   LIG d   1       5.597   0.596  -3.968  0.00  0.00     0.052 C 
ATOM     66  H   LIG d   1       6.366  -0.134  -3.713  0.00  0.00     0.056 H 
ATOM     67  H   LIG d   1       5.720   0.906  -5.006  0.00  0.00     0.056 H 
BRANCH  65  68
ATOM     68  O   LIG d   1       5.719   1.735  -3.113  0.00  0.00    -0.394 OA
ATOM     69  H   LIG d   1       5.463   2.569  -3.530  0.00  0.00     0.209 HD
ENDBRANCH  65  68
ENDBRANCH   6  65
BRANCH   4  70
ATOM     70  O   LIG d   1       4.431   0.109  -1.382  0.00  0.00    -0.391 OA
ATOM     71  H   LIG d   1       3.819   0.857  -1.343  0.00  0.00     0.210 HD
ENDBRANCH   4  70
TORSDOF 14
ENDMDL
MODEL 9
REMARK VINA RESULT:      -5.4      3.279      8.490
REMARK  14 active torsions:
REMARK  status: ('A' for Active; 'I' for Inactive)
REMARK    1  A    between atoms: C_1  and  C_2 
REMARK    2  A    between atoms: C_5  and  O_38 
REMARK    3  A    between atoms: C_7  and  C_35 
REMARK    4  A    between atoms: C_7  and  C_36 
REMARK    5  A    between atoms: C_14  and  N_16 
REMARK       I    between atoms: N_16  and  C_17 
REMARK    6  A    between atoms: C_17  and  C_19 
REMARK    7  A    between atoms: C_19  and  C_20 
REMARK    8  A    between atoms: C_20  and  C_21 
REMARK    9  A    between atoms: C_20  and  C_22 
REMARK   10  A    between atoms: C_20  and  C_23 
REMARK   11  A    between atoms: C_24  and  C_26 
REMARK   12  A    between atoms: C_26  and  C_27 
REMARK       I    between atoms: C_27  and  N_29 
REMARK   13  A    between atoms: N_29  and  C_30 
REMARK   14  A    between atoms: C_36  and  O_37 
ROOT
ATOM      1  C   LIG d   1      10.485   6.130  -3.338  0.00  0.00    -0.019 C 
ATOM      2  C   LIG d   1      10.384   4.951  -2.365  0.00  0.00    -0.044 C 
ATOM      3  C   LIG d   1      11.006   5.318  -1.020  0.00  0.00    -0.026 C 
ATOM      4  C   LIG d   1      10.242   6.508  -0.431  0.00  0.00     0.063 C 
ATOM      5  H   LIG d   1       9.190   6.248  -0.321  0.00  0.00     0.060 H 
ATOM      6  C   LIG d   1      10.382   7.698  -1.378  0.00  0.00     0.021 C 
ATOM      7  C   LIG d   1       9.789   7.360  -2.750  0.00  0.00    -0.021 C 
ATOM      8  H   LIG d   1       8.719   7.174  -2.657  0.00  0.00     0.032 H 
ATOM      9  C   LIG d   1      10.048   8.570  -3.669  0.00  0.00    -0.016 C 
ATOM     10  C   LIG d   1       9.814   8.166  -5.080  0.00  0.00     0.015 A 
ATOM     11  C   LIG d   1       9.695   6.907  -5.575  0.00  0.00     0.058 A 
ATOM     12  N   LIG d   1       9.490   6.812  -6.887  0.00  0.00    -0.229 NA
ATOM     13  C   LIG d   1       9.402   7.873  -7.662  0.00  0.00     0.165 A 
ATOM     14  S   LIG d   1       9.620   9.172  -6.528  0.00  0.00    -0.057 SA
ATOM     15  C   LIG d   1       9.800   5.709  -4.644  0.00  0.00     0.016 C 
ATOM     16  H   LIG d   1       8.800   5.332  -4.425  0.00  0.00     0.037 H 
ATOM     17  H   LIG d   1       9.335   4.693  -2.218  0.00  0.00     0.027 H 
ATOM     18  H   LIG d   1      10.909   4.093  -2.784  0.00  0.00     0.027 H 
ATOM     19  H   LIG d   1      10.937   4.467  -0.341  0.00  0.00     0.029 H 
ATOM     20  H   LIG d   1      12.052   5.589  -1.162  0.00  0.00     0.029 H 
ATOM     21  H   LIG d   1       9.371   9.381  -3.404  0.00  0.00     0.032 H 
ATOM     22  H   LIG d   1      11.079   8.903  -3.549  0.00  0.00     0.032 H 
ENDROOT
BRANCH  13  23
ATOM     23  N   LIG d   1       9.190   7.938  -9.034  0.00  0.00    -0.265 N 
ATOM     24  C   LIG d   1      10.233   7.844  -9.883  0.00  0.00     0.219 C 
ATOM     25  O   LIG d   1      11.357   7.703  -9.450  0.00  0.00    -0.275 OA
ATOM     26  H   LIG d   1       8.292   8.051  -9.381  0.00  0.00     0.157 HD
BRANCH  24  27
ATOM     27  C   LIG d   1      10.002   7.915 -11.370  0.00  0.00     0.029 C 
ATOM     28  H   LIG d   1       9.077   8.454 -11.569  0.00  0.00     0.036 H 
ATOM     29  H   LIG d   1      10.835   8.437 -11.843  0.00  0.00     0.036 H 
BRANCH  27  30
ATOM     30  C   LIG d   1       9.901   6.499 -11.938  0.00  0.00    -0.029 C 
BRANCH  30  31
ATOM     31  C   LIG d   1       8.886   6.479 -13.083  0.00  0.00    -0.060 C 
ATOM     32  H   LIG d   1       8.501   5.467 -13.211  0.00  0.00     0.024 H 
ATOM     33  H   LIG d   1       8.062   7.154 -12.849  0.00  0.00     0.024 H 
ATOM     34  H   LIG d   1       9.370   6.802 -14.004  0.00  0.00     0.024 H 
ENDBRANCH  30  31
BRANCH  30  35
ATOM     35  C   LIG d   1      11.270   6.059 -12.463  0.00  0.00    -0.060 C 
ATOM     36  H   LIG d   1      11.168   5.698 -13.486  0.00  0.00     0.024 H 
ATOM     37  H   LIG d   1      11.956   6.906 -12.442  0.00  0.00     0.024 H 
ATOM     38  H   LIG d   1      11.660   5.260 -11.833  0.00  0.00     0.024 H 
ENDBRANCH  30  35
BRANCH  30  39
ATOM     39  C   LIG d   1       9.445   5.538 -10.837  0.00  0.00    -0.060 C 
ATOM     40  H   LIG d   1      10.106   5.633  -9.976  0.00  0.00     0.024 H 
ATOM     41  H   LIG d   1       8.425   5.784 -10.541  0.00  0.00     0.024 H 
ATOM     42  H   LIG d   1       9.479   4.515 -11.211  0.00  0.00     0.024 H 
ENDBRANCH  30  39
ENDBRANCH  27  30
ENDBRANCH  24  27
ENDBRANCH  13  23
BRANCH  15  43
ATOM     43  C   LIG d   1      10.621   4.608  -5.319  0.00  0.00     0.033 C 
ATOM     44  H   LIG d   1      11.434   4.306  -4.660  0.00  0.00     0.036 H 
ATOM     45  H   LIG d   1      11.033   4.986  -6.256  0.00  0.00     0.036 H 
BRANCH  43  46
ATOM     46  C   LIG d   1       9.737   3.422  -5.602  0.00  0.00     0.219 C 
ATOM     47  O   LIG d   1       9.271   3.264  -6.711  0.00  0.00    -0.275 OA
ATOM     48  N   LIG d   1       9.459   2.539  -4.623  0.00  0.00    -0.265 N 
ATOM     49  H   LIG d   1       9.832   2.665  -3.736  0.00  0.00     0.157 HD
BRANCH  48  50
ATOM     50  C   LIG d   1       8.639   1.448  -4.883  0.00  0.00     0.164 A 
ATOM     51  S   LIG d   1       9.064  -0.108  -5.527  0.00  0.00    -0.060 SA
ATOM     52  C   LIG d   1       7.427  -0.824  -5.508  0.00  0.00    -0.003 A 
ATOM     53  C   LIG d   1       6.706   0.211  -5.010  0.00  0.00     0.037 A 
ATOM     54  H   LIG d   1       7.101  -1.807  -5.812  0.00  0.00     0.071 H 
ATOM     55  N   LIG d   1       7.337   1.329  -4.709  0.00  0.00    -0.233 NA
ATOM     56  H   LIG d   1       5.640   0.122  -4.866  0.00  0.00     0.084 H 
ENDBRANCH  48  50
ENDBRANCH  43  46
ENDBRANCH  15  43
BRANCH   1  57
ATOM     57  C   LIG d   1      11.957   6.446  -3.611  0.00  0.00    -0.059 C 
ATOM     58  H   LIG d   1      12.475   5.532  -3.905  0.00  0.00     0.024 H 
ATOM     59  H   LIG d   1      12.029   7.179  -4.414  0.00  0.00     0.024 H 
ATOM     60  H   LIG d   1      12.416   6.848  -2.708  0.00  0.00     0.024 H 
ENDBRANCH   1  57
BRANCH   6  61
ATOM     61  C   LIG d   1       9.644   8.902  -0.790  0.00  0.00    -0.055 C 
ATOM     62  H   LIG d   1      10.077   9.822  -1.184  0.00  0.00     0.024 H 
ATOM     63  H   LIG d   1       8.591   8.852  -1.064  0.00  0.00     0.024 H 
ATOM     64  H   LIG d   1       9.738   8.892   0.295  0.00  0.00     0.024 H 
ENDBRANCH   6  61
BRANCH   6  65
ATOM     65  C   LIG d   1      11.864   8.045  -1.539  0.00  0.00     0.052 C 
ATOM     66  H   LIG d   1      12.462   7.140  -1.439  0.00  0.00     0.056 H 
ATOM     67  H   LIG d   1      12.029   8.483  -2.524  0.00  0.00     0.056 H 
BRANCH  65  68
ATOM     68  O   LIG d   1      12.246   8.982  -0.529  0.00  0.00    -0.394 OA
ATOM     69  H   LIG d   1      11.559   9.152   0.130  0.00  0.00     0.209 HD
ENDBRANCH  65  68
ENDBRANCH   6  65
BRANCH   4  70
ATOM     70  O   LIG d   1      10.789   6.845   0.846  0.00  0.00    -0.391 OA
ATOM     71  H   LIG d   1      11.754   6.799   0.886  0.00  0.00     0.210 HD
ENDBRANCH   4  70
TORSDOF 14
ENDMDL
