MODEL 1
REMARK VINA RESULT:      -7.3      0.000      0.000
REMARK  8 active torsions:
REMARK  status: ('A' for Active; 'I' for Inactive)
REMARK    1  A    between atoms: C_1  and  C_2 
REMARK    2  A    between atoms: C_6  and  O_29 
REMARK    3  A    between atoms: C_7  and  C_28 
REMARK    4  A    between atoms: C_12  and  C_13 
REMARK    5  A    between atoms: C_13  and  C_14 
REMARK    6  A    between atoms: C_14  and  C_15 
REMARK       I    between atoms: C_15  and  N_17 
REMARK    7  A    between atoms: N_17  and  C_18 
REMARK    8  A    between atoms: O_29  and  C_30 
ROOT
ATOM      1  C   LIG d   1       6.146  -1.140  -3.761  0.00  0.00    -0.030 A 
ATOM      2  C   LIG d   1       7.372  -0.461  -4.184  0.00  0.00     0.021 A 
ATOM      3  C   LIG d   1       8.306  -1.106  -5.003  0.00  0.00    -0.047 A 
ATOM      4  C   LIG d   1       9.445  -0.453  -5.378  0.00  0.00    -0.019 A 
ATOM      5  C   LIG d   1       9.684   0.851  -4.949  0.00  0.00     0.127 A 
ATOM      6  C   LIG d   1       8.770   1.503  -4.137  0.00  0.00     0.034 A 
ATOM      7  C   LIG d   1       7.608   0.855  -3.748  0.00  0.00     0.146 A 
ATOM      8  O   LIG d   1       6.706   1.473  -2.956  0.00  0.00    -0.422 OA
ATOM      9  C   LIG d   1       5.576   0.859  -2.571  0.00  0.00     0.341 A 
ATOM     10  O   LIG d   1       4.790   1.455  -1.856  0.00  0.00    -0.245 OA
ATOM     11  C   LIG d   1       5.276  -0.460  -2.970  0.00  0.00     0.041 A 
ATOM     12  H   LIG d   1       8.127  -2.117  -5.339  0.00  0.00     0.063 H 
ATOM     13  H   LIG d   1      10.165  -0.949  -6.011  0.00  0.00     0.065 H 
ENDROOT
BRANCH  11  14
ATOM     14  C   LIG d   1       3.997  -1.114  -2.514  0.00  0.00    -0.012 C 
ATOM     15  H   LIG d   1       3.925  -2.122  -2.951  0.00  0.00     0.032 H 
ATOM     16  H   LIG d   1       3.994  -1.189  -1.418  0.00  0.00     0.032 H 
BRANCH  14  17
ATOM     17  C   LIG d   1       2.803  -0.275  -2.973  0.00  0.00     0.029 C 
ATOM     18  H   LIG d   1       1.882  -0.871  -2.888  0.00  0.00     0.036 H 
ATOM     19  H   LIG d   1       2.719   0.621  -2.340  0.00  0.00     0.036 H 
BRANCH  17  20
ATOM     20  C   LIG d   1       3.002   0.140  -4.408  0.00  0.00     0.217 C 
ATOM     21  O   LIG d   1       2.992   1.316  -4.706  0.00  0.00    -0.276 OA
ATOM     22  N   LIG d   1       3.190  -0.795  -5.360  0.00  0.00    -0.285 N 
ATOM     23  H   LIG d   1       3.124  -1.862  -5.102  0.00  0.00     0.155 HD
BRANCH  22  24
ATOM     24  C   LIG d   1       3.471  -0.407  -6.675  0.00  0.00     0.035 A 
ATOM     25  C   LIG d   1       4.776  -0.434  -7.135  0.00  0.00    -0.017 A 
ATOM     26  C   LIG d   1       5.054  -0.050  -8.442  0.00  0.00     0.048 A 
ATOM     27  H   LIG d   1       5.574  -0.753  -6.482  0.00  0.00     0.066 H 
ATOM     28  C   LIG d   1       4.001   0.362  -9.280  0.00  0.00    -0.000 A 
ATOM     29  N   LIG d   1       6.215   0.032  -9.178  0.00  0.00    -0.361 N 
ATOM     30  C   LIG d   1       2.691   0.383  -8.798  0.00  0.00    -0.051 A 
ATOM     31  C   LIG d   1       4.617   0.696 -10.568  0.00  0.00    -0.037 A 
ATOM     32  C   LIG d   1       2.433  -0.003  -7.513  0.00  0.00    -0.040 A 
ATOM     33  H   LIG d   1       1.883   0.699  -9.441  0.00  0.00     0.062 H 
ATOM     34  H   LIG d   1       1.418   0.009  -7.144  0.00  0.00     0.064 H 
ATOM     35  C   LIG d   1       5.934   0.478 -10.442  0.00  0.00     0.003 A 
ATOM     36  H   LIG d   1       4.105   1.049 -11.451  0.00  0.00     0.064 H 
ATOM     37  H   LIG d   1       6.666   0.631 -11.222  0.00  0.00     0.081 H 
ATOM     38  H   LIG d   1       7.253  -0.200  -8.894  0.00  0.00     0.165 HD
ENDBRANCH  22  24
ENDBRANCH  17  20
ENDBRANCH  14  17
ENDBRANCH  11  14
BRANCH   1  39
ATOM     39  C   LIG d   1       5.852  -2.552  -4.198  0.00  0.00    -0.039 C 
ATOM     40  H   LIG d   1       6.790  -3.126  -4.238  0.00  0.00     0.028 H 
ATOM     41  H   LIG d   1       5.387  -2.539  -5.194  0.00  0.00     0.028 H 
ATOM     42  H   LIG d   1       5.165  -3.023  -3.479  0.00  0.00     0.028 H 
ENDBRANCH   1  39
BRANCH   6  43
ATOM     43  C   LIG d   1       9.038   2.915  -3.679  0.00  0.00    -0.033 C 
ATOM     44  H   LIG d   1       9.240   3.551  -4.553  0.00  0.00     0.028 H 
ATOM     45  H   LIG d   1       9.910   2.923  -3.009  0.00  0.00     0.028 H 
ATOM     46  H   LIG d   1       8.158   3.298  -3.141  0.00  0.00     0.028 H 
ENDBRANCH   6  43
BRANCH   5  47
ATOM     47  O   LIG d   1      10.821   1.487  -5.329  0.00  0.00    -0.495 OA
BRANCH  47  48
ATOM     48  C   LIG d   1      12.048   1.009  -4.776  0.00  0.00     0.079 C 
ATOM     49  H   LIG d   1      12.528   1.813  -4.199  0.00  0.00     0.066 H 
ATOM     50  H   LIG d   1      12.717   0.690  -5.587  0.00  0.00     0.066 H 
ATOM     51  H   LIG d   1      11.842   0.155  -4.112  0.00  0.00     0.066 H 
ENDBRANCH  47  48
ENDBRANCH   5  47
TORSDOF 8
ENDMDL
MODEL 2
REMARK VINA RESULT:      -7.1      2.098      2.789
REMARK  8 active torsions:
REMARK  status: ('A' for Active; 'I' for Inactive)
REMARK    1  A    between atoms: C_1  and  C_2 
REMARK    2  A    between atoms: C_6  and  O_29 
REMARK    3  A    between atoms: C_7  and  C_28 
REMARK    4  A    between atoms: C_12  and  C_13 
REMARK    5  A    between atoms: C_13  and  C_14 
REMARK    6  A    between atoms: C_14  and  C_15 
REMARK       I    between atoms: C_15  and  N_17 
REMARK    7  A    between atoms: N_17  and  C_18 
REMARK    8  A    between atoms: O_29  and  C_30 
ROOT
ATOM      1  C   LIG d   1       5.381  -1.508  -3.252  0.00  0.00    -0.030 A 
ATOM      2  C   LIG d   1       6.541  -2.045  -3.967  0.00  0.00     0.021 A 
ATOM      3  C   LIG d   1       6.625  -3.405  -4.284  0.00  0.00    -0.047 A 
ATOM      4  C   LIG d   1       7.720  -3.881  -4.946  0.00  0.00    -0.019 A 
ATOM      5  C   LIG d   1       8.756  -3.021  -5.307  0.00  0.00     0.127 A 
ATOM      6  C   LIG d   1       8.688  -1.671  -5.000  0.00  0.00     0.034 A 
ATOM      7  C   LIG d   1       7.582  -1.172  -4.328  0.00  0.00     0.146 A 
ATOM      8  O   LIG d   1       7.498   0.140  -4.020  0.00  0.00    -0.422 OA
ATOM      9  C   LIG d   1       6.435   0.640  -3.370  0.00  0.00     0.341 A 
ATOM     10  O   LIG d   1       6.402   1.829  -3.113  0.00  0.00    -0.245 OA
ATOM     11  C   LIG d   1       5.356  -0.178  -2.977  0.00  0.00     0.041 A 
ATOM     12  H   LIG d   1       5.826  -4.077  -4.007  0.00  0.00     0.063 H 
ATOM     13  H   LIG d   1       7.786  -4.930  -5.191  0.00  0.00     0.065 H 
ENDROOT
BRANCH  11  14
ATOM     14  C   LIG d   1       4.180   0.421  -2.249  0.00  0.00    -0.012 C 
ATOM     15  H   LIG d   1       3.555  -0.385  -1.837  0.00  0.00     0.032 H 
ATOM     16  H   LIG d   1       4.542   1.059  -1.430  0.00  0.00     0.032 H 
BRANCH  14  17
ATOM     17  C   LIG d   1       3.351   1.261  -3.223  0.00  0.00     0.029 C 
ATOM     18  H   LIG d   1       2.416   1.572  -2.734  0.00  0.00     0.036 H 
ATOM     19  H   LIG d   1       3.924   2.153  -3.518  0.00  0.00     0.036 H 
BRANCH  17  20
ATOM     20  C   LIG d   1       3.029   0.441  -4.446  0.00  0.00     0.217 C 
ATOM     21  O   LIG d   1       2.049  -0.273  -4.456  0.00  0.00    -0.276 OA
ATOM     22  N   LIG d   1       3.831   0.501  -5.527  0.00  0.00    -0.285 N 
ATOM     23  H   LIG d   1       4.760   1.089  -5.490  0.00  0.00     0.155 HD
BRANCH  22  24
ATOM     24  C   LIG d   1       3.482  -0.186  -6.696  0.00  0.00     0.035 A 
ATOM     25  C   LIG d   1       4.044  -1.423  -6.959  0.00  0.00    -0.017 A 
ATOM     26  C   LIG d   1       3.697  -2.105  -8.121  0.00  0.00     0.048 A 
ATOM     27  H   LIG d   1       4.749  -1.857  -6.266  0.00  0.00     0.066 H 
ATOM     28  C   LIG d   1       2.777  -1.524  -9.013  0.00  0.00    -0.000 A 
ATOM     29  N   LIG d   1       4.071  -3.318  -8.653  0.00  0.00    -0.361 N 
ATOM     30  C   LIG d   1       2.221  -0.275  -8.730  0.00  0.00    -0.051 A 
ATOM     31  C   LIG d   1       2.629  -2.477 -10.117  0.00  0.00    -0.037 A 
ATOM     32  C   LIG d   1       2.568   0.379  -7.583  0.00  0.00    -0.040 A 
ATOM     33  H   LIG d   1       1.515   0.170  -9.415  0.00  0.00     0.062 H 
ATOM     34  H   LIG d   1       2.132   1.343  -7.363  0.00  0.00     0.064 H 
ATOM     35  C   LIG d   1       3.424  -3.523  -9.843  0.00  0.00     0.003 A 
ATOM     36  H   LIG d   1       1.998  -2.360 -10.985  0.00  0.00     0.064 H 
ATOM     37  H   LIG d   1       3.537  -4.396 -10.468  0.00  0.00     0.081 H 
ATOM     38  H   LIG d   1       4.768  -4.077  -8.268  0.00  0.00     0.165 HD
ENDBRANCH  22  24
ENDBRANCH  17  20
ENDBRANCH  14  17
ENDBRANCH  11  14
BRANCH   1  39
ATOM     39  C   LIG d   1       4.243  -2.406  -2.839  0.00  0.00    -0.039 C 
ATOM     40  H   LIG d   1       3.801  -2.872  -3.732  0.00  0.00     0.028 H 
ATOM     41  H   LIG d   1       3.478  -1.812  -2.318  0.00  0.00     0.028 H 
ATOM     42  H   LIG d   1       4.621  -3.190  -2.165  0.00  0.00     0.028 H 
ENDBRANCH   1  39
BRANCH   6  43
ATOM     43  C   LIG d   1       9.813  -0.749  -5.396  0.00  0.00    -0.033 C 
ATOM     44  H   LIG d   1       9.467   0.294  -5.346  0.00  0.00     0.028 H 
ATOM     45  H   LIG d   1      10.134  -0.981  -6.422  0.00  0.00     0.028 H 
ATOM     46  H   LIG d   1      10.660  -0.888  -4.707  0.00  0.00     0.028 H 
ENDBRANCH   6  43
BRANCH   5  47
ATOM     47  O   LIG d   1       9.839  -3.509  -5.964  0.00  0.00    -0.495 OA
BRANCH  47  48
ATOM     48  C   LIG d   1      10.661  -4.439  -5.257  0.00  0.00     0.079 C 
ATOM     49  H   LIG d   1      10.122  -5.391  -5.142  0.00  0.00     0.066 H 
ATOM     50  H   LIG d   1      10.905  -4.034  -4.265  0.00  0.00     0.066 H 
ATOM     51  H   LIG d   1      11.589  -4.610  -5.822  0.00  0.00     0.066 H 
ENDBRANCH  47  48
ENDBRANCH   5  47
TORSDOF 8
ENDMDL
MODEL 3
REMARK VINA RESULT:      -7.1      2.048      2.955
REMARK  8 active torsions:
REMARK  status: ('A' for Active; 'I' for Inactive)
REMARK    1  A    between atoms: C_1  and  C_2 
REMARK    2  A    between atoms: C_6  and  O_29 
REMARK    3  A    between atoms: C_7  and  C_28 
REMARK    4  A    between atoms: C_12  and  C_13 
REMARK    5  A    between atoms: C_13  and  C_14 
REMARK    6  A    between atoms: C_14  and  C_15 
REMARK       I    between atoms: C_15  and  N_17 
REMARK    7  A    between atoms: N_17  and  C_18 
REMARK    8  A    between atoms: O_29  and  C_30 
ROOT
ATOM      1  C   LIG d   1       6.129  -0.357  -3.502  0.00  0.00    -0.030 A 
ATOM      2  C   LIG d   1       7.126  -1.136  -4.238  0.00  0.00     0.021 A 
ATOM      3  C   LIG d   1       8.288  -0.534  -4.735  0.00  0.00    -0.047 A 
ATOM      4  C   LIG d   1       9.199  -1.282  -5.423  0.00  0.00    -0.019 A 
ATOM      5  C   LIG d   1       8.980  -2.642  -5.635  0.00  0.00     0.127 A 
ATOM      6  C   LIG d   1       7.835  -3.254  -5.150  0.00  0.00     0.034 A 
ATOM      7  C   LIG d   1       6.900  -2.508  -4.448  0.00  0.00     0.146 A 
ATOM      8  O   LIG d   1       5.778  -3.086  -3.968  0.00  0.00    -0.422 OA
ATOM      9  C   LIG d   1       4.863  -2.379  -3.287  0.00  0.00     0.341 A 
ATOM     10  O   LIG d   1       3.866  -2.942  -2.872  0.00  0.00    -0.245 OA
ATOM     11  C   LIG d   1       5.025  -1.001  -3.040  0.00  0.00     0.041 A 
ATOM     12  H   LIG d   1       8.463   0.520  -4.574  0.00  0.00     0.063 H 
ATOM     13  H   LIG d   1      10.095  -0.817  -5.807  0.00  0.00     0.065 H 
ENDROOT
BRANCH  11  14
ATOM     14  C   LIG d   1       3.974  -0.242  -2.271  0.00  0.00    -0.012 C 
ATOM     15  H   LIG d   1       3.839  -0.703  -1.282  0.00  0.00     0.032 H 
ATOM     16  H   LIG d   1       4.293   0.803  -2.148  0.00  0.00     0.032 H 
BRANCH  14  17
ATOM     17  C   LIG d   1       2.650  -0.285  -3.038  0.00  0.00     0.029 C 
ATOM     18  H   LIG d   1       2.337  -1.332  -3.168  0.00  0.00     0.036 H 
ATOM     19  H   LIG d   1       1.881   0.261  -2.473  0.00  0.00     0.036 H 
BRANCH  17  20
ATOM     20  C   LIG d   1       2.832   0.355  -4.390  0.00  0.00     0.217 C 
ATOM     21  O   LIG d   1       3.094   1.537  -4.471  0.00  0.00    -0.276 OA
ATOM     22  N   LIG d   1       2.703  -0.385  -5.509  0.00  0.00    -0.285 N 
ATOM     23  H   LIG d   1       2.392  -1.437  -5.439  0.00  0.00     0.155 HD
BRANCH  22  24
ATOM     24  C   LIG d   1       2.966   0.187  -6.760  0.00  0.00     0.035 A 
ATOM     25  C   LIG d   1       3.670  -0.534  -7.708  0.00  0.00    -0.017 A 
ATOM     26  C   LIG d   1       3.931   0.034  -8.951  0.00  0.00     0.048 A 
ATOM     27  H   LIG d   1       4.016  -1.532  -7.485  0.00  0.00     0.066 H 
ATOM     28  C   LIG d   1       3.473   1.336  -9.225  0.00  0.00    -0.000 A 
ATOM     29  N   LIG d   1       4.588  -0.412 -10.076  0.00  0.00    -0.361 N 
ATOM     30  C   LIG d   1       2.764   2.047  -8.255  0.00  0.00    -0.051 A 
ATOM     31  C   LIG d   1       3.904   1.635 -10.594  0.00  0.00    -0.037 A 
ATOM     32  C   LIG d   1       2.512   1.473  -7.041  0.00  0.00    -0.040 A 
ATOM     33  H   LIG d   1       2.413   3.046  -8.465  0.00  0.00     0.062 H 
ATOM     34  H   LIG d   1       1.959   2.024  -6.294  0.00  0.00     0.064 H 
ATOM     35  C   LIG d   1       4.561   0.555 -11.045  0.00  0.00     0.003 A 
ATOM     36  H   LIG d   1       3.725   2.552 -11.137  0.00  0.00     0.064 H 
ATOM     37  H   LIG d   1       5.003   0.463 -12.026  0.00  0.00     0.081 H 
ATOM     38  H   LIG d   1       5.088  -1.373 -10.272  0.00  0.00     0.165 HD
ENDBRANCH  22  24
ENDBRANCH  17  20
ENDBRANCH  14  17
ENDBRANCH  11  14
BRANCH   1  39
ATOM     39  C   LIG d   1       6.325   1.117  -3.256  0.00  0.00    -0.039 C 
ATOM     40  H   LIG d   1       5.349   1.625  -3.278  0.00  0.00     0.028 H 
ATOM     41  H   LIG d   1       6.974   1.536  -4.038  0.00  0.00     0.028 H 
ATOM     42  H   LIG d   1       6.793   1.265  -2.271  0.00  0.00     0.028 H 
ENDBRANCH   1  39
BRANCH   6  43
ATOM     43  C   LIG d   1       7.608  -4.725  -5.384  0.00  0.00    -0.033 C 
ATOM     44  H   LIG d   1       7.726  -5.270  -4.435  0.00  0.00     0.028 H 
ATOM     45  H   LIG d   1       8.341  -5.098  -6.115  0.00  0.00     0.028 H 
ATOM     46  H   LIG d   1       6.591  -4.882  -5.773  0.00  0.00     0.028 H 
ENDBRANCH   6  43
BRANCH   5  47
ATOM     47  O   LIG d   1       9.895  -3.372  -6.322  0.00  0.00    -0.495 OA
BRANCH  47  48
ATOM     48  C   LIG d   1      11.163  -3.576  -5.698  0.00  0.00     0.079 C 
ATOM     49  H   LIG d   1      11.392  -2.722  -5.045  0.00  0.00     0.066 H 
ATOM     50  H   LIG d   1      11.941  -3.668  -6.468  0.00  0.00     0.066 H 
ATOM     51  H   LIG d   1      11.131  -4.498  -5.097  0.00  0.00     0.066 H 
ENDBRANCH  47  48
ENDBRANCH   5  47
TORSDOF 8
ENDMDL
MODEL 4
REMARK VINA RESULT:      -6.9      4.041      8.491
REMARK  8 active torsions:
REMARK  status: ('A' for Active; 'I' for Inactive)
REMARK    1  A    between atoms: C_1  and  C_2 
REMARK    2  A    between atoms: C_6  and  O_29 
REMARK    3  A    between atoms: C_7  and  C_28 
REMARK    4  A    between atoms: C_12  and  C_13 
REMARK    5  A    between atoms: C_13  and  C_14 
REMARK    6  A    between atoms: C_14  and  C_15 
REMARK       I    between atoms: C_15  and  N_17 
REMARK    7  A    between atoms: N_17  and  C_18 
REMARK    8  A    between atoms: O_29  and  C_30 
ROOT
ATOM      1  C   LIG d   1       8.755   0.089  -4.564  0.00  0.00    -0.030 A 
ATOM      2  C   LIG d   1       7.472  -0.286  -3.965  0.00  0.00     0.021 A 
ATOM      3  C   LIG d   1       7.075  -1.626  -3.894  0.00  0.00    -0.047 A 
ATOM      4  C   LIG d   1       5.872  -1.948  -3.335  0.00  0.00    -0.019 A 
ATOM      5  C   LIG d   1       5.036  -0.951  -2.837  0.00  0.00     0.127 A 
ATOM      6  C   LIG d   1       5.414   0.380  -2.899  0.00  0.00     0.034 A 
ATOM      7  C   LIG d   1       6.633   0.725  -3.463  0.00  0.00     0.146 A 
ATOM      8  O   LIG d   1       7.019   2.016  -3.534  0.00  0.00    -0.422 OA
ATOM      9  C   LIG d   1       8.196   2.367  -4.076  0.00  0.00     0.341 A 
ATOM     10  O   LIG d   1       8.503   3.544  -4.118  0.00  0.00    -0.245 OA
ATOM     11  C   LIG d   1       9.086   1.407  -4.598  0.00  0.00     0.041 A 
ATOM     12  H   LIG d   1       7.719  -2.404  -4.279  0.00  0.00     0.063 H 
ATOM     13  H   LIG d   1       5.565  -2.982  -3.280  0.00  0.00     0.065 H 
ENDROOT
BRANCH  11  14
ATOM     14  C   LIG d   1      10.398   1.840  -5.200  0.00  0.00    -0.012 C 
ATOM     15  H   LIG d   1      10.690   1.134  -5.990  0.00  0.00     0.032 H 
ATOM     16  H   LIG d   1      10.290   2.847  -5.629  0.00  0.00     0.032 H 
BRANCH  14  17
ATOM     17  C   LIG d   1      11.475   1.862  -4.112  0.00  0.00     0.029 C 
ATOM     18  H   LIG d   1      11.236   1.110  -3.345  0.00  0.00     0.036 H 
ATOM     19  H   LIG d   1      12.453   1.630  -4.560  0.00  0.00     0.036 H 
BRANCH  17  20
ATOM     20  C   LIG d   1      11.522   3.228  -3.479  0.00  0.00     0.217 C 
ATOM     21  O   LIG d   1      11.987   4.165  -4.094  0.00  0.00    -0.276 OA
ATOM     22  N   LIG d   1      11.049   3.409  -2.231  0.00  0.00    -0.285 N 
ATOM     23  H   LIG d   1      10.698   2.546  -1.646  0.00  0.00     0.155 HD
BRANCH  22  24
ATOM     24  C   LIG d   1      11.004   4.694  -1.678  0.00  0.00     0.035 A 
ATOM     25  C   LIG d   1       9.945   5.533  -1.978  0.00  0.00    -0.017 A 
ATOM     26  C   LIG d   1       9.901   6.811  -1.429  0.00  0.00     0.048 A 
ATOM     27  H   LIG d   1       9.157   5.198  -2.635  0.00  0.00     0.066 H 
ATOM     28  C   LIG d   1      10.937   7.231  -0.575  0.00  0.00    -0.000 A 
ATOM     29  N   LIG d   1       9.008   7.853  -1.530  0.00  0.00    -0.361 N 
ATOM     30  C   LIG d   1      11.997   6.370  -0.284  0.00  0.00    -0.051 A 
ATOM     31  C   LIG d   1      10.599   8.600  -0.173  0.00  0.00    -0.037 A 
ATOM     32  C   LIG d   1      12.023   5.117  -0.827  0.00  0.00    -0.040 A 
ATOM     33  H   LIG d   1      12.792   6.693   0.372  0.00  0.00     0.062 H 
ATOM     34  H   LIG d   1      12.842   4.451  -0.597  0.00  0.00     0.064 H 
ATOM     35  C   LIG d   1       9.440   8.911  -0.775  0.00  0.00     0.003 A 
ATOM     36  H   LIG d   1      11.173   9.237   0.483  0.00  0.00     0.064 H 
ATOM     37  H   LIG d   1       8.925   9.855  -0.678  0.00  0.00     0.081 H 
ATOM     38  H   LIG d   1       8.068   7.930  -2.097  0.00  0.00     0.165 HD
ENDBRANCH  22  24
ENDBRANCH  17  20
ENDBRANCH  14  17
ENDBRANCH  11  14
BRANCH   1  39
ATOM     39  C   LIG d   1       9.685  -0.958  -5.120  0.00  0.00    -0.039 C 
ATOM     40  H   LIG d   1       9.998  -1.636  -4.313  0.00  0.00     0.028 H 
ATOM     41  H   LIG d   1      10.570  -0.470  -5.553  0.00  0.00     0.028 H 
ATOM     42  H   LIG d   1       9.165  -1.533  -5.901  0.00  0.00     0.028 H 
ENDBRANCH   1  39
BRANCH   6  43
ATOM     43  C   LIG d   1       4.502   1.451  -2.356  0.00  0.00    -0.033 C 
ATOM     44  H   LIG d   1       4.899   1.819  -1.398  0.00  0.00     0.028 H 
ATOM     45  H   LIG d   1       3.497   1.033  -2.200  0.00  0.00     0.028 H 
ATOM     46  H   LIG d   1       4.446   2.283  -3.074  0.00  0.00     0.028 H 
ENDBRANCH   6  43
BRANCH   5  47
ATOM     47  O   LIG d   1       3.842  -1.287  -2.285  0.00  0.00    -0.495 OA
BRANCH  47  48
ATOM     48  C   LIG d   1       2.686  -1.159  -3.114  0.00  0.00     0.079 C 
ATOM     49  H   LIG d   1       2.818  -0.310  -3.800  0.00  0.00     0.066 H 
ATOM     50  H   LIG d   1       1.801  -0.988  -2.486  0.00  0.00     0.066 H 
ATOM     51  H   LIG d   1       2.548  -2.083  -3.697  0.00  0.00     0.066 H 
ENDBRANCH  47  48
ENDBRANCH   5  47
TORSDOF 8
ENDMDL
MODEL 5
REMARK VINA RESULT:      -6.8      6.416      8.593
REMARK  8 active torsions:
REMARK  status: ('A' for Active; 'I' for Inactive)
REMARK    1  A    between atoms: C_1  and  C_2 
REMARK    2  A    between atoms: C_6  and  O_29 
REMARK    3  A    between atoms: C_7  and  C_28 
REMARK    4  A    between atoms: C_12  and  C_13 
REMARK    5  A    between atoms: C_13  and  C_14 
REMARK    6  A    between atoms: C_14  and  C_15 
REMARK       I    between atoms: C_15  and  N_17 
REMARK    7  A    between atoms: N_17  and  C_18 
REMARK    8  A    between atoms: O_29  and  C_30 
ROOT
ATOM      1  C   LIG d   1       6.976  -3.574  -4.977  0.00  0.00    -0.030 A 
ATOM      2  C   LIG d   1       6.395  -2.482  -4.192  0.00  0.00     0.021 A 
ATOM      3  C   LIG d   1       7.170  -1.386  -3.798  0.00  0.00    -0.047 A 
ATOM      4  C   LIG d   1       6.604  -0.385  -3.062  0.00  0.00    -0.019 A 
ATOM      5  C   LIG d   1       5.260  -0.448  -2.700  0.00  0.00     0.127 A 
ATOM      6  C   LIG d   1       4.479  -1.527  -3.083  0.00  0.00     0.034 A 
ATOM      7  C   LIG d   1       5.037  -2.552  -3.831  0.00  0.00     0.146 A 
ATOM      8  O   LIG d   1       4.293  -3.611  -4.212  0.00  0.00    -0.422 OA
ATOM      9  C   LIG d   1       4.819  -4.612  -4.937  0.00  0.00     0.341 A 
ATOM     10  O   LIG d   1       4.109  -5.548  -5.259  0.00  0.00    -0.245 OA
ATOM     11  C   LIG d   1       6.171  -4.608  -5.334  0.00  0.00     0.041 A 
ATOM     12  H   LIG d   1       8.212  -1.331  -4.075  0.00  0.00     0.063 H 
ATOM     13  H   LIG d   1       7.202   0.461  -2.757  0.00  0.00     0.065 H 
ENDROOT
BRANCH  11  14
ATOM     14  C   LIG d   1       6.724  -5.751  -6.146  0.00  0.00    -0.012 C 
ATOM     15  H   LIG d   1       5.909  -6.227  -6.711  0.00  0.00     0.032 H 
ATOM     16  H   LIG d   1       7.481  -5.370  -6.846  0.00  0.00     0.032 H 
BRANCH  14  17
ATOM     17  C   LIG d   1       7.364  -6.779  -5.210  0.00  0.00     0.029 C 
ATOM     18  H   LIG d   1       8.440  -6.849  -5.424  0.00  0.00     0.036 H 
ATOM     19  H   LIG d   1       7.217  -6.466  -4.166  0.00  0.00     0.036 H 
BRANCH  17  20
ATOM     20  C   LIG d   1       6.721  -8.124  -5.428  0.00  0.00     0.217 C 
ATOM     21  O   LIG d   1       7.409  -9.122  -5.493  0.00  0.00    -0.276 OA
ATOM     22  N   LIG d   1       5.382  -8.219  -5.552  0.00  0.00    -0.285 N 
ATOM     23  H   LIG d   1       4.766  -7.308  -5.570  0.00  0.00     0.155 HD
BRANCH  22  24
ATOM     24  C   LIG d   1       4.777  -9.477  -5.659  0.00  0.00     0.035 A 
ATOM     25  C   LIG d   1       4.668 -10.084  -6.898  0.00  0.00    -0.017 A 
ATOM     26  C   LIG d   1       4.066 -11.333  -7.003  0.00  0.00     0.048 A 
ATOM     27  H   LIG d   1       5.049  -9.589  -7.779  0.00  0.00     0.066 H 
ATOM     28  C   LIG d   1       3.576 -11.963  -5.844  0.00  0.00    -0.000 A 
ATOM     29  N   LIG d   1       3.813 -12.175  -8.063  0.00  0.00    -0.361 N 
ATOM     30  C   LIG d   1       3.695 -11.335  -4.603  0.00  0.00    -0.051 A 
ATOM     31  C   LIG d   1       3.012 -13.242  -6.288  0.00  0.00    -0.037 A 
ATOM     32  C   LIG d   1       4.293 -10.111  -4.516  0.00  0.00    -0.040 A 
ATOM     33  H   LIG d   1       3.319 -11.819  -3.714  0.00  0.00     0.062 H 
ATOM     34  H   LIG d   1       4.389  -9.629  -3.553  0.00  0.00     0.064 H 
ATOM     35  C   LIG d   1       3.185 -13.307  -7.617  0.00  0.00     0.003 A 
ATOM     36  H   LIG d   1       2.546 -13.989  -5.663  0.00  0.00     0.064 H 
ATOM     37  H   LIG d   1       2.874 -14.131  -8.243  0.00  0.00     0.081 H 
ATOM     38  H   LIG d   1       4.038 -12.056  -9.133  0.00  0.00     0.165 HD
ENDBRANCH  22  24
ENDBRANCH  17  20
ENDBRANCH  14  17
ENDBRANCH  11  14
BRANCH   1  39
ATOM     39  C   LIG d   1       8.428  -3.547  -5.383  0.00  0.00    -0.039 C 
ATOM     40  H   LIG d   1       8.894  -4.514  -5.142  0.00  0.00     0.028 H 
ATOM     41  H   LIG d   1       8.946  -2.744  -4.840  0.00  0.00     0.028 H 
ATOM     42  H   LIG d   1       8.502  -3.364  -6.466  0.00  0.00     0.028 H 
ENDBRANCH   1  39
BRANCH   6  43
ATOM     43  C   LIG d   1       3.025  -1.585  -2.687  0.00  0.00    -0.033 C 
ATOM     44  H   LIG d   1       2.866  -0.979  -1.783  0.00  0.00     0.028 H 
ATOM     45  H   LIG d   1       2.742  -2.629  -2.484  0.00  0.00     0.028 H 
ATOM     46  H   LIG d   1       2.406  -1.190  -3.507  0.00  0.00     0.028 H 
ENDBRANCH   6  43
BRANCH   5  47
ATOM     47  O   LIG d   1       4.712   0.555  -1.967  0.00  0.00    -0.495 OA
BRANCH  47  48
ATOM     48  C   LIG d   1       4.177   1.666  -2.688  0.00  0.00     0.079 C 
ATOM     49  H   LIG d   1       3.368   1.320  -3.348  0.00  0.00     0.066 H 
ATOM     50  H   LIG d   1       4.970   2.128  -3.291  0.00  0.00     0.066 H 
ATOM     51  H   LIG d   1       3.778   2.406  -1.977  0.00  0.00     0.066 H 
ENDBRANCH  47  48
ENDBRANCH   5  47
TORSDOF 8
ENDMDL
MODEL 6
REMARK VINA RESULT:      -6.8      3.116      4.925
REMARK  8 active torsions:
REMARK  status: ('A' for Active; 'I' for Inactive)
REMARK    1  A    between atoms: C_1  and  C_2 
REMARK    2  A    between atoms: C_6  and  O_29 
REMARK    3  A    between atoms: C_7  and  C_28 
REMARK    4  A    between atoms: C_12  and  C_13 
REMARK    5  A    between atoms: C_13  and  C_14 
REMARK    6  A    between atoms: C_14  and  C_15 
REMARK       I    between atoms: C_15  and  N_17 
REMARK    7  A    between atoms: N_17  and  C_18 
REMARK    8  A    between atoms: O_29  and  C_30 
ROOT
ATOM      1  C   LIG d   1       6.652  -3.504  -5.949  0.00  0.00    -0.030 A 
ATOM      2  C   LIG d   1       6.295  -2.528  -4.918  0.00  0.00     0.021 A 
ATOM      3  C   LIG d   1       7.073  -1.383  -4.709  0.00  0.00    -0.047 A 
ATOM      4  C   LIG d   1       6.721  -0.492  -3.737  0.00  0.00    -0.019 A 
ATOM      5  C   LIG d   1       5.592  -0.715  -2.950  0.00  0.00     0.127 A 
ATOM      6  C   LIG d   1       4.812  -1.843  -3.144  0.00  0.00     0.034 A 
ATOM      7  C   LIG d   1       5.155  -2.759  -4.127  0.00  0.00     0.146 A 
ATOM      8  O   LIG d   1       4.408  -3.864  -4.331  0.00  0.00    -0.422 OA
ATOM      9  C   LIG d   1       4.726  -4.760  -5.279  0.00  0.00     0.341 A 
ATOM     10  O   LIG d   1       4.023  -5.743  -5.427  0.00  0.00    -0.245 OA
ATOM     11  C   LIG d   1       5.855  -4.593  -6.107  0.00  0.00     0.041 A 
ATOM     12  H   LIG d   1       7.949  -1.205  -5.315  0.00  0.00     0.063 H 
ATOM     13  H   LIG d   1       7.320   0.391  -3.575  0.00  0.00     0.065 H 
ENDROOT
BRANCH  11  14
ATOM     14  C   LIG d   1       6.179  -5.622  -7.159  0.00  0.00    -0.012 C 
ATOM     15  H   LIG d   1       7.183  -5.427  -7.565  0.00  0.00     0.032 H 
ATOM     16  H   LIG d   1       6.153  -6.625  -6.711  0.00  0.00     0.032 H 
BRANCH  14  17
ATOM     17  C   LIG d   1       5.148  -5.539  -8.288  0.00  0.00     0.029 C 
ATOM     18  H   LIG d   1       5.459  -6.193  -9.116  0.00  0.00     0.036 H 
ATOM     19  H   LIG d   1       4.167  -5.864  -7.913  0.00  0.00     0.036 H 
BRANCH  17  20
ATOM     20  C   LIG d   1       5.054  -4.117  -8.779  0.00  0.00     0.217 C 
ATOM     21  O   LIG d   1       5.911  -3.672  -9.513  0.00  0.00    -0.276 OA
ATOM     22  N   LIG d   1       4.019  -3.342  -8.402  0.00  0.00    -0.285 N 
ATOM     23  H   LIG d   1       3.284  -3.721  -7.677  0.00  0.00     0.155 HD
BRANCH  22  24
ATOM     24  C   LIG d   1       3.880  -2.054  -8.933  0.00  0.00     0.035 A 
ATOM     25  C   LIG d   1       4.443  -0.975  -8.273  0.00  0.00    -0.017 A 
ATOM     26  C   LIG d   1       4.305   0.304  -8.801  0.00  0.00     0.048 A 
ATOM     27  H   LIG d   1       4.988  -1.126  -7.354  0.00  0.00     0.066 H 
ATOM     28  C   LIG d   1       3.591   0.482 -10.001  0.00  0.00    -0.000 A 
ATOM     29  N   LIG d   1       4.736   1.547  -8.395  0.00  0.00    -0.361 N 
ATOM     30  C   LIG d   1       3.030  -0.618 -10.651  0.00  0.00    -0.051 A 
ATOM     31  C   LIG d   1       3.628   1.921 -10.282  0.00  0.00    -0.037 A 
ATOM     32  C   LIG d   1       3.180  -1.869 -10.123  0.00  0.00    -0.040 A 
ATOM     33  H   LIG d   1       2.483  -0.481 -11.572  0.00  0.00     0.062 H 
ATOM     34  H   LIG d   1       2.749  -2.719 -10.631  0.00  0.00     0.064 H 
ATOM     35  C   LIG d   1       4.323   2.498  -9.290  0.00  0.00     0.003 A 
ATOM     36  H   LIG d   1       3.180   2.421 -11.128  0.00  0.00     0.064 H 
ATOM     37  H   LIG d   1       4.527   3.555  -9.209  0.00  0.00     0.081 H 
ATOM     38  H   LIG d   1       5.323   1.841  -7.512  0.00  0.00     0.165 HD
ENDBRANCH  22  24
ENDBRANCH  17  20
ENDBRANCH  14  17
ENDBRANCH  11  14
BRANCH   1  39
ATOM     39  C   LIG d   1       7.868  -3.304  -6.817  0.00  0.00    -0.039 C 
ATOM     40  H   LIG d   1       7.568  -2.830  -7.764  0.00  0.00     0.028 H 
ATOM     41  H   LIG d   1       8.335  -4.277  -7.025  0.00  0.00     0.028 H 
ATOM     42  H   LIG d   1       8.588  -2.656  -6.295  0.00  0.00     0.028 H 
ENDBRANCH   1  39
BRANCH   6  43
ATOM     43  C   LIG d   1       3.592  -2.075  -2.288  0.00  0.00    -0.033 C 
ATOM     44  H   LIG d   1       3.881  -2.060  -1.227  0.00  0.00     0.028 H 
ATOM     45  H   LIG d   1       3.151  -3.052  -2.535  0.00  0.00     0.028 H 
ATOM     46  H   LIG d   1       2.854  -1.281  -2.480  0.00  0.00     0.028 H 
ENDBRANCH   6  43
BRANCH   5  47
ATOM     47  O   LIG d   1       5.255   0.180  -1.987  0.00  0.00    -0.495 OA
BRANCH  47  48
ATOM     48  C   LIG d   1       4.652   1.401  -2.418  0.00  0.00     0.079 C 
ATOM     49  H   LIG d   1       3.939   1.191  -3.229  0.00  0.00     0.066 H 
ATOM     50  H   LIG d   1       5.430   2.086  -2.782  0.00  0.00     0.066 H 
ATOM     51  H   LIG d   1       4.120   1.865  -1.574  0.00  0.00     0.066 H 
ENDBRANCH  47  48
ENDBRANCH   5  47
TORSDOF 8
ENDMDL
MODEL 7
REMARK VINA RESULT:      -6.7      5.976      8.562
REMARK  8 active torsions:
REMARK  status: ('A' for Active; 'I' for Inactive)
REMARK    1  A    between atoms: C_1  and  C_2 
REMARK    2  A    between atoms: C_6  and  O_29 
REMARK    3  A    between atoms: C_7  and  C_28 
REMARK    4  A    between atoms: C_12  and  C_13 
REMARK    5  A    between atoms: C_13  and  C_14 
REMARK    6  A    between atoms: C_14  and  C_15 
REMARK       I    between atoms: C_15  and  N_17 
REMARK    7  A    between atoms: N_17  and  C_18 
REMARK    8  A    between atoms: O_29  and  C_30 
ROOT
ATOM      1  C   LIG d   1       6.767  -6.944  -5.518  0.00  0.00    -0.030 A 
ATOM      2  C   LIG d   1       7.075  -8.065  -4.629  0.00  0.00     0.021 A 
ATOM      3  C   LIG d   1       8.158  -8.006  -3.744  0.00  0.00    -0.047 A 
ATOM      4  C   LIG d   1       8.427  -9.068  -2.929  0.00  0.00    -0.019 A 
ATOM      5  C   LIG d   1       7.631 -10.211  -2.974  0.00  0.00     0.127 A 
ATOM      6  C   LIG d   1       6.556 -10.286  -3.844  0.00  0.00     0.034 A 
ATOM      7  C   LIG d   1       6.268  -9.216  -4.678  0.00  0.00     0.146 A 
ATOM      8  O   LIG d   1       5.225  -9.270  -5.534  0.00  0.00    -0.422 OA
ATOM      9  C   LIG d   1       4.933  -8.242  -6.347  0.00  0.00     0.341 A 
ATOM     10  O   LIG d   1       3.982  -8.336  -7.103  0.00  0.00    -0.245 OA
ATOM     11  C   LIG d   1       5.699  -7.059  -6.351  0.00  0.00     0.041 A 
ATOM     12  H   LIG d   1       8.779  -7.123  -3.704  0.00  0.00     0.063 H 
ATOM     13  H   LIG d   1       9.262  -9.023  -2.247  0.00  0.00     0.065 H 
ENDROOT
BRANCH  11  14
ATOM     14  C   LIG d   1       5.340  -5.929  -7.280  0.00  0.00    -0.012 C 
ATOM     15  H   LIG d   1       6.162  -5.199  -7.305  0.00  0.00     0.032 H 
ATOM     16  H   LIG d   1       5.170  -6.325  -8.292  0.00  0.00     0.032 H 
BRANCH  14  17
ATOM     17  C   LIG d   1       4.066  -5.243  -6.780  0.00  0.00     0.029 C 
ATOM     18  H   LIG d   1       3.403  -5.037  -7.633  0.00  0.00     0.036 H 
ATOM     19  H   LIG d   1       3.551  -5.902  -6.066  0.00  0.00     0.036 H 
BRANCH  17  20
ATOM     20  C   LIG d   1       4.427  -3.948  -6.100  0.00  0.00     0.217 C 
ATOM     21  O   LIG d   1       4.620  -2.949  -6.761  0.00  0.00    -0.276 OA
ATOM     22  N   LIG d   1       4.537  -3.899  -4.758  0.00  0.00    -0.285 N 
ATOM     23  H   LIG d   1       4.438  -4.820  -4.165  0.00  0.00     0.155 HD
BRANCH  22  24
ATOM     24  C   LIG d   1       4.778  -2.677  -4.119  0.00  0.00     0.035 A 
ATOM     25  C   LIG d   1       3.713  -1.873  -3.754  0.00  0.00    -0.017 A 
ATOM     26  C   LIG d   1       3.953  -0.658  -3.119  0.00  0.00     0.048 A 
ATOM     27  H   LIG d   1       2.701  -2.186  -3.960  0.00  0.00     0.066 H 
ATOM     28  C   LIG d   1       5.279  -0.266  -2.858  0.00  0.00    -0.000 A 
ATOM     29  N   LIG d   1       3.132   0.339  -2.643  0.00  0.00    -0.361 N 
ATOM     30  C   LIG d   1       6.340  -1.091  -3.234  0.00  0.00    -0.051 A 
ATOM     31  C   LIG d   1       5.190   1.038  -2.192  0.00  0.00    -0.037 A 
ATOM     32  C   LIG d   1       6.088  -2.283  -3.852  0.00  0.00    -0.040 A 
ATOM     33  H   LIG d   1       7.357  -0.789  -3.034  0.00  0.00     0.062 H 
ATOM     34  H   LIG d   1       6.910  -2.922  -4.138  0.00  0.00     0.064 H 
ATOM     35  C   LIG d   1       3.886   1.341  -2.094  0.00  0.00     0.003 A 
ATOM     36  H   LIG d   1       6.017   1.639  -1.846  0.00  0.00     0.064 H 
ATOM     37  H   LIG d   1       3.491   2.242  -1.649  0.00  0.00     0.081 H 
ATOM     38  H   LIG d   1       2.034   0.419  -2.651  0.00  0.00     0.165 HD
ENDBRANCH  22  24
ENDBRANCH  17  20
ENDBRANCH  14  17
ENDBRANCH  11  14
BRANCH   1  39
ATOM     39  C   LIG d   1       7.606  -5.692  -5.505  0.00  0.00    -0.039 C 
ATOM     40  H   LIG d   1       7.083  -4.906  -4.941  0.00  0.00     0.028 H 
ATOM     41  H   LIG d   1       7.775  -5.352  -6.537  0.00  0.00     0.028 H 
ATOM     42  H   LIG d   1       8.574  -5.904  -5.026  0.00  0.00     0.028 H 
ENDBRANCH   1  39
BRANCH   6  43
ATOM     43  C   LIG d   1       5.700 -11.527  -3.884  0.00  0.00    -0.033 C 
ATOM     44  H   LIG d   1       4.647 -11.251  -3.731  0.00  0.00     0.028 H 
ATOM     45  H   LIG d   1       6.019 -12.217  -3.089  0.00  0.00     0.028 H 
ATOM     46  H   LIG d   1       5.812 -12.017  -4.863  0.00  0.00     0.028 H 
ENDBRANCH   6  43
BRANCH   5  47
ATOM     47  O   LIG d   1       7.912 -11.260  -2.159  0.00  0.00    -0.495 OA
BRANCH  47  48
ATOM     48  C   LIG d   1       7.667 -11.079  -0.763  0.00  0.00     0.079 C 
ATOM     49  H   LIG d   1       6.609 -10.826  -0.606  0.00  0.00     0.066 H 
ATOM     50  H   LIG d   1       8.299 -10.265  -0.382  0.00  0.00     0.066 H 
ATOM     51  H   LIG d   1       7.905 -12.010  -0.226  0.00  0.00     0.066 H 
ENDBRANCH  47  48
ENDBRANCH   5  47
TORSDOF 8
ENDMDL
MODEL 8
REMARK VINA RESULT:      -6.7      5.961      8.696
REMARK  8 active torsions:
REMARK  status: ('A' for Active; 'I' for Inactive)
REMARK    1  A    between atoms: C_1  and  C_2 
REMARK    2  A    between atoms: C_6  and  O_29 
REMARK    3  A    between atoms: C_7  and  C_28 
REMARK    4  A    between atoms: C_12  and  C_13 
REMARK    5  A    between atoms: C_13  and  C_14 
REMARK    6  A    between atoms: C_14  and  C_15 
REMARK       I    between atoms: C_15  and  N_17 
REMARK    7  A    between atoms: N_17  and  C_18 
REMARK    8  A    between atoms: O_29  and  C_30 
ROOT
ATOM      1  C   LIG d   1       7.022  -7.745  -6.114  0.00  0.00    -0.030 A 
ATOM      2  C   LIG d   1       6.676  -8.811  -5.172  0.00  0.00     0.021 A 
ATOM      3  C   LIG d   1       7.610  -9.790  -4.816  0.00  0.00    -0.047 A 
ATOM      4  C   LIG d   1       7.260 -10.777  -3.941  0.00  0.00    -0.019 A 
ATOM      5  C   LIG d   1       5.976 -10.816  -3.400  0.00  0.00     0.127 A 
ATOM      6  C   LIG d   1       5.039  -9.855  -3.742  0.00  0.00     0.034 A 
ATOM      7  C   LIG d   1       5.379  -8.845  -4.629  0.00  0.00     0.146 A 
ATOM      8  O   LIG d   1       4.479  -7.900  -4.976  0.00  0.00    -0.422 OA
ATOM      9  C   LIG d   1       4.793  -6.916  -5.834  0.00  0.00     0.341 A 
ATOM     10  O   LIG d   1       3.949  -6.085  -6.117  0.00  0.00    -0.245 OA
ATOM     11  C   LIG d   1       6.073  -6.821  -6.416  0.00  0.00     0.041 A 
ATOM     12  H   LIG d   1       8.607  -9.765  -5.232  0.00  0.00     0.063 H 
ATOM     13  H   LIG d   1       7.980 -11.532  -3.666  0.00  0.00     0.065 H 
ENDROOT
BRANCH  11  14
ATOM     14  C   LIG d   1       6.386  -5.702  -7.376  0.00  0.00    -0.012 C 
ATOM     15  H   LIG d   1       6.713  -6.124  -8.337  0.00  0.00     0.032 H 
ATOM     16  H   LIG d   1       5.486  -5.090  -7.531  0.00  0.00     0.032 H 
BRANCH  14  17
ATOM     17  C   LIG d   1       7.503  -4.830  -6.796  0.00  0.00     0.029 C 
ATOM     18  H   LIG d   1       8.313  -5.474  -6.423  0.00  0.00     0.036 H 
ATOM     19  H   LIG d   1       7.894  -4.166  -7.580  0.00  0.00     0.036 H 
BRANCH  17  20
ATOM     20  C   LIG d   1       6.956  -4.003  -5.661  0.00  0.00     0.217 C 
ATOM     21  O   LIG d   1       7.558  -3.945  -4.610  0.00  0.00    -0.276 OA
ATOM     22  N   LIG d   1       5.800  -3.329  -5.815  0.00  0.00    -0.285 N 
ATOM     23  H   LIG d   1       5.216  -3.442  -6.741  0.00  0.00     0.155 HD
BRANCH  22  24
ATOM     24  C   LIG d   1       5.341  -2.485  -4.796  0.00  0.00     0.035 A 
ATOM     25  C   LIG d   1       5.689  -1.146  -4.807  0.00  0.00    -0.017 A 
ATOM     26  C   LIG d   1       5.234  -0.307  -3.795  0.00  0.00     0.048 A 
ATOM     27  H   LIG d   1       6.312  -0.753  -5.597  0.00  0.00     0.066 H 
ATOM     28  C   LIG d   1       4.423  -0.836  -2.774  0.00  0.00    -0.000 A 
ATOM     29  N   LIG d   1       5.400   1.034  -3.530  0.00  0.00    -0.361 N 
ATOM     30  C   LIG d   1       4.083  -2.189  -2.780  0.00  0.00    -0.051 A 
ATOM     31  C   LIG d   1       4.118   0.286  -1.879  0.00  0.00    -0.037 A 
ATOM     32  C   LIG d   1       4.534  -2.998  -3.784  0.00  0.00    -0.040 A 
ATOM     33  H   LIG d   1       3.460  -2.595  -1.996  0.00  0.00     0.062 H 
ATOM     34  H   LIG d   1       4.265  -4.045  -3.790  0.00  0.00     0.064 H 
ATOM     35  C   LIG d   1       4.728   1.369  -2.385  0.00  0.00     0.003 A 
ATOM     36  H   LIG d   1       3.515   0.247  -0.984  0.00  0.00     0.064 H 
ATOM     37  H   LIG d   1       4.694   2.358  -1.953  0.00  0.00     0.081 H 
ATOM     38  H   LIG d   1       5.961   1.802  -4.084  0.00  0.00     0.165 HD
ENDBRANCH  22  24
ENDBRANCH  17  20
ENDBRANCH  14  17
ENDBRANCH  11  14
BRANCH   1  39
ATOM     39  C   LIG d   1       8.398  -7.670  -6.727  0.00  0.00    -0.039 C 
ATOM     40  H   LIG d   1       8.698  -6.616  -6.825  0.00  0.00     0.028 H 
ATOM     41  H   LIG d   1       8.384  -8.142  -7.719  0.00  0.00     0.028 H 
ATOM     42  H   LIG d   1       9.116  -8.196  -6.080  0.00  0.00     0.028 H 
ENDBRANCH   1  39
BRANCH   6  43
ATOM     43  C   LIG d   1       3.653  -9.906  -3.150  0.00  0.00    -0.033 C 
ATOM     44  H   LIG d   1       3.713 -10.234  -2.102  0.00  0.00     0.028 H 
ATOM     45  H   LIG d   1       3.036 -10.615  -3.722  0.00  0.00     0.028 H 
ATOM     46  H   LIG d   1       3.198  -8.905  -3.196  0.00  0.00     0.028 H 
ENDBRANCH   6  43
BRANCH   5  47
ATOM     47  O   LIG d   1       5.641 -11.804  -2.531  0.00  0.00    -0.495 OA
BRANCH  47  48
ATOM     48  C   LIG d   1       6.272 -11.781  -1.249  0.00  0.00     0.079 C 
ATOM     49  H   LIG d   1       6.592 -10.755  -1.016  0.00  0.00     0.066 H 
ATOM     50  H   LIG d   1       7.148 -12.445  -1.259  0.00  0.00     0.066 H 
ATOM     51  H   LIG d   1       5.560 -12.126  -0.484  0.00  0.00     0.066 H 
ENDBRANCH  47  48
ENDBRANCH   5  47
TORSDOF 8
ENDMDL
MODEL 9
REMARK VINA RESULT:      -6.7      4.201      7.366
REMARK  8 active torsions:
REMARK  status: ('A' for Active; 'I' for Inactive)
REMARK    1  A    between atoms: C_1  and  C_2 
REMARK    2  A    between atoms: C_6  and  O_29 
REMARK    3  A    between atoms: C_7  and  C_28 
REMARK    4  A    between atoms: C_12  and  C_13 
REMARK    5  A    between atoms: C_13  and  C_14 
REMARK    6  A    between atoms: C_14  and  C_15 
REMARK       I    between atoms: C_15  and  N_17 
REMARK    7  A    between atoms: N_17  and  C_18 
REMARK    8  A    between atoms: O_29  and  C_30 
ROOT
ATOM      1  C   LIG d   1       9.679   6.162  -3.798  0.00  0.00    -0.030 A 
ATOM      2  C   LIG d   1      10.023   6.858  -2.557  0.00  0.00     0.021 A 
ATOM      3  C   LIG d   1       9.913   8.250  -2.457  0.00  0.00    -0.047 A 
ATOM      4  C   LIG d   1      10.246   8.875  -1.291  0.00  0.00    -0.019 A 
ATOM      5  C   LIG d   1      10.697   8.137  -0.198  0.00  0.00     0.127 A 
ATOM      6  C   LIG d   1      10.812   6.759  -0.280  0.00  0.00     0.034 A 
ATOM      7  C   LIG d   1      10.478   6.108  -1.458  0.00  0.00     0.146 A 
ATOM      8  O   LIG d   1      10.584   4.766  -1.558  0.00  0.00    -0.422 OA
ATOM      9  C   LIG d   1      10.264   4.120  -2.691  0.00  0.00     0.341 A 
ATOM     10  O   LIG d   1      10.376   2.909  -2.735  0.00  0.00    -0.245 OA
ATOM     11  C   LIG d   1       9.803   4.809  -3.831  0.00  0.00     0.041 A 
ATOM     12  H   LIG d   1       9.564   8.828  -3.301  0.00  0.00     0.063 H 
ATOM     13  H   LIG d   1      10.160   9.949  -1.214  0.00  0.00     0.065 H 
ENDROOT
BRANCH  11  14
ATOM     14  C   LIG d   1       9.454   4.048  -5.084  0.00  0.00    -0.012 C 
ATOM     15  H   LIG d   1       8.384   4.172  -5.302  0.00  0.00     0.032 H 
ATOM     16  H   LIG d   1      10.048   4.435  -5.925  0.00  0.00     0.032 H 
BRANCH  14  17
ATOM     17  C   LIG d   1       9.764   2.563  -4.881  0.00  0.00     0.029 C 
ATOM     18  H   LIG d   1      10.312   2.181  -5.755  0.00  0.00     0.036 H 
ATOM     19  H   LIG d   1      10.378   2.436  -3.978  0.00  0.00     0.036 H 
BRANCH  17  20
ATOM     20  C   LIG d   1       8.474   1.799  -4.724  0.00  0.00     0.217 C 
ATOM     21  O   LIG d   1       7.676   1.764  -5.637  0.00  0.00    -0.276 OA
ATOM     22  N   LIG d   1       8.209   1.155  -3.571  0.00  0.00    -0.285 N 
ATOM     23  H   LIG d   1       8.897   1.249  -2.718  0.00  0.00     0.155 HD
BRANCH  22  24
ATOM     24  C   LIG d   1       7.057   0.366  -3.458  0.00  0.00     0.035 A 
ATOM     25  C   LIG d   1       5.842   0.964  -3.175  0.00  0.00    -0.017 A 
ATOM     26  C   LIG d   1       4.698   0.181  -3.063  0.00  0.00     0.048 A 
ATOM     27  H   LIG d   1       5.781   2.034  -3.042  0.00  0.00     0.066 H 
ATOM     28  C   LIG d   1       4.795  -1.212  -3.241  0.00  0.00    -0.000 A 
ATOM     29  N   LIG d   1       3.378   0.466  -2.798  0.00  0.00    -0.361 N 
ATOM     30  C   LIG d   1       6.031  -1.796  -3.526  0.00  0.00    -0.051 A 
ATOM     31  C   LIG d   1       3.438  -1.737  -3.061  0.00  0.00    -0.037 A 
ATOM     32  C   LIG d   1       7.143  -1.013  -3.637  0.00  0.00    -0.040 A 
ATOM     33  H   LIG d   1       6.105  -2.865  -3.662  0.00  0.00     0.062 H 
ATOM     34  H   LIG d   1       8.097  -1.467  -3.863  0.00  0.00     0.064 H 
ATOM     35  C   LIG d   1       2.642  -0.689  -2.801  0.00  0.00     0.003 A 
ATOM     36  H   LIG d   1       3.137  -2.772  -3.127  0.00  0.00     0.064 H 
ATOM     37  H   LIG d   1       1.579  -0.747  -2.620  0.00  0.00     0.081 H 
ATOM     38  H   LIG d   1       2.886   1.431  -2.601  0.00  0.00     0.165 HD
ENDBRANCH  22  24
ENDBRANCH  17  20
ENDBRANCH  14  17
ENDBRANCH  11  14
BRANCH   1  39
ATOM     39  C   LIG d   1       9.193   6.924  -5.005  0.00  0.00    -0.039 C 
ATOM     40  H   LIG d   1       8.335   7.550  -4.721  0.00  0.00     0.028 H 
ATOM     41  H   LIG d   1       8.887   6.215  -5.787  0.00  0.00     0.028 H 
ATOM     42  H   LIG d   1      10.004   7.563  -5.385  0.00  0.00     0.028 H 
ENDBRANCH   1  39
BRANCH   6  43
ATOM     43  C   LIG d   1      11.300   5.969   0.908  0.00  0.00    -0.033 C 
ATOM     44  H   LIG d   1      12.397   5.896   0.874  0.00  0.00     0.028 H 
ATOM     45  H   LIG d   1      10.864   4.960   0.881  0.00  0.00     0.028 H 
ATOM     46  H   LIG d   1      10.995   6.477   1.835  0.00  0.00     0.028 H 
ENDBRANCH   6  43
BRANCH   5  47
ATOM     47  O   LIG d   1      11.025   8.773   0.955  0.00  0.00    -0.495 OA
BRANCH  47  48
ATOM     48  C   LIG d   1      11.046  10.201   0.925  0.00  0.00     0.079 C 
ATOM     49  H   LIG d   1      10.898  10.592   1.942  0.00  0.00     0.066 H 
ATOM     50  H   LIG d   1      10.240  10.566   0.271  0.00  0.00     0.066 H 
ATOM     51  H   LIG d   1      12.016  10.546   0.537  0.00  0.00     0.066 H 
ENDBRANCH  47  48
ENDBRANCH   5  47
TORSDOF 8
ENDMDL
MODEL 10
REMARK VINA RESULT:      -6.6      4.204      8.799
REMARK  8 active torsions:
REMARK  status: ('A' for Active; 'I' for Inactive)
REMARK    1  A    between atoms: C_1  and  C_2 
REMARK    2  A    between atoms: C_6  and  O_29 
REMARK    3  A    between atoms: C_7  and  C_28 
REMARK    4  A    between atoms: C_12  and  C_13 
REMARK    5  A    between atoms: C_13  and  C_14 
REMARK    6  A    between atoms: C_14  and  C_15 
REMARK       I    between atoms: C_15  and  N_17 
REMARK    7  A    between atoms: N_17  and  C_18 
REMARK    8  A    between atoms: O_29  and  C_30 
ROOT
ATOM      1  C   LIG d   1       8.625   1.414  -4.274  0.00  0.00    -0.030 A 
ATOM      2  C   LIG d   1       7.580   0.415  -4.042  0.00  0.00     0.021 A 
ATOM      3  C   LIG d   1       6.351   0.775  -3.478  0.00  0.00    -0.047 A 
ATOM      4  C   LIG d   1       5.396  -0.177  -3.267  0.00  0.00    -0.019 A 
ATOM      5  C   LIG d   1       5.638  -1.507  -3.608  0.00  0.00     0.127 A 
ATOM      6  C   LIG d   1       6.850  -1.880  -4.167  0.00  0.00     0.034 A 
ATOM      7  C   LIG d   1       7.830  -0.925  -4.388  0.00  0.00     0.146 A 
ATOM      8  O   LIG d   1       9.018  -1.269  -4.931  0.00  0.00    -0.422 OA
ATOM      9  C   LIG d   1       9.977  -0.356  -5.152  0.00  0.00     0.341 A 
ATOM     10  O   LIG d   1      11.033  -0.713  -5.644  0.00  0.00    -0.245 OA
ATOM     11  C   LIG d   1       9.795   1.003  -4.829  0.00  0.00     0.041 A 
ATOM     12  H   LIG d   1       6.157   1.804  -3.211  0.00  0.00     0.063 H 
ATOM     13  H   LIG d   1       4.448   0.100  -2.832  0.00  0.00     0.065 H 
ENDROOT
BRANCH  11  14
ATOM     14  C   LIG d   1      10.897   1.997  -5.092  0.00  0.00    -0.012 C 
ATOM     15  H   LIG d   1      11.464   1.688  -5.982  0.00  0.00     0.032 H 
ATOM     16  H   LIG d   1      10.461   2.992  -5.261  0.00  0.00     0.032 H 
BRANCH  14  17
ATOM     17  C   LIG d   1      11.835   2.050  -3.884  0.00  0.00     0.029 C 
ATOM     18  H   LIG d   1      11.526   1.294  -3.147  0.00  0.00     0.036 H 
ATOM     19  H   LIG d   1      12.865   1.844  -4.210  0.00  0.00     0.036 H 
BRANCH  17  20
ATOM     20  C   LIG d   1      11.770   3.418  -3.256  0.00  0.00     0.217 C 
ATOM     21  O   LIG d   1      12.233   4.375  -3.840  0.00  0.00    -0.276 OA
ATOM     22  N   LIG d   1      11.197   3.578  -2.047  0.00  0.00    -0.285 N 
ATOM     23  H   LIG d   1      10.845   2.700  -1.486  0.00  0.00     0.155 HD
BRANCH  22  24
ATOM     24  C   LIG d   1      11.049   4.861  -1.507  0.00  0.00     0.035 A 
ATOM     25  C   LIG d   1      10.003   5.665  -1.924  0.00  0.00    -0.017 A 
ATOM     26  C   LIG d   1       9.857   6.940  -1.387  0.00  0.00     0.048 A 
ATOM     27  H   LIG d   1       9.304   5.305  -2.663  0.00  0.00     0.066 H 
ATOM     28  C   LIG d   1      10.778   7.393  -0.425  0.00  0.00    -0.000 A 
ATOM     29  N   LIG d   1       8.947   7.953  -1.589  0.00  0.00    -0.361 N 
ATOM     30  C   LIG d   1      11.827   6.567  -0.017  0.00  0.00    -0.051 A 
ATOM     31  C   LIG d   1      10.353   8.750  -0.067  0.00  0.00    -0.037 A 
ATOM     32  C   LIG d   1      11.954   5.316  -0.550  0.00  0.00    -0.040 A 
ATOM     33  H   LIG d   1      12.534   6.916   0.722  0.00  0.00     0.062 H 
ATOM     34  H   LIG d   1      12.764   4.677  -0.229  0.00  0.00     0.064 H 
ATOM     35  C   LIG d   1       9.259   9.024  -0.794  0.00  0.00     0.003 A 
ATOM     36  H   LIG d   1      10.831   9.405   0.647  0.00  0.00     0.064 H 
ATOM     37  H   LIG d   1       8.706   9.951  -0.757  0.00  0.00     0.081 H 
ATOM     38  H   LIG d   1       8.074   8.000  -2.257  0.00  0.00     0.165 HD
ENDBRANCH  22  24
ENDBRANCH  17  20
ENDBRANCH  14  17
ENDBRANCH  11  14
BRANCH   1  39
ATOM     39  C   LIG d   1       8.406   2.862  -3.913  0.00  0.00    -0.039 C 
ATOM     40  H   LIG d   1       9.371   3.389  -3.912  0.00  0.00     0.028 H 
ATOM     41  H   LIG d   1       7.950   2.926  -2.915  0.00  0.00     0.028 H 
ATOM     42  H   LIG d   1       7.736   3.326  -4.653  0.00  0.00     0.028 H 
ENDBRANCH   1  39
BRANCH   6  43
ATOM     43  C   LIG d   1       7.101  -3.321  -4.533  0.00  0.00    -0.033 C 
ATOM     44  H   LIG d   1       7.723  -3.365  -5.439  0.00  0.00     0.028 H 
ATOM     45  H   LIG d   1       6.141  -3.824  -4.721  0.00  0.00     0.028 H 
ATOM     46  H   LIG d   1       7.622  -3.824  -3.704  0.00  0.00     0.028 H 
ENDBRANCH   6  43
BRANCH   5  47
ATOM     47  O   LIG d   1       4.679  -2.443  -3.391  0.00  0.00    -0.495 OA
BRANCH  47  48
ATOM     48  C   LIG d   1       3.733  -2.173  -2.356  0.00  0.00     0.079 C 
ATOM     49  H   LIG d   1       4.250  -1.733  -1.491  0.00  0.00     0.066 H 
ATOM     50  H   LIG d   1       3.245  -3.110  -2.052  0.00  0.00     0.066 H 
ATOM     51  H   LIG d   1       2.974  -1.468  -2.727  0.00  0.00     0.066 H 
ENDBRANCH  47  48
ENDBRANCH   5  47
TORSDOF 8
ENDMDL
