MODEL 1
REMARK VINA RESULT:      -6.8      0.000      0.000
REMARK  7 active torsions:
REMARK  status: ('A' for Active; 'I' for Inactive)
REMARK    1  A    between atoms: C_1  and  C_2 
REMARK    2  A    between atoms: C_3  and  C_21 
REMARK    3  A    between atoms: C_9  and  O_19 
REMARK    4  A    between atoms: C_15  and  C_17 
REMARK    5  A    between atoms: C_15  and  C_18 
REMARK    6  A    between atoms: O_19  and  C_20 
REMARK    7  A    between atoms: C_21  and  C_22 
REMARK       I    between atoms: C_22  and  N_24 
ROOT
ATOM      1  C   LIG d   1       4.341  -1.338  -7.320  0.00  0.00    -0.026 A 
ATOM      2  C   LIG d   1       4.815  -2.544  -6.911  0.00  0.00     0.049 A 
ATOM      3  C   LIG d   1       4.397  -3.720  -7.563  0.00  0.00     0.341 A 
ATOM      4  O   LIG d   1       4.827  -4.798  -7.190  0.00  0.00    -0.245 OA
ATOM      5  O   LIG d   1       3.534  -3.674  -8.592  0.00  0.00    -0.421 OA
ATOM      6  C   LIG d   1       3.040  -2.494  -9.031  0.00  0.00     0.149 A 
ATOM      7  C   LIG d   1       3.431  -1.296  -8.407  0.00  0.00     0.063 A 
ATOM      8  C   LIG d   1       2.917  -0.071  -8.868  0.00  0.00     0.135 A 
ATOM      9  C   LIG d   1       2.028  -0.061  -9.922  0.00  0.00     0.023 A 
ATOM     10  C   LIG d   1       1.644  -1.252 -10.539  0.00  0.00     0.131 A 
ATOM     11  C   LIG d   1       2.147  -2.462 -10.094  0.00  0.00     0.038 A 
ATOM     12  C   LIG d   1       1.752  -3.765 -10.743  0.00  0.00    -0.017 C 
ATOM     13  C   LIG d   1       0.475  -3.568 -11.564  0.00  0.00    -0.009 C 
ATOM     14  C   LIG d   1       0.652  -2.315 -12.433  0.00  0.00     0.105 C 
ATOM     15  O   LIG d   1       0.764  -1.182 -11.571  0.00  0.00    -0.486 OA
ATOM     16  H   LIG d   1       1.628   0.878 -10.275  0.00  0.00     0.069 H 
ATOM     17  H   LIG d   1       2.554  -4.103 -11.398  0.00  0.00     0.032 H 
ATOM     18  H   LIG d   1       1.574  -4.516  -9.972  0.00  0.00     0.032 H 
ATOM     19  H   LIG d   1       0.309  -4.436 -12.200  0.00  0.00     0.031 H 
ATOM     20  H   LIG d   1      -0.375  -3.434 -10.895  0.00  0.00     0.031 H 
ENDROOT
BRANCH   2  21
ATOM     21  C   LIG d   1       5.783  -2.622  -5.759  0.00  0.00     0.056 C 
ATOM     22  H   LIG d   1       6.403  -3.512  -5.865  0.00  0.00     0.041 H 
ATOM     23  H   LIG d   1       6.417  -1.735  -5.756  0.00  0.00     0.041 H 
BRANCH  21  24
ATOM     24  C   LIG d   1       5.017  -2.696  -4.462  0.00  0.00     0.220 C 
ATOM     25  O   LIG d   1       4.165  -3.546  -4.309  0.00  0.00    -0.275 OA
ATOM     26  N   LIG d   1       5.278  -1.817  -3.475  0.00  0.00    -0.300 N 
ATOM     27  C   LIG d   1       4.536  -1.882  -2.209  0.00  0.00     0.021 C 
ATOM     28  C   LIG d   1       6.310  -0.788  -3.649  0.00  0.00     0.021 C 
ATOM     29  C   LIG d   1       3.847  -0.532  -1.971  0.00  0.00     0.022 C 
ATOM     30  H   LIG d   1       3.786  -2.670  -2.265  0.00  0.00     0.047 H 
ATOM     31  H   LIG d   1       5.226  -2.091  -1.391  0.00  0.00     0.047 H 
ATOM     32  C   LIG d   1       4.868   0.567  -2.164  0.00  0.00     0.136 C 
ATOM     33  H   LIG d   1       3.098  -0.409  -2.622  0.00  0.00     0.036 H 
ATOM     34  H   LIG d   1       3.454  -0.495  -0.955  0.00  0.00     0.036 H 
ATOM     35  C   LIG d   1       5.663   0.594  -3.451  0.00  0.00     0.022 C 
ATOM     36  O   LIG d   1       5.045   1.403  -1.311  0.00  0.00    -0.297 OA
ATOM     37  H   LIG d   1       5.060   0.793  -4.224  0.00  0.00     0.036 H 
ATOM     38  H   LIG d   1       6.439   1.355  -3.387  0.00  0.00     0.036 H 
ATOM     39  H   LIG d   1       7.100  -0.934  -2.912  0.00  0.00     0.047 H 
ATOM     40  H   LIG d   1       6.729  -0.857  -4.653  0.00  0.00     0.047 H 
ENDBRANCH  21  24
ENDBRANCH   2  21
BRANCH   1  41
ATOM     41  C   LIG d   1       4.777  -0.069  -6.634  0.00  0.00    -0.038 C 
ATOM     42  H   LIG d   1       4.551   0.785  -7.274  0.00  0.00     0.028 H 
ATOM     43  H   LIG d   1       4.244   0.034  -5.689  0.00  0.00     0.028 H 
ATOM     44  H   LIG d   1       5.850  -0.108  -6.446  0.00  0.00     0.028 H 
ENDBRANCH   1  41
BRANCH   8  45
ATOM     45  O   LIG d   1       3.289   1.091  -8.276  0.00  0.00    -0.494 OA
BRANCH  45  46
ATOM     46  C   LIG d   1       3.385   2.245  -9.114  0.00  0.00     0.079 C 
ATOM     47  H   LIG d   1       3.938   1.993 -10.019  0.00  0.00     0.066 H 
ATOM     48  H   LIG d   1       3.906   3.040  -8.580  0.00  0.00     0.066 H 
ATOM     49  H   LIG d   1       2.384   2.584  -9.382  0.00  0.00     0.066 H 
ENDBRANCH  45  46
ENDBRANCH   8  45
BRANCH  14  50
ATOM     50  C   LIG d   1      -0.562  -2.149 -13.349  0.00  0.00    -0.025 C 
ATOM     51  H   LIG d   1      -0.545  -2.921 -14.119  0.00  0.00     0.027 H 
ATOM     52  H   LIG d   1      -1.476  -2.242 -12.761  0.00  0.00     0.027 H 
ATOM     53  H   LIG d   1      -0.531  -1.167 -13.819  0.00  0.00     0.027 H 
ENDBRANCH  14  50
BRANCH  14  54
ATOM     54  C   LIG d   1       1.921  -2.449 -13.277  0.00  0.00    -0.025 C 
ATOM     55  H   LIG d   1       2.797  -2.372 -12.631  0.00  0.00     0.027 H 
ATOM     56  H   LIG d   1       1.925  -3.416 -13.779  0.00  0.00     0.027 H 
ATOM     57  H   LIG d   1       1.948  -1.653 -14.021  0.00  0.00     0.027 H 
ENDBRANCH  14  54
TORSDOF 7
ENDMDL
MODEL 2
REMARK VINA RESULT:      -6.5      5.910      9.244
REMARK  7 active torsions:
REMARK  status: ('A' for Active; 'I' for Inactive)
REMARK    1  A    between atoms: C_1  and  C_2 
REMARK    2  A    between atoms: C_3  and  C_21 
REMARK    3  A    between atoms: C_9  and  O_19 
REMARK    4  A    between atoms: C_15  and  C_17 
REMARK    5  A    between atoms: C_15  and  C_18 
REMARK    6  A    between atoms: O_19  and  C_20 
REMARK    7  A    between atoms: C_21  and  C_22 
REMARK       I    between atoms: C_22  and  N_24 
ROOT
ATOM      1  C   LIG d   1       9.253   3.221  -6.039  0.00  0.00    -0.026 A 
ATOM      2  C   LIG d   1       9.687   3.865  -4.925  0.00  0.00     0.049 A 
ATOM      3  C   LIG d   1       9.290   3.411  -3.652  0.00  0.00     0.341 A 
ATOM      4  O   LIG d   1       9.685   3.994  -2.657  0.00  0.00    -0.245 OA
ATOM      5  O   LIG d   1       8.484   2.344  -3.517  0.00  0.00    -0.421 OA
ATOM      6  C   LIG d   1       8.031   1.675  -4.600  0.00  0.00     0.149 A 
ATOM      7  C   LIG d   1       8.403   2.095  -5.890  0.00  0.00     0.063 A 
ATOM      8  C   LIG d   1       7.931   1.395  -7.013  0.00  0.00     0.135 A 
ATOM      9  C   LIG d   1       7.101   0.309  -6.838  0.00  0.00     0.023 A 
ATOM     10  C   LIG d   1       6.735  -0.107  -5.557  0.00  0.00     0.131 A 
ATOM     11  C   LIG d   1       7.197   0.574  -4.444  0.00  0.00     0.038 A 
ATOM     12  C   LIG d   1       6.821   0.148  -3.048  0.00  0.00    -0.017 C 
ATOM     13  C   LIG d   1       5.593  -0.765  -3.099  0.00  0.00    -0.009 C 
ATOM     14  C   LIG d   1       5.834  -1.833  -4.175  0.00  0.00     0.105 C 
ATOM     15  O   LIG d   1       5.913  -1.182  -5.444  0.00  0.00    -0.486 OA
ATOM     16  H   LIG d   1       6.733  -0.229  -7.700  0.00  0.00     0.069 H 
ATOM     17  H   LIG d   1       7.653  -0.390  -2.595  0.00  0.00     0.032 H 
ATOM     18  H   LIG d   1       6.592   1.029  -2.448  0.00  0.00     0.032 H 
ATOM     19  H   LIG d   1       5.450  -1.244  -2.131  0.00  0.00     0.031 H 
ATOM     20  H   LIG d   1       4.710  -0.179  -3.353  0.00  0.00     0.031 H 
ENDROOT
BRANCH   2  21
ATOM     21  C   LIG d   1      10.590   5.065  -5.051  0.00  0.00     0.056 C 
ATOM     22  H   LIG d   1      11.172   5.180  -4.137  0.00  0.00     0.041 H 
ATOM     23  H   LIG d   1      11.265   4.925  -5.897  0.00  0.00     0.041 H 
BRANCH  21  24
ATOM     24  C   LIG d   1       9.756   6.301  -5.274  0.00  0.00     0.220 C 
ATOM     25  O   LIG d   1       8.750   6.479  -4.620  0.00  0.00    -0.275 OA
ATOM     26  N   LIG d   1      10.128   7.206  -6.199  0.00  0.00    -0.300 N 
ATOM     27  C   LIG d   1       9.320   8.413  -6.422  0.00  0.00     0.021 C 
ATOM     28  C   LIG d   1      11.347   7.002  -6.992  0.00  0.00     0.021 C 
ATOM     29  C   LIG d   1       8.892   8.455  -7.894  0.00  0.00     0.022 C 
ATOM     30  H   LIG d   1       8.438   8.385  -5.785  0.00  0.00     0.047 H 
ATOM     31  H   LIG d   1       9.913   9.298  -6.187  0.00  0.00     0.047 H 
ATOM     32  C   LIG d   1      10.114   8.224  -8.755  0.00  0.00     0.136 C 
ATOM     33  H   LIG d   1       8.217   7.740  -8.076  0.00  0.00     0.036 H 
ATOM     34  H   LIG d   1       8.460   9.429  -8.123  0.00  0.00     0.036 H 
ATOM     35  C   LIG d   1      10.967   7.005  -8.483  0.00  0.00     0.022 C 
ATOM     36  O   LIG d   1      10.403   8.995  -9.639  0.00  0.00    -0.297 OA
ATOM     37  H   LIG d   1      10.456   6.171  -8.697  0.00  0.00     0.036 H 
ATOM     38  H   LIG d   1      11.871   7.045  -9.090  0.00  0.00     0.036 H 
ATOM     39  H   LIG d   1      12.053   7.808  -6.790  0.00  0.00     0.047 H 
ATOM     40  H   LIG d   1      11.797   6.045  -6.728  0.00  0.00     0.047 H 
ENDBRANCH  21  24
ENDBRANCH   2  21
BRANCH   1  41
ATOM     41  C   LIG d   1       9.667   3.693  -7.410  0.00  0.00    -0.038 C 
ATOM     42  H   LIG d   1      10.112   4.685  -7.333  0.00  0.00     0.028 H 
ATOM     43  H   LIG d   1      10.396   2.999  -7.827  0.00  0.00     0.028 H 
ATOM     44  H   LIG d   1       8.792   3.737  -8.058  0.00  0.00     0.028 H 
ENDBRANCH   1  41
BRANCH   8  45
ATOM     45  O   LIG d   1       8.285   1.790  -8.262  0.00  0.00    -0.494 OA
BRANCH  45  46
ATOM     46  C   LIG d   1       7.539   1.243  -9.352  0.00  0.00     0.079 C 
ATOM     47  H   LIG d   1       8.217   0.742 -10.042  0.00  0.00     0.066 H 
ATOM     48  H   LIG d   1       7.018   2.046  -9.875  0.00  0.00     0.066 H 
ATOM     49  H   LIG d   1       6.812   0.526  -8.971  0.00  0.00     0.066 H 
ENDBRANCH  45  46
ENDBRANCH   8  45
BRANCH  14  50
ATOM     50  C   LIG d   1       4.674  -2.830  -4.178  0.00  0.00    -0.025 C 
ATOM     51  H   LIG d   1       4.753  -3.484  -3.310  0.00  0.00     0.027 H 
ATOM     52  H   LIG d   1       3.728  -2.287  -4.139  0.00  0.00     0.027 H 
ATOM     53  H   LIG d   1       4.711  -3.428  -5.088  0.00  0.00     0.027 H 
ENDBRANCH  14  50
BRANCH  14  54
ATOM     54  C   LIG d   1       7.145  -2.567  -3.889  0.00  0.00    -0.025 C 
ATOM     55  H   LIG d   1       7.079  -3.588  -4.264  0.00  0.00     0.027 H 
ATOM     56  H   LIG d   1       7.967  -2.051  -4.384  0.00  0.00     0.027 H 
ATOM     57  H   LIG d   1       7.323  -2.586  -2.814  0.00  0.00     0.027 H 
ENDBRANCH  14  54
TORSDOF 7
ENDMDL
MODEL 3
REMARK VINA RESULT:      -6.2      4.980      8.224
REMARK  7 active torsions:
REMARK  status: ('A' for Active; 'I' for Inactive)
REMARK    1  A    between atoms: C_1  and  C_2 
REMARK    2  A    between atoms: C_3  and  C_21 
REMARK    3  A    between atoms: C_9  and  O_19 
REMARK    4  A    between atoms: C_15  and  C_17 
REMARK    5  A    between atoms: C_15  and  C_18 
REMARK    6  A    between atoms: O_19  and  C_20 
REMARK    7  A    between atoms: C_21  and  C_22 
REMARK       I    between atoms: C_22  and  N_24 
ROOT
ATOM      1  C   LIG d   1       6.814  -5.101  -5.444  0.00  0.00    -0.026 A 
ATOM      2  C   LIG d   1       5.531  -4.822  -5.793  0.00  0.00     0.049 A 
ATOM      3  C   LIG d   1       4.586  -5.863  -5.882  0.00  0.00     0.341 A 
ATOM      4  O   LIG d   1       3.437  -5.605  -6.195  0.00  0.00    -0.245 OA
ATOM      5  O   LIG d   1       4.931  -7.137  -5.627  0.00  0.00    -0.421 OA
ATOM      6  C   LIG d   1       6.197  -7.456  -5.276  0.00  0.00     0.149 A 
ATOM      7  C   LIG d   1       7.172  -6.447  -5.175  0.00  0.00     0.063 A 
ATOM      8  C   LIG d   1       8.486  -6.783  -4.807  0.00  0.00     0.135 A 
ATOM      9  C   LIG d   1       8.806  -8.101  -4.559  0.00  0.00     0.023 A 
ATOM     10  C   LIG d   1       7.836  -9.099  -4.658  0.00  0.00     0.131 A 
ATOM     11  C   LIG d   1       6.539  -8.778  -5.017  0.00  0.00     0.038 A 
ATOM     12  C   LIG d   1       5.469  -9.834  -5.130  0.00  0.00    -0.017 C 
ATOM     13  C   LIG d   1       6.116 -11.216  -5.239  0.00  0.00    -0.009 C 
ATOM     14  C   LIG d   1       7.180 -11.336  -4.140  0.00  0.00     0.105 C 
ATOM     15  O   LIG d   1       8.208 -10.380  -4.404  0.00  0.00    -0.486 OA
ATOM     16  H   LIG d   1       9.817  -8.363  -4.280  0.00  0.00     0.069 H 
ATOM     17  H   LIG d   1       4.831  -9.802  -4.247  0.00  0.00     0.032 H 
ATOM     18  H   LIG d   1       4.865  -9.645  -6.019  0.00  0.00     0.032 H 
ATOM     19  H   LIG d   1       5.360 -11.989  -5.104  0.00  0.00     0.031 H 
ATOM     20  H   LIG d   1       6.584 -11.326  -6.217  0.00  0.00     0.031 H 
ENDROOT
BRANCH   2  21
ATOM     21  C   LIG d   1       5.121  -3.402  -6.085  0.00  0.00     0.056 C 
ATOM     22  H   LIG d   1       5.980  -2.844  -6.456  0.00  0.00     0.041 H 
ATOM     23  H   LIG d   1       4.332  -3.399  -6.838  0.00  0.00     0.041 H 
BRANCH  21  24
ATOM     24  C   LIG d   1       4.610  -2.757  -4.822  0.00  0.00     0.220 C 
ATOM     25  O   LIG d   1       4.431  -3.429  -3.827  0.00  0.00    -0.275 OA
ATOM     26  N   LIG d   1       4.353  -1.435  -4.798  0.00  0.00    -0.300 N 
ATOM     27  C   LIG d   1       3.855  -0.798  -3.570  0.00  0.00     0.021 C 
ATOM     28  C   LIG d   1       4.572  -0.612  -5.994  0.00  0.00     0.021 C 
ATOM     29  C   LIG d   1       2.517  -0.114  -3.877  0.00  0.00     0.022 C 
ATOM     30  H   LIG d   1       3.712  -1.554  -2.799  0.00  0.00     0.047 H 
ATOM     31  H   LIG d   1       4.576  -0.056  -3.225  0.00  0.00     0.047 H 
ATOM     32  C   LIG d   1       2.684   0.729  -5.121  0.00  0.00     0.136 C 
ATOM     33  H   LIG d   1       1.808  -0.802  -4.034  0.00  0.00     0.036 H 
ATOM     34  H   LIG d   1       2.228   0.520  -3.039  0.00  0.00     0.036 H 
ATOM     35  C   LIG d   1       3.245   0.075  -6.364  0.00  0.00     0.022 C 
ATOM     36  O   LIG d   1       2.377   1.897  -5.123  0.00  0.00    -0.297 OA
ATOM     37  H   LIG d   1       2.604  -0.608  -6.715  0.00  0.00     0.036 H 
ATOM     38  H   LIG d   1       3.427   0.831  -7.127  0.00  0.00     0.036 H 
ATOM     39  H   LIG d   1       5.331   0.142  -5.785  0.00  0.00     0.047 H 
ATOM     40  H   LIG d   1       4.900  -1.247  -6.817  0.00  0.00     0.047 H 
ENDBRANCH  21  24
ENDBRANCH   2  21
BRANCH   1  41
ATOM     41  C   LIG d   1       7.839  -4.001  -5.342  0.00  0.00    -0.038 C 
ATOM     42  H   LIG d   1       8.493  -4.191  -4.492  0.00  0.00     0.028 H 
ATOM     43  H   LIG d   1       8.431  -3.971  -6.257  0.00  0.00     0.028 H 
ATOM     44  H   LIG d   1       7.333  -3.045  -5.204  0.00  0.00     0.028 H 
ENDBRANCH   1  41
BRANCH   8  45
ATOM     45  O   LIG d   1       9.434  -5.818  -4.704  0.00  0.00    -0.494 OA
BRANCH  45  46
ATOM     46  C   LIG d   1      10.496  -6.048  -3.775  0.00  0.00     0.079 C 
ATOM     47  H   LIG d   1      10.141  -5.854  -2.762  0.00  0.00     0.066 H 
ATOM     48  H   LIG d   1      11.328  -5.380  -4.002  0.00  0.00     0.066 H 
ATOM     49  H   LIG d   1      10.829  -7.083  -3.852  0.00  0.00     0.066 H 
ENDBRANCH  45  46
ENDBRANCH   8  45
BRANCH  14  50
ATOM     50  C   LIG d   1       7.773 -12.746  -4.148  0.00  0.00    -0.025 C 
ATOM     51  H   LIG d   1       8.856 -12.687  -4.038  0.00  0.00     0.027 H 
ATOM     52  H   LIG d   1       7.354 -13.321  -3.321  0.00  0.00     0.027 H 
ATOM     53  H   LIG d   1       7.530 -13.236  -5.090  0.00  0.00     0.027 H 
ENDBRANCH  14  50
BRANCH  14  54
ATOM     54  C   LIG d   1       6.548 -11.049  -2.777  0.00  0.00    -0.025 C 
ATOM     55  H   LIG d   1       7.057 -11.634  -2.010  0.00  0.00     0.027 H 
ATOM     56  H   LIG d   1       6.643  -9.988  -2.547  0.00  0.00     0.027 H 
ATOM     57  H   LIG d   1       5.493 -11.323  -2.801  0.00  0.00     0.027 H 
ENDBRANCH  14  54
TORSDOF 7
ENDMDL
MODEL 4
REMARK VINA RESULT:      -6.2      3.899      8.014
REMARK  7 active torsions:
REMARK  status: ('A' for Active; 'I' for Inactive)
REMARK    1  A    between atoms: C_1  and  C_2 
REMARK    2  A    between atoms: C_3  and  C_21 
REMARK    3  A    between atoms: C_9  and  O_19 
REMARK    4  A    between atoms: C_15  and  C_17 
REMARK    5  A    between atoms: C_15  and  C_18 
REMARK    6  A    between atoms: O_19  and  C_20 
REMARK    7  A    between atoms: C_21  and  C_22 
REMARK       I    between atoms: C_22  and  N_24 
ROOT
ATOM      1  C   LIG d   1       4.702  -4.230  -7.637  0.00  0.00    -0.026 A 
ATOM      2  C   LIG d   1       4.572  -5.487  -7.138  0.00  0.00     0.049 A 
ATOM      3  C   LIG d   1       4.409  -5.678  -5.752  0.00  0.00     0.341 A 
ATOM      4  O   LIG d   1       4.293  -6.808  -5.312  0.00  0.00    -0.245 OA
ATOM      5  O   LIG d   1       4.379  -4.634  -4.906  0.00  0.00    -0.421 OA
ATOM      6  C   LIG d   1       4.504  -3.367  -5.363  0.00  0.00     0.149 A 
ATOM      7  C   LIG d   1       4.668  -3.132  -6.740  0.00  0.00     0.063 A 
ATOM      8  C   LIG d   1       4.795  -1.814  -7.210  0.00  0.00     0.135 A 
ATOM      9  C   LIG d   1       4.766  -0.766  -6.314  0.00  0.00     0.023 A 
ATOM     10  C   LIG d   1       4.601  -1.004  -4.948  0.00  0.00     0.131 A 
ATOM     11  C   LIG d   1       4.472  -2.298  -4.476  0.00  0.00     0.038 A 
ATOM     12  C   LIG d   1       4.290  -2.585  -3.007  0.00  0.00    -0.017 C 
ATOM     13  C   LIG d   1       4.711  -1.365  -2.186  0.00  0.00    -0.009 C 
ATOM     14  C   LIG d   1       4.052  -0.122  -2.799  0.00  0.00     0.105 C 
ATOM     15  O   LIG d   1       4.581   0.065  -4.112  0.00  0.00    -0.486 OA
ATOM     16  H   LIG d   1       4.868   0.248  -6.672  0.00  0.00     0.069 H 
ATOM     17  H   LIG d   1       3.242  -2.811  -2.808  0.00  0.00     0.032 H 
ATOM     18  H   LIG d   1       4.904  -3.442  -2.726  0.00  0.00     0.032 H 
ATOM     19  H   LIG d   1       4.383  -1.485  -1.154  0.00  0.00     0.031 H 
ATOM     20  H   LIG d   1       5.796  -1.259  -2.216  0.00  0.00     0.031 H 
ENDROOT
BRANCH   2  21
ATOM     21  C   LIG d   1       4.605  -6.674  -8.066  0.00  0.00     0.056 C 
ATOM     22  H   LIG d   1       3.785  -7.349  -7.821  0.00  0.00     0.041 H 
ATOM     23  H   LIG d   1       4.501  -6.333  -9.096  0.00  0.00     0.041 H 
BRANCH  21  24
ATOM     24  C   LIG d   1       5.916  -7.400  -7.907  0.00  0.00     0.220 C 
ATOM     25  O   LIG d   1       6.962  -6.798  -8.038  0.00  0.00    -0.275 OA
ATOM     26  N   LIG d   1       5.928  -8.716  -7.621  0.00  0.00    -0.300 N 
ATOM     27  C   LIG d   1       7.202  -9.431  -7.465  0.00  0.00     0.021 C 
ATOM     28  C   LIG d   1       4.668  -9.451  -7.455  0.00  0.00     0.021 C 
ATOM     29  C   LIG d   1       7.242 -10.591  -8.467  0.00  0.00     0.022 C 
ATOM     30  H   LIG d   1       8.029  -8.749  -7.660  0.00  0.00     0.047 H 
ATOM     31  H   LIG d   1       7.281  -9.819  -6.450  0.00  0.00     0.047 H 
ATOM     32  C   LIG d   1       5.950 -11.368  -8.352  0.00  0.00     0.136 C 
ATOM     33  H   LIG d   1       7.337 -10.238  -9.398  0.00  0.00     0.036 H 
ATOM     34  H   LIG d   1       8.086 -11.243  -8.239  0.00  0.00     0.036 H 
ATOM     35  C   LIG d   1       4.644 -10.614  -8.463  0.00  0.00     0.022 C 
ATOM     36  O   LIG d   1       5.960 -12.563  -8.175  0.00  0.00    -0.297 OA
ATOM     37  H   LIG d   1       4.533 -10.249  -9.388  0.00  0.00     0.036 H 
ATOM     38  H   LIG d   1       3.814 -11.281  -8.232  0.00  0.00     0.036 H 
ATOM     39  H   LIG d   1       4.604  -9.844  -6.439  0.00  0.00     0.047 H 
ATOM     40  H   LIG d   1       3.828  -8.783  -7.644  0.00  0.00     0.047 H 
ENDBRANCH  21  24
ENDBRANCH   2  21
BRANCH   1  41
ATOM     41  C   LIG d   1       4.877  -4.006  -9.117  0.00  0.00    -0.038 C 
ATOM     42  H   LIG d   1       5.169  -4.941  -9.594  0.00  0.00     0.028 H 
ATOM     43  H   LIG d   1       3.937  -3.658  -9.545  0.00  0.00     0.028 H 
ATOM     44  H   LIG d   1       5.652  -3.257  -9.282  0.00  0.00     0.028 H 
ENDBRANCH   1  41
BRANCH   8  45
ATOM     45  O   LIG d   1       4.952  -1.574  -8.536  0.00  0.00    -0.494 OA
BRANCH  45  46
ATOM     46  C   LIG d   1       4.683  -0.246  -8.992  0.00  0.00     0.079 C 
ATOM     47  H   LIG d   1       5.325   0.457  -8.463  0.00  0.00     0.066 H 
ATOM     48  H   LIG d   1       3.638  -0.001  -8.799  0.00  0.00     0.066 H 
ATOM     49  H   LIG d   1       4.879  -0.183 -10.063  0.00  0.00     0.066 H 
ENDBRANCH  45  46
ENDBRANCH   8  45
BRANCH  14  50
ATOM     50  C   LIG d   1       4.363   1.103  -1.937  0.00  0.00    -0.025 C 
ATOM     51  H   LIG d   1       4.286   0.836  -0.883  0.00  0.00     0.027 H 
ATOM     52  H   LIG d   1       5.375   1.450  -2.151  0.00  0.00     0.027 H 
ATOM     53  H   LIG d   1       3.652   1.896  -2.163  0.00  0.00     0.027 H 
ENDBRANCH  14  50
BRANCH  14  54
ATOM     54  C   LIG d   1       2.538  -0.328  -2.877  0.00  0.00    -0.025 C 
ATOM     55  H   LIG d   1       2.296  -1.355  -2.604  0.00  0.00     0.027 H 
ATOM     56  H   LIG d   1       2.042   0.356  -2.189  0.00  0.00     0.027 H 
ATOM     57  H   LIG d   1       2.197  -0.133  -3.893  0.00  0.00     0.027 H 
ENDBRANCH  14  54
TORSDOF 7
ENDMDL
MODEL 5
REMARK VINA RESULT:      -6.2      3.462      8.167
REMARK  7 active torsions:
REMARK  status: ('A' for Active; 'I' for Inactive)
REMARK    1  A    between atoms: C_1  and  C_2 
REMARK    2  A    between atoms: C_3  and  C_21 
REMARK    3  A    between atoms: C_9  and  O_19 
REMARK    4  A    between atoms: C_15  and  C_17 
REMARK    5  A    between atoms: C_15  and  C_18 
REMARK    6  A    between atoms: O_19  and  C_20 
REMARK    7  A    between atoms: C_21  and  C_22 
REMARK       I    between atoms: C_22  and  N_24 
ROOT
ATOM      1  C   LIG d   1       5.147  -3.829  -7.773  0.00  0.00    -0.026 A 
ATOM      2  C   LIG d   1       4.793  -5.099  -7.444  0.00  0.00     0.049 A 
ATOM      3  C   LIG d   1       4.388  -5.397  -6.128  0.00  0.00     0.341 A 
ATOM      4  O   LIG d   1       4.072  -6.538  -5.842  0.00  0.00    -0.245 OA
ATOM      5  O   LIG d   1       4.343  -4.442  -5.183  0.00  0.00    -0.421 OA
ATOM      6  C   LIG d   1       4.686  -3.166  -5.469  0.00  0.00     0.149 A 
ATOM      7  C   LIG d   1       5.096  -2.825  -6.771  0.00  0.00     0.063 A 
ATOM      8  C   LIG d   1       5.450  -1.497  -7.064  0.00  0.00     0.135 A 
ATOM      9  C   LIG d   1       5.399  -0.544  -6.069  0.00  0.00     0.023 A 
ATOM     10  C   LIG d   1       4.989  -0.886  -4.779  0.00  0.00     0.131 A 
ATOM     11  C   LIG d   1       4.637  -2.190  -4.481  0.00  0.00     0.038 A 
ATOM     12  C   LIG d   1       4.188  -2.588  -3.098  0.00  0.00    -0.017 C 
ATOM     13  C   LIG d   1       4.611  -1.517  -2.089  0.00  0.00    -0.009 C 
ATOM     14  C   LIG d   1       4.208  -0.146  -2.648  0.00  0.00     0.105 C 
ATOM     15  O   LIG d   1       4.959   0.093  -3.838  0.00  0.00    -0.486 OA
ATOM     16  H   LIG d   1       5.674   0.476  -6.290  0.00  0.00     0.069 H 
ATOM     17  H   LIG d   1       3.104  -2.691  -3.083  0.00  0.00     0.032 H 
ATOM     18  H   LIG d   1       4.645  -3.541  -2.828  0.00  0.00     0.032 H 
ATOM     19  H   LIG d   1       4.109  -1.689  -1.138  0.00  0.00     0.031 H 
ATOM     20  H   LIG d   1       5.691  -1.553  -1.947  0.00  0.00     0.031 H 
ENDROOT
BRANCH   2  21
ATOM     21  C   LIG d   1       4.836  -6.187  -8.486  0.00  0.00     0.056 C 
ATOM     22  H   LIG d   1       5.603  -5.954  -9.224  0.00  0.00     0.041 H 
ATOM     23  H   LIG d   1       5.068  -7.139  -8.008  0.00  0.00     0.041 H 
BRANCH  21  24
ATOM     24  C   LIG d   1       3.495  -6.282  -9.168  0.00  0.00     0.220 C 
ATOM     25  O   LIG d   1       2.606  -5.512  -8.869  0.00  0.00    -0.275 OA
ATOM     26  N   LIG d   1       3.284  -7.222 -10.109  0.00  0.00    -0.300 N 
ATOM     27  C   LIG d   1       1.980  -7.322 -10.779  0.00  0.00     0.021 C 
ATOM     28  C   LIG d   1       4.354  -8.155 -10.483  0.00  0.00     0.021 C 
ATOM     29  C   LIG d   1       1.420  -8.733 -10.563  0.00  0.00     0.022 C 
ATOM     30  H   LIG d   1       1.295  -6.588 -10.357  0.00  0.00     0.047 H 
ATOM     31  H   LIG d   1       2.102  -7.135 -11.846  0.00  0.00     0.047 H 
ATOM     32  C   LIG d   1       2.499  -9.735 -10.911  0.00  0.00     0.136 C 
ATOM     33  H   LIG d   1       1.151  -8.853  -9.607  0.00  0.00     0.036 H 
ATOM     34  H   LIG d   1       0.554  -8.887 -11.205  0.00  0.00     0.036 H 
ATOM     35  C   LIG d   1       3.854  -9.592 -10.254  0.00  0.00     0.022 C 
ATOM     36  O   LIG d   1       2.284 -10.627 -11.696  0.00  0.00    -0.297 OA
ATOM     37  H   LIG d   1       3.781  -9.766  -9.271  0.00  0.00     0.036 H 
ATOM     38  H   LIG d   1       4.554 -10.298 -10.699  0.00  0.00     0.036 H 
ATOM     39  H   LIG d   1       4.610  -8.017 -11.534  0.00  0.00     0.047 H 
ATOM     40  H   LIG d   1       5.233  -7.968  -9.864  0.00  0.00     0.047 H 
ENDBRANCH  21  24
ENDBRANCH   2  21
BRANCH   1  41
ATOM     41  C   LIG d   1       5.582  -3.491  -9.175  0.00  0.00    -0.038 C 
ATOM     42  H   LIG d   1       5.762  -2.418  -9.251  0.00  0.00     0.028 H 
ATOM     43  H   LIG d   1       6.500  -4.030  -9.410  0.00  0.00     0.028 H 
ATOM     44  H   LIG d   1       4.800  -3.779  -9.878  0.00  0.00     0.028 H 
ENDBRANCH   1  41
BRANCH   8  45
ATOM     45  O   LIG d   1       5.845  -1.157  -8.317  0.00  0.00    -0.494 OA
BRANCH  45  46
ATOM     46  C   LIG d   1       5.705   0.216  -8.691  0.00  0.00     0.079 C 
ATOM     47  H   LIG d   1       4.702   0.561  -8.439  0.00  0.00     0.066 H 
ATOM     48  H   LIG d   1       5.865   0.318  -9.765  0.00  0.00     0.066 H 
ATOM     49  H   LIG d   1       6.441   0.816  -8.156  0.00  0.00     0.066 H 
ENDBRANCH  45  46
ENDBRANCH   8  45
BRANCH  14  50
ATOM     50  C   LIG d   1       4.516   0.940  -1.616  0.00  0.00    -0.025 C 
ATOM     51  H   LIG d   1       5.178   1.686  -2.058  0.00  0.00     0.027 H 
ATOM     52  H   LIG d   1       3.587   1.419  -1.304  0.00  0.00     0.027 H 
ATOM     53  H   LIG d   1       5.002   0.492  -0.750  0.00  0.00     0.027 H 
ENDBRANCH  14  50
BRANCH  14  54
ATOM     54  C   LIG d   1       2.713  -0.141  -2.972  0.00  0.00    -0.025 C 
ATOM     55  H   LIG d   1       2.571   0.090  -4.027  0.00  0.00     0.027 H 
ATOM     56  H   LIG d   1       2.290  -1.122  -2.755  0.00  0.00     0.027 H 
ATOM     57  H   LIG d   1       2.212   0.613  -2.365  0.00  0.00     0.027 H 
ENDBRANCH  14  54
TORSDOF 7
ENDMDL
MODEL 6
REMARK VINA RESULT:      -6.1      5.716      8.793
REMARK  7 active torsions:
REMARK  status: ('A' for Active; 'I' for Inactive)
REMARK    1  A    between atoms: C_1  and  C_2 
REMARK    2  A    between atoms: C_3  and  C_21 
REMARK    3  A    between atoms: C_9  and  O_19 
REMARK    4  A    between atoms: C_15  and  C_17 
REMARK    5  A    between atoms: C_15  and  C_18 
REMARK    6  A    between atoms: O_19  and  C_20 
REMARK    7  A    between atoms: C_21  and  C_22 
REMARK       I    between atoms: C_22  and  N_24 
ROOT
ATOM      1  C   LIG d   1       9.274   3.090  -4.794  0.00  0.00    -0.026 A 
ATOM      2  C   LIG d   1       8.712   1.941  -5.252  0.00  0.00     0.049 A 
ATOM      3  C   LIG d   1       8.427   1.797  -6.623  0.00  0.00     0.341 A 
ATOM      4  O   LIG d   1       7.923   0.764  -7.026  0.00  0.00    -0.245 OA
ATOM      5  O   LIG d   1       8.703   2.782  -7.496  0.00  0.00    -0.421 OA
ATOM      6  C   LIG d   1       9.263   3.940  -7.082  0.00  0.00     0.149 A 
ATOM      7  C   LIG d   1       9.564   4.125  -5.720  0.00  0.00     0.063 A 
ATOM      8  C   LIG d   1      10.148   5.330  -5.294  0.00  0.00     0.135 A 
ATOM      9  C   LIG d   1      10.412   6.321  -6.215  0.00  0.00     0.023 A 
ATOM     10  C   LIG d   1      10.114   6.133  -7.566  0.00  0.00     0.131 A 
ATOM     11  C   LIG d   1       9.541   4.949  -7.996  0.00  0.00     0.038 A 
ATOM     12  C   LIG d   1       9.210   4.716  -9.448  0.00  0.00    -0.017 C 
ATOM     13  C   LIG d   1       9.178   6.054 -10.192  0.00  0.00    -0.009 C 
ATOM     14  C   LIG d   1      10.444   6.838  -9.823  0.00  0.00     0.105 C 
ATOM     15  O   LIG d   1      10.394   7.143  -8.429  0.00  0.00    -0.486 OA
ATOM     16  H   LIG d   1      10.857   7.250  -5.890  0.00  0.00     0.069 H 
ATOM     17  H   LIG d   1       9.967   4.072  -9.895  0.00  0.00     0.032 H 
ATOM     18  H   LIG d   1       8.234   4.235  -9.526  0.00  0.00     0.032 H 
ATOM     19  H   LIG d   1       9.155   5.877 -11.266  0.00  0.00     0.031 H 
ATOM     20  H   LIG d   1       8.295   6.619  -9.893  0.00  0.00     0.031 H 
ENDROOT
BRANCH   2  21
ATOM     21  C   LIG d   1       8.392   0.824  -4.292  0.00  0.00     0.056 C 
ATOM     22  H   LIG d   1       8.597  -0.134  -4.769  0.00  0.00     0.041 H 
ATOM     23  H   LIG d   1       9.009   0.925  -3.398  0.00  0.00     0.041 H 
BRANCH  21  24
ATOM     24  C   LIG d   1       6.936   0.893  -3.908  0.00  0.00     0.220 C 
ATOM     25  O   LIG d   1       6.507   1.871  -3.332  0.00  0.00    -0.275 OA
ATOM     26  N   LIG d   1       6.113  -0.131  -4.203  0.00  0.00    -0.300 N 
ATOM     27  C   LIG d   1       4.692  -0.071  -3.832  0.00  0.00     0.021 C 
ATOM     28  C   LIG d   1       6.621  -1.316  -4.904  0.00  0.00     0.021 C 
ATOM     29  C   LIG d   1       4.364  -1.276  -2.941  0.00  0.00     0.022 C 
ATOM     30  H   LIG d   1       4.495   0.851  -3.287  0.00  0.00     0.047 H 
ATOM     31  H   LIG d   1       4.078  -0.102  -4.732  0.00  0.00     0.047 H 
ATOM     32  C   LIG d   1       4.892  -2.525  -3.612  0.00  0.00     0.136 C 
ATOM     33  H   LIG d   1       4.797  -1.170  -2.047  0.00  0.00     0.036 H 
ATOM     34  H   LIG d   1       3.284  -1.355  -2.814  0.00  0.00     0.036 H 
ATOM     35  C   LIG d   1       6.344  -2.556  -4.035  0.00  0.00     0.022 C 
ATOM     36  O   LIG d   1       4.172  -3.476  -3.804  0.00  0.00    -0.297 OA
ATOM     37  H   LIG d   1       6.939  -2.537  -3.231  0.00  0.00     0.036 H 
ATOM     38  H   LIG d   1       6.539  -3.458  -4.614  0.00  0.00     0.036 H 
ATOM     39  H   LIG d   1       6.114  -1.419  -5.864  0.00  0.00     0.047 H 
ATOM     40  H   LIG d   1       7.694  -1.212  -5.065  0.00  0.00     0.047 H 
ENDBRANCH  21  24
ENDBRANCH   2  21
BRANCH   1  41
ATOM     41  C   LIG d   1       9.587   3.262  -3.330  0.00  0.00    -0.038 C 
ATOM     42  H   LIG d   1      10.101   4.211  -3.177  0.00  0.00     0.028 H 
ATOM     43  H   LIG d   1       8.659   3.256  -2.757  0.00  0.00     0.028 H 
ATOM     44  H   LIG d   1      10.226   2.445  -2.996  0.00  0.00     0.028 H 
ENDBRANCH   1  41
BRANCH   8  45
ATOM     45  O   LIG d   1      10.445   5.519  -3.983  0.00  0.00    -0.494 OA
BRANCH  45  46
ATOM     46  C   LIG d   1      10.455   6.867  -3.508  0.00  0.00     0.079 C 
ATOM     47  H   LIG d   1       9.918   7.504  -4.210  0.00  0.00     0.066 H 
ATOM     48  H   LIG d   1      11.485   7.213  -3.418  0.00  0.00     0.066 H 
ATOM     49  H   LIG d   1       9.970   6.912  -2.533  0.00  0.00     0.066 H 
ENDBRANCH  45  46
ENDBRANCH   8  45
BRANCH  14  50
ATOM     50  C   LIG d   1      10.500   8.135 -10.633  0.00  0.00    -0.025 C 
ATOM     51  H   LIG d   1      11.450   8.638 -10.450  0.00  0.00     0.027 H 
ATOM     52  H   LIG d   1      10.411   7.903 -11.696  0.00  0.00     0.027 H 
ATOM     53  H   LIG d   1       9.681   8.786 -10.333  0.00  0.00     0.027 H 
ENDBRANCH  14  50
BRANCH  14  54
ATOM     54  C   LIG d   1      11.681   5.989 -10.120  0.00  0.00    -0.025 C 
ATOM     55  H   LIG d   1      11.583   5.537 -11.107  0.00  0.00     0.027 H 
ATOM     56  H   LIG d   1      12.570   6.620 -10.097  0.00  0.00     0.027 H 
ATOM     57  H   LIG d   1      11.772   5.205  -9.369  0.00  0.00     0.027 H 
ENDBRANCH  14  54
TORSDOF 7
ENDMDL
MODEL 7
REMARK VINA RESULT:      -6.1      2.774      7.881
REMARK  7 active torsions:
REMARK  status: ('A' for Active; 'I' for Inactive)
REMARK    1  A    between atoms: C_1  and  C_2 
REMARK    2  A    between atoms: C_3  and  C_21 
REMARK    3  A    between atoms: C_9  and  O_19 
REMARK    4  A    between atoms: C_15  and  C_17 
REMARK    5  A    between atoms: C_15  and  C_18 
REMARK    6  A    between atoms: O_19  and  C_20 
REMARK    7  A    between atoms: C_21  and  C_22 
REMARK       I    between atoms: C_22  and  N_24 
ROOT
ATOM      1  C   LIG d   1       3.615  -1.946  -9.199  0.00  0.00    -0.026 A 
ATOM      2  C   LIG d   1       4.237  -3.136  -9.408  0.00  0.00     0.049 A 
ATOM      3  C   LIG d   1       4.941  -3.755  -8.358  0.00  0.00     0.341 A 
ATOM      4  O   LIG d   1       5.496  -4.822  -8.554  0.00  0.00    -0.245 OA
ATOM      5  O   LIG d   1       5.011  -3.188  -7.141  0.00  0.00    -0.421 OA
ATOM      6  C   LIG d   1       4.406  -2.006  -6.890  0.00  0.00     0.149 A 
ATOM      7  C   LIG d   1       3.692  -1.354  -7.912  0.00  0.00     0.063 A 
ATOM      8  C   LIG d   1       3.062  -0.126  -7.647  0.00  0.00     0.135 A 
ATOM      9  C   LIG d   1       3.160   0.430  -6.389  0.00  0.00     0.023 A 
ATOM     10  C   LIG d   1       3.868  -0.221  -5.377  0.00  0.00     0.131 A 
ATOM     11  C   LIG d   1       4.488  -1.431  -5.628  0.00  0.00     0.038 A 
ATOM     12  C   LIG d   1       5.258  -2.159  -4.555  0.00  0.00    -0.017 C 
ATOM     13  C   LIG d   1       5.594  -1.194  -3.416  0.00  0.00    -0.009 C 
ATOM     14  C   LIG d   1       4.318  -0.429  -3.041  0.00  0.00     0.105 C 
ATOM     15  O   LIG d   1       3.931   0.374  -4.158  0.00  0.00    -0.486 OA
ATOM     16  H   LIG d   1       2.681   1.376  -6.183  0.00  0.00     0.069 H 
ATOM     17  H   LIG d   1       4.654  -2.979  -4.167  0.00  0.00     0.032 H 
ATOM     18  H   LIG d   1       6.181  -2.558  -4.976  0.00  0.00     0.032 H 
ATOM     19  H   LIG d   1       5.954  -1.754  -2.553  0.00  0.00     0.031 H 
ATOM     20  H   LIG d   1       6.361  -0.492  -3.744  0.00  0.00     0.031 H 
ENDROOT
BRANCH   2  21
ATOM     21  C   LIG d   1       4.174  -3.790 -10.764  0.00  0.00     0.056 C 
ATOM     22  H   LIG d   1       4.405  -4.851 -10.668  0.00  0.00     0.041 H 
ATOM     23  H   LIG d   1       3.173  -3.672 -11.179  0.00  0.00     0.041 H 
BRANCH  21  24
ATOM     24  C   LIG d   1       5.178  -3.141 -11.683  0.00  0.00     0.220 C 
ATOM     25  O   LIG d   1       6.297  -2.897 -11.283  0.00  0.00    -0.275 OA
ATOM     26  N   LIG d   1       4.831  -2.830 -12.947  0.00  0.00    -0.300 N 
ATOM     27  C   LIG d   1       5.803  -2.197 -13.849  0.00  0.00     0.021 C 
ATOM     28  C   LIG d   1       3.481  -3.126 -13.442  0.00  0.00     0.021 C 
ATOM     29  C   LIG d   1       5.222  -0.867 -14.345  0.00  0.00     0.022 C 
ATOM     30  H   LIG d   1       6.733  -2.012 -13.312  0.00  0.00     0.047 H 
ATOM     31  H   LIG d   1       5.995  -2.853 -14.698  0.00  0.00     0.047 H 
ATOM     32  C   LIG d   1       3.816  -1.116 -14.845  0.00  0.00     0.136 C 
ATOM     33  H   LIG d   1       5.197  -0.203 -13.598  0.00  0.00     0.036 H 
ATOM     34  H   LIG d   1       5.837  -0.478 -15.156  0.00  0.00     0.036 H 
ATOM     35  C   LIG d   1       2.838  -1.814 -13.926  0.00  0.00     0.022 C 
ATOM     36  O   LIG d   1       3.481  -0.764 -15.951  0.00  0.00    -0.297 OA
ATOM     37  H   LIG d   1       2.632  -1.235 -13.137  0.00  0.00     0.036 H 
ATOM     38  H   LIG d   1       1.920  -2.036 -14.468  0.00  0.00     0.036 H 
ATOM     39  H   LIG d   1       3.542  -3.834 -14.270  0.00  0.00     0.047 H 
ATOM     40  H   LIG d   1       2.883  -3.554 -12.638  0.00  0.00     0.047 H 
ENDBRANCH  21  24
ENDBRANCH   2  21
BRANCH   1  41
ATOM     41  C   LIG d   1       2.857  -1.269 -10.311  0.00  0.00    -0.038 C 
ATOM     42  H   LIG d   1       3.381  -0.360 -10.606  0.00  0.00     0.028 H 
ATOM     43  H   LIG d   1       2.788  -1.942 -11.166  0.00  0.00     0.028 H 
ATOM     44  H   LIG d   1       1.855  -1.014  -9.965  0.00  0.00     0.028 H 
ENDBRANCH   1  41
BRANCH   8  45
ATOM     45  O   LIG d   1       2.369   0.512  -8.624  0.00  0.00    -0.494 OA
BRANCH  45  46
ATOM     46  C   LIG d   1       2.654   1.898  -8.823  0.00  0.00     0.079 C 
ATOM     47  H   LIG d   1       2.987   2.340  -7.884  0.00  0.00     0.066 H 
ATOM     48  H   LIG d   1       1.753   2.409  -9.165  0.00  0.00     0.066 H 
ATOM     49  H   LIG d   1       3.439   2.004  -9.573  0.00  0.00     0.066 H 
ENDBRANCH  45  46
ENDBRANCH   8  45
BRANCH  14  50
ATOM     50  C   LIG d   1       4.591   0.467  -1.832  0.00  0.00    -0.025 C 
ATOM     51  H   LIG d   1       4.203  -0.009  -0.931  0.00  0.00     0.027 H 
ATOM     52  H   LIG d   1       5.666   0.619  -1.728  0.00  0.00     0.027 H 
ATOM     53  H   LIG d   1       4.100   1.429  -1.974  0.00  0.00     0.027 H 
ENDBRANCH  14  50
BRANCH  14  54
ATOM     54  C   LIG d   1       3.202  -1.420  -2.709  0.00  0.00    -0.025 C 
ATOM     55  H   LIG d   1       2.255  -1.046  -3.099  0.00  0.00     0.027 H 
ATOM     56  H   LIG d   1       3.425  -2.386  -3.162  0.00  0.00     0.027 H 
ATOM     57  H   LIG d   1       3.128  -1.535  -1.627  0.00  0.00     0.027 H 
ENDBRANCH  14  54
TORSDOF 7
ENDMDL
MODEL 8
REMARK VINA RESULT:      -6.0      1.625      3.247
REMARK  7 active torsions:
REMARK  status: ('A' for Active; 'I' for Inactive)
REMARK    1  A    between atoms: C_1  and  C_2 
REMARK    2  A    between atoms: C_3  and  C_21 
REMARK    3  A    between atoms: C_9  and  O_19 
REMARK    4  A    between atoms: C_15  and  C_17 
REMARK    5  A    between atoms: C_15  and  C_18 
REMARK    6  A    between atoms: O_19  and  C_20 
REMARK    7  A    between atoms: C_21  and  C_22 
REMARK       I    between atoms: C_22  and  N_24 
ROOT
ATOM      1  C   LIG d   1       4.788  -3.985  -6.958  0.00  0.00    -0.026 A 
ATOM      2  C   LIG d   1       5.435  -2.925  -6.409  0.00  0.00     0.049 A 
ATOM      3  C   LIG d   1       5.458  -1.690  -7.084  0.00  0.00     0.341 A 
ATOM      4  O   LIG d   1       6.041  -0.743  -6.584  0.00  0.00    -0.245 OA
ATOM      5  O   LIG d   1       4.847  -1.537  -8.271  0.00  0.00    -0.421 OA
ATOM      6  C   LIG d   1       4.191  -2.566  -8.852  0.00  0.00     0.149 A 
ATOM      7  C   LIG d   1       4.144  -3.817  -8.211  0.00  0.00     0.063 A 
ATOM      8  C   LIG d   1       3.459  -4.884  -8.817  0.00  0.00     0.135 A 
ATOM      9  C   LIG d   1       2.848  -4.694 -10.039  0.00  0.00     0.023 A 
ATOM     10  C   LIG d   1       2.896  -3.450 -10.671  0.00  0.00     0.131 A 
ATOM     11  C   LIG d   1       3.565  -2.393 -10.080  0.00  0.00     0.038 A 
ATOM     12  C   LIG d   1       3.632  -1.038 -10.738  0.00  0.00    -0.017 C 
ATOM     13  C   LIG d   1       3.282  -1.166 -12.222  0.00  0.00    -0.009 C 
ATOM     14  C   LIG d   1       2.001  -2.001 -12.344  0.00  0.00     0.105 C 
ATOM     15  O   LIG d   1       2.278  -3.321 -11.873  0.00  0.00    -0.486 OA
ATOM     16  H   LIG d   1       2.325  -5.513 -10.509  0.00  0.00     0.069 H 
ATOM     17  H   LIG d   1       2.923  -0.365 -10.256  0.00  0.00     0.032 H 
ATOM     18  H   LIG d   1       4.639  -0.634 -10.636  0.00  0.00     0.032 H 
ATOM     19  H   LIG d   1       3.119  -0.177 -12.649  0.00  0.00     0.031 H 
ATOM     20  H   LIG d   1       4.097  -1.663 -12.749  0.00  0.00     0.031 H 
ENDROOT
BRANCH   2  21
ATOM     21  C   LIG d   1       6.129  -3.072  -5.079  0.00  0.00     0.056 C 
ATOM     22  H   LIG d   1       6.550  -4.074  -4.997  0.00  0.00     0.041 H 
ATOM     23  H   LIG d   1       6.928  -2.334  -5.002  0.00  0.00     0.041 H 
BRANCH  21  24
ATOM     24  C   LIG d   1       5.135  -2.853  -3.967  0.00  0.00     0.220 C 
ATOM     25  O   LIG d   1       4.179  -3.590  -3.854  0.00  0.00    -0.275 OA
ATOM     26  N   LIG d   1       5.310  -1.837  -3.099  0.00  0.00    -0.300 N 
ATOM     27  C   LIG d   1       4.346  -1.617  -2.012  0.00  0.00     0.021 C 
ATOM     28  C   LIG d   1       6.467  -0.943  -3.223  0.00  0.00     0.021 C 
ATOM     29  C   LIG d   1       3.784  -0.195  -2.132  0.00  0.00     0.022 C 
ATOM     30  H   LIG d   1       3.534  -2.339  -2.091  0.00  0.00     0.047 H 
ATOM     31  H   LIG d   1       4.846  -1.733  -1.050  0.00  0.00     0.047 H 
ATOM     32  C   LIG d   1       4.941   0.766  -2.289  0.00  0.00     0.136 C 
ATOM     33  H   LIG d   1       3.186  -0.128  -2.931  0.00  0.00     0.036 H 
ATOM     34  H   LIG d   1       3.218   0.053  -1.235  0.00  0.00     0.036 H 
ATOM     35  C   LIG d   1       5.955   0.500  -3.379  0.00  0.00     0.022 C 
ATOM     36  O   LIG d   1       5.053   1.723  -1.560  0.00  0.00    -0.297 OA
ATOM     37  H   LIG d   1       5.531   0.607  -4.279  0.00  0.00     0.036 H 
ATOM     38  H   LIG d   1       6.789   1.195  -3.282  0.00  0.00     0.036 H 
ATOM     39  H   LIG d   1       7.087  -1.020  -2.329  0.00  0.00     0.047 H 
ATOM     40  H   LIG d   1       7.051  -1.223  -4.100  0.00  0.00     0.047 H 
ENDBRANCH  21  24
ENDBRANCH   2  21
BRANCH   1  41
ATOM     41  C   LIG d   1       4.752  -5.315  -6.250  0.00  0.00    -0.038 C 
ATOM     42  H   LIG d   1       4.229  -5.207  -5.300  0.00  0.00     0.028 H 
ATOM     43  H   LIG d   1       4.231  -6.044  -6.871  0.00  0.00     0.028 H 
ATOM     44  H   LIG d   1       5.771  -5.656  -6.066  0.00  0.00     0.028 H 
ENDBRANCH   1  41
BRANCH   8  45
ATOM     45  O   LIG d   1       3.404  -6.095  -8.207  0.00  0.00    -0.494 OA
BRANCH  45  46
ATOM     46  C   LIG d   1       3.492  -7.249  -9.047  0.00  0.00     0.079 C 
ATOM     47  H   LIG d   1       3.146  -6.997 -10.049  0.00  0.00     0.066 H 
ATOM     48  H   LIG d   1       2.867  -8.044  -8.637  0.00  0.00     0.066 H 
ATOM     49  H   LIG d   1       4.527  -7.587  -9.093  0.00  0.00     0.066 H 
ENDBRANCH  45  46
ENDBRANCH   8  45
BRANCH  14  50
ATOM     50  C   LIG d   1       1.560  -2.058 -13.808  0.00  0.00    -0.025 C 
ATOM     51  H   LIG d   1       0.471  -2.054 -13.861  0.00  0.00     0.027 H 
ATOM     52  H   LIG d   1       1.953  -1.189 -14.339  0.00  0.00     0.027 H 
ATOM     53  H   LIG d   1       1.943  -2.968 -14.268  0.00  0.00     0.027 H 
ENDBRANCH  14  50
BRANCH  14  54
ATOM     54  C   LIG d   1       0.894  -1.373 -11.495  0.00  0.00    -0.025 C 
ATOM     55  H   LIG d   1      -0.073  -1.762 -11.813  0.00  0.00     0.027 H 
ATOM     56  H   LIG d   1       1.056  -1.618 -10.446  0.00  0.00     0.027 H 
ATOM     57  H   LIG d   1       0.909  -0.291 -11.622  0.00  0.00     0.027 H 
ENDBRANCH  14  54
TORSDOF 7
ENDMDL
MODEL 9
REMARK VINA RESULT:      -6.0      3.507      7.851
REMARK  7 active torsions:
REMARK  status: ('A' for Active; 'I' for Inactive)
REMARK    1  A    between atoms: C_1  and  C_2 
REMARK    2  A    between atoms: C_3  and  C_21 
REMARK    3  A    between atoms: C_9  and  O_19 
REMARK    4  A    between atoms: C_15  and  C_17 
REMARK    5  A    between atoms: C_15  and  C_18 
REMARK    6  A    between atoms: O_19  and  C_20 
REMARK    7  A    between atoms: C_21  and  C_22 
REMARK       I    between atoms: C_22  and  N_24 
ROOT
ATOM      1  C   LIG d   1       4.721  -4.246  -7.667  0.00  0.00    -0.026 A 
ATOM      2  C   LIG d   1       4.620  -5.508  -7.174  0.00  0.00     0.049 A 
ATOM      3  C   LIG d   1       4.467  -5.710  -5.788  0.00  0.00     0.341 A 
ATOM      4  O   LIG d   1       4.376  -6.845  -5.354  0.00  0.00    -0.245 OA
ATOM      5  O   LIG d   1       4.418  -4.671  -4.937  0.00  0.00    -0.421 OA
ATOM      6  C   LIG d   1       4.514  -3.400  -5.387  0.00  0.00     0.149 A 
ATOM      7  C   LIG d   1       4.668  -3.154  -6.763  0.00  0.00     0.063 A 
ATOM      8  C   LIG d   1       4.766  -1.831  -7.227  0.00  0.00     0.135 A 
ATOM      9  C   LIG d   1       4.718  -0.789  -6.325  0.00  0.00     0.023 A 
ATOM     10  C   LIG d   1       4.563  -1.037  -4.960  0.00  0.00     0.131 A 
ATOM     11  C   LIG d   1       4.463  -2.336  -4.495  0.00  0.00     0.038 A 
ATOM     12  C   LIG d   1       4.293  -2.635  -3.027  0.00  0.00    -0.017 C 
ATOM     13  C   LIG d   1       4.692  -1.411  -2.200  0.00  0.00    -0.009 C 
ATOM     14  C   LIG d   1       4.004  -0.179  -2.804  0.00  0.00     0.105 C 
ATOM     15  O   LIG d   1       4.524   0.027  -4.118  0.00  0.00    -0.486 OA
ATOM     16  H   LIG d   1       4.797   0.229  -6.678  0.00  0.00     0.069 H 
ATOM     17  H   LIG d   1       3.251  -2.884  -2.825  0.00  0.00     0.032 H 
ATOM     18  H   LIG d   1       4.926  -3.480  -2.752  0.00  0.00     0.032 H 
ATOM     19  H   LIG d   1       4.370  -1.543  -1.168  0.00  0.00     0.031 H 
ATOM     20  H   LIG d   1       5.774  -1.281  -2.234  0.00  0.00     0.031 H 
ENDROOT
BRANCH   2  21
ATOM     21  C   LIG d   1       4.674  -6.689  -8.108  0.00  0.00     0.056 C 
ATOM     22  H   LIG d   1       4.185  -7.544  -7.642  0.00  0.00     0.041 H 
ATOM     23  H   LIG d   1       4.162  -6.440  -9.038  0.00  0.00     0.041 H 
BRANCH  21  24
ATOM     24  C   LIG d   1       6.112  -7.032  -8.402  0.00  0.00     0.220 C 
ATOM     25  O   LIG d   1       6.932  -7.023  -7.508  0.00  0.00    -0.275 OA
ATOM     26  N   LIG d   1       6.485  -7.349  -9.657  0.00  0.00    -0.300 N 
ATOM     27  C   LIG d   1       7.885  -7.684  -9.952  0.00  0.00     0.021 C 
ATOM     28  C   LIG d   1       5.499  -7.369 -10.744  0.00  0.00     0.021 C 
ATOM     29  C   LIG d   1       8.406  -6.724 -11.028  0.00  0.00     0.022 C 
ATOM     30  H   LIG d   1       8.484  -7.581  -9.048  0.00  0.00     0.047 H 
ATOM     31  H   LIG d   1       7.946  -8.710 -10.316  0.00  0.00     0.047 H 
ATOM     32  C   LIG d   1       7.408  -6.690 -12.164  0.00  0.00     0.136 C 
ATOM     33  H   LIG d   1       8.509  -5.805 -10.648  0.00  0.00     0.036 H 
ATOM     34  H   LIG d   1       9.371  -7.073 -11.396  0.00  0.00     0.036 H 
ATOM     35  C   LIG d   1       5.960  -6.393 -11.842  0.00  0.00     0.022 C 
ATOM     36  O   LIG d   1       7.758  -6.894 -13.302  0.00  0.00    -0.297 OA
ATOM     37  H   LIG d   1       5.865  -5.453 -11.512  0.00  0.00     0.036 H 
ATOM     38  H   LIG d   1       5.350  -6.532 -12.733  0.00  0.00     0.036 H 
ATOM     39  H   LIG d   1       5.426  -8.376 -11.154  0.00  0.00     0.047 H 
ATOM     40  H   LIG d   1       4.527  -7.058 -10.360  0.00  0.00     0.047 H 
ENDBRANCH  21  24
ENDBRANCH   2  21
BRANCH   1  41
ATOM     41  C   LIG d   1       4.886  -4.011  -9.146  0.00  0.00    -0.038 C 
ATOM     42  H   LIG d   1       4.365  -3.095  -9.428  0.00  0.00     0.028 H 
ATOM     43  H   LIG d   1       5.946  -3.913  -9.383  0.00  0.00     0.028 H 
ATOM     44  H   LIG d   1       4.465  -4.852  -9.697  0.00  0.00     0.028 H 
ENDBRANCH   1  41
BRANCH   8  45
ATOM     45  O   LIG d   1       4.912  -1.581  -8.553  0.00  0.00    -0.494 OA
BRANCH  45  46
ATOM     46  C   LIG d   1       4.630  -0.252  -8.998  0.00  0.00     0.079 C 
ATOM     47  H   LIG d   1       5.270   0.453  -8.468  0.00  0.00     0.066 H 
ATOM     48  H   LIG d   1       3.585  -0.016  -8.796  0.00  0.00     0.066 H 
ATOM     49  H   LIG d   1       4.819  -0.180 -10.069  0.00  0.00     0.066 H 
ENDBRANCH  45  46
ENDBRANCH   8  45
BRANCH  14  50
ATOM     50  C   LIG d   1       4.293   1.048  -1.937  0.00  0.00    -0.025 C 
ATOM     51  H   LIG d   1       5.134   1.601  -2.357  0.00  0.00     0.027 H 
ATOM     52  H   LIG d   1       3.412   1.691  -1.913  0.00  0.00     0.027 H 
ATOM     53  H   LIG d   1       4.538   0.729  -0.925  0.00  0.00     0.027 H 
ENDBRANCH  14  50
BRANCH  14  54
ATOM     54  C   LIG d   1       2.495  -0.416  -2.877  0.00  0.00    -0.025 C 
ATOM     55  H   LIG d   1       1.970   0.511  -2.645  0.00  0.00     0.027 H 
ATOM     56  H   LIG d   1       2.226  -0.743  -3.882  0.00  0.00     0.027 H 
ATOM     57  H   LIG d   1       2.212  -1.184  -2.158  0.00  0.00     0.027 H 
ENDBRANCH  14  54
TORSDOF 7
ENDMDL
MODEL 10
REMARK VINA RESULT:      -5.9      9.634     14.538
REMARK  7 active torsions:
REMARK  status: ('A' for Active; 'I' for Inactive)
REMARK    1  A    between atoms: C_1  and  C_2 
REMARK    2  A    between atoms: C_3  and  C_21 
REMARK    3  A    between atoms: C_9  and  O_19 
REMARK    4  A    between atoms: C_15  and  C_17 
REMARK    5  A    between atoms: C_15  and  C_18 
REMARK    6  A    between atoms: O_19  and  C_20 
REMARK    7  A    between atoms: C_21  and  C_22 
REMARK       I    between atoms: C_22  and  N_24 
ROOT
ATOM      1  C   LIG d   1       9.635   7.036  -4.649  0.00  0.00    -0.026 A 
ATOM      2  C   LIG d   1       9.519   8.132  -5.442  0.00  0.00     0.049 A 
ATOM      3  C   LIG d   1       9.770   9.412  -4.911  0.00  0.00     0.341 A 
ATOM      4  O   LIG d   1       9.665  10.391  -5.629  0.00  0.00    -0.245 OA
ATOM      5  O   LIG d   1      10.125   9.572  -3.624  0.00  0.00    -0.421 OA
ATOM      6  C   LIG d   1      10.252   8.507  -2.802  0.00  0.00     0.149 A 
ATOM      7  C   LIG d   1      10.011   7.211  -3.292  0.00  0.00     0.063 A 
ATOM      8  C   LIG d   1      10.147   6.106  -2.434  0.00  0.00     0.135 A 
ATOM      9  C   LIG d   1      10.506   6.307  -1.119  0.00  0.00     0.023 A 
ATOM     10  C   LIG d   1      10.746   7.594  -0.636  0.00  0.00     0.131 A 
ATOM     11  C   LIG d   1      10.618   8.688  -1.474  0.00  0.00     0.038 A 
ATOM     12  C   LIG d   1      10.873  10.090  -0.982  0.00  0.00    -0.017 C 
ATOM     13  C   LIG d   1      10.829  10.118   0.548  0.00  0.00    -0.009 C 
ATOM     14  C   LIG d   1      11.694   8.965   1.074  0.00  0.00     0.105 C 
ATOM     15  O   LIG d   1      11.096   7.733   0.668  0.00  0.00    -0.486 OA
ATOM     16  H   LIG d   1      10.607   5.460  -0.456  0.00  0.00     0.069 H 
ATOM     17  H   LIG d   1      11.854  10.422  -1.321  0.00  0.00     0.032 H 
ATOM     18  H   LIG d   1      10.109  10.759  -1.379  0.00  0.00     0.032 H 
ATOM     19  H   LIG d   1      11.221  11.067   0.910  0.00  0.00     0.031 H 
ATOM     20  H   LIG d   1       9.801   9.991   0.887  0.00  0.00     0.031 H 
ENDROOT
BRANCH   2  21
ATOM     21  C   LIG d   1       9.122   7.979  -6.887  0.00  0.00     0.056 C 
ATOM     22  H   LIG d   1       8.379   7.187  -6.978  0.00  0.00     0.041 H 
ATOM     23  H   LIG d   1       8.700   8.917  -7.250  0.00  0.00     0.041 H 
BRANCH  21  24
ATOM     24  C   LIG d   1      10.336   7.625  -7.708  0.00  0.00     0.220 C 
ATOM     25  O   LIG d   1      11.370   8.241  -7.557  0.00  0.00    -0.275 OA
ATOM     26  N   LIG d   1      10.272   6.624  -8.607  0.00  0.00    -0.300 N 
ATOM     27  C   LIG d   1      11.451   6.273  -9.411  0.00  0.00     0.021 C 
ATOM     28  C   LIG d   1       9.027   5.869  -8.793  0.00  0.00     0.021 C 
ATOM     29  C   LIG d   1      11.089   6.391 -10.896  0.00  0.00     0.022 C 
ATOM     30  H   LIG d   1      12.268   6.954  -9.178  0.00  0.00     0.047 H 
ATOM     31  H   LIG d   1      11.753   5.249  -9.187  0.00  0.00     0.047 H 
ATOM     32  C   LIG d   1       9.794   5.647 -11.135  0.00  0.00     0.136 C 
ATOM     33  H   LIG d   1      10.971   7.352 -11.145  0.00  0.00     0.036 H 
ATOM     34  H   LIG d   1      11.882   5.954 -11.503  0.00  0.00     0.036 H 
ATOM     35  C   LIG d   1       8.601   5.982 -10.267  0.00  0.00     0.022 C 
ATOM     36  O   LIG d   1       9.714   4.805 -11.997  0.00  0.00    -0.297 OA
ATOM     37  H   LIG d   1       8.290   6.914 -10.453  0.00  0.00     0.036 H 
ATOM     38  H   LIG d   1       7.792   5.280 -10.468  0.00  0.00     0.036 H 
ATOM     39  H   LIG d   1       9.193   4.822  -8.536  0.00  0.00     0.047 H 
ATOM     40  H   LIG d   1       8.249   6.285  -8.152  0.00  0.00     0.047 H 
ENDBRANCH  21  24
ENDBRANCH   2  21
BRANCH   1  41
ATOM     41  C   LIG d   1       9.371   5.658  -5.199  0.00  0.00    -0.038 C 
ATOM     42  H   LIG d   1       9.383   5.694  -6.289  0.00  0.00     0.028 H 
ATOM     43  H   LIG d   1      10.144   4.973  -4.851  0.00  0.00     0.028 H 
ATOM     44  H   LIG d   1       8.396   5.311  -4.858  0.00  0.00     0.028 H 
ENDBRANCH   1  41
BRANCH   8  45
ATOM     45  O   LIG d   1       9.919   4.851  -2.897  0.00  0.00    -0.494 OA
BRANCH  45  46
ATOM     46  C   LIG d   1      10.752   3.809  -2.383  0.00  0.00     0.079 C 
ATOM     47  H   LIG d   1      10.154   2.913  -2.217  0.00  0.00     0.066 H 
ATOM     48  H   LIG d   1      11.195   4.130  -1.439  0.00  0.00     0.066 H 
ATOM     49  H   LIG d   1      11.544   3.590  -3.100  0.00  0.00     0.066 H 
ENDBRANCH  45  46
ENDBRANCH   8  45
BRANCH  14  50
ATOM     50  C   LIG d   1      11.762   9.028   2.601  0.00  0.00    -0.025 C 
ATOM     51  H   LIG d   1      11.995  10.046   2.913  0.00  0.00     0.027 H 
ATOM     52  H   LIG d   1      10.799   8.731   3.019  0.00  0.00     0.027 H 
ATOM     53  H   LIG d   1      12.537   8.352   2.958  0.00  0.00     0.027 H 
ENDBRANCH  14  50
BRANCH  14  54
ATOM     54  C   LIG d   1      13.103   9.070   0.489  0.00  0.00    -0.025 C 
ATOM     55  H   LIG d   1      13.117   8.632  -0.509  0.00  0.00     0.027 H 
ATOM     56  H   LIG d   1      13.395  10.118   0.429  0.00  0.00     0.027 H 
ATOM     57  H   LIG d   1      13.803   8.534   1.130  0.00  0.00     0.027 H 
ENDBRANCH  14  54
TORSDOF 7
ENDMDL
