MODEL 1
REMARK VINA RESULT:      -6.3      0.000      0.000
REMARK  5 active torsions:
REMARK  status: ('A' for Active; 'I' for Inactive)
REMARK    1  A    between atoms: C_3  and  C_5 
REMARK       I    between atoms: C_5  and  N_7 
REMARK    2  A    between atoms: N_7  and  C_8 
REMARK    3  A    between atoms: C_19  and  O_26 
REMARK    4  A    between atoms: O_26  and  C_27 
REMARK    5  A    between atoms: C_27  and  C_28 
ROOT
ATOM      1  C   LIG d   1       3.397   0.069  -6.168  0.00  0.00     0.052 C 
ATOM      2  H   LIG d   1       4.200   0.797  -6.283  0.00  0.00     0.052 H 
ATOM      3  C   LIG d   1       2.452   0.458  -4.997  0.00  0.00    -0.016 C 
ATOM      4  C   LIG d   1       3.221  -0.049  -3.755  0.00  0.00     0.017 C 
ATOM      5  N   LIG d   1       4.133  -1.117  -4.215  0.00  0.00    -0.286 N 
ATOM      6  CA  LIG d   1       3.944  -1.288  -5.668  0.00  0.00     0.121 C 
ATOM      7  HA  LIG d   1       3.240  -2.094  -5.878  0.00  0.00     0.061 H 
ATOM      8  C   LIG d   1       5.286  -1.565  -6.301  0.00  0.00     0.239 C 
ATOM      9  O   LIG d   1       5.490  -1.304  -7.467  0.00  0.00    -0.274 OA
ATOM     10  N   LIG d   1       6.247  -2.110  -5.537  0.00  0.00    -0.286 N 
ATOM     11  C   LIG d   1       7.677  -2.270  -5.859  0.00  0.00     0.042 C 
ATOM     12  C   LIG d   1       8.372  -1.884  -4.524  0.00  0.00     0.076 C 
ATOM     13  H   LIG d   1       8.427  -0.802  -4.413  0.00  0.00     0.061 H 
ATOM     14  C   LIG d   1       7.427  -2.498  -3.461  0.00  0.00     0.002 C 
ATOM     15  CA  LIG d   1       6.068  -2.634  -4.170  0.00  0.00     0.105 C 
ATOM     16  HA  LIG d   1       5.763  -3.678  -4.203  0.00  0.00     0.060 H 
ATOM     17  C   LIG d   1       5.026  -1.808  -3.459  0.00  0.00     0.237 C 
ATOM     18  O   LIG d   1       4.997  -1.756  -2.248  0.00  0.00    -0.274 OA
ATOM     19  H   LIG d   1       2.316   1.539  -4.953  0.00  0.00     0.030 H 
ATOM     20  H   LIG d   1       1.491  -0.046  -5.092  0.00  0.00     0.030 H 
ATOM     21  H   LIG d   1       3.790   0.769  -3.312  0.00  0.00     0.046 H 
ATOM     22  H   LIG d   1       2.522  -0.456  -3.027  0.00  0.00     0.046 H 
ATOM     23  H   LIG d   1       7.972  -1.591  -6.659  0.00  0.00     0.049 H 
ATOM     24  H   LIG d   1       7.901  -3.303  -6.126  0.00  0.00     0.049 H 
ATOM     25  H   LIG d   1       7.792  -3.477  -3.151  0.00  0.00     0.031 H 
ATOM     26  H   LIG d   1       7.342  -1.834  -2.601  0.00  0.00     0.031 H 
ENDROOT
BRANCH   1  27
ATOM     27  N   LIG d   1       2.651  -0.090  -7.418  0.00  0.00    -0.310 N 
ATOM     28  C   LIG d   1       2.955   0.672  -8.487  0.00  0.00     0.216 C 
ATOM     29  O   LIG d   1       3.847   1.491  -8.414  0.00  0.00    -0.276 OA
ATOM     30  H   LIG d   1       1.937  -0.746  -7.477  0.00  0.00     0.149 HD
BRANCH  28  31
ATOM     31  C   LIG d   1       2.187   0.507  -9.773  0.00  0.00     0.036 C 
ATOM     32  C   LIG d   1       3.054   0.031 -10.951  0.00  0.00    -0.042 C 
ATOM     33  C   LIG d   1       1.871  -0.865 -11.356  0.00  0.00    -0.052 C 
ATOM     34  H   LIG d   1       3.275   0.815 -11.675  0.00  0.00     0.027 H 
ATOM     35  H   LIG d   1       3.939  -0.527 -10.645  0.00  0.00     0.027 H 
ATOM     36  C   LIG d   1       1.442  -0.835  -9.877  0.00  0.00    -0.042 C 
ATOM     37  H   LIG d   1       1.162  -0.377 -12.025  0.00  0.00     0.027 H 
ATOM     38  H   LIG d   1       2.172  -1.853 -11.705  0.00  0.00     0.027 H 
ATOM     39  H   LIG d   1       1.886  -1.629  -9.278  0.00  0.00     0.027 H 
ATOM     40  H   LIG d   1       0.364  -0.747  -9.736  0.00  0.00     0.027 H 
ATOM     41  H   LIG d   1       1.565   1.371 -10.009  0.00  0.00     0.039 H 
ENDBRANCH  28  31
ENDBRANCH   1  27
BRANCH  12  42
ATOM     42  O   LIG d   1       9.673  -2.468  -4.443  0.00  0.00    -0.375 OA
BRANCH  42  43
ATOM     43  C   LIG d   1       9.665  -3.887  -4.277  0.00  0.00     0.051 C 
ATOM     44  H   LIG d   1      10.104  -4.359  -5.156  0.00  0.00     0.056 H 
ATOM     45  H   LIG d   1       8.637  -4.232  -4.154  0.00  0.00     0.056 H 
BRANCH  43  46
ATOM     46  C   LIG d   1      10.479  -4.261  -3.037  0.00  0.00    -0.018 A 
ATOM     47  C   LIG d   1       9.748  -4.982  -1.901  0.00  0.00    -0.048 A 
ATOM     48  C   LIG d   1      10.738  -5.747  -2.783  0.00  0.00    -0.048 A 
ATOM     49  H   LIG d   1       8.688  -5.191  -2.038  0.00  0.00     0.027 H 
ATOM     50  H   LIG d   1      10.055  -4.756  -0.881  0.00  0.00     0.027 H 
ATOM     51  H   LIG d   1      10.328  -6.459  -3.499  0.00  0.00     0.027 H 
ATOM     52  H   LIG d   1      11.695  -6.023  -2.342  0.00  0.00     0.027 H 
ATOM     53  H   LIG d   1      11.266  -3.559  -2.762  0.00  0.00     0.032 H 
ENDBRANCH  43  46
ENDBRANCH  42  43
ENDBRANCH  12  42
TORSDOF 5
ENDMDL
MODEL 2
REMARK VINA RESULT:      -6.2      7.704     10.085
REMARK  5 active torsions:
REMARK  status: ('A' for Active; 'I' for Inactive)
REMARK    1  A    between atoms: C_3  and  C_5 
REMARK       I    between atoms: C_5  and  N_7 
REMARK    2  A    between atoms: N_7  and  C_8 
REMARK    3  A    between atoms: C_19  and  O_26 
REMARK    4  A    between atoms: O_26  and  C_27 
REMARK    5  A    between atoms: C_27  and  C_28 
ROOT
ATOM      1  C   LIG d   1      10.073   6.622  -3.695  0.00  0.00     0.052 C 
ATOM      2  H   LIG d   1       9.045   6.567  -3.335  0.00  0.00     0.052 H 
ATOM      3  C   LIG d   1      10.182   7.547  -4.940  0.00  0.00    -0.016 C 
ATOM      4  C   LIG d   1       9.723   6.623  -6.092  0.00  0.00     0.017 C 
ATOM      5  N   LIG d   1       9.945   5.231  -5.648  0.00  0.00    -0.286 N 
ATOM      6  CA  LIG d   1      10.525   5.269  -4.292  0.00  0.00     0.121 C 
ATOM      7  HA  LIG d   1      11.613   5.203  -4.330  0.00  0.00     0.061 H 
ATOM      8  C   LIG d   1       9.944   4.133  -3.486  0.00  0.00     0.239 C 
ATOM      9  O   LIG d   1       9.890   4.192  -2.275  0.00  0.00    -0.274 OA
ATOM     10  N   LIG d   1       9.489   3.055  -4.145  0.00  0.00    -0.286 N 
ATOM     11  C   LIG d   1       8.696   1.933  -3.609  0.00  0.00     0.042 C 
ATOM     12  C   LIG d   1       7.648   1.690  -4.729  0.00  0.00     0.076 C 
ATOM     13  H   LIG d   1       6.835   2.413  -4.665  0.00  0.00     0.061 H 
ATOM     14  C   LIG d   1       8.476   1.910  -6.020  0.00  0.00     0.002 C 
ATOM     15  CA  LIG d   1       9.662   2.789  -5.585  0.00  0.00     0.105 C 
ATOM     16  HA  LIG d   1      10.602   2.270  -5.763  0.00  0.00     0.060 H 
ATOM     17  C   LIG d   1       9.640   4.099  -6.333  0.00  0.00     0.237 C 
ATOM     18  O   LIG d   1       9.347   4.135  -7.509  0.00  0.00    -0.274 OA
ATOM     19  H   LIG d   1       9.516   8.404  -4.843  0.00  0.00     0.030 H 
ATOM     20  H   LIG d   1      11.210   7.874  -5.090  0.00  0.00     0.030 H 
ATOM     21  H   LIG d   1       8.666   6.789  -6.302  0.00  0.00     0.046 H 
ATOM     22  H   LIG d   1      10.317   6.819  -6.983  0.00  0.00     0.046 H 
ATOM     23  H   LIG d   1       8.207   2.217  -2.677  0.00  0.00     0.049 H 
ATOM     24  H   LIG d   1       9.320   1.051  -3.465  0.00  0.00     0.049 H 
ATOM     25  H   LIG d   1       8.835   0.955  -6.406  0.00  0.00     0.031 H 
ATOM     26  H   LIG d   1       7.878   2.424  -6.772  0.00  0.00     0.031 H 
ENDROOT
BRANCH   1  27
ATOM     27  N   LIG d   1      10.980   7.060  -2.632  0.00  0.00    -0.310 N 
ATOM     28  C   LIG d   1      10.490   7.380  -1.418  0.00  0.00     0.216 C 
ATOM     29  O   LIG d   1       9.298   7.307  -1.206  0.00  0.00    -0.276 OA
ATOM     30  H   LIG d   1      11.933   7.118  -2.801  0.00  0.00     0.149 HD
BRANCH  28  31
ATOM     31  C   LIG d   1      11.423   7.830  -0.324  0.00  0.00     0.036 C 
ATOM     32  C   LIG d   1      10.962   9.112   0.391  0.00  0.00    -0.042 C 
ATOM     33  C   LIG d   1      11.431   8.457   1.700  0.00  0.00    -0.052 C 
ATOM     34  H   LIG d   1      11.535   9.997   0.114  0.00  0.00     0.027 H 
ATOM     35  H   LIG d   1       9.885   9.273   0.346  0.00  0.00     0.027 H 
ATOM     36  C   LIG d   1      11.205   7.098   1.012  0.00  0.00    -0.042 C 
ATOM     37  H   LIG d   1      12.477   8.656   1.938  0.00  0.00     0.027 H 
ATOM     38  H   LIG d   1      10.765   8.638   2.543  0.00  0.00     0.027 H 
ATOM     39  H   LIG d   1      10.195   6.709   1.137  0.00  0.00     0.027 H 
ATOM     40  H   LIG d   1      11.976   6.361   1.236  0.00  0.00     0.027 H 
ATOM     41  H   LIG d   1      12.466   7.858  -0.641  0.00  0.00     0.039 H 
ENDBRANCH  28  31
ENDBRANCH   1  27
BRANCH  12  42
ATOM     42  O   LIG d   1       7.144   0.355  -4.671  0.00  0.00    -0.375 OA
BRANCH  42  43
ATOM     43  C   LIG d   1       6.736  -0.056  -3.364  0.00  0.00     0.051 C 
ATOM     44  H   LIG d   1       7.285   0.515  -2.616  0.00  0.00     0.056 H 
ATOM     45  H   LIG d   1       6.944  -1.119  -3.237  0.00  0.00     0.056 H 
BRANCH  43  46
ATOM     46  C   LIG d   1       5.236   0.193  -3.196  0.00  0.00    -0.018 A 
ATOM     47  C   LIG d   1       4.517  -0.552  -2.068  0.00  0.00    -0.048 A 
ATOM     48  C   LIG d   1       4.782   0.951  -1.947  0.00  0.00    -0.048 A 
ATOM     49  H   LIG d   1       5.113  -1.218  -1.445  0.00  0.00     0.027 H 
ATOM     50  H   LIG d   1       3.490  -0.868  -2.248  0.00  0.00     0.027 H 
ATOM     51  H   LIG d   1       5.552   1.271  -1.245  0.00  0.00     0.027 H 
ATOM     52  H   LIG d   1       3.929   1.622  -2.048  0.00  0.00     0.027 H 
ATOM     53  H   LIG d   1       4.682   0.365  -4.118  0.00  0.00     0.032 H 
ENDBRANCH  43  46
ENDBRANCH  42  43
ENDBRANCH  12  42
TORSDOF 5
ENDMDL
MODEL 3
REMARK VINA RESULT:      -6.2      3.974      8.025
REMARK  5 active torsions:
REMARK  status: ('A' for Active; 'I' for Inactive)
REMARK    1  A    between atoms: C_3  and  C_5 
REMARK       I    between atoms: C_5  and  N_7 
REMARK    2  A    between atoms: N_7  and  C_8 
REMARK    3  A    between atoms: C_19  and  O_26 
REMARK    4  A    between atoms: O_26  and  C_27 
REMARK    5  A    between atoms: C_27  and  C_28 
ROOT
ATOM      1  C   LIG d   1       3.241  -0.093  -7.161  0.00  0.00     0.052 C 
ATOM      2  H   LIG d   1       2.323  -0.609  -6.881  0.00  0.00     0.052 H 
ATOM      3  C   LIG d   1       2.934   1.294  -7.792  0.00  0.00    -0.016 C 
ATOM      4  C   LIG d   1       2.576   0.933  -9.251  0.00  0.00     0.017 C 
ATOM      5  N   LIG d   1       3.210  -0.370  -9.546  0.00  0.00    -0.286 N 
ATOM      6  CA  LIG d   1       3.942  -0.806  -8.341  0.00  0.00     0.121 C 
ATOM      7  HA  LIG d   1       4.993  -0.523  -8.399  0.00  0.00     0.061 H 
ATOM      8  C   LIG d   1       3.792  -2.301  -8.199  0.00  0.00     0.239 C 
ATOM      9  O   LIG d   1       3.893  -2.837  -7.116  0.00  0.00    -0.274 OA
ATOM     10  N   LIG d   1       3.546  -3.022  -9.305  0.00  0.00    -0.286 N 
ATOM     11  C   LIG d   1       3.153  -4.440  -9.394  0.00  0.00     0.042 C 
ATOM     12  C   LIG d   1       2.059  -4.423 -10.497  0.00  0.00     0.076 C 
ATOM     13  H   LIG d   1       1.104  -4.090 -10.092  0.00  0.00     0.061 H 
ATOM     14  C   LIG d   1       2.616  -3.390 -11.509  0.00  0.00     0.002 C 
ATOM     15  CA  LIG d   1       3.581  -2.514 -10.690  0.00  0.00     0.105 C 
ATOM     16  HA  LIG d   1       4.590  -2.587 -11.093  0.00  0.00     0.060 H 
ATOM     17  C   LIG d   1       3.118  -1.079 -10.700  0.00  0.00     0.237 C 
ATOM     18  O   LIG d   1       2.666  -0.582 -11.709  0.00  0.00    -0.274 OA
ATOM     19  H   LIG d   1       2.088   1.766  -7.291  0.00  0.00     0.030 H 
ATOM     20  H   LIG d   1       3.812   1.938  -7.754  0.00  0.00     0.030 H 
ATOM     21  H   LIG d   1       1.493   0.860  -9.361  0.00  0.00     0.046 H 
ATOM     22  H   LIG d   1       2.970   1.689  -9.928  0.00  0.00     0.046 H 
ATOM     23  H   LIG d   1       2.740  -4.786  -8.446  0.00  0.00     0.049 H 
ATOM     24  H   LIG d   1       3.997  -5.058  -9.697  0.00  0.00     0.049 H 
ATOM     25  H   LIG d   1       3.152  -3.897 -12.310  0.00  0.00     0.031 H 
ATOM     26  H   LIG d   1       1.807  -2.784 -11.916  0.00  0.00     0.031 H 
ENDROOT
BRANCH   1  27
ATOM     27  N   LIG d   1       4.142   0.037  -6.013  0.00  0.00    -0.310 N 
ATOM     28  C   LIG d   1       3.639   0.062  -4.762  0.00  0.00     0.216 C 
ATOM     29  O   LIG d   1       2.442  -0.022  -4.587  0.00  0.00    -0.276 OA
ATOM     30  H   LIG d   1       5.099   0.104  -6.153  0.00  0.00     0.149 HD
BRANCH  28  31
ATOM     31  C   LIG d   1       4.566   0.196  -3.582  0.00  0.00     0.036 C 
ATOM     32  C   LIG d   1       4.413   1.528  -2.827  0.00  0.00    -0.042 C 
ATOM     33  C   LIG d   1       4.576   0.721  -1.529  0.00  0.00    -0.052 C 
ATOM     34  H   LIG d   1       5.227   2.230  -3.011  0.00  0.00     0.027 H 
ATOM     35  H   LIG d   1       3.428   1.982  -2.937  0.00  0.00     0.027 H 
ATOM     36  C   LIG d   1       4.047  -0.496  -2.310  0.00  0.00    -0.042 C 
ATOM     37  H   LIG d   1       5.614   0.614  -1.208  0.00  0.00     0.027 H 
ATOM     38  H   LIG d   1       3.916   1.048  -0.725  0.00  0.00     0.027 H 
ATOM     39  H   LIG d   1       2.963  -0.596  -2.278  0.00  0.00     0.027 H 
ATOM     40  H   LIG d   1       4.567  -1.426  -2.076  0.00  0.00     0.027 H 
ATOM     41  H   LIG d   1       5.599  -0.053  -3.823  0.00  0.00     0.039 H 
ENDBRANCH  28  31
ENDBRANCH   1  27
BRANCH  12  42
ATOM     42  O   LIG d   1       1.931  -5.709 -11.104  0.00  0.00    -0.375 OA
BRANCH  42  43
ATOM     43  C   LIG d   1       0.588  -6.193 -11.163  0.00  0.00     0.051 C 
ATOM     44  H   LIG d   1       0.553  -7.216 -10.789  0.00  0.00     0.056 H 
ATOM     45  H   LIG d   1       0.239  -6.171 -12.196  0.00  0.00     0.056 H 
BRANCH  43  46
ATOM     46  C   LIG d   1      -0.313  -5.305 -10.303  0.00  0.00    -0.018 A 
ATOM     47  C   LIG d   1      -1.711  -4.984 -10.839  0.00  0.00    -0.048 A 
ATOM     48  C   LIG d   1      -1.543  -5.953  -9.666  0.00  0.00    -0.048 A 
ATOM     49  H   LIG d   1      -1.989  -5.407 -11.804  0.00  0.00     0.027 H 
ATOM     50  H   LIG d   1      -2.119  -3.998 -10.621  0.00  0.00     0.027 H 
ATOM     51  H   LIG d   1      -1.712  -7.013  -9.860  0.00  0.00     0.027 H 
ATOM     52  H   LIG d   1      -1.842  -5.604  -8.678  0.00  0.00     0.027 H 
ATOM     53  H   LIG d   1       0.198  -4.528  -9.734  0.00  0.00     0.032 H 
ENDBRANCH  43  46
ENDBRANCH  42  43
ENDBRANCH  12  42
TORSDOF 5
ENDMDL
MODEL 4
REMARK VINA RESULT:      -6.1      4.265      6.153
REMARK  5 active torsions:
REMARK  status: ('A' for Active; 'I' for Inactive)
REMARK    1  A    between atoms: C_3  and  C_5 
REMARK       I    between atoms: C_5  and  N_7 
REMARK    2  A    between atoms: N_7  and  C_8 
REMARK    3  A    between atoms: C_19  and  O_26 
REMARK    4  A    between atoms: O_26  and  C_27 
REMARK    5  A    between atoms: C_27  and  C_28 
ROOT
ATOM      1  C   LIG d   1       4.820  -1.715  -6.172  0.00  0.00     0.052 C 
ATOM      2  H   LIG d   1       3.816  -2.081  -6.387  0.00  0.00     0.052 H 
ATOM      3  C   LIG d   1       5.432  -0.999  -7.409  0.00  0.00    -0.016 C 
ATOM      4  C   LIG d   1       5.940  -2.179  -8.269  0.00  0.00     0.017 C 
ATOM      5  N   LIG d   1       6.153  -3.323  -7.357  0.00  0.00    -0.286 N 
ATOM      6  CA  LIG d   1       5.811  -2.888  -5.989  0.00  0.00     0.121 C 
ATOM      7  HA  LIG d   1       6.701  -2.566  -5.447  0.00  0.00     0.061 H 
ATOM      8  C   LIG d   1       5.129  -4.030  -5.275  0.00  0.00     0.239 C 
ATOM      9  O   LIG d   1       4.370  -3.823  -4.353  0.00  0.00    -0.274 OA
ATOM     10  N   LIG d   1       5.386  -5.281  -5.690  0.00  0.00    -0.286 N 
ATOM     11  C   LIG d   1       4.691  -6.524  -5.305  0.00  0.00     0.042 C 
ATOM     12  C   LIG d   1       4.573  -7.281  -6.656  0.00  0.00     0.076 C 
ATOM     13  H   LIG d   1       3.743  -6.894  -7.247  0.00  0.00     0.061 H 
ATOM     14  C   LIG d   1       5.927  -6.966  -7.340  0.00  0.00     0.002 C 
ATOM     15  CA  LIG d   1       6.417  -5.669  -6.671  0.00  0.00     0.105 C 
ATOM     16  HA  LIG d   1       7.369  -5.839  -6.171  0.00  0.00     0.060 H 
ATOM     17  C   LIG d   1       6.555  -4.574  -7.698  0.00  0.00     0.237 C 
ATOM     18  O   LIG d   1       7.002  -4.812  -8.800  0.00  0.00    -0.274 OA
ATOM     19  H   LIG d   1       4.670  -0.432  -7.942  0.00  0.00     0.030 H 
ATOM     20  H   LIG d   1       6.256  -0.352  -7.111  0.00  0.00     0.030 H 
ATOM     21  H   LIG d   1       5.198  -2.433  -9.026  0.00  0.00     0.046 H 
ATOM     22  H   LIG d   1       6.883  -1.913  -8.744  0.00  0.00     0.046 H 
ATOM     23  H   LIG d   1       3.704  -6.304  -4.897  0.00  0.00     0.049 H 
ATOM     24  H   LIG d   1       5.286  -7.095  -4.592  0.00  0.00     0.049 H 
ATOM     25  H   LIG d   1       6.637  -7.774  -7.163  0.00  0.00     0.031 H 
ATOM     26  H   LIG d   1       5.786  -6.812  -8.408  0.00  0.00     0.031 H 
ENDROOT
BRANCH   1  27
ATOM     27  N   LIG d   1       4.819  -0.837  -5.000  0.00  0.00    -0.310 N 
ATOM     28  C   LIG d   1       3.771  -0.020  -4.771  0.00  0.00     0.216 C 
ATOM     29  O   LIG d   1       2.830  -0.012  -5.535  0.00  0.00    -0.276 OA
ATOM     30  H   LIG d   1       5.572  -0.843  -4.389  0.00  0.00     0.149 HD
BRANCH  28  31
ATOM     31  C   LIG d   1       3.771   0.884  -3.565  0.00  0.00     0.036 C 
ATOM     32  C   LIG d   1       3.476   0.150  -2.246  0.00  0.00    -0.042 C 
ATOM     33  C   LIG d   1       4.556   1.037  -1.603  0.00  0.00    -0.052 C 
ATOM     34  H   LIG d   1       2.474   0.332  -1.859  0.00  0.00     0.027 H 
ATOM     35  H   LIG d   1       3.737  -0.908  -2.267  0.00  0.00     0.027 H 
ATOM     36  C   LIG d   1       5.176   1.165  -3.006  0.00  0.00    -0.042 C 
ATOM     37  H   LIG d   1       4.170   1.978  -1.210  0.00  0.00     0.027 H 
ATOM     38  H   LIG d   1       5.188   0.508  -0.890  0.00  0.00     0.027 H 
ATOM     39  H   LIG d   1       5.902   0.385  -3.236  0.00  0.00     0.027 H 
ATOM     40  H   LIG d   1       5.543   2.167  -3.233  0.00  0.00     0.027 H 
ATOM     41  H   LIG d   1       3.170   1.782  -3.709  0.00  0.00     0.039 H 
ENDBRANCH  28  31
ENDBRANCH   1  27
BRANCH  12  42
ATOM     42  O   LIG d   1       4.429  -8.685  -6.439  0.00  0.00    -0.375 OA
BRANCH  42  43
ATOM     43  C   LIG d   1       5.063  -9.157  -5.248  0.00  0.00     0.051 C 
ATOM     44  H   LIG d   1       5.130  -8.344  -4.525  0.00  0.00     0.056 H 
ATOM     45  H   LIG d   1       6.064  -9.516  -5.487  0.00  0.00     0.056 H 
BRANCH  43  46
ATOM     46  C   LIG d   1       4.240 -10.302  -4.652  0.00  0.00    -0.018 A 
ATOM     47  C   LIG d   1       4.779 -10.976  -3.388  0.00  0.00    -0.048 A 
ATOM     48  C   LIG d   1       3.560 -10.056  -3.305  0.00  0.00    -0.048 A 
ATOM     49  H   LIG d   1       5.718 -10.605  -2.980  0.00  0.00     0.027 H 
ATOM     50  H   LIG d   1       4.608 -12.047  -3.277  0.00  0.00     0.027 H 
ATOM     51  H   LIG d   1       3.698  -9.078  -2.842  0.00  0.00     0.027 H 
ATOM     52  H   LIG d   1       2.588 -10.520  -3.139  0.00  0.00     0.027 H 
ATOM     53  H   LIG d   1       3.718 -10.930  -5.373  0.00  0.00     0.032 H 
ENDBRANCH  43  46
ENDBRANCH  42  43
ENDBRANCH  12  42
TORSDOF 5
ENDMDL
MODEL 5
REMARK VINA RESULT:      -6.1      3.139      4.177
REMARK  5 active torsions:
REMARK  status: ('A' for Active; 'I' for Inactive)
REMARK    1  A    between atoms: C_3  and  C_5 
REMARK       I    between atoms: C_5  and  N_7 
REMARK    2  A    between atoms: N_7  and  C_8 
REMARK    3  A    between atoms: C_19  and  O_26 
REMARK    4  A    between atoms: O_26  and  C_27 
REMARK    5  A    between atoms: C_27  and  C_28 
ROOT
ATOM      1  C   LIG d   1       3.159   0.218  -6.399  0.00  0.00     0.052 C 
ATOM      2  H   LIG d   1       3.408   1.237  -6.696  0.00  0.00     0.052 H 
ATOM      3  C   LIG d   1       2.222   0.210  -5.158  0.00  0.00    -0.016 C 
ATOM      4  C   LIG d   1       3.207   0.418  -3.985  0.00  0.00     0.017 C 
ATOM      5  N   LIG d   1       4.536  -0.034  -4.448  0.00  0.00    -0.286 N 
ATOM      6  CA  LIG d   1       4.399  -0.515  -5.836  0.00  0.00     0.121 C 
ATOM      7  HA  LIG d   1       4.260  -1.596  -5.864  0.00  0.00     0.061 H 
ATOM      8  C   LIG d   1       5.630  -0.110  -6.611  0.00  0.00     0.239 C 
ATOM      9  O   LIG d   1       5.590   0.026  -7.816  0.00  0.00    -0.274 OA
ATOM     10  N   LIG d   1       6.769   0.095  -5.931  0.00  0.00    -0.286 N 
ATOM     11  C   LIG d   1       8.023   0.694  -6.423  0.00  0.00     0.042 C 
ATOM     12  C   LIG d   1       8.451   1.609  -5.243  0.00  0.00     0.076 C 
ATOM     13  H   LIG d   1       7.893   2.545  -5.255  0.00  0.00     0.061 H 
ATOM     14  C   LIG d   1       8.071   0.761  -4.003  0.00  0.00     0.002 C 
ATOM     15  CA  LIG d   1       6.988  -0.211  -4.504  0.00  0.00     0.105 C 
ATOM     16  HA  LIG d   1       7.321  -1.241  -4.386  0.00  0.00     0.060 H 
ATOM     17  C   LIG d   1       5.701   0.011  -3.751  0.00  0.00     0.237 C 
ATOM     18  O   LIG d   1       5.712   0.235  -2.559  0.00  0.00    -0.274 OA
ATOM     19  H   LIG d   1       1.505   1.030  -5.211  0.00  0.00     0.030 H 
ATOM     20  H   LIG d   1       1.707  -0.746  -5.069  0.00  0.00     0.030 H 
ATOM     21  H   LIG d   1       3.241   1.473  -3.711  0.00  0.00     0.046 H 
ATOM     22  H   LIG d   1       2.897  -0.181  -3.130  0.00  0.00     0.046 H 
ATOM     23  H   LIG d   1       7.843   1.283  -7.323  0.00  0.00     0.049 H 
ATOM     24  H   LIG d   1       8.774  -0.074  -6.608  0.00  0.00     0.049 H 
ATOM     25  H   LIG d   1       8.939   0.207  -3.644  0.00  0.00     0.031 H 
ATOM     26  H   LIG d   1       7.673   1.398  -3.215  0.00  0.00     0.031 H 
ENDROOT
BRANCH   1  27
ATOM     27  N   LIG d   1       2.567  -0.525  -7.513  0.00  0.00    -0.310 N 
ATOM     28  C   LIG d   1       2.309   0.100  -8.678  0.00  0.00     0.216 C 
ATOM     29  O   LIG d   1       2.566   1.278  -8.805  0.00  0.00    -0.276 OA
ATOM     30  H   LIG d   1       2.360  -1.468  -7.411  0.00  0.00     0.149 HD
BRANCH  28  31
ATOM     31  C   LIG d   1       1.699  -0.666  -9.824  0.00  0.00     0.036 C 
ATOM     32  C   LIG d   1       2.477  -0.521 -11.144  0.00  0.00    -0.042 C 
ATOM     33  C   LIG d   1       2.205  -2.017 -11.376  0.00  0.00    -0.052 C 
ATOM     34  H   LIG d   1       1.988   0.129 -11.870  0.00  0.00     0.027 H 
ATOM     35  H   LIG d   1       3.532  -0.287 -11.006  0.00  0.00     0.027 H 
ATOM     36  C   LIG d   1       2.087  -2.154  -9.847  0.00  0.00    -0.042 C 
ATOM     37  H   LIG d   1       1.271  -2.215 -11.904  0.00  0.00     0.027 H 
ATOM     38  H   LIG d   1       3.053  -2.555 -11.800  0.00  0.00     0.027 H 
ATOM     39  H   LIG d   1       3.035  -2.366  -9.353  0.00  0.00     0.027 H 
ATOM     40  H   LIG d   1       1.284  -2.819  -9.527  0.00  0.00     0.027 H 
ATOM     41  H   LIG d   1       0.628  -0.492  -9.927  0.00  0.00     0.039 H 
ENDBRANCH  28  31
ENDBRANCH   1  27
BRANCH  12  42
ATOM     42  O   LIG d   1       9.857   1.856  -5.277  0.00  0.00    -0.375 OA
BRANCH  42  43
ATOM     43  C   LIG d   1      10.201   3.231  -5.465  0.00  0.00     0.051 C 
ATOM     44  H   LIG d   1      10.125   3.483  -6.522  0.00  0.00     0.056 H 
ATOM     45  H   LIG d   1      11.223   3.399  -5.123  0.00  0.00     0.056 H 
BRANCH  43  46
ATOM     46  C   LIG d   1       9.243   4.111  -4.661  0.00  0.00    -0.018 A 
ATOM     47  C   LIG d   1       9.846   4.998  -3.568  0.00  0.00    -0.048 A 
ATOM     48  C   LIG d   1       9.333   5.624  -4.867  0.00  0.00    -0.048 A 
ATOM     49  H   LIG d   1      10.925   4.956  -3.423  0.00  0.00     0.027 H 
ATOM     50  H   LIG d   1       9.255   5.158  -2.666  0.00  0.00     0.027 H 
ATOM     51  H   LIG d   1      10.075   5.992  -5.576  0.00  0.00     0.027 H 
ATOM     52  H   LIG d   1       8.405   6.195  -4.819  0.00  0.00     0.027 H 
ATOM     53  H   LIG d   1       8.257   3.686  -4.476  0.00  0.00     0.032 H 
ENDBRANCH  43  46
ENDBRANCH  42  43
ENDBRANCH  12  42
TORSDOF 5
ENDMDL
MODEL 6
REMARK VINA RESULT:      -6.0      5.395      8.045
REMARK  5 active torsions:
REMARK  status: ('A' for Active; 'I' for Inactive)
REMARK    1  A    between atoms: C_3  and  C_5 
REMARK       I    between atoms: C_5  and  N_7 
REMARK    2  A    between atoms: N_7  and  C_8 
REMARK    3  A    between atoms: C_19  and  O_26 
REMARK    4  A    between atoms: O_26  and  C_27 
REMARK    5  A    between atoms: C_27  and  C_28 
ROOT
ATOM      1  C   LIG d   1       9.361   3.794  -5.437  0.00  0.00     0.052 C 
ATOM      2  H   LIG d   1       8.321   4.117  -5.455  0.00  0.00     0.052 H 
ATOM      3  C   LIG d   1      10.057   4.070  -6.800  0.00  0.00    -0.016 C 
ATOM      4  C   LIG d   1       9.598   2.874  -7.665  0.00  0.00     0.017 C 
ATOM      5  N   LIG d   1       9.236   1.780  -6.739  0.00  0.00    -0.286 N 
ATOM      6  CA  LIG d   1       9.464   2.253  -5.360  0.00  0.00     0.121 C 
ATOM      7  HA  LIG d   1      10.445   1.945  -4.998  0.00  0.00     0.061 H 
ATOM      8  C   LIG d   1       8.368   1.709  -4.475  0.00  0.00     0.239 C 
ATOM      9  O   LIG d   1       8.058   2.277  -3.449  0.00  0.00    -0.274 OA
ATOM     10  N   LIG d   1       7.748   0.581  -4.855  0.00  0.00    -0.286 N 
ATOM     11  C   LIG d   1       6.526  -0.016  -4.285  0.00  0.00     0.042 C 
ATOM     12  C   LIG d   1       5.747  -0.471  -5.550  0.00  0.00     0.076 C 
ATOM     13  H   LIG d   1       5.229   0.369  -6.011  0.00  0.00     0.061 H 
ATOM     14  C   LIG d   1       6.877  -0.993  -6.473  0.00  0.00     0.002 C 
ATOM     15  CA  LIG d   1       8.152  -0.290  -5.975  0.00  0.00     0.105 C 
ATOM     16  HA  LIG d   1       8.880  -1.026  -5.636  0.00  0.00     0.060 H 
ATOM     17  C   LIG d   1       8.740   0.560  -7.072  0.00  0.00     0.237 C 
ATOM     18  O   LIG d   1       8.758   0.166  -8.218  0.00  0.00    -0.274 OA
ATOM     19  H   LIG d   1       9.711   5.011  -7.226  0.00  0.00     0.030 H 
ATOM     20  H   LIG d   1      11.141   4.075  -6.686  0.00  0.00     0.030 H 
ATOM     21  H   LIG d   1       8.736   3.160  -8.268  0.00  0.00     0.046 H 
ATOM     22  H   LIG d   1      10.414   2.548  -8.309  0.00  0.00     0.046 H 
ATOM     23  H   LIG d   1       5.956   0.727  -3.728  0.00  0.00     0.049 H 
ATOM     24  H   LIG d   1       6.769  -0.870  -3.654  0.00  0.00     0.049 H 
ATOM     25  H   LIG d   1       6.977  -2.074  -6.375  0.00  0.00     0.031 H 
ATOM     26  H   LIG d   1       6.675  -0.722  -7.509  0.00  0.00     0.031 H 
ENDROOT
BRANCH   1  27
ATOM     27  N   LIG d   1      10.089   4.428  -4.335  0.00  0.00    -0.310 N 
ATOM     28  C   LIG d   1       9.716   5.645  -3.894  0.00  0.00     0.216 C 
ATOM     29  O   LIG d   1       8.779   6.217  -4.409  0.00  0.00    -0.276 OA
ATOM     30  H   LIG d   1      10.839   3.970  -3.923  0.00  0.00     0.149 HD
BRANCH  28  31
ATOM     31  C   LIG d   1      10.465   6.297  -2.760  0.00  0.00     0.036 C 
ATOM     32  C   LIG d   1       9.559   7.076  -1.791  0.00  0.00    -0.042 C 
ATOM     33  C   LIG d   1      10.428   6.515  -0.653  0.00  0.00    -0.052 C 
ATOM     34  H   LIG d   1       9.629   8.158  -1.902  0.00  0.00     0.027 H 
ATOM     35  H   LIG d   1       8.530   6.716  -1.771  0.00  0.00     0.027 H 
ATOM     36  C   LIG d   1      10.765   5.342  -1.591  0.00  0.00    -0.042 C 
ATOM     37  H   LIG d   1      11.288   7.141  -0.411  0.00  0.00     0.027 H 
ATOM     38  H   LIG d   1       9.858   6.222   0.229  0.00  0.00     0.027 H 
ATOM     39  H   LIG d   1      10.067   4.509  -1.517  0.00  0.00     0.027 H 
ATOM     40  H   LIG d   1      11.809   5.029  -1.542  0.00  0.00     0.027 H 
ATOM     41  H   LIG d   1      11.334   6.863  -3.096  0.00  0.00     0.039 H 
ENDBRANCH  28  31
ENDBRANCH   1  27
BRANCH  12  42
ATOM     42  O   LIG d   1       4.829  -1.518  -5.231  0.00  0.00    -0.375 OA
BRANCH  42  43
ATOM     43  C   LIG d   1       5.255  -2.357  -4.154  0.00  0.00     0.051 C 
ATOM     44  H   LIG d   1       6.142  -1.928  -3.689  0.00  0.00     0.056 H 
ATOM     45  H   LIG d   1       5.489  -3.350  -4.539  0.00  0.00     0.056 H 
BRANCH  43  46
ATOM     46  C   LIG d   1       4.135  -2.463  -3.117  0.00  0.00    -0.018 A 
ATOM     47  C   LIG d   1       4.240  -1.581  -1.870  0.00  0.00    -0.048 A 
ATOM     48  C   LIG d   1       3.209  -1.257  -2.953  0.00  0.00    -0.048 A 
ATOM     49  H   LIG d   1       5.106  -0.925  -1.789  0.00  0.00     0.027 H 
ATOM     50  H   LIG d   1       3.871  -1.991  -0.931  0.00  0.00     0.027 H 
ATOM     51  H   LIG d   1       3.397  -0.388  -3.584  0.00  0.00     0.027 H 
ATOM     52  H   LIG d   1       2.161  -1.454  -2.726  0.00  0.00     0.027 H 
ATOM     53  H   LIG d   1       3.698  -3.454  -2.997  0.00  0.00     0.032 H 
ENDBRANCH  43  46
ENDBRANCH  42  43
ENDBRANCH  12  42
TORSDOF 5
ENDMDL
MODEL 7
REMARK VINA RESULT:      -5.9      5.305      7.662
REMARK  5 active torsions:
REMARK  status: ('A' for Active; 'I' for Inactive)
REMARK    1  A    between atoms: C_3  and  C_5 
REMARK       I    between atoms: C_5  and  N_7 
REMARK    2  A    between atoms: N_7  and  C_8 
REMARK    3  A    between atoms: C_19  and  O_26 
REMARK    4  A    between atoms: O_26  and  C_27 
REMARK    5  A    between atoms: C_27  and  C_28 
ROOT
ATOM      1  C   LIG d   1       7.809  -0.453  -5.144  0.00  0.00     0.052 C 
ATOM      2  H   LIG d   1       8.408  -0.681  -4.263  0.00  0.00     0.052 H 
ATOM      3  C   LIG d   1       8.335  -1.217  -6.392  0.00  0.00    -0.016 C 
ATOM      4  C   LIG d   1       9.523  -0.342  -6.852  0.00  0.00     0.017 C 
ATOM      5  N   LIG d   1       9.288   1.021  -6.330  0.00  0.00    -0.286 N 
ATOM      6  CA  LIG d   1       8.012   1.014  -5.590  0.00  0.00     0.121 C 
ATOM      7  HA  LIG d   1       7.190   1.347  -6.224  0.00  0.00     0.061 H 
ATOM      8  C   LIG d   1       8.152   1.903  -4.378  0.00  0.00     0.239 C 
ATOM      9  O   LIG d   1       7.459   1.733  -3.398  0.00  0.00    -0.274 OA
ATOM     10  N   LIG d   1       9.065   2.888  -4.416  0.00  0.00    -0.286 N 
ATOM     11  C   LIG d   1       9.531   3.733  -3.301  0.00  0.00     0.042 C 
ATOM     12  C   LIG d   1      11.064   3.804  -3.545  0.00  0.00     0.076 C 
ATOM     13  H   LIG d   1      11.557   2.901  -3.185  0.00  0.00     0.061 H 
ATOM     14  C   LIG d   1      11.156   3.901  -5.089  0.00  0.00     0.002 C 
ATOM     15  CA  LIG d   1       9.834   3.305  -5.603  0.00  0.00     0.105 C 
ATOM     16  HA  LIG d   1       9.278   4.052  -6.169  0.00  0.00     0.060 H 
ATOM     17  C   LIG d   1      10.106   2.097  -6.462  0.00  0.00     0.237 C 
ATOM     18  O   LIG d   1      11.037   2.087  -7.239  0.00  0.00    -0.274 OA
ATOM     19  H   LIG d   1       8.673  -2.216  -6.118  0.00  0.00     0.030 H 
ATOM     20  H   LIG d   1       7.568  -1.269  -7.165  0.00  0.00     0.030 H 
ATOM     21  H   LIG d   1      10.456  -0.744  -6.454  0.00  0.00     0.046 H 
ATOM     22  H   LIG d   1       9.563  -0.313  -7.940  0.00  0.00     0.046 H 
ATOM     23  H   LIG d   1       9.314   3.263  -2.342  0.00  0.00     0.049 H 
ATOM     24  H   LIG d   1       9.086   4.726  -3.355  0.00  0.00     0.049 H 
ATOM     25  H   LIG d   1      11.247   4.942  -5.398  0.00  0.00     0.031 H 
ATOM     26  H   LIG d   1      12.001   3.320  -5.456  0.00  0.00     0.031 H 
ENDROOT
BRANCH   1  27
ATOM     27  N   LIG d   1       6.393  -0.741  -4.907  0.00  0.00    -0.310 N 
ATOM     28  C   LIG d   1       6.030  -1.525  -3.872  0.00  0.00     0.216 C 
ATOM     29  O   LIG d   1       6.875  -1.992  -3.138  0.00  0.00    -0.276 OA
ATOM     30  H   LIG d   1       5.717  -0.368  -5.494  0.00  0.00     0.149 HD
BRANCH  28  31
ATOM     31  C   LIG d   1       4.572  -1.822  -3.628  0.00  0.00     0.036 C 
ATOM     32  C   LIG d   1       4.147  -1.650  -2.159  0.00  0.00    -0.042 C 
ATOM     33  C   LIG d   1       2.848  -1.022  -2.691  0.00  0.00    -0.052 C 
ATOM     34  H   LIG d   1       3.993  -2.594  -1.636  0.00  0.00     0.027 H 
ATOM     35  H   LIG d   1       4.772  -0.952  -1.602  0.00  0.00     0.027 H 
ATOM     36  C   LIG d   1       3.641  -0.642  -3.956  0.00  0.00    -0.042 C 
ATOM     37  H   LIG d   1       2.055  -1.748  -2.876  0.00  0.00     0.027 H 
ATOM     38  H   LIG d   1       2.509  -0.163  -2.112  0.00  0.00     0.027 H 
ATOM     39  H   LIG d   1       4.127   0.330  -3.890  0.00  0.00     0.027 H 
ATOM     40  H   LIG d   1       3.079  -0.775  -4.881  0.00  0.00     0.027 H 
ATOM     41  H   LIG d   1       4.253  -2.766  -4.068  0.00  0.00     0.039 H 
ENDBRANCH  28  31
ENDBRANCH   1  27
BRANCH  12  42
ATOM     42  O   LIG d   1      11.622   4.966  -2.930  0.00  0.00    -0.375 OA
BRANCH  42  43
ATOM     43  C   LIG d   1      10.976   6.186  -3.299  0.00  0.00     0.051 C 
ATOM     44  H   LIG d   1       9.993   5.966  -3.714  0.00  0.00     0.056 H 
ATOM     45  H   LIG d   1      11.578   6.705  -4.045  0.00  0.00     0.056 H 
BRANCH  43  46
ATOM     46  C   LIG d   1      10.820   7.074  -2.063  0.00  0.00    -0.018 A 
ATOM     47  C   LIG d   1       9.401   7.312  -1.538  0.00  0.00    -0.048 A 
ATOM     48  C   LIG d   1      10.361   6.404  -0.766  0.00  0.00    -0.048 A 
ATOM     49  H   LIG d   1       8.580   6.836  -2.072  0.00  0.00     0.027 H 
ATOM     50  H   LIG d   1       9.181   8.290  -1.109  0.00  0.00     0.027 H 
ATOM     51  H   LIG d   1      10.171   5.331  -0.793  0.00  0.00     0.027 H 
ATOM     52  H   LIG d   1      10.772   6.785   0.169  0.00  0.00     0.027 H 
ATOM     53  H   LIG d   1      11.531   7.896  -1.981  0.00  0.00     0.032 H 
ENDBRANCH  43  46
ENDBRANCH  42  43
ENDBRANCH  12  42
TORSDOF 5
ENDMDL
MODEL 8
REMARK VINA RESULT:      -5.9      3.529      5.259
REMARK  5 active torsions:
REMARK  status: ('A' for Active; 'I' for Inactive)
REMARK    1  A    between atoms: C_3  and  C_5 
REMARK       I    between atoms: C_5  and  N_7 
REMARK    2  A    between atoms: N_7  and  C_8 
REMARK    3  A    between atoms: C_19  and  O_26 
REMARK    4  A    between atoms: O_26  and  C_27 
REMARK    5  A    between atoms: C_27  and  C_28 
ROOT
ATOM      1  C   LIG d   1       5.181  -3.182  -4.603  0.00  0.00     0.052 C 
ATOM      2  H   LIG d   1       5.191  -3.861  -3.752  0.00  0.00     0.052 H 
ATOM      3  C   LIG d   1       4.459  -3.822  -5.822  0.00  0.00    -0.016 C 
ATOM      4  C   LIG d   1       5.554  -4.727  -6.431  0.00  0.00     0.017 C 
ATOM      5  N   LIG d   1       6.859  -4.182  -6.001  0.00  0.00    -0.286 N 
ATOM      6  CA  LIG d   1       6.605  -2.986  -5.174  0.00  0.00     0.121 C 
ATOM      7  HA  LIG d   1       6.664  -2.077  -5.773  0.00  0.00     0.061 H 
ATOM      8  C   LIG d   1       7.610  -2.956  -4.048  0.00  0.00     0.239 C 
ATOM      9  O   LIG d   1       7.365  -2.376  -3.011  0.00  0.00    -0.274 OA
ATOM     10  N   LIG d   1       8.781  -3.587  -4.225  0.00  0.00    -0.286 N 
ATOM     11  C   LIG d   1       9.815  -3.879  -3.215  0.00  0.00     0.042 C 
ATOM     12  C   LIG d   1      10.239  -5.330  -3.571  0.00  0.00     0.076 C 
ATOM     13  H   LIG d   1       9.524  -6.052  -3.178  0.00  0.00     0.061 H 
ATOM     14  C   LIG d   1      10.213  -5.320  -5.121  0.00  0.00     0.002 C 
ATOM     15  CA  LIG d   1       9.264  -4.167  -5.493  0.00  0.00     0.105 C 
ATOM     16  HA  LIG d   1       9.795  -3.414  -6.074  0.00  0.00     0.060 H 
ATOM     17  C   LIG d   1       8.086  -4.694  -6.273  0.00  0.00     0.237 C 
ATOM     18  O   LIG d   1       8.235  -5.559  -7.110  0.00  0.00    -0.274 OA
ATOM     19  H   LIG d   1       3.604  -4.414  -5.496  0.00  0.00     0.030 H 
ATOM     20  H   LIG d   1       4.147  -3.057  -6.533  0.00  0.00     0.030 H 
ATOM     21  H   LIG d   1       5.434  -5.749  -6.069  0.00  0.00     0.046 H 
ATOM     22  H   LIG d   1       5.491  -4.706  -7.518  0.00  0.00     0.046 H 
ATOM     23  H   LIG d   1       9.397  -3.834  -2.210  0.00  0.00     0.049 H 
ATOM     24  H   LIG d   1      10.657  -3.195  -3.314  0.00  0.00     0.049 H 
ATOM     25  H   LIG d   1      11.212  -5.130  -5.514  0.00  0.00     0.031 H 
ATOM     26  H   LIG d   1       9.828  -6.266  -5.499  0.00  0.00     0.031 H 
ENDROOT
BRANCH   1  27
ATOM     27  N   LIG d   1       4.575  -1.898  -4.245  0.00  0.00    -0.310 N 
ATOM     28  C   LIG d   1       3.852  -1.786  -3.113  0.00  0.00     0.216 C 
ATOM     29  O   LIG d   1       3.703  -2.749  -2.392  0.00  0.00    -0.276 OA
ATOM     30  H   LIG d   1       4.694  -1.127  -4.823  0.00  0.00     0.149 HD
BRANCH  28  31
ATOM     31  C   LIG d   1       3.228  -0.465  -2.745  0.00  0.00     0.036 C 
ATOM     32  C   LIG d   1       4.185   0.481  -2.000  0.00  0.00    -0.042 C 
ATOM     33  C   LIG d   1       3.582   1.623  -2.836  0.00  0.00    -0.052 C 
ATOM     34  H   LIG d   1       3.976   0.563  -0.933  0.00  0.00     0.027 H 
ATOM     35  H   LIG d   1       5.238   0.295  -2.213  0.00  0.00     0.027 H 
ATOM     36  C   LIG d   1       3.232   0.559  -3.893  0.00  0.00    -0.042 C 
ATOM     37  H   LIG d   1       2.707   2.085  -2.378  0.00  0.00     0.027 H 
ATOM     38  H   LIG d   1       4.317   2.352  -3.175  0.00  0.00     0.027 H 
ATOM     39  H   LIG d   1       4.023   0.393  -4.624  0.00  0.00     0.027 H 
ATOM     40  H   LIG d   1       2.253   0.703  -4.352  0.00  0.00     0.027 H 
ATOM     41  H   LIG d   1       2.258  -0.574  -2.261  0.00  0.00     0.039 H 
ENDBRANCH  28  31
ENDBRANCH   1  27
BRANCH  12  42
ATOM     42  O   LIG d   1      11.555  -5.606  -3.089  0.00  0.00    -0.375 OA
BRANCH  42  43
ATOM     43  C   LIG d   1      11.724  -6.935  -2.589  0.00  0.00     0.051 C 
ATOM     44  H   LIG d   1      12.725  -7.042  -2.172  0.00  0.00     0.056 H 
ATOM     45  H   LIG d   1      11.591  -7.648  -3.404  0.00  0.00     0.056 H 
BRANCH  43  46
ATOM     46  C   LIG d   1      10.686  -7.206  -1.499  0.00  0.00    -0.018 A 
ATOM     47  C   LIG d   1      10.012  -8.581  -1.490  0.00  0.00    -0.048 A 
ATOM     48  C   LIG d   1      11.046  -8.228  -0.419  0.00  0.00    -0.048 A 
ATOM     49  H   LIG d   1      10.309  -9.293  -2.260  0.00  0.00     0.027 H 
ATOM     50  H   LIG d   1       8.967  -8.628  -1.184  0.00  0.00     0.027 H 
ATOM     51  H   LIG d   1      12.023  -8.706  -0.485  0.00  0.00     0.027 H 
ATOM     52  H   LIG d   1      10.681  -8.042   0.591  0.00  0.00     0.027 H 
ATOM     53  H   LIG d   1      10.082  -6.349  -1.201  0.00  0.00     0.032 H 
ENDBRANCH  43  46
ENDBRANCH  42  43
ENDBRANCH  12  42
TORSDOF 5
ENDMDL
MODEL 9
REMARK VINA RESULT:      -5.6      2.937      5.183
REMARK  5 active torsions:
REMARK  status: ('A' for Active; 'I' for Inactive)
REMARK    1  A    between atoms: C_3  and  C_5 
REMARK       I    between atoms: C_5  and  N_7 
REMARK    2  A    between atoms: N_7  and  C_8 
REMARK    3  A    between atoms: C_19  and  O_26 
REMARK    4  A    between atoms: O_26  and  C_27 
REMARK    5  A    between atoms: C_27  and  C_28 
ROOT
ATOM      1  C   LIG d   1       3.503  -1.349 -11.134  0.00  0.00     0.052 C 
ATOM      2  H   LIG d   1       4.310  -2.082 -11.125  0.00  0.00     0.052 H 
ATOM      3  C   LIG d   1       3.931  -0.055 -11.883  0.00  0.00    -0.016 C 
ATOM      4  C   LIG d   1       4.743   0.706 -10.811  0.00  0.00     0.017 C 
ATOM      5  N   LIG d   1       4.291   0.216  -9.492  0.00  0.00    -0.286 N 
ATOM      6  CA  LIG d   1       3.239  -0.795  -9.715  0.00  0.00     0.121 C 
ATOM      7  HA  LIG d   1       2.247  -0.347  -9.650  0.00  0.00     0.061 H 
ATOM      8  C   LIG d   1       3.403  -1.896  -8.696  0.00  0.00     0.239 C 
ATOM      9  O   LIG d   1       2.992  -3.015  -8.917  0.00  0.00    -0.274 OA
ATOM     10  N   LIG d   1       4.014  -1.602  -7.537  0.00  0.00    -0.286 N 
ATOM     11  C   LIG d   1       4.477  -2.536  -6.494  0.00  0.00     0.042 C 
ATOM     12  C   LIG d   1       5.859  -1.947  -6.098  0.00  0.00     0.076 C 
ATOM     13  H   LIG d   1       6.624  -2.231  -6.820  0.00  0.00     0.061 H 
ATOM     14  C   LIG d   1       5.601  -0.420  -6.145  0.00  0.00     0.002 C 
ATOM     15  CA  LIG d   1       4.391  -0.251  -7.080  0.00  0.00     0.105 C 
ATOM     16  HA  LIG d   1       3.562   0.212  -6.545  0.00  0.00     0.060 H 
ATOM     17  C   LIG d   1       4.770   0.585  -8.276  0.00  0.00     0.237 C 
ATOM     18  O   LIG d   1       5.492   1.551  -8.153  0.00  0.00    -0.274 OA
ATOM     19  H   LIG d   1       4.556  -0.296 -12.743  0.00  0.00     0.030 H 
ATOM     20  H   LIG d   1       3.058   0.519 -12.191  0.00  0.00     0.030 H 
ATOM     21  H   LIG d   1       5.807   0.511 -10.943  0.00  0.00     0.046 H 
ATOM     22  H   LIG d   1       4.547   1.775 -10.887  0.00  0.00     0.046 H 
ATOM     23  H   LIG d   1       4.588  -3.542  -6.899  0.00  0.00     0.049 H 
ATOM     24  H   LIG d   1       3.798  -2.534  -5.643  0.00  0.00     0.049 H 
ATOM     25  H   LIG d   1       5.365  -0.045  -5.149  0.00  0.00     0.031 H 
ATOM     26  H   LIG d   1       6.469   0.099  -6.550  0.00  0.00     0.031 H 
ENDROOT
BRANCH   1  27
ATOM     27  N   LIG d   1       2.285  -1.917 -11.715  0.00  0.00    -0.310 N 
ATOM     28  C   LIG d   1       2.359  -3.008 -12.502  0.00  0.00     0.216 C 
ATOM     29  O   LIG d   1       3.434  -3.520 -12.730  0.00  0.00    -0.276 OA
ATOM     30  H   LIG d   1       1.424  -1.507 -11.533  0.00  0.00     0.149 HD
BRANCH  28  31
ATOM     31  C   LIG d   1       1.104  -3.592 -13.100  0.00  0.00     0.036 C 
ATOM     32  C   LIG d   1      -0.015  -3.830 -12.071  0.00  0.00    -0.042 C 
ATOM     33  C   LIG d   1      -0.997  -3.324 -13.140  0.00  0.00    -0.052 C 
ATOM     34  H   LIG d   1      -0.154  -4.880 -11.812  0.00  0.00     0.027 H 
ATOM     35  H   LIG d   1       0.050  -3.182 -11.197  0.00  0.00     0.027 H 
ATOM     36  C   LIG d   1       0.183  -2.542 -13.745  0.00  0.00    -0.042 C 
ATOM     37  H   LIG d   1      -1.377  -4.112 -13.792  0.00  0.00     0.027 H 
ATOM     38  H   LIG d   1      -1.787  -2.687 -12.742  0.00  0.00     0.027 H 
ATOM     39  H   LIG d   1       0.303  -1.542 -13.329  0.00  0.00     0.027 H 
ATOM     40  H   LIG d   1       0.205  -2.555 -14.835  0.00  0.00     0.027 H 
ATOM     41  H   LIG d   1       1.300  -4.453 -13.739  0.00  0.00     0.039 H 
ENDBRANCH  28  31
ENDBRANCH   1  27
BRANCH  12  42
ATOM     42  O   LIG d   1       6.227  -2.359  -4.781  0.00  0.00    -0.375 OA
BRANCH  42  43
ATOM     43  C   LIG d   1       6.056  -1.346  -3.786  0.00  0.00     0.051 C 
ATOM     44  H   LIG d   1       5.603  -0.465  -4.239  0.00  0.00     0.056 H 
ATOM     45  H   LIG d   1       7.028  -1.081  -3.368  0.00  0.00     0.056 H 
BRANCH  43  46
ATOM     46  C   LIG d   1       5.148  -1.872  -2.673  0.00  0.00    -0.018 A 
ATOM     47  C   LIG d   1       4.343  -0.846  -1.872  0.00  0.00    -0.048 A 
ATOM     48  C   LIG d   1       3.637  -1.755  -2.880  0.00  0.00    -0.048 A 
ATOM     49  H   LIG d   1       4.460   0.204  -2.138  0.00  0.00     0.027 H 
ATOM     50  H   LIG d   1       4.182  -1.048  -0.814  0.00  0.00     0.027 H 
ATOM     51  H   LIG d   1       3.290  -1.303  -3.809  0.00  0.00     0.027 H 
ATOM     52  H   LIG d   1       3.012  -2.555  -2.484  0.00  0.00     0.027 H 
ATOM     53  H   LIG d   1       5.517  -2.749  -2.140  0.00  0.00     0.032 H 
ENDBRANCH  43  46
ENDBRANCH  42  43
ENDBRANCH  12  42
TORSDOF 5
ENDMDL
