MODEL 1
REMARK VINA RESULT:      -6.3      0.000      0.000
REMARK  12 active torsions:
REMARK  status: ('A' for Active; 'I' for Inactive)
REMARK    1  A    between atoms: C_1  and  C_2 
REMARK    2  A    between atoms: C_2  and  C_4 
REMARK    3  A    between atoms: C_2  and  N_14 
REMARK       I    between atoms: C_4  and  N_6 
REMARK    4  A    between atoms: N_6  and  C_7 
REMARK    5  A    between atoms: C_7  and  C_9 
REMARK    6  A    between atoms: C_7  and  C_12 
REMARK    7  A    between atoms: C_9  and  S_10 
REMARK    8  A    between atoms: S_10  and  C_11 
REMARK       I    between atoms: N_14  and  C_15 
REMARK    9  A    between atoms: C_15  and  C_17 
REMARK       I    between atoms: N_22  and  C_23 
REMARK   10  A    between atoms: C_23  and  O_25 
REMARK   11  A    between atoms: O_25  and  C_26 
REMARK   12  A    between atoms: C_26  and  C_27 
ROOT
ATOM      1  C   UNK d   0       3.779  -0.006  -9.890  0.00  0.00     0.105 C 
ATOM      2  H   UNK d   0       2.844  -0.544 -10.044  0.00  0.00     0.060 H 
ATOM      3  C   UNK d   0       3.912   1.125 -10.932  0.00  0.00    -0.024 C 
ATOM      4  C   UNK d   0       3.412   2.373 -10.149  0.00  0.00    -0.035 C 
ATOM      5  C   UNK d   0       3.935   2.076  -8.722  0.00  0.00     0.019 C 
ATOM      6  N   UNK d   0       3.783   0.620  -8.559  0.00  0.00    -0.256 N 
ATOM      7  C   UNK d   0       3.668  -0.032  -7.385  0.00  0.00     0.404 C 
ATOM      8  O   UNK d   0       3.547  -1.241  -7.370  0.00  0.00    -0.226 OA
ATOM      9  H   UNK d   0       4.951   1.250 -11.234  0.00  0.00     0.029 H 
ATOM     10  H   UNK d   0       3.278   0.930 -11.796  0.00  0.00     0.029 H 
ATOM     11  H   UNK d   0       2.324   2.432 -10.162  0.00  0.00     0.028 H 
ATOM     12  H   UNK d   0       3.856   3.286 -10.547  0.00  0.00     0.028 H 
ATOM     13  H   UNK d   0       3.337   2.606  -7.981  0.00  0.00     0.047 H 
ATOM     14  H   UNK d   0       4.984   2.360  -8.636  0.00  0.00     0.047 H 
ENDROOT
BRANCH   1  15
ATOM     15  C   UNK d   0       4.942  -0.956 -10.013  0.00  0.00     0.234 C 
ATOM     16  N   UNK d   1       4.729  -2.287 -10.016  0.00  0.00    -0.303 N 
ATOM     17  H   UNK d   1       3.826  -2.633  -9.939  0.00  0.00     0.149 HD
ATOM     18  O   UNK d   0       6.072  -0.522 -10.110  0.00  0.00    -0.274 OA
BRANCH  16  19
ATOM     19  C   UNK d   1       5.861  -3.210 -10.137  0.00  0.00     0.097 C 
ATOM     20  H   UNK d   1       6.764  -2.648 -10.371  0.00  0.00     0.059 H 
BRANCH  19  21
ATOM     21  C   UNK d   1       5.581  -4.215 -11.255  0.00  0.00    -0.038 C 
ATOM     22  H   UNK d   1       5.288  -3.683 -12.159  0.00  0.00     0.025 H 
ATOM     23  H   UNK d   1       6.480  -4.799 -11.452  0.00  0.00     0.025 H 
ATOM     24  H   UNK d   1       4.774  -4.883 -10.950  0.00  0.00     0.025 H 
ENDBRANCH  19  21
BRANCH  19  25
ATOM     25  C   UNK d   1       6.048  -3.945  -8.835  0.00  0.00     0.234 C 
ATOM     26  O   UNK d   1       6.945  -4.754  -8.718  0.00  0.00    -0.274 OA
ATOM     27  N   UNK d   1       5.219  -3.704  -7.799  0.00  0.00    -0.305 N 
ATOM     28  H   UNK d   1       4.503  -3.056  -7.893  0.00  0.00     0.149 HD
BRANCH  27  29
ATOM     29  C   UNK d   1       5.401  -4.419  -6.534  0.00  0.00     0.072 C 
ATOM     30  H   UNK d   1       6.293  -5.042  -6.594  0.00  0.00     0.057 H 
BRANCH  29  31
ATOM     31  C   UNK d   1       5.560  -3.408  -5.396  0.00  0.00     0.017 C 
ATOM     32  H   UNK d   1       4.727  -2.706  -5.415  0.00  0.00     0.040 H 
ATOM     33  H   UNK d   1       5.570  -3.934  -4.442  0.00  0.00     0.040 H 
BRANCH  31  34
ATOM     34  S   UNK d   1       7.118  -2.504  -5.604  0.00  0.00    -0.162 SA
BRANCH  34  35
ATOM     35  C   UNK d   1       7.030  -1.185  -4.361  0.00  0.00    -0.018 C 
ATOM     36  H   UNK d   1       7.798  -0.439  -4.567  0.00  0.00     0.034 H 
ATOM     37  H   UNK d   1       6.047  -0.715  -4.399  0.00  0.00     0.034 H 
ATOM     38  H   UNK d   1       7.191  -1.609  -3.370  0.00  0.00     0.034 H 
ENDBRANCH  34  35
ENDBRANCH  31  34
ENDBRANCH  29  31
BRANCH  29  39
ATOM     39  C   UNK d   1       4.197  -5.287  -6.270  0.00  0.00     0.063 C 
ATOM     40  O   UNK d   1       3.414  -5.519  -7.160  0.00  0.00    -0.548 OA
ATOM     41  O   UNK d   1       3.997  -5.802  -5.047  0.00  0.00    -0.548 OA
ENDBRANCH  29  39
ENDBRANCH  27  29
ENDBRANCH  19  25
ENDBRANCH  16  19
ENDBRANCH   1  15
BRANCH   7  42
ATOM     42  O   UNK d   0       3.685   0.657  -6.228  0.00  0.00    -0.446 OA
BRANCH  42  43
ATOM     43  C   UNK d   0       2.653   0.340  -5.257  0.00  0.00     0.119 C 
ATOM     44  H   UNK d   0       2.011   1.209  -5.114  0.00  0.00     0.075 H 
ATOM     45  H   UNK d   0       2.057  -0.497  -5.620  0.00  0.00     0.075 H 
BRANCH  43  46
ATOM     46  C   UNK d   0       3.295  -0.033  -3.945  0.00  0.00    -0.010 A 
ATOM     47  C   UNK d   0       3.322  -1.354  -3.539  0.00  0.00    -0.055 A 
ATOM     48  C   UNK d   0       3.910  -1.696  -2.337  0.00  0.00    -0.061 A 
ATOM     49  H   UNK d   0       2.882  -2.119  -4.163  0.00  0.00     0.062 H 
ATOM     50  C   UNK d   0       4.473  -0.718  -1.540  0.00  0.00    -0.062 A 
ATOM     51  H   UNK d   0       3.931  -2.729  -2.020  0.00  0.00     0.062 H 
ATOM     52  C   UNK d   0       4.446   0.604  -1.945  0.00  0.00    -0.061 A 
ATOM     53  H   UNK d   0       4.933  -0.985  -0.600  0.00  0.00     0.062 H 
ATOM     54  C   UNK d   0       3.863   0.947  -3.150  0.00  0.00    -0.055 A 
ATOM     55  H   UNK d   0       4.886   1.369  -1.322  0.00  0.00     0.062 H 
ATOM     56  H   UNK d   0       3.846   1.978  -3.470  0.00  0.00     0.062 H 
ENDBRANCH  43  46
ENDBRANCH  42  43
ENDBRANCH   7  42
TORSDOF 12
ENDMDL
MODEL 2
REMARK VINA RESULT:      -6.1      3.122      4.425
REMARK  12 active torsions:
REMARK  status: ('A' for Active; 'I' for Inactive)
REMARK    1  A    between atoms: C_1  and  C_2 
REMARK    2  A    between atoms: C_2  and  C_4 
REMARK    3  A    between atoms: C_2  and  N_14 
REMARK       I    between atoms: C_4  and  N_6 
REMARK    4  A    between atoms: N_6  and  C_7 
REMARK    5  A    between atoms: C_7  and  C_9 
REMARK    6  A    between atoms: C_7  and  C_12 
REMARK    7  A    between atoms: C_9  and  S_10 
REMARK    8  A    between atoms: S_10  and  C_11 
REMARK       I    between atoms: N_14  and  C_15 
REMARK    9  A    between atoms: C_15  and  C_17 
REMARK       I    between atoms: N_22  and  C_23 
REMARK   10  A    between atoms: C_23  and  O_25 
REMARK   11  A    between atoms: O_25  and  C_26 
REMARK   12  A    between atoms: C_26  and  C_27 
ROOT
ATOM      1  C   UNK d   0       4.639   0.211  -9.619  0.00  0.00     0.105 C 
ATOM      2  H   UNK d   0       5.209  -0.706  -9.769  0.00  0.00     0.060 H 
ATOM      3  C   UNK d   0       3.835   0.544 -10.893  0.00  0.00    -0.024 C 
ATOM      4  C   UNK d   0       2.426  -0.033 -10.570  0.00  0.00    -0.035 C 
ATOM      5  C   UNK d   0       2.315   0.248  -9.051  0.00  0.00     0.019 C 
ATOM      6  N   UNK d   0       3.673   0.025  -8.526  0.00  0.00    -0.256 N 
ATOM      7  C   UNK d   0       3.981  -0.296  -7.253  0.00  0.00     0.404 C 
ATOM      8  O   UNK d   0       5.141  -0.457  -6.930  0.00  0.00    -0.226 OA
ATOM      9  H   UNK d   0       3.785   1.621 -11.047  0.00  0.00     0.029 H 
ATOM     10  H   UNK d   0       4.266   0.048 -11.762  0.00  0.00     0.029 H 
ATOM     11  H   UNK d   0       2.386  -1.103 -10.774  0.00  0.00     0.028 H 
ATOM     12  H   UNK d   0       1.651   0.497 -11.124  0.00  0.00     0.028 H 
ATOM     13  H   UNK d   0       1.610  -0.442  -8.588  0.00  0.00     0.047 H 
ATOM     14  H   UNK d   0       2.006   1.279  -8.878  0.00  0.00     0.047 H 
ENDROOT
BRANCH   1  15
ATOM     15  C   UNK d   0       5.572   1.347  -9.291  0.00  0.00     0.234 C 
ATOM     16  N   UNK d   1       6.863   1.096  -8.996  0.00  0.00    -0.303 N 
ATOM     17  H   UNK d   1       7.191   0.183  -8.995  0.00  0.00     0.149 HD
ATOM     18  O   UNK d   0       5.161   2.489  -9.293  0.00  0.00    -0.274 OA
BRANCH  16  19
ATOM     19  C   UNK d   1       7.771   2.201  -8.677  0.00  0.00     0.097 C 
ATOM     20  H   UNK d   1       7.203   3.129  -8.612  0.00  0.00     0.059 H 
BRANCH  19  21
ATOM     21  C   UNK d   1       8.828   2.325  -9.775  0.00  0.00    -0.038 C 
ATOM     22  H   UNK d   1       8.610   1.615 -10.572  0.00  0.00     0.025 H 
ATOM     23  H   UNK d   1       8.816   3.338 -10.178  0.00  0.00     0.025 H 
ATOM     24  H   UNK d   1       9.813   2.112  -9.358  0.00  0.00     0.025 H 
ENDBRANCH  19  21
BRANCH  19  25
ATOM     25  C   UNK d   1       8.446   1.931  -7.357  0.00  0.00     0.234 C 
ATOM     26  O   UNK d   1       9.625   2.181  -7.216  0.00  0.00    -0.274 OA
ATOM     27  N   UNK d   1       7.740   1.410  -6.334  0.00  0.00    -0.305 N 
ATOM     28  H   UNK d   1       6.797   1.211  -6.447  0.00  0.00     0.149 HD
BRANCH  27  29
ATOM     29  C   UNK d   1       8.396   1.147  -5.051  0.00  0.00     0.072 C 
ATOM     30  H   UNK d   1       9.476   1.120  -5.195  0.00  0.00     0.057 H 
BRANCH  29  31
ATOM     31  C   UNK d   1       8.041   2.257  -4.059  0.00  0.00     0.017 C 
ATOM     32  H   UNK d   1       7.434   3.010  -4.560  0.00  0.00     0.040 H 
ATOM     33  H   UNK d   1       7.481   1.833  -3.226  0.00  0.00     0.040 H 
BRANCH  31  34
ATOM     34  S   UNK d   1       9.564   3.022  -3.437  0.00  0.00    -0.162 SA
BRANCH  34  35
ATOM     35  C   UNK d   1      10.873   1.874  -3.948  0.00  0.00    -0.018 C 
ATOM     36  H   UNK d   1      11.833   2.230  -3.577  0.00  0.00     0.034 H 
ATOM     37  H   UNK d   1      10.668   0.884  -3.538  0.00  0.00     0.034 H 
ATOM     38  H   UNK d   1      10.901   1.817  -5.037  0.00  0.00     0.034 H 
ENDBRANCH  34  35
ENDBRANCH  31  34
ENDBRANCH  29  31
BRANCH  29  39
ATOM     39  C   UNK d   1       7.927  -0.180  -4.510  0.00  0.00     0.063 C 
ATOM     40  O   UNK d   1       7.106  -0.214  -3.626  0.00  0.00    -0.548 OA
ATOM     41  O   UNK d   1       8.423  -1.322  -5.011  0.00  0.00    -0.548 OA
ENDBRANCH  29  39
ENDBRANCH  27  29
ENDBRANCH  19  25
ENDBRANCH  16  19
ENDBRANCH   1  15
BRANCH   7  42
ATOM     42  O   UNK d   0       3.002  -0.439  -6.340  0.00  0.00    -0.446 OA
BRANCH  42  43
ATOM     43  C   UNK d   0       2.793   0.664  -5.419  0.00  0.00     0.119 C 
ATOM     44  H   UNK d   0       3.318   1.547  -5.784  0.00  0.00     0.075 H 
ATOM     45  H   UNK d   0       1.727   0.879  -5.347  0.00  0.00     0.075 H 
BRANCH  43  46
ATOM     46  C   UNK d   0       3.322   0.290  -4.058  0.00  0.00    -0.010 A 
ATOM     47  C   UNK d   0       3.741   1.276  -3.184  0.00  0.00    -0.055 A 
ATOM     48  C   UNK d   0       4.227   0.933  -1.937  0.00  0.00    -0.061 A 
ATOM     49  H   UNK d   0       3.688   2.314  -3.478  0.00  0.00     0.062 H 
ATOM     50  C   UNK d   0       4.293  -0.395  -1.562  0.00  0.00    -0.062 A 
ATOM     51  H   UNK d   0       4.553   1.704  -1.254  0.00  0.00     0.062 H 
ATOM     52  C   UNK d   0       3.875  -1.382  -2.436  0.00  0.00    -0.061 A 
ATOM     53  H   UNK d   0       4.672  -0.663  -0.587  0.00  0.00     0.062 H 
ATOM     54  C   UNK d   0       3.384  -1.040  -3.682  0.00  0.00    -0.055 A 
ATOM     55  H   UNK d   0       3.926  -2.420  -2.143  0.00  0.00     0.062 H 
ATOM     56  H   UNK d   0       3.052  -1.809  -4.363  0.00  0.00     0.062 H 
ENDBRANCH  43  46
ENDBRANCH  42  43
ENDBRANCH   7  42
TORSDOF 12
ENDMDL
MODEL 3
REMARK VINA RESULT:      -6.0      1.844      2.827
REMARK  12 active torsions:
REMARK  status: ('A' for Active; 'I' for Inactive)
REMARK    1  A    between atoms: C_1  and  C_2 
REMARK    2  A    between atoms: C_2  and  C_4 
REMARK    3  A    between atoms: C_2  and  N_14 
REMARK       I    between atoms: C_4  and  N_6 
REMARK    4  A    between atoms: N_6  and  C_7 
REMARK    5  A    between atoms: C_7  and  C_9 
REMARK    6  A    between atoms: C_7  and  C_12 
REMARK    7  A    between atoms: C_9  and  S_10 
REMARK    8  A    between atoms: S_10  and  C_11 
REMARK       I    between atoms: N_14  and  C_15 
REMARK    9  A    between atoms: C_15  and  C_17 
REMARK       I    between atoms: N_22  and  C_23 
REMARK   10  A    between atoms: C_23  and  O_25 
REMARK   11  A    between atoms: O_25  and  C_26 
REMARK   12  A    between atoms: C_26  and  C_27 
ROOT
ATOM      1  C   UNK d   0       4.095   0.052  -9.538  0.00  0.00     0.105 C 
ATOM      2  H   UNK d   0       3.324  -0.663  -9.828  0.00  0.00     0.060 H 
ATOM      3  C   UNK d   0       4.292   1.094 -10.658  0.00  0.00    -0.024 C 
ATOM      4  C   UNK d   0       3.421   2.289 -10.172  0.00  0.00    -0.035 C 
ATOM      5  C   UNK d   0       3.623   2.218  -8.638  0.00  0.00     0.019 C 
ATOM      6  N   UNK d   0       3.674   0.778  -8.330  0.00  0.00    -0.256 N 
ATOM      7  C   UNK d   0       3.385   0.218  -7.139  0.00  0.00     0.404 C 
ATOM      8  O   UNK d   0       3.462  -0.986  -6.998  0.00  0.00    -0.226 OA
ATOM      9  H   UNK d   0       5.338   1.386 -10.734  0.00  0.00     0.029 H 
ATOM     10  H   UNK d   0       3.926   0.711 -11.611  0.00  0.00     0.029 H 
ATOM     11  H   UNK d   0       2.374   2.142 -10.435  0.00  0.00     0.028 H 
ATOM     12  H   UNK d   0       3.793   3.232 -10.573  0.00  0.00     0.028 H 
ATOM     13  H   UNK d   0       2.785   2.687  -8.123  0.00  0.00     0.047 H 
ATOM     14  H   UNK d   0       4.559   2.700  -8.357  0.00  0.00     0.047 H 
ENDROOT
BRANCH   1  15
ATOM     15  C   UNK d   0       5.391  -0.670  -9.277  0.00  0.00     0.234 C 
ATOM     16  N   UNK d   1       5.386  -1.994  -9.020  0.00  0.00    -0.303 N 
ATOM     17  H   UNK d   1       4.548  -2.481  -9.004  0.00  0.00     0.149 HD
ATOM     18  O   UNK d   0       6.440  -0.060  -9.298  0.00  0.00    -0.274 OA
BRANCH  16  19
ATOM     19  C   UNK d   1       6.647  -2.695  -8.766  0.00  0.00     0.097 C 
ATOM     20  H   UNK d   1       7.450  -2.210  -9.321  0.00  0.00     0.059 H 
BRANCH  19  21
ATOM     21  C   UNK d   1       6.521  -4.151  -9.220  0.00  0.00    -0.038 C 
ATOM     22  H   UNK d   1       7.469  -4.664  -9.065  0.00  0.00     0.025 H 
ATOM     23  H   UNK d   1       5.741  -4.645  -8.640  0.00  0.00     0.025 H 
ATOM     24  H   UNK d   1       6.260  -4.181 -10.278  0.00  0.00     0.025 H 
ENDBRANCH  19  21
BRANCH  19  25
ATOM     25  C   UNK d   1       6.957  -2.653  -7.292  0.00  0.00     0.234 C 
ATOM     26  O   UNK d   1       6.637  -3.580  -6.578  0.00  0.00    -0.274 OA
ATOM     27  N   UNK d   1       7.589  -1.584  -6.767  0.00  0.00    -0.305 N 
ATOM     28  H   UNK d   1       7.844  -0.843  -7.339  0.00  0.00     0.149 HD
BRANCH  27  29
ATOM     29  C   UNK d   1       7.889  -1.542  -5.334  0.00  0.00     0.072 C 
ATOM     30  H   UNK d   1       7.597  -2.486  -4.874  0.00  0.00     0.057 H 
BRANCH  29  31
ATOM     31  C   UNK d   1       9.390  -1.321  -5.134  0.00  0.00     0.017 C 
ATOM     32  H   UNK d   1       9.757  -0.624  -5.888  0.00  0.00     0.040 H 
ATOM     33  H   UNK d   1       9.567  -0.908  -4.141  0.00  0.00     0.040 H 
BRANCH  31  34
ATOM     34  S   UNK d   1      10.262  -2.903  -5.296  0.00  0.00    -0.162 SA
BRANCH  34  35
ATOM     35  C   UNK d   1      11.709  -2.719  -4.217  0.00  0.00    -0.018 C 
ATOM     36  H   UNK d   1      12.383  -3.562  -4.367  0.00  0.00     0.034 H 
ATOM     37  H   UNK d   1      12.227  -1.791  -4.460  0.00  0.00     0.034 H 
ATOM     38  H   UNK d   1      11.384  -2.692  -3.177  0.00  0.00     0.034 H 
ENDBRANCH  34  35
ENDBRANCH  31  34
ENDBRANCH  29  31
BRANCH  29  39
ATOM     39  C   UNK d   1       7.124  -0.413  -4.693  0.00  0.00     0.063 C 
ATOM     40  O   UNK d   1       7.304  -0.146  -3.529  0.00  0.00    -0.548 OA
ATOM     41  O   UNK d   1       6.243   0.296  -5.416  0.00  0.00    -0.548 OA
ENDBRANCH  29  39
ENDBRANCH  27  29
ENDBRANCH  19  25
ENDBRANCH  16  19
ENDBRANCH   1  15
BRANCH   7  42
ATOM     42  O   UNK d   0       3.009   0.994  -6.104  0.00  0.00    -0.446 OA
BRANCH  42  43
ATOM     43  C   UNK d   0       2.182   0.377  -5.084  0.00  0.00     0.119 C 
ATOM     44  H   UNK d   0       1.349   1.037  -4.843  0.00  0.00     0.075 H 
ATOM     45  H   UNK d   0       1.797  -0.574  -5.454  0.00  0.00     0.075 H 
BRANCH  43  46
ATOM     46  C   UNK d   0       3.007   0.135  -3.846  0.00  0.00    -0.010 A 
ATOM     47  C   UNK d   0       3.250  -1.157  -3.418  0.00  0.00    -0.055 A 
ATOM     48  C   UNK d   0       4.006  -1.378  -2.283  0.00  0.00    -0.061 A 
ATOM     49  H   UNK d   0       2.848  -1.993  -3.971  0.00  0.00     0.062 H 
ATOM     50  C   UNK d   0       4.521  -0.309  -1.575  0.00  0.00    -0.062 A 
ATOM     51  H   UNK d   0       4.196  -2.388  -1.949  0.00  0.00     0.062 H 
ATOM     52  C   UNK d   0       4.278   0.984  -2.003  0.00  0.00    -0.061 A 
ATOM     53  H   UNK d   0       5.112  -0.482  -0.688  0.00  0.00     0.062 H 
ATOM     54  C   UNK d   0       3.526   1.206  -3.141  0.00  0.00    -0.055 A 
ATOM     55  H   UNK d   0       4.680   1.820  -1.450  0.00  0.00     0.062 H 
ATOM     56  H   UNK d   0       3.340   2.215  -3.478  0.00  0.00     0.062 H 
ENDBRANCH  43  46
ENDBRANCH  42  43
ENDBRANCH   7  42
TORSDOF 12
ENDMDL
MODEL 4
REMARK VINA RESULT:      -5.9      2.096      5.675
REMARK  12 active torsions:
REMARK  status: ('A' for Active; 'I' for Inactive)
REMARK    1  A    between atoms: C_1  and  C_2 
REMARK    2  A    between atoms: C_2  and  C_4 
REMARK    3  A    between atoms: C_2  and  N_14 
REMARK       I    between atoms: C_4  and  N_6 
REMARK    4  A    between atoms: N_6  and  C_7 
REMARK    5  A    between atoms: C_7  and  C_9 
REMARK    6  A    between atoms: C_7  and  C_12 
REMARK    7  A    between atoms: C_9  and  S_10 
REMARK    8  A    between atoms: S_10  and  C_11 
REMARK       I    between atoms: N_14  and  C_15 
REMARK    9  A    between atoms: C_15  and  C_17 
REMARK       I    between atoms: N_22  and  C_23 
REMARK   10  A    between atoms: C_23  and  O_25 
REMARK   11  A    between atoms: O_25  and  C_26 
REMARK   12  A    between atoms: C_26  and  C_27 
ROOT
ATOM      1  C   UNK d   0       4.799  -0.920  -3.971  0.00  0.00     0.105 C 
ATOM      2  H   UNK d   0       5.783  -0.531  -4.232  0.00  0.00     0.060 H 
ATOM      3  C   UNK d   0       4.461  -0.555  -2.511  0.00  0.00    -0.024 C 
ATOM      4  C   UNK d   0       3.584   0.721  -2.670  0.00  0.00    -0.035 C 
ATOM      5  C   UNK d   0       2.806   0.403  -3.971  0.00  0.00     0.019 C 
ATOM      6  N   UNK d   0       3.774  -0.305  -4.827  0.00  0.00    -0.256 N 
ATOM      7  C   UNK d   0       3.728  -0.378  -6.173  0.00  0.00     0.404 C 
ATOM      8  O   UNK d   0       4.584  -0.993  -6.777  0.00  0.00    -0.226 OA
ATOM      9  H   UNK d   0       3.895  -1.354  -2.034  0.00  0.00     0.029 H 
ATOM     10  H   UNK d   0       5.368  -0.334  -1.948  0.00  0.00     0.029 H 
ATOM     11  H   UNK d   0       4.205   1.608  -2.793  0.00  0.00     0.028 H 
ATOM     12  H   UNK d   0       2.905   0.836  -1.826  0.00  0.00     0.028 H 
ATOM     13  H   UNK d   0       2.478   1.325  -4.452  0.00  0.00     0.047 H 
ATOM     14  H   UNK d   0       1.952  -0.237  -3.755  0.00  0.00     0.047 H 
ENDROOT
BRANCH   1  15
ATOM     15  C   UNK d   0       4.779  -2.417  -4.142  0.00  0.00     0.234 C 
ATOM     16  N   UNK d   1       5.546  -3.000  -5.085  0.00  0.00    -0.303 N 
ATOM     17  H   UNK d   1       6.113  -2.454  -5.653  0.00  0.00     0.149 HD
ATOM     18  O   UNK d   0       4.070  -3.099  -3.430  0.00  0.00    -0.274 OA
BRANCH  16  19
ATOM     19  C   UNK d   1       5.526  -4.455  -5.250  0.00  0.00     0.097 C 
ATOM     20  H   UNK d   1       5.341  -4.927  -4.286  0.00  0.00     0.059 H 
BRANCH  19  21
ATOM     21  C   UNK d   1       6.875  -4.924  -5.798  0.00  0.00    -0.038 C 
ATOM     22  H   UNK d   1       6.844  -4.929  -6.887  0.00  0.00     0.025 H 
ATOM     23  H   UNK d   1       7.660  -4.248  -5.460  0.00  0.00     0.025 H 
ATOM     24  H   UNK d   1       7.084  -5.932  -5.437  0.00  0.00     0.025 H 
ENDBRANCH  19  21
BRANCH  19  25
ATOM     25  C   UNK d   1       4.432  -4.835  -6.215  0.00  0.00     0.234 C 
ATOM     26  O   UNK d   1       3.438  -5.400  -5.812  0.00  0.00    -0.274 OA
ATOM     27  N   UNK d   1       4.560  -4.547  -7.525  0.00  0.00    -0.305 N 
ATOM     28  H   UNK d   1       5.357  -4.095  -7.847  0.00  0.00     0.149 HD
BRANCH  27  29
ATOM     29  C   UNK d   1       3.498  -4.916  -8.463  0.00  0.00     0.072 C 
ATOM     30  H   UNK d   1       2.539  -4.914  -7.945  0.00  0.00     0.057 H 
BRANCH  29  31
ATOM     31  C   UNK d   1       3.459  -3.906  -9.613  0.00  0.00     0.017 C 
ATOM     32  H   UNK d   1       3.305  -4.433 -10.554  0.00  0.00     0.040 H 
ATOM     33  H   UNK d   1       2.641  -3.204  -9.451  0.00  0.00     0.040 H 
BRANCH  31  34
ATOM     34  S   UNK d   1       5.030  -3.001  -9.676  0.00  0.00    -0.162 SA
BRANCH  34  35
ATOM     35  C   UNK d   1       5.843  -3.637 -11.168  0.00  0.00    -0.018 C 
ATOM     36  H   UNK d   1       6.108  -2.804 -11.820  0.00  0.00     0.034 H 
ATOM     37  H   UNK d   1       6.745  -4.180 -10.886  0.00  0.00     0.034 H 
ATOM     38  H   UNK d   1       5.163  -4.309 -11.693  0.00  0.00     0.034 H 
ENDBRANCH  34  35
ENDBRANCH  31  34
ENDBRANCH  29  31
BRANCH  29  39
ATOM     39  C   UNK d   1       3.769  -6.293  -9.013  0.00  0.00     0.063 C 
ATOM     40  O   UNK d   1       4.886  -6.595  -9.360  0.00  0.00    -0.548 OA
ATOM     41  O   UNK d   1       2.770  -7.183  -9.117  0.00  0.00    -0.548 OA
ENDBRANCH  29  39
ENDBRANCH  27  29
ENDBRANCH  19  25
ENDBRANCH  16  19
ENDBRANCH   1  15
BRANCH   7  42
ATOM     42  O   UNK d   0       2.734   0.232  -6.845  0.00  0.00    -0.446 OA
BRANCH  42  43
ATOM     43  C   UNK d   0       3.118   1.115  -7.932  0.00  0.00     0.119 C 
ATOM     44  H   UNK d   0       2.544   2.039  -7.869  0.00  0.00     0.075 H 
ATOM     45  H   UNK d   0       4.182   1.341  -7.856  0.00  0.00     0.075 H 
BRANCH  43  46
ATOM     46  C   UNK d   0       2.842   0.439  -9.251  0.00  0.00    -0.010 A 
ATOM     47  C   UNK d   0       1.720  -0.355  -9.399  0.00  0.00    -0.055 A 
ATOM     48  C   UNK d   0       1.467  -0.975 -10.608  0.00  0.00    -0.061 A 
ATOM     49  H   UNK d   0       1.042  -0.491  -8.569  0.00  0.00     0.062 H 
ATOM     50  C   UNK d   0       2.334  -0.800 -11.669  0.00  0.00    -0.062 A 
ATOM     51  H   UNK d   0       0.590  -1.595 -10.724  0.00  0.00     0.062 H 
ATOM     52  C   UNK d   0       3.457  -0.006 -11.521  0.00  0.00    -0.061 A 
ATOM     53  H   UNK d   0       2.136  -1.284 -12.614  0.00  0.00     0.062 H 
ATOM     54  C   UNK d   0       3.708   0.618 -10.314  0.00  0.00    -0.055 A 
ATOM     55  H   UNK d   0       4.135   0.131 -12.351  0.00  0.00     0.062 H 
ATOM     56  H   UNK d   0       4.581   1.242 -10.199  0.00  0.00     0.062 H 
ENDBRANCH  43  46
ENDBRANCH  42  43
ENDBRANCH   7  42
TORSDOF 12
ENDMDL
MODEL 5
REMARK VINA RESULT:      -5.8      2.540      5.799
REMARK  12 active torsions:
REMARK  status: ('A' for Active; 'I' for Inactive)
REMARK    1  A    between atoms: C_1  and  C_2 
REMARK    2  A    between atoms: C_2  and  C_4 
REMARK    3  A    between atoms: C_2  and  N_14 
REMARK       I    between atoms: C_4  and  N_6 
REMARK    4  A    between atoms: N_6  and  C_7 
REMARK    5  A    between atoms: C_7  and  C_9 
REMARK    6  A    between atoms: C_7  and  C_12 
REMARK    7  A    between atoms: C_9  and  S_10 
REMARK    8  A    between atoms: S_10  and  C_11 
REMARK       I    between atoms: N_14  and  C_15 
REMARK    9  A    between atoms: C_15  and  C_17 
REMARK       I    between atoms: N_22  and  C_23 
REMARK   10  A    between atoms: C_23  and  O_25 
REMARK   11  A    between atoms: O_25  and  C_26 
REMARK   12  A    between atoms: C_26  and  C_27 
ROOT
ATOM      1  C   UNK d   0       5.210  -0.153  -3.742  0.00  0.00     0.105 C 
ATOM      2  H   UNK d   0       6.033   0.482  -4.071  0.00  0.00     0.060 H 
ATOM      3  C   UNK d   0       4.763   0.261  -2.324  0.00  0.00    -0.024 C 
ATOM      4  C   UNK d   0       3.542   1.185  -2.605  0.00  0.00    -0.035 C 
ATOM      5  C   UNK d   0       2.910   0.498  -3.841  0.00  0.00     0.019 C 
ATOM      6  N   UNK d   0       4.056   0.021  -4.635  0.00  0.00    -0.256 N 
ATOM      7  C   UNK d   0       4.047  -0.218  -5.962  0.00  0.00     0.404 C 
ATOM      8  O   UNK d   0       5.055  -0.612  -6.515  0.00  0.00    -0.226 OA
ATOM      9  H   UNK d   0       4.461  -0.611  -1.745  0.00  0.00     0.029 H 
ATOM     10  H   UNK d   0       5.554   0.809  -1.814  0.00  0.00     0.029 H 
ATOM     11  H   UNK d   0       3.867   2.198  -2.844  0.00  0.00     0.028 H 
ATOM     12  H   UNK d   0       2.852   1.186  -1.762  0.00  0.00     0.028 H 
ATOM     13  H   UNK d   0       2.323   1.215  -4.415  0.00  0.00     0.047 H 
ATOM     14  H   UNK d   0       2.288  -0.341  -3.531  0.00  0.00     0.047 H 
ENDROOT
BRANCH   1  15
ATOM     15  C   UNK d   0       5.646  -1.595  -3.741  0.00  0.00     0.234 C 
ATOM     16  N   UNK d   1       6.787  -1.956  -4.362  0.00  0.00    -0.303 N 
ATOM     17  H   UNK d   1       7.327  -1.286  -4.810  0.00  0.00     0.149 HD
ATOM     18  O   UNK d   0       4.969  -2.432  -3.180  0.00  0.00    -0.274 OA
BRANCH  16  19
ATOM     19  C   UNK d   1       7.210  -3.359  -4.361  0.00  0.00     0.097 C 
ATOM     20  H   UNK d   1       6.758  -3.873  -3.514  0.00  0.00     0.059 H 
BRANCH  19  21
ATOM     21  C   UNK d   1       8.733  -3.431  -4.248  0.00  0.00    -0.038 C 
ATOM     22  H   UNK d   1       9.177  -3.329  -5.238  0.00  0.00     0.025 H 
ATOM     23  H   UNK d   1       9.089  -2.624  -3.607  0.00  0.00     0.025 H 
ATOM     24  H   UNK d   1       9.021  -4.391  -3.818  0.00  0.00     0.025 H 
ENDBRANCH  19  21
BRANCH  19  25
ATOM     25  C   UNK d   1       6.769  -4.016  -5.643  0.00  0.00     0.234 C 
ATOM     26  O   UNK d   1       7.007  -3.489  -6.709  0.00  0.00    -0.274 OA
ATOM     27  N   UNK d   1       6.108  -5.191  -5.605  0.00  0.00    -0.305 N 
ATOM     28  H   UNK d   1       5.918  -5.612  -4.752  0.00  0.00     0.149 HD
BRANCH  27  29
ATOM     29  C   UNK d   1       5.679  -5.830  -6.851  0.00  0.00     0.072 C 
ATOM     30  H   UNK d   1       6.066  -5.268  -7.700  0.00  0.00     0.057 H 
BRANCH  29  31
ATOM     31  C   UNK d   1       6.216  -7.262  -6.900  0.00  0.00     0.017 C 
ATOM     32  H   UNK d   1       5.732  -7.804  -7.712  0.00  0.00     0.040 H 
ATOM     33  H   UNK d   1       7.293  -7.241  -7.069  0.00  0.00     0.040 H 
BRANCH  31  34
ATOM     34  S   UNK d   1       5.869  -8.093  -5.326  0.00  0.00    -0.162 SA
BRANCH  34  35
ATOM     35  C   UNK d   1       4.736  -9.437  -5.779  0.00  0.00    -0.018 C 
ATOM     36  H   UNK d   1       4.832  -9.649  -6.843  0.00  0.00     0.034 H 
ATOM     37  H   UNK d   1       4.985 -10.330  -5.205  0.00  0.00     0.034 H 
ATOM     38  H   UNK d   1       3.712  -9.137  -5.557  0.00  0.00     0.034 H 
ENDBRANCH  34  35
ENDBRANCH  31  34
ENDBRANCH  29  31
BRANCH  29  39
ATOM     39  C   UNK d   1       4.173  -5.856  -6.909  0.00  0.00     0.063 C 
ATOM     40  O   UNK d   1       3.526  -5.362  -6.017  0.00  0.00    -0.548 OA
ATOM     41  O   UNK d   1       3.552  -6.429  -7.951  0.00  0.00    -0.548 OA
ENDBRANCH  29  39
ENDBRANCH  27  29
ENDBRANCH  19  25
ENDBRANCH  16  19
ENDBRANCH   1  15
BRANCH   7  42
ATOM     42  O   UNK d   0       2.922  -0.020  -6.674  0.00  0.00    -0.446 OA
BRANCH  42  43
ATOM     43  C   UNK d   0       2.948   1.042  -7.664  0.00  0.00     0.119 C 
ATOM     44  H   UNK d   0       2.114   1.722  -7.489  0.00  0.00     0.075 H 
ATOM     45  H   UNK d   0       3.887   1.589  -7.586  0.00  0.00     0.075 H 
BRANCH  43  46
ATOM     46  C   UNK d   0       2.828   0.446  -9.044  0.00  0.00    -0.010 A 
ATOM     47  C   UNK d   0       3.682   0.856 -10.051  0.00  0.00    -0.055 A 
ATOM     48  C   UNK d   0       3.572   0.310 -11.315  0.00  0.00    -0.061 A 
ATOM     49  H   UNK d   0       4.434   1.605  -9.848  0.00  0.00     0.062 H 
ATOM     50  C   UNK d   0       2.611  -0.648 -11.574  0.00  0.00    -0.062 A 
ATOM     51  H   UNK d   0       4.240   0.631 -12.102  0.00  0.00     0.062 H 
ATOM     52  C   UNK d   0       1.756  -1.059 -10.567  0.00  0.00    -0.061 A 
ATOM     53  H   UNK d   0       2.525  -1.076 -12.562  0.00  0.00     0.062 H 
ATOM     54  C   UNK d   0       1.869  -0.517  -9.300  0.00  0.00    -0.055 A 
ATOM     55  H   UNK d   0       1.005  -1.808 -10.768  0.00  0.00     0.062 H 
ATOM     56  H   UNK d   0       1.206  -0.841  -8.512  0.00  0.00     0.062 H 
ENDBRANCH  43  46
ENDBRANCH  42  43
ENDBRANCH   7  42
TORSDOF 12
ENDMDL
MODEL 6
REMARK VINA RESULT:      -5.8      2.972      5.916
REMARK  12 active torsions:
REMARK  status: ('A' for Active; 'I' for Inactive)
REMARK    1  A    between atoms: C_1  and  C_2 
REMARK    2  A    between atoms: C_2  and  C_4 
REMARK    3  A    between atoms: C_2  and  N_14 
REMARK       I    between atoms: C_4  and  N_6 
REMARK    4  A    between atoms: N_6  and  C_7 
REMARK    5  A    between atoms: C_7  and  C_9 
REMARK    6  A    between atoms: C_7  and  C_12 
REMARK    7  A    between atoms: C_9  and  S_10 
REMARK    8  A    between atoms: S_10  and  C_11 
REMARK       I    between atoms: N_14  and  C_15 
REMARK    9  A    between atoms: C_15  and  C_17 
REMARK       I    between atoms: N_22  and  C_23 
REMARK   10  A    between atoms: C_23  and  O_25 
REMARK   11  A    between atoms: O_25  and  C_26 
REMARK   12  A    between atoms: C_26  and  C_27 
ROOT
ATOM      1  C   UNK d   0       5.078  -1.610  -3.931  0.00  0.00     0.105 C 
ATOM      2  H   UNK d   0       5.976  -1.032  -3.712  0.00  0.00     0.060 H 
ATOM      3  C   UNK d   0       4.474  -2.159  -2.622  0.00  0.00    -0.024 C 
ATOM      4  C   UNK d   0       3.364  -1.118  -2.293  0.00  0.00    -0.035 C 
ATOM      5  C   UNK d   0       2.858  -0.745  -3.708  0.00  0.00     0.019 C 
ATOM      6  N   UNK d   0       4.066  -0.743  -4.553  0.00  0.00    -0.256 N 
ATOM      7  C   UNK d   0       4.218  -0.060  -5.706  0.00  0.00     0.404 C 
ATOM      8  O   UNK d   0       5.262  -0.134  -6.322  0.00  0.00    -0.226 OA
ATOM      9  H   UNK d   0       4.042  -3.146  -2.780  0.00  0.00     0.029 H 
ATOM     10  H   UNK d   0       5.225  -2.187  -1.833  0.00  0.00     0.029 H 
ATOM     11  H   UNK d   0       3.782  -0.249  -1.785  0.00  0.00     0.028 H 
ATOM     12  H   UNK d   0       2.570  -1.571  -1.700  0.00  0.00     0.028 H 
ATOM     13  H   UNK d   0       2.400   0.243  -3.699  0.00  0.00     0.047 H 
ATOM     14  H   UNK d   0       2.147  -1.490  -4.065  0.00  0.00     0.047 H 
ENDROOT
BRANCH   1  15
ATOM     15  C   UNK d   0       5.415  -2.750  -4.857  0.00  0.00     0.234 C 
ATOM     16  N   UNK d   1       4.436  -3.382  -5.534  0.00  0.00    -0.303 N 
ATOM     17  H   UNK d   1       3.514  -3.102  -5.426  0.00  0.00     0.149 HD
ATOM     18  O   UNK d   0       6.570  -3.099  -4.992  0.00  0.00    -0.274 OA
BRANCH  16  19
ATOM     19  C   UNK d   1       4.766  -4.490  -6.434  0.00  0.00     0.097 C 
ATOM     20  H   UNK d   1       5.765  -4.342  -6.842  0.00  0.00     0.059 H 
BRANCH  19  21
ATOM     21  C   UNK d   1       3.750  -4.538  -7.577  0.00  0.00    -0.038 C 
ATOM     22  H   UNK d   1       3.252  -5.507  -7.581  0.00  0.00     0.025 H 
ATOM     23  H   UNK d   1       3.010  -3.749  -7.438  0.00  0.00     0.025 H 
ATOM     24  H   UNK d   1       4.264  -4.390  -8.527  0.00  0.00     0.025 H 
ENDBRANCH  19  21
BRANCH  19  25
ATOM     25  C   UNK d   1       4.722  -5.788  -5.668  0.00  0.00     0.234 C 
ATOM     26  O   UNK d   1       3.916  -5.938  -4.775  0.00  0.00    -0.274 OA
ATOM     27  N   UNK d   1       5.579  -6.781  -5.977  0.00  0.00    -0.305 N 
ATOM     28  H   UNK d   1       6.224  -6.660  -6.692  0.00  0.00     0.149 HD
BRANCH  27  29
ATOM     29  C   UNK d   1       5.537  -8.042  -5.232  0.00  0.00     0.072 C 
ATOM     30  H   UNK d   1       5.039  -7.882  -4.276  0.00  0.00     0.057 H 
BRANCH  29  31
ATOM     31  C   UNK d   1       4.766  -9.086  -6.042  0.00  0.00     0.017 C 
ATOM     32  H   UNK d   1       3.792  -8.683  -6.320  0.00  0.00     0.040 H 
ATOM     33  H   UNK d   1       5.327  -9.335  -6.942  0.00  0.00     0.040 H 
BRANCH  31  34
ATOM     34  S   UNK d   1       4.538 -10.581  -5.040  0.00  0.00    -0.162 SA
BRANCH  34  35
ATOM     35  C   UNK d   1       3.795  -9.969  -3.502  0.00  0.00    -0.018 C 
ATOM     36  H   UNK d   1       4.543  -9.977  -2.709  0.00  0.00     0.034 H 
ATOM     37  H   UNK d   1       3.434  -8.952  -3.652  0.00  0.00     0.034 H 
ATOM     38  H   UNK d   1       2.961 -10.613  -3.221  0.00  0.00     0.034 H 
ENDBRANCH  34  35
ENDBRANCH  31  34
ENDBRANCH  29  31
BRANCH  29  39
ATOM     39  C   UNK d   1       6.943  -8.530  -4.992  0.00  0.00     0.063 C 
ATOM     40  O   UNK d   1       7.365  -8.623  -3.864  0.00  0.00    -0.548 OA
ATOM     41  O   UNK d   1       7.725  -8.861  -6.031  0.00  0.00    -0.548 OA
ENDBRANCH  29  39
ENDBRANCH  27  29
ENDBRANCH  19  25
ENDBRANCH  16  19
ENDBRANCH   1  15
BRANCH   7  42
ATOM     42  O   UNK d   0       3.212   0.703  -6.173  0.00  0.00    -0.446 OA
BRANCH  42  43
ATOM     43  C   UNK d   0       2.378   0.129  -7.213  0.00  0.00     0.119 C 
ATOM     44  H   UNK d   0       2.394  -0.958  -7.135  0.00  0.00     0.075 H 
ATOM     45  H   UNK d   0       1.354   0.487  -7.097  0.00  0.00     0.075 H 
BRANCH  43  46
ATOM     46  C   UNK d   0       2.902   0.544  -8.564  0.00  0.00    -0.010 A 
ATOM     47  C   UNK d   0       3.035  -0.393  -9.572  0.00  0.00    -0.055 A 
ATOM     48  C   UNK d   0       3.516  -0.013 -10.810  0.00  0.00    -0.061 A 
ATOM     49  H   UNK d   0       2.762  -1.422  -9.390  0.00  0.00     0.062 H 
ATOM     50  C   UNK d   0       3.864   1.304 -11.042  0.00  0.00    -0.062 A 
ATOM     51  H   UNK d   0       3.620  -0.745 -11.598  0.00  0.00     0.062 H 
ATOM     52  C   UNK d   0       3.732   2.242 -10.034  0.00  0.00    -0.061 A 
ATOM     53  H   UNK d   0       4.240   1.602 -12.010  0.00  0.00     0.062 H 
ATOM     54  C   UNK d   0       3.246   1.864  -8.797  0.00  0.00    -0.055 A 
ATOM     55  H   UNK d   0       4.004   3.271 -10.215  0.00  0.00     0.062 H 
ATOM     56  H   UNK d   0       3.137   2.596  -8.012  0.00  0.00     0.062 H 
ENDBRANCH  43  46
ENDBRANCH  42  43
ENDBRANCH   7  42
TORSDOF 12
ENDMDL
MODEL 7
REMARK VINA RESULT:      -5.7      2.345      3.205
REMARK  12 active torsions:
REMARK  status: ('A' for Active; 'I' for Inactive)
REMARK    1  A    between atoms: C_1  and  C_2 
REMARK    2  A    between atoms: C_2  and  C_4 
REMARK    3  A    between atoms: C_2  and  N_14 
REMARK       I    between atoms: C_4  and  N_6 
REMARK    4  A    between atoms: N_6  and  C_7 
REMARK    5  A    between atoms: C_7  and  C_9 
REMARK    6  A    between atoms: C_7  and  C_12 
REMARK    7  A    between atoms: C_9  and  S_10 
REMARK    8  A    between atoms: S_10  and  C_11 
REMARK       I    between atoms: N_14  and  C_15 
REMARK    9  A    between atoms: C_15  and  C_17 
REMARK       I    between atoms: N_22  and  C_23 
REMARK   10  A    between atoms: C_23  and  O_25 
REMARK   11  A    between atoms: O_25  and  C_26 
REMARK   12  A    between atoms: C_26  and  C_27 
ROOT
ATOM      1  C   UNK d   0       2.846  -0.610  -8.549  0.00  0.00     0.105 C 
ATOM      2  H   UNK d   0       2.037  -0.778  -7.838  0.00  0.00     0.060 H 
ATOM      3  C   UNK d   0       2.499   0.579  -9.469  0.00  0.00    -0.024 C 
ATOM      4  C   UNK d   0       3.248   1.765  -8.793  0.00  0.00    -0.035 C 
ATOM      5  C   UNK d   0       4.529   1.067  -8.273  0.00  0.00     0.019 C 
ATOM      6  N   UNK d   0       4.081  -0.265  -7.830  0.00  0.00    -0.256 N 
ATOM      7  C   UNK d   0       4.701  -1.039  -6.917  0.00  0.00     0.404 C 
ATOM      8  O   UNK d   0       4.239  -2.125  -6.628  0.00  0.00    -0.226 OA
ATOM      9  H   UNK d   0       2.874   0.410 -10.477  0.00  0.00     0.029 H 
ATOM     10  H   UNK d   0       1.424   0.757  -9.481  0.00  0.00     0.029 H 
ATOM     11  H   UNK d   0       2.665   2.177  -7.970  0.00  0.00     0.028 H 
ATOM     12  H   UNK d   0       3.491   2.538  -9.522  0.00  0.00     0.028 H 
ATOM     13  H   UNK d   0       4.951   1.624  -7.436  0.00  0.00     0.047 H 
ATOM     14  H   UNK d   0       5.262   0.974  -9.074  0.00  0.00     0.047 H 
ENDROOT
BRANCH   1  15
ATOM     15  C   UNK d   0       3.065  -1.850  -9.377  0.00  0.00     0.234 C 
ATOM     16  N   UNK d   1       2.458  -3.005  -9.037  0.00  0.00    -0.303 N 
ATOM     17  H   UNK d   1       1.880  -3.037  -8.258  0.00  0.00     0.149 HD
ATOM     18  O   UNK d   0       3.788  -1.809 -10.351  0.00  0.00    -0.274 OA
BRANCH  16  19
ATOM     19  C   UNK d   1       2.671  -4.210  -9.842  0.00  0.00     0.097 C 
ATOM     20  H   UNK d   1       3.394  -3.997 -10.628  0.00  0.00     0.059 H 
BRANCH  19  21
ATOM     21  C   UNK d   1       1.346  -4.643 -10.471  0.00  0.00    -0.038 C 
ATOM     22  H   UNK d   1       1.453  -4.684 -11.555  0.00  0.00     0.025 H 
ATOM     23  H   UNK d   1       1.071  -5.629 -10.096  0.00  0.00     0.025 H 
ATOM     24  H   UNK d   1       0.567  -3.925 -10.211  0.00  0.00     0.025 H 
ENDBRANCH  19  21
BRANCH  19  25
ATOM     25  C   UNK d   1       3.195  -5.315  -8.962  0.00  0.00     0.234 C 
ATOM     26  O   UNK d   1       2.739  -6.435  -9.058  0.00  0.00    -0.274 OA
ATOM     27  N   UNK d   1       4.169  -5.059  -8.067  0.00  0.00    -0.305 N 
ATOM     28  H   UNK d   1       4.534  -4.163  -7.990  0.00  0.00     0.149 HD
BRANCH  27  29
ATOM     29  C   UNK d   1       4.678  -6.133  -7.210  0.00  0.00     0.072 C 
ATOM     30  H   UNK d   1       3.964  -6.956  -7.197  0.00  0.00     0.057 H 
BRANCH  29  31
ATOM     31  C   UNK d   1       6.018  -6.629  -7.757  0.00  0.00     0.017 C 
ATOM     32  H   UNK d   1       6.362  -5.956  -8.542  0.00  0.00     0.040 H 
ATOM     33  H   UNK d   1       6.753  -6.652  -6.952  0.00  0.00     0.040 H 
BRANCH  31  34
ATOM     34  S   UNK d   1       5.814  -8.298  -8.436  0.00  0.00    -0.162 SA
BRANCH  34  35
ATOM     35  C   UNK d   1       4.544  -9.050  -7.380  0.00  0.00    -0.018 C 
ATOM     36  H   UNK d   1       4.245  -8.339  -6.609  0.00  0.00     0.034 H 
ATOM     37  H   UNK d   1       3.678  -9.315  -7.986  0.00  0.00     0.034 H 
ATOM     38  H   UNK d   1       4.948  -9.947  -6.910  0.00  0.00     0.034 H 
ENDBRANCH  34  35
ENDBRANCH  31  34
ENDBRANCH  29  31
BRANCH  29  39
ATOM     39  C   UNK d   1       4.869  -5.610  -5.809  0.00  0.00     0.063 C 
ATOM     40  O   UNK d   1       5.879  -5.015  -5.519  0.00  0.00    -0.548 OA
ATOM     41  O   UNK d   1       3.916  -5.806  -4.884  0.00  0.00    -0.548 OA
ENDBRANCH  29  39
ENDBRANCH  27  29
ENDBRANCH  19  25
ENDBRANCH  16  19
ENDBRANCH   1  15
BRANCH   7  42
ATOM     42  O   UNK d   0       5.830  -0.608  -6.325  0.00  0.00    -0.446 OA
BRANCH  42  43
ATOM     43  C   UNK d   0       6.290  -1.350  -5.165  0.00  0.00     0.119 C 
ATOM     44  H   UNK d   0       6.015  -2.399  -5.271  0.00  0.00     0.075 H 
ATOM     45  H   UNK d   0       7.374  -1.264  -5.086  0.00  0.00     0.075 H 
BRANCH  43  46
ATOM     46  C   UNK d   0       5.651  -0.785  -3.922  0.00  0.00    -0.010 A 
ATOM     47  C   UNK d   0       5.825   0.548  -3.599  0.00  0.00    -0.055 A 
ATOM     48  C   UNK d   0       5.239   1.065  -2.460  0.00  0.00    -0.061 A 
ATOM     49  H   UNK d   0       6.420   1.184  -4.238  0.00  0.00     0.062 H 
ATOM     50  C   UNK d   0       4.478   0.251  -1.643  0.00  0.00    -0.062 A 
ATOM     51  H   UNK d   0       5.375   2.107  -2.208  0.00  0.00     0.062 H 
ATOM     52  C   UNK d   0       4.304  -1.083  -1.965  0.00  0.00    -0.061 A 
ATOM     53  H   UNK d   0       4.019   0.655  -0.752  0.00  0.00     0.062 H 
ATOM     54  C   UNK d   0       4.885  -1.600  -3.108  0.00  0.00    -0.055 A 
ATOM     55  H   UNK d   0       3.709  -1.719  -1.327  0.00  0.00     0.062 H 
ATOM     56  H   UNK d   0       4.745  -2.639  -3.363  0.00  0.00     0.062 H 
ENDBRANCH  43  46
ENDBRANCH  42  43
ENDBRANCH   7  42
TORSDOF 12
ENDMDL
MODEL 8
REMARK VINA RESULT:      -5.7      2.075      2.618
REMARK  12 active torsions:
REMARK  status: ('A' for Active; 'I' for Inactive)
REMARK    1  A    between atoms: C_1  and  C_2 
REMARK    2  A    between atoms: C_2  and  C_4 
REMARK    3  A    between atoms: C_2  and  N_14 
REMARK       I    between atoms: C_4  and  N_6 
REMARK    4  A    between atoms: N_6  and  C_7 
REMARK    5  A    between atoms: C_7  and  C_9 
REMARK    6  A    between atoms: C_7  and  C_12 
REMARK    7  A    between atoms: C_9  and  S_10 
REMARK    8  A    between atoms: S_10  and  C_11 
REMARK       I    between atoms: N_14  and  C_15 
REMARK    9  A    between atoms: C_15  and  C_17 
REMARK       I    between atoms: N_22  and  C_23 
REMARK   10  A    between atoms: C_23  and  O_25 
REMARK   11  A    between atoms: O_25  and  C_26 
REMARK   12  A    between atoms: C_26  and  C_27 
ROOT
ATOM      1  C   UNK d   0       2.763  -0.873  -8.533  0.00  0.00     0.105 C 
ATOM      2  H   UNK d   0       1.980  -1.122  -7.817  0.00  0.00     0.060 H 
ATOM      3  C   UNK d   0       2.278   0.253  -9.471  0.00  0.00    -0.024 C 
ATOM      4  C   UNK d   0       2.884   1.529  -8.817  0.00  0.00    -0.035 C 
ATOM      5  C   UNK d   0       4.238   0.995  -8.290  0.00  0.00     0.019 C 
ATOM      6  N   UNK d   0       3.949  -0.373  -7.823  0.00  0.00    -0.256 N 
ATOM      7  C   UNK d   0       4.656  -1.055  -6.899  0.00  0.00     0.404 C 
ATOM      8  O   UNK d   0       4.325  -2.182  -6.591  0.00  0.00    -0.226 OA
ATOM      9  H   UNK d   0       2.670   0.112 -10.478  0.00  0.00     0.029 H 
ATOM     10  H   UNK d   0       1.190   0.303  -9.483  0.00  0.00     0.029 H 
ATOM     11  H   UNK d   0       2.257   1.883  -7.999  0.00  0.00     0.028 H 
ATOM     12  H   UNK d   0       3.034   2.313  -9.559  0.00  0.00     0.028 H 
ATOM     13  H   UNK d   0       4.593   1.610  -7.463  0.00  0.00     0.047 H 
ATOM     14  H   UNK d   0       4.976   0.974  -9.091  0.00  0.00     0.047 H 
ENDROOT
BRANCH   1  15
ATOM     15  C   UNK d   0       3.124  -2.092  -9.341  0.00  0.00     0.234 C 
ATOM     16  N   UNK d   1       2.750  -3.316  -8.919  0.00  0.00    -0.303 N 
ATOM     17  H   UNK d   1       2.248  -3.412  -8.095  0.00  0.00     0.149 HD
ATOM     18  O   UNK d   0       3.753  -1.971 -10.373  0.00  0.00    -0.274 OA
BRANCH  16  19
ATOM     19  C   UNK d   1       3.102  -4.502  -9.706  0.00  0.00     0.097 C 
ATOM     20  H   UNK d   1       3.618  -4.194 -10.614  0.00  0.00     0.059 H 
BRANCH  19  21
ATOM     21  C   UNK d   1       1.829  -5.264 -10.075  0.00  0.00    -0.038 C 
ATOM     22  H   UNK d   1       1.239  -4.672 -10.773  0.00  0.00     0.025 H 
ATOM     23  H   UNK d   1       2.095  -6.214 -10.540  0.00  0.00     0.025 H 
ATOM     24  H   UNK d   1       1.243  -5.453  -9.174  0.00  0.00     0.025 H 
ENDBRANCH  19  21
BRANCH  19  25
ATOM     25  C   UNK d   1       4.004  -5.393  -8.892  0.00  0.00     0.234 C 
ATOM     26  O   UNK d   1       4.281  -6.504  -9.292  0.00  0.00    -0.274 OA
ATOM     27  N   UNK d   1       4.502  -4.956  -7.718  0.00  0.00    -0.305 N 
ATOM     28  H   UNK d   1       4.280  -4.068  -7.398  0.00  0.00     0.149 HD
BRANCH  27  29
ATOM     29  C   UNK d   1       5.378  -5.823  -6.926  0.00  0.00     0.072 C 
ATOM     30  H   UNK d   1       5.709  -6.662  -7.538  0.00  0.00     0.057 H 
BRANCH  29  31
ATOM     31  C   UNK d   1       6.596  -5.024  -6.456  0.00  0.00     0.017 C 
ATOM     32  H   UNK d   1       6.694  -4.122  -7.061  0.00  0.00     0.040 H 
ATOM     33  H   UNK d   1       6.466  -4.747  -5.410  0.00  0.00     0.040 H 
BRANCH  31  34
ATOM     34  S   UNK d   1       8.089  -6.037  -6.633  0.00  0.00    -0.162 SA
BRANCH  34  35
ATOM     35  C   UNK d   1       8.281  -6.825  -5.010  0.00  0.00    -0.018 C 
ATOM     36  H   UNK d   1       7.426  -7.474  -4.818  0.00  0.00     0.034 H 
ATOM     37  H   UNK d   1       9.196  -7.417  -5.000  0.00  0.00     0.034 H 
ATOM     38  H   UNK d   1       8.336  -6.057  -4.238  0.00  0.00     0.034 H 
ENDBRANCH  34  35
ENDBRANCH  31  34
ENDBRANCH  29  31
BRANCH  29  39
ATOM     39  C   UNK d   1       4.623  -6.341  -5.728  0.00  0.00     0.063 C 
ATOM     40  O   UNK d   1       4.580  -7.528  -5.509  0.00  0.00    -0.548 OA
ATOM     41  O   UNK d   1       3.999  -5.483  -4.907  0.00  0.00    -0.548 OA
ENDBRANCH  29  39
ENDBRANCH  27  29
ENDBRANCH  19  25
ENDBRANCH  16  19
ENDBRANCH   1  15
BRANCH   7  42
ATOM     42  O   UNK d   0       5.728  -0.485  -6.318  0.00  0.00    -0.446 OA
BRANCH  42  43
ATOM     43  C   UNK d   0       6.300  -1.171  -5.173  0.00  0.00     0.119 C 
ATOM     44  H   UNK d   0       6.130  -2.243  -5.270  0.00  0.00     0.075 H 
ATOM     45  H   UNK d   0       7.371  -0.974  -5.130  0.00  0.00     0.075 H 
BRANCH  43  46
ATOM     46  C   UNK d   0       5.647  -0.671  -3.910  0.00  0.00    -0.010 A 
ATOM     47  C   UNK d   0       5.769   0.658  -3.548  0.00  0.00    -0.055 A 
ATOM     48  C   UNK d   0       5.170   1.116  -2.390  0.00  0.00    -0.061 A 
ATOM     49  H   UNK d   0       6.332   1.337  -4.171  0.00  0.00     0.062 H 
ATOM     50  C   UNK d   0       4.449   0.248  -1.594  0.00  0.00    -0.062 A 
ATOM     51  H   UNK d   0       5.265   2.155  -2.107  0.00  0.00     0.062 H 
ATOM     52  C   UNK d   0       4.327  -1.082  -1.955  0.00  0.00    -0.061 A 
ATOM     53  H   UNK d   0       3.981   0.606  -0.689  0.00  0.00     0.062 H 
ATOM     54  C   UNK d   0       4.920  -1.540  -3.116  0.00  0.00    -0.055 A 
ATOM     55  H   UNK d   0       3.763  -1.761  -1.333  0.00  0.00     0.062 H 
ATOM     56  H   UNK d   0       4.821  -2.576  -3.402  0.00  0.00     0.062 H 
ENDBRANCH  43  46
ENDBRANCH  42  43
ENDBRANCH   7  42
TORSDOF 12
ENDMDL
MODEL 9
REMARK VINA RESULT:      -5.6      2.313      3.090
REMARK  12 active torsions:
REMARK  status: ('A' for Active; 'I' for Inactive)
REMARK    1  A    between atoms: C_1  and  C_2 
REMARK    2  A    between atoms: C_2  and  C_4 
REMARK    3  A    between atoms: C_2  and  N_14 
REMARK       I    between atoms: C_4  and  N_6 
REMARK    4  A    between atoms: N_6  and  C_7 
REMARK    5  A    between atoms: C_7  and  C_9 
REMARK    6  A    between atoms: C_7  and  C_12 
REMARK    7  A    between atoms: C_9  and  S_10 
REMARK    8  A    between atoms: S_10  and  C_11 
REMARK       I    between atoms: N_14  and  C_15 
REMARK    9  A    between atoms: C_15  and  C_17 
REMARK       I    between atoms: N_22  and  C_23 
REMARK   10  A    between atoms: C_23  and  O_25 
REMARK   11  A    between atoms: O_25  and  C_26 
REMARK   12  A    between atoms: C_26  and  C_27 
ROOT
ATOM      1  C   UNK d   0       3.748  -1.501  -9.159  0.00  0.00     0.105 C 
ATOM      2  H   UNK d   0       3.462  -2.477  -8.766  0.00  0.00     0.060 H 
ATOM      3  C   UNK d   0       3.003  -1.229 -10.482  0.00  0.00    -0.024 C 
ATOM      4  C   UNK d   0       1.797  -0.358 -10.024  0.00  0.00    -0.035 C 
ATOM      5  C   UNK d   0       2.433   0.478  -8.885  0.00  0.00     0.019 C 
ATOM      6  N   UNK d   0       3.361  -0.447  -8.211  0.00  0.00    -0.256 N 
ATOM      7  C   UNK d   0       3.786  -0.343  -6.935  0.00  0.00     0.404 C 
ATOM      8  O   UNK d   0       4.556  -1.166  -6.483  0.00  0.00    -0.226 OA
ATOM      9  H   UNK d   0       3.636  -0.677 -11.175  0.00  0.00     0.029 H 
ATOM     10  H   UNK d   0       2.659  -2.161 -10.930  0.00  0.00     0.029 H 
ATOM     11  H   UNK d   0       0.987  -0.981  -9.646  0.00  0.00     0.028 H 
ATOM     12  H   UNK d   0       1.450   0.284 -10.833  0.00  0.00     0.028 H 
ATOM     13  H   UNK d   0       1.664   0.818  -8.190  0.00  0.00     0.047 H 
ATOM     14  H   UNK d   0       2.976   1.328  -9.296  0.00  0.00     0.047 H 
ENDROOT
BRANCH   1  15
ATOM     15  C   UNK d   0       5.236  -1.460  -9.392  0.00  0.00     0.234 C 
ATOM     16  N   UNK d   1       6.038  -2.362  -8.791  0.00  0.00    -0.303 N 
ATOM     17  H   UNK d   1       5.657  -3.038  -8.208  0.00  0.00     0.149 HD
ATOM     18  O   UNK d   0       5.713  -0.615 -10.121  0.00  0.00    -0.274 OA
BRANCH  16  19
ATOM     19  C   UNK d   1       7.485  -2.321  -9.018  0.00  0.00     0.097 C 
ATOM     20  H   UNK d   1       7.727  -1.485  -9.672  0.00  0.00     0.059 H 
BRANCH  19  21
ATOM     21  C   UNK d   1       7.935  -3.628  -9.674  0.00  0.00    -0.038 C 
ATOM     22  H   UNK d   1       9.017  -3.726  -9.587  0.00  0.00     0.025 H 
ATOM     23  H   UNK d   1       7.453  -4.470  -9.175  0.00  0.00     0.025 H 
ATOM     24  H   UNK d   1       7.654  -3.622 -10.728  0.00  0.00     0.025 H 
ENDBRANCH  19  21
BRANCH  19  25
ATOM     25  C   UNK d   1       8.195  -2.151  -7.699  0.00  0.00     0.234 C 
ATOM     26  O   UNK d   1       9.255  -2.707  -7.505  0.00  0.00    -0.274 OA
ATOM     27  N   UNK d   1       7.650  -1.381  -6.736  0.00  0.00    -0.305 N 
ATOM     28  H   UNK d   1       6.802  -0.937  -6.892  0.00  0.00     0.149 HD
BRANCH  27  29
ATOM     29  C   UNK d   1       8.339  -1.216  -5.454  0.00  0.00     0.072 C 
ATOM     30  H   UNK d   1       9.138  -1.953  -5.374  0.00  0.00     0.057 H 
BRANCH  29  31
ATOM     31  C   UNK d   1       8.933   0.192  -5.372  0.00  0.00     0.017 C 
ATOM     32  H   UNK d   1       8.872   0.553  -4.346  0.00  0.00     0.040 H 
ATOM     33  H   UNK d   1       9.976   0.165  -5.686  0.00  0.00     0.040 H 
BRANCH  31  34
ATOM     34  S   UNK d   1       8.003   1.305  -6.462  0.00  0.00    -0.162 SA
BRANCH  34  35
ATOM     35  C   UNK d   1       9.277   2.062  -7.508  0.00  0.00    -0.018 C 
ATOM     36  H   UNK d   1       8.962   2.022  -8.550  0.00  0.00     0.034 H 
ATOM     37  H   UNK d   1       9.421   3.101  -7.211  0.00  0.00     0.034 H 
ATOM     38  H   UNK d   1      10.214   1.517  -7.390  0.00  0.00     0.034 H 
ENDBRANCH  34  35
ENDBRANCH  31  34
ENDBRANCH  29  31
BRANCH  29  39
ATOM     39  C   UNK d   1       7.358  -1.414  -4.327  0.00  0.00     0.063 C 
ATOM     40  O   UNK d   1       7.174  -0.530  -3.525  0.00  0.00    -0.548 OA
ATOM     41  O   UNK d   1       6.689  -2.572  -4.215  0.00  0.00    -0.548 OA
ENDBRANCH  29  39
ENDBRANCH  27  29
ENDBRANCH  19  25
ENDBRANCH  16  19
ENDBRANCH   1  15
BRANCH   7  42
ATOM     42  O   UNK d   0       3.356   0.674  -6.164  0.00  0.00    -0.446 OA
BRANCH  42  43
ATOM     43  C   UNK d   0       2.407   0.349  -5.115  0.00  0.00     0.119 C 
ATOM     44  H   UNK d   0       1.714   1.180  -4.982  0.00  0.00     0.075 H 
ATOM     45  H   UNK d   0       1.851  -0.547  -5.393  0.00  0.00     0.075 H 
BRANCH  43  46
ATOM     46  C   UNK d   0       3.147   0.100  -3.826  0.00  0.00    -0.010 A 
ATOM     47  C   UNK d   0       3.670   1.163  -3.112  0.00  0.00    -0.055 A 
ATOM     48  C   UNK d   0       4.349   0.935  -1.931  0.00  0.00    -0.061 A 
ATOM     49  H   UNK d   0       3.547   2.171  -3.480  0.00  0.00     0.062 H 
ATOM     50  C   UNK d   0       4.505  -0.355  -1.461  0.00  0.00    -0.062 A 
ATOM     51  H   UNK d   0       4.757   1.766  -1.373  0.00  0.00     0.062 H 
ATOM     52  C   UNK d   0       3.983  -1.419  -2.175  0.00  0.00    -0.061 A 
ATOM     53  H   UNK d   0       5.036  -0.534  -0.537  0.00  0.00     0.062 H 
ATOM     54  C   UNK d   0       3.299  -1.191  -3.353  0.00  0.00    -0.055 A 
ATOM     55  H   UNK d   0       4.105  -2.427  -1.808  0.00  0.00     0.062 H 
ATOM     56  H   UNK d   0       2.886  -2.020  -3.908  0.00  0.00     0.062 H 
ENDBRANCH  43  46
ENDBRANCH  42  43
ENDBRANCH   7  42
TORSDOF 12
ENDMDL
