MODEL 1
REMARK VINA RESULT:      -5.9      0.000      0.000
REMARK  12 active torsions:
REMARK  status: ('A' for Active; 'I' for Inactive)
REMARK    1  A    between atoms: C_1  and  O_2 
REMARK    2  A    between atoms: O_2  and  C_3 
REMARK    3  A    between atoms: C_8  and  C_9 
REMARK    4  A    between atoms: C_9  and  C_11 
REMARK    5  A    between atoms: C_9  and  C_15 
REMARK    6  A    between atoms: C_11  and  C_12 
REMARK    7  A    between atoms: C_12  and  C_13 
REMARK    8  A    between atoms: C_13  and  O_14 
REMARK    9  A    between atoms: C_15  and  C_17 
REMARK   10  A    between atoms: C_15  and  O_25 
REMARK   11  A    between atoms: C_22  and  O_23 
REMARK   12  A    between atoms: O_23  and  C_24 
ROOT
ATOM      1  C   LIG d   1       4.824  -1.388  -5.488  0.00  0.00     0.018 C 
ATOM      2  H   LIG d   1       3.866  -1.743  -5.866  0.00  0.00     0.038 H 
ENDROOT
BRANCH   1   3
ATOM      3  C   LIG d   1       4.600  -0.565  -4.245  0.00  0.00     0.000 A 
ATOM      4  C   LIG d   1       5.645   0.167  -3.701  0.00  0.00     0.124 A 
ATOM      5  C   LIG d   1       5.434   0.929  -2.560  0.00  0.00    -0.020 A 
ATOM      6  C   LIG d   1       4.189   0.946  -1.963  0.00  0.00    -0.058 A 
ATOM      7  H   LIG d   1       6.245   1.504  -2.137  0.00  0.00     0.065 H 
ATOM      8  C   LIG d   1       3.151   0.210  -2.504  0.00  0.00    -0.061 A 
ATOM      9  H   LIG d   1       4.026   1.535  -1.072  0.00  0.00     0.062 H 
ATOM     10  C   LIG d   1       3.357  -0.544  -3.644  0.00  0.00    -0.055 A 
ATOM     11  H   LIG d   1       2.178   0.225  -2.035  0.00  0.00     0.062 H 
ATOM     12  H   LIG d   1       2.544  -1.119  -4.065  0.00  0.00     0.062 H 
BRANCH   4  13
ATOM     13  O   LIG d   1       6.871   0.144  -4.287  0.00  0.00    -0.495 OA
BRANCH  13  14
ATOM     14  C   LIG d   1       7.779   1.190  -3.934  0.00  0.00     0.079 C 
ATOM     15  H   LIG d   1       8.495   1.337  -4.742  0.00  0.00     0.066 H 
ATOM     16  H   LIG d   1       7.223   2.112  -3.768  0.00  0.00     0.066 H 
ATOM     17  H   LIG d   1       8.310   0.918  -3.022  0.00  0.00     0.066 H 
ENDBRANCH  13  14
ENDBRANCH   4  13
ENDBRANCH   1   3
BRANCH   1  18
ATOM     18  C   LIG d   1       5.716  -2.585  -5.153  0.00  0.00    -0.041 C 
ATOM     19  H   LIG d   1       6.235  -2.400  -4.212  0.00  0.00     0.027 H 
ATOM     20  H   LIG d   1       6.447  -2.727  -5.948  0.00  0.00     0.027 H 
BRANCH  18  21
ATOM     21  C   LIG d   1       4.854  -3.842  -5.022  0.00  0.00    -0.029 C 
ATOM     22  H   LIG d   1       4.017  -3.641  -4.353  0.00  0.00     0.029 H 
ATOM     23  H   LIG d   1       5.456  -4.655  -4.615  0.00  0.00     0.029 H 
BRANCH  21  24
ATOM     24  C   LIG d   1       4.322  -4.243  -6.399  0.00  0.00     0.044 C 
ATOM     25  H   LIG d   1       4.028  -3.348  -6.948  0.00  0.00     0.056 H 
ATOM     26  H   LIG d   1       5.100  -4.770  -6.951  0.00  0.00     0.056 H 
BRANCH  24  27
ATOM     27  O   LIG d   1       3.188  -5.098  -6.241  0.00  0.00    -0.395 OA
ATOM     28  H   LIG d   1       3.413  -6.008  -6.004  0.00  0.00     0.209 HD
ENDBRANCH  24  27
ENDBRANCH  21  24
ENDBRANCH  18  21
ENDBRANCH   1  18
BRANCH   1  29
ATOM     29  C   LIG d   1       5.506  -0.526  -6.552  0.00  0.00     0.090 C 
ATOM     30  H   LIG d   1       5.946   0.352  -6.082  0.00  0.00     0.065 H 
BRANCH  29  31
ATOM     31  C   LIG d   1       4.487  -0.091  -7.574  0.00  0.00     0.023 A 
ATOM     32  C   LIG d   1       4.756   0.985  -8.407  0.00  0.00     0.126 A 
ATOM     33  C   LIG d   1       3.817   1.381  -9.350  0.00  0.00    -0.020 A 
ATOM     34  C   LIG d   1       2.614   0.710  -9.448  0.00  0.00    -0.058 A 
ATOM     35  H   LIG d   1       4.026   2.215 -10.003  0.00  0.00     0.065 H 
ATOM     36  C   LIG d   1       2.346  -0.359  -8.612  0.00  0.00    -0.061 A 
ATOM     37  H   LIG d   1       1.882   1.020 -10.179  0.00  0.00     0.062 H 
ATOM     38  C   LIG d   1       3.282  -0.758  -7.676  0.00  0.00    -0.053 A 
ATOM     39  H   LIG d   1       1.405  -0.882  -8.691  0.00  0.00     0.062 H 
ATOM     40  H   LIG d   1       3.070  -1.593  -7.025  0.00  0.00     0.062 H 
BRANCH  32  41
ATOM     41  O   LIG d   1       5.938   1.647  -8.305  0.00  0.00    -0.495 OA
BRANCH  41  42
ATOM     42  C   LIG d   1       6.884   1.452  -9.359  0.00  0.00     0.079 C 
ATOM     43  H   LIG d   1       6.374   1.057 -10.237  0.00  0.00     0.066 H 
ATOM     44  H   LIG d   1       7.351   2.405  -9.608  0.00  0.00     0.066 H 
ATOM     45  H   LIG d   1       7.649   0.746  -9.035  0.00  0.00     0.066 H 
ENDBRANCH  41  42
ENDBRANCH  32  41
ENDBRANCH  29  31
BRANCH  29  46
ATOM     46  O   LIG d   1       6.530  -1.286  -7.197  0.00  0.00    -0.387 OA
ATOM     47  H   LIG d   1       7.392  -1.234  -6.764  0.00  0.00     0.210 HD
ENDBRANCH  29  46
ENDBRANCH   1  29
TORSDOF 12
ENDMDL
MODEL 2
REMARK VINA RESULT:      -5.8      1.974      3.529
REMARK  12 active torsions:
REMARK  status: ('A' for Active; 'I' for Inactive)
REMARK    1  A    between atoms: C_1  and  O_2 
REMARK    2  A    between atoms: O_2  and  C_3 
REMARK    3  A    between atoms: C_8  and  C_9 
REMARK    4  A    between atoms: C_9  and  C_11 
REMARK    5  A    between atoms: C_9  and  C_15 
REMARK    6  A    between atoms: C_11  and  C_12 
REMARK    7  A    between atoms: C_12  and  C_13 
REMARK    8  A    between atoms: C_13  and  O_14 
REMARK    9  A    between atoms: C_15  and  C_17 
REMARK   10  A    between atoms: C_15  and  O_25 
REMARK   11  A    between atoms: C_22  and  O_23 
REMARK   12  A    between atoms: O_23  and  C_24 
ROOT
ATOM      1  C   LIG d   1       6.448  -0.827  -4.724  0.00  0.00     0.018 C 
ATOM      2  H   LIG d   1       6.086  -0.984  -5.740  0.00  0.00     0.038 H 
ENDROOT
BRANCH   1   3
ATOM      3  C   LIG d   1       5.367  -0.175  -3.901  0.00  0.00     0.000 A 
ATOM      4  C   LIG d   1       4.076  -0.081  -4.400  0.00  0.00     0.124 A 
ATOM      5  C   LIG d   1       3.081   0.515  -3.637  0.00  0.00    -0.020 A 
ATOM      6  C   LIG d   1       3.381   1.023  -2.389  0.00  0.00    -0.058 A 
ATOM      7  H   LIG d   1       2.074   0.584  -4.022  0.00  0.00     0.065 H 
ATOM      8  C   LIG d   1       4.670   0.934  -1.896  0.00  0.00    -0.061 A 
ATOM      9  H   LIG d   1       2.608   1.491  -1.797  0.00  0.00     0.062 H 
ATOM     10  C   LIG d   1       5.661   0.335  -2.651  0.00  0.00    -0.055 A 
ATOM     11  H   LIG d   1       4.903   1.332  -0.919  0.00  0.00     0.062 H 
ATOM     12  H   LIG d   1       6.668   0.267  -2.264  0.00  0.00     0.062 H 
BRANCH   4  13
ATOM     13  O   LIG d   1       3.784  -0.577  -5.632  0.00  0.00    -0.495 OA
BRANCH  13  14
ATOM     14  C   LIG d   1       2.960   0.229  -6.477  0.00  0.00     0.079 C 
ATOM     15  H   LIG d   1       2.078  -0.339  -6.772  0.00  0.00     0.066 H 
ATOM     16  H   LIG d   1       2.653   1.124  -5.937  0.00  0.00     0.066 H 
ATOM     17  H   LIG d   1       3.522   0.516  -7.365  0.00  0.00     0.066 H 
ENDBRANCH  13  14
ENDBRANCH   4  13
ENDBRANCH   1   3
BRANCH   1  18
ATOM     18  C   LIG d   1       6.821  -2.173  -4.101  0.00  0.00    -0.041 C 
ATOM     19  H   LIG d   1       6.327  -2.276  -3.135  0.00  0.00     0.027 H 
ATOM     20  H   LIG d   1       7.901  -2.223  -3.964  0.00  0.00     0.027 H 
BRANCH  18  21
ATOM     21  C   LIG d   1       6.372  -3.305  -5.027  0.00  0.00    -0.029 C 
ATOM     22  H   LIG d   1       7.069  -4.140  -4.945  0.00  0.00     0.029 H 
ATOM     23  H   LIG d   1       6.354  -2.948  -6.057  0.00  0.00     0.029 H 
BRANCH  21  24
ATOM     24  C   LIG d   1       4.970  -3.769  -4.623  0.00  0.00     0.044 C 
ATOM     25  H   LIG d   1       4.977  -4.847  -4.463  0.00  0.00     0.056 H 
ATOM     26  H   LIG d   1       4.672  -3.266  -3.703  0.00  0.00     0.056 H 
BRANCH  24  27
ATOM     27  O   LIG d   1       4.045  -3.448  -5.663  0.00  0.00    -0.395 OA
ATOM     28  H   LIG d   1       4.252  -3.858  -6.514  0.00  0.00     0.209 HD
ENDBRANCH  24  27
ENDBRANCH  21  24
ENDBRANCH  18  21
ENDBRANCH   1  18
BRANCH   1  29
ATOM     29  C   LIG d   1       7.680   0.080  -4.756  0.00  0.00     0.090 C 
ATOM     30  H   LIG d   1       7.611   0.815  -3.954  0.00  0.00     0.065 H 
BRANCH  29  31
ATOM     31  C   LIG d   1       7.746   0.790  -6.084  0.00  0.00     0.023 A 
ATOM     32  C   LIG d   1       8.652   1.824  -6.273  0.00  0.00     0.126 A 
ATOM     33  C   LIG d   1       8.714   2.472  -7.498  0.00  0.00    -0.020 A 
ATOM     34  C   LIG d   1       7.868   2.095  -8.522  0.00  0.00    -0.058 A 
ATOM     35  H   LIG d   1       9.422   3.274  -7.650  0.00  0.00     0.065 H 
ATOM     36  C   LIG d   1       6.962   1.068  -8.328  0.00  0.00    -0.061 A 
ATOM     37  H   LIG d   1       7.913   2.602  -9.474  0.00  0.00     0.062 H 
ATOM     38  C   LIG d   1       6.901   0.417  -7.111  0.00  0.00    -0.053 A 
ATOM     39  H   LIG d   1       6.300   0.775  -9.130  0.00  0.00     0.062 H 
ATOM     40  H   LIG d   1       6.193  -0.384  -6.962  0.00  0.00     0.062 H 
BRANCH  32  41
ATOM     41  O   LIG d   1       9.481   2.196  -5.263  0.00  0.00    -0.495 OA
BRANCH  41  42
ATOM     42  C   LIG d   1       9.282   3.497  -4.705  0.00  0.00     0.079 C 
ATOM     43  H   LIG d   1       9.777   3.557  -3.736  0.00  0.00     0.066 H 
ATOM     44  H   LIG d   1       9.701   4.248  -5.375  0.00  0.00     0.066 H 
ATOM     45  H   LIG d   1       8.214   3.678  -4.578  0.00  0.00     0.066 H 
ENDBRANCH  41  42
ENDBRANCH  32  41
ENDBRANCH  29  31
BRANCH  29  46
ATOM     46  O   LIG d   1       8.857  -0.710  -4.580  0.00  0.00    -0.387 OA
ATOM     47  H   LIG d   1       8.783  -1.611  -4.922  0.00  0.00     0.210 HD
ENDBRANCH  29  46
ENDBRANCH   1  29
TORSDOF 12
ENDMDL
MODEL 3
REMARK VINA RESULT:      -5.8      1.671      5.034
REMARK  12 active torsions:
REMARK  status: ('A' for Active; 'I' for Inactive)
REMARK    1  A    between atoms: C_1  and  O_2 
REMARK    2  A    between atoms: O_2  and  C_3 
REMARK    3  A    between atoms: C_8  and  C_9 
REMARK    4  A    between atoms: C_9  and  C_11 
REMARK    5  A    between atoms: C_9  and  C_15 
REMARK    6  A    between atoms: C_11  and  C_12 
REMARK    7  A    between atoms: C_12  and  C_13 
REMARK    8  A    between atoms: C_13  and  O_14 
REMARK    9  A    between atoms: C_15  and  C_17 
REMARK   10  A    between atoms: C_15  and  O_25 
REMARK   11  A    between atoms: C_22  and  O_23 
REMARK   12  A    between atoms: O_23  and  C_24 
ROOT
ATOM      1  C   LIG d   1       4.938  -0.704  -6.625  0.00  0.00     0.018 C 
ATOM      2  H   LIG d   1       5.735  -0.196  -6.081  0.00  0.00     0.038 H 
ENDROOT
BRANCH   1   3
ATOM      3  C   LIG d   1       4.362   0.229  -7.658  0.00  0.00     0.000 A 
ATOM      4  C   LIG d   1       5.155   1.222  -8.216  0.00  0.00     0.124 A 
ATOM      5  C   LIG d   1       4.622   2.076  -9.172  0.00  0.00    -0.020 A 
ATOM      6  C   LIG d   1       3.303   1.942  -9.557  0.00  0.00    -0.058 A 
ATOM      7  H   LIG d   1       5.239   2.846  -9.611  0.00  0.00     0.065 H 
ATOM      8  C   LIG d   1       2.513   0.956  -8.995  0.00  0.00    -0.061 A 
ATOM      9  H   LIG d   1       2.887   2.610 -10.298  0.00  0.00     0.062 H 
ATOM     10  C   LIG d   1       3.042   0.100  -8.047  0.00  0.00    -0.055 A 
ATOM     11  H   LIG d   1       1.482   0.854  -9.298  0.00  0.00     0.062 H 
ATOM     12  H   LIG d   1       2.423  -0.670  -7.610  0.00  0.00     0.062 H 
BRANCH   4  13
ATOM     13  O   LIG d   1       6.451   1.354  -7.831  0.00  0.00    -0.495 OA
BRANCH  13  14
ATOM     14  C   LIG d   1       7.340   1.989  -8.752  0.00  0.00     0.079 C 
ATOM     15  H   LIG d   1       8.344   2.016  -8.329  0.00  0.00     0.066 H 
ATOM     16  H   LIG d   1       7.354   1.429  -9.687  0.00  0.00     0.066 H 
ATOM     17  H   LIG d   1       6.998   3.006  -8.944  0.00  0.00     0.066 H 
ENDBRANCH  13  14
ENDBRANCH   4  13
ENDBRANCH   1   3
BRANCH   1  18
ATOM     18  C   LIG d   1       5.504  -1.945  -7.317  0.00  0.00    -0.041 C 
ATOM     19  H   LIG d   1       5.326  -1.876  -8.390  0.00  0.00     0.027 H 
ATOM     20  H   LIG d   1       5.013  -2.835  -6.924  0.00  0.00     0.027 H 
BRANCH  18  21
ATOM     21  C   LIG d   1       7.009  -2.035  -7.055  0.00  0.00    -0.029 C 
ATOM     22  H   LIG d   1       7.278  -1.352  -6.249  0.00  0.00     0.029 H 
ATOM     23  H   LIG d   1       7.553  -1.761  -7.959  0.00  0.00     0.029 H 
BRANCH  21  24
ATOM     24  C   LIG d   1       7.373  -3.466  -6.654  0.00  0.00     0.044 C 
ATOM     25  H   LIG d   1       7.534  -4.064  -7.551  0.00  0.00     0.056 H 
ATOM     26  H   LIG d   1       8.284  -3.454  -6.055  0.00  0.00     0.056 H 
BRANCH  24  27
ATOM     27  O   LIG d   1       6.308  -4.032  -5.889  0.00  0.00    -0.395 OA
ATOM     28  H   LIG d   1       6.023  -4.904  -6.195  0.00  0.00     0.209 HD
ENDBRANCH  24  27
ENDBRANCH  21  24
ENDBRANCH  18  21
ENDBRANCH   1  18
BRANCH   1  29
ATOM     29  C   LIG d   1       3.838  -1.122  -5.647  0.00  0.00     0.090 C 
ATOM     30  H   LIG d   1       2.865  -0.870  -6.065  0.00  0.00     0.065 H 
BRANCH  29  31
ATOM     31  C   LIG d   1       4.026  -0.395  -4.340  0.00  0.00     0.023 A 
ATOM     32  C   LIG d   1       4.988  -0.825  -3.438  0.00  0.00     0.126 A 
ATOM     33  C   LIG d   1       5.162  -0.149  -2.238  0.00  0.00    -0.020 A 
ATOM     34  C   LIG d   1       4.369   0.941  -1.939  0.00  0.00    -0.058 A 
ATOM     35  H   LIG d   1       5.914  -0.479  -1.537  0.00  0.00     0.065 H 
ATOM     36  C   LIG d   1       3.406   1.364  -2.838  0.00  0.00    -0.061 A 
ATOM     37  H   LIG d   1       4.501   1.464  -1.004  0.00  0.00     0.062 H 
ATOM     38  C   LIG d   1       3.235   0.697  -4.036  0.00  0.00    -0.053 A 
ATOM     39  H   LIG d   1       2.788   2.217  -2.603  0.00  0.00     0.062 H 
ATOM     40  H   LIG d   1       2.483   1.029  -4.736  0.00  0.00     0.062 H 
BRANCH  32  41
ATOM     41  O   LIG d   1       5.764  -1.901  -3.732  0.00  0.00    -0.495 OA
BRANCH  41  42
ATOM     42  C   LIG d   1       7.128  -1.853  -3.309  0.00  0.00     0.079 C 
ATOM     43  H   LIG d   1       7.527  -0.853  -3.480  0.00  0.00     0.066 H 
ATOM     44  H   LIG d   1       7.188  -2.091  -2.247  0.00  0.00     0.066 H 
ATOM     45  H   LIG d   1       7.711  -2.578  -3.878  0.00  0.00     0.066 H 
ENDBRANCH  41  42
ENDBRANCH  32  41
ENDBRANCH  29  31
BRANCH  29  46
ATOM     46  O   LIG d   1       3.912  -2.531  -5.421  0.00  0.00    -0.387 OA
ATOM     47  H   LIG d   1       3.069  -2.935  -5.172  0.00  0.00     0.210 HD
ENDBRANCH  29  46
ENDBRANCH   1  29
TORSDOF 12
ENDMDL
MODEL 4
REMARK VINA RESULT:      -5.7      1.853      3.606
REMARK  12 active torsions:
REMARK  status: ('A' for Active; 'I' for Inactive)
REMARK    1  A    between atoms: C_1  and  O_2 
REMARK    2  A    between atoms: O_2  and  C_3 
REMARK    3  A    between atoms: C_8  and  C_9 
REMARK    4  A    between atoms: C_9  and  C_11 
REMARK    5  A    between atoms: C_9  and  C_15 
REMARK    6  A    between atoms: C_11  and  C_12 
REMARK    7  A    between atoms: C_12  and  C_13 
REMARK    8  A    between atoms: C_13  and  O_14 
REMARK    9  A    between atoms: C_15  and  C_17 
REMARK   10  A    between atoms: C_15  and  O_25 
REMARK   11  A    between atoms: C_22  and  O_23 
REMARK   12  A    between atoms: O_23  and  C_24 
ROOT
ATOM      1  C   LIG d   1       4.021   0.133  -4.988  0.00  0.00     0.018 C 
ATOM      2  H   LIG d   1       4.445   1.096  -5.275  0.00  0.00     0.038 H 
ENDROOT
BRANCH   1   3
ATOM      3  C   LIG d   1       5.131  -0.870  -4.804  0.00  0.00     0.000 A 
ATOM      4  C   LIG d   1       6.451  -0.444  -4.764  0.00  0.00     0.124 A 
ATOM      5  C   LIG d   1       7.470  -1.370  -4.590  0.00  0.00    -0.020 A 
ATOM      6  C   LIG d   1       7.169  -2.712  -4.467  0.00  0.00    -0.058 A 
ATOM      7  H   LIG d   1       8.498  -1.041  -4.553  0.00  0.00     0.065 H 
ATOM      8  C   LIG d   1       5.853  -3.135  -4.513  0.00  0.00    -0.061 A 
ATOM      9  H   LIG d   1       7.963  -3.433  -4.336  0.00  0.00     0.062 H 
ATOM     10  C   LIG d   1       4.835  -2.214  -4.681  0.00  0.00    -0.055 A 
ATOM     11  H   LIG d   1       5.620  -4.184  -4.417  0.00  0.00     0.062 H 
ATOM     12  H   LIG d   1       3.808  -2.546  -4.717  0.00  0.00     0.062 H 
BRANCH   4  13
ATOM     13  O   LIG d   1       6.745   0.876  -4.891  0.00  0.00    -0.495 OA
BRANCH  13  14
ATOM     14  C   LIG d   1       7.563   1.459  -3.875  0.00  0.00     0.079 C 
ATOM     15  H   LIG d   1       8.442   0.836  -3.714  0.00  0.00     0.066 H 
ATOM     16  H   LIG d   1       7.877   2.455  -4.189  0.00  0.00     0.066 H 
ATOM     17  H   LIG d   1       6.994   1.534  -2.949  0.00  0.00     0.066 H 
ENDBRANCH  13  14
ENDBRANCH   4  13
ENDBRANCH   1   3
BRANCH   1  18
ATOM     18  C   LIG d   1       3.250   0.286  -3.676  0.00  0.00    -0.041 C 
ATOM     19  H   LIG d   1       3.342  -0.630  -3.091  0.00  0.00     0.027 H 
ATOM     20  H   LIG d   1       2.199   0.473  -3.892  0.00  0.00     0.027 H 
BRANCH  18  21
ATOM     21  C   LIG d   1       3.824   1.459  -2.880  0.00  0.00    -0.029 C 
ATOM     22  H   LIG d   1       3.011   2.105  -2.546  0.00  0.00     0.029 H 
ATOM     23  H   LIG d   1       4.504   2.030  -3.512  0.00  0.00     0.029 H 
BRANCH  21  24
ATOM     24  C   LIG d   1       4.585   0.927  -1.663  0.00  0.00     0.044 C 
ATOM     25  H   LIG d   1       5.651   1.111  -1.793  0.00  0.00     0.056 H 
ATOM     26  H   LIG d   1       4.234   1.436  -0.765  0.00  0.00     0.056 H 
BRANCH  24  27
ATOM     27  O   LIG d   1       4.356  -0.477  -1.535  0.00  0.00    -0.395 OA
ATOM     28  H   LIG d   1       3.631  -0.809  -2.082  0.00  0.00     0.209 HD
ENDBRANCH  24  27
ENDBRANCH  21  24
ENDBRANCH  18  21
ENDBRANCH   1  18
BRANCH   1  29
ATOM     29  C   LIG d   1       3.071  -0.354  -6.084  0.00  0.00     0.090 C 
ATOM     30  H   LIG d   1       3.205  -1.425  -6.231  0.00  0.00     0.065 H 
BRANCH  29  31
ATOM     31  C   LIG d   1       3.377   0.371  -7.370  0.00  0.00     0.023 A 
ATOM     32  C   LIG d   1       4.168  -0.234  -8.336  0.00  0.00     0.126 A 
ATOM     33  C   LIG d   1       4.443   0.433  -9.521  0.00  0.00    -0.020 A 
ATOM     34  C   LIG d   1       3.938   1.701  -9.732  0.00  0.00    -0.058 A 
ATOM     35  H   LIG d   1       5.054  -0.038 -10.277  0.00  0.00     0.065 H 
ATOM     36  C   LIG d   1       3.154   2.304  -8.765  0.00  0.00    -0.061 A 
ATOM     37  H   LIG d   1       4.155   2.223 -10.652  0.00  0.00     0.062 H 
ATOM     38  C   LIG d   1       2.874   1.639  -7.586  0.00  0.00    -0.053 A 
ATOM     39  H   LIG d   1       2.760   3.296  -8.931  0.00  0.00     0.062 H 
ATOM     40  H   LIG d   1       2.262   2.112  -6.832  0.00  0.00     0.062 H 
BRANCH  32  41
ATOM     41  O   LIG d   1       4.668  -1.480  -8.125  0.00  0.00    -0.495 OA
BRANCH  41  42
ATOM     42  C   LIG d   1       6.075  -1.654  -8.305  0.00  0.00     0.079 C 
ATOM     43  H   LIG d   1       6.411  -1.049  -9.147  0.00  0.00     0.066 H 
ATOM     44  H   LIG d   1       6.598  -1.343  -7.402  0.00  0.00     0.066 H 
ATOM     45  H   LIG d   1       6.288  -2.705  -8.506  0.00  0.00     0.066 H 
ENDBRANCH  41  42
ENDBRANCH  32  41
ENDBRANCH  29  31
BRANCH  29  46
ATOM     46  O   LIG d   1       1.722  -0.088  -5.698  0.00  0.00    -0.387 OA
ATOM     47  H   LIG d   1       1.455  -0.519  -4.875  0.00  0.00     0.210 HD
ENDBRANCH  29  46
ENDBRANCH   1  29
TORSDOF 12
ENDMDL
MODEL 5
REMARK VINA RESULT:      -5.6      1.525      2.116
REMARK  12 active torsions:
REMARK  status: ('A' for Active; 'I' for Inactive)
REMARK    1  A    between atoms: C_1  and  O_2 
REMARK    2  A    between atoms: O_2  and  C_3 
REMARK    3  A    between atoms: C_8  and  C_9 
REMARK    4  A    between atoms: C_9  and  C_11 
REMARK    5  A    between atoms: C_9  and  C_15 
REMARK    6  A    between atoms: C_11  and  C_12 
REMARK    7  A    between atoms: C_12  and  C_13 
REMARK    8  A    between atoms: C_13  and  O_14 
REMARK    9  A    between atoms: C_15  and  C_17 
REMARK   10  A    between atoms: C_15  and  O_25 
REMARK   11  A    between atoms: C_22  and  O_23 
REMARK   12  A    between atoms: O_23  and  C_24 
ROOT
ATOM      1  C   LIG d   1       4.498  -1.470  -6.236  0.00  0.00     0.018 C 
ATOM      2  H   LIG d   1       3.510  -1.293  -6.659  0.00  0.00     0.038 H 
ENDROOT
BRANCH   1   3
ATOM      3  C   LIG d   1       4.439  -1.313  -4.738  0.00  0.00     0.000 A 
ATOM      4  C   LIG d   1       3.769  -0.234  -4.180  0.00  0.00     0.124 A 
ATOM      5  C   LIG d   1       3.711  -0.096  -2.800  0.00  0.00    -0.020 A 
ATOM      6  C   LIG d   1       4.330  -1.025  -1.987  0.00  0.00    -0.058 A 
ATOM      7  H   LIG d   1       3.186   0.741  -2.363  0.00  0.00     0.065 H 
ATOM      8  C   LIG d   1       5.002  -2.097  -2.546  0.00  0.00    -0.061 A 
ATOM      9  H   LIG d   1       4.289  -0.915  -0.913  0.00  0.00     0.062 H 
ATOM     10  C   LIG d   1       5.056  -2.240  -3.920  0.00  0.00    -0.055 A 
ATOM     11  H   LIG d   1       5.485  -2.822  -1.909  0.00  0.00     0.062 H 
ATOM     12  H   LIG d   1       5.582  -3.078  -4.355  0.00  0.00     0.062 H 
BRANCH   4  13
ATOM     13  O   LIG d   1       3.167   0.682  -4.982  0.00  0.00    -0.495 OA
BRANCH  13  14
ATOM     14  C   LIG d   1       1.759   0.540  -5.186  0.00  0.00     0.079 C 
ATOM     15  H   LIG d   1       1.577   0.096  -6.165  0.00  0.00     0.066 H 
ATOM     16  H   LIG d   1       1.344  -0.104  -4.412  0.00  0.00     0.066 H 
ATOM     17  H   LIG d   1       1.284   1.520  -5.137  0.00  0.00     0.066 H 
ENDBRANCH  13  14
ENDBRANCH   4  13
ENDBRANCH   1   3
BRANCH   1  18
ATOM     18  C   LIG d   1       4.956  -2.887  -6.583  0.00  0.00    -0.041 C 
ATOM     19  H   LIG d   1       4.907  -3.514  -5.692  0.00  0.00     0.027 H 
ATOM     20  H   LIG d   1       5.981  -2.858  -6.950  0.00  0.00     0.027 H 
BRANCH  18  21
ATOM     21  C   LIG d   1       4.043  -3.468  -7.664  0.00  0.00    -0.029 C 
ATOM     22  H   LIG d   1       4.504  -3.329  -8.642  0.00  0.00     0.029 H 
ATOM     23  H   LIG d   1       3.080  -2.956  -7.641  0.00  0.00     0.029 H 
BRANCH  21  24
ATOM     24  C   LIG d   1       3.833  -4.962  -7.407  0.00  0.00     0.044 C 
ATOM     25  H   LIG d   1       3.259  -5.394  -8.227  0.00  0.00     0.056 H 
ATOM     26  H   LIG d   1       4.801  -5.458  -7.338  0.00  0.00     0.056 H 
BRANCH  24  27
ATOM     27  O   LIG d   1       3.118  -5.138  -6.183  0.00  0.00    -0.395 OA
ATOM     28  H   LIG d   1       3.395  -5.913  -5.674  0.00  0.00     0.209 HD
ENDBRANCH  24  27
ENDBRANCH  21  24
ENDBRANCH  18  21
ENDBRANCH   1  18
BRANCH   1  29
ATOM     29  C   LIG d   1       5.490  -0.458  -6.814  0.00  0.00     0.090 C 
ATOM     30  H   LIG d   1       5.831   0.210  -6.024  0.00  0.00     0.065 H 
BRANCH  29  31
ATOM     31  C   LIG d   1       4.813   0.347  -7.894  0.00  0.00     0.023 A 
ATOM     32  C   LIG d   1       5.469   1.426  -8.469  0.00  0.00     0.126 A 
ATOM     33  C   LIG d   1       4.845   2.162  -9.466  0.00  0.00    -0.020 A 
ATOM     34  C   LIG d   1       3.569   1.827  -9.875  0.00  0.00    -0.058 A 
ATOM     35  H   LIG d   1       5.356   2.999  -9.919  0.00  0.00     0.065 H 
ATOM     36  C   LIG d   1       2.916   0.755  -9.296  0.00  0.00    -0.061 A 
ATOM     37  H   LIG d   1       3.082   2.402 -10.648  0.00  0.00     0.062 H 
ATOM     38  C   LIG d   1       3.537   0.016  -8.306  0.00  0.00    -0.053 A 
ATOM     39  H   LIG d   1       1.918   0.494  -9.617  0.00  0.00     0.062 H 
ATOM     40  H   LIG d   1       3.024  -0.820  -7.855  0.00  0.00     0.062 H 
BRANCH  32  41
ATOM     41  O   LIG d   1       6.722   1.757  -8.062  0.00  0.00    -0.495 OA
BRANCH  41  42
ATOM     42  C   LIG d   1       7.731   1.844  -9.071  0.00  0.00     0.079 C 
ATOM     43  H   LIG d   1       7.274   2.126 -10.019  0.00  0.00     0.066 H 
ATOM     44  H   LIG d   1       8.467   2.594  -8.785  0.00  0.00     0.066 H 
ATOM     45  H   LIG d   1       8.221   0.876  -9.178  0.00  0.00     0.066 H 
ENDBRANCH  41  42
ENDBRANCH  32  41
ENDBRANCH  29  31
BRANCH  29  46
ATOM     46  O   LIG d   1       6.609  -1.151  -7.370  0.00  0.00    -0.387 OA
ATOM     47  H   LIG d   1       6.502  -1.391  -8.300  0.00  0.00     0.210 HD
ENDBRANCH  29  46
ENDBRANCH   1  29
TORSDOF 12
ENDMDL
MODEL 6
REMARK VINA RESULT:      -5.6      2.688      4.824
REMARK  12 active torsions:
REMARK  status: ('A' for Active; 'I' for Inactive)
REMARK    1  A    between atoms: C_1  and  O_2 
REMARK    2  A    between atoms: O_2  and  C_3 
REMARK    3  A    between atoms: C_8  and  C_9 
REMARK    4  A    between atoms: C_9  and  C_11 
REMARK    5  A    between atoms: C_9  and  C_15 
REMARK    6  A    between atoms: C_11  and  C_12 
REMARK    7  A    between atoms: C_12  and  C_13 
REMARK    8  A    between atoms: C_13  and  O_14 
REMARK    9  A    between atoms: C_15  and  C_17 
REMARK   10  A    between atoms: C_15  and  O_25 
REMARK   11  A    between atoms: C_22  and  O_23 
REMARK   12  A    between atoms: O_23  and  C_24 
ROOT
ATOM      1  C   LIG d   1       6.499  -3.250  -5.533  0.00  0.00     0.018 C 
ATOM      2  H   LIG d   1       6.313  -3.519  -4.493  0.00  0.00     0.038 H 
ENDROOT
BRANCH   1   3
ATOM      3  C   LIG d   1       7.924  -2.785  -5.684  0.00  0.00     0.000 A 
ATOM      4  C   LIG d   1       8.839  -3.010  -4.666  0.00  0.00     0.124 A 
ATOM      5  C   LIG d   1      10.153  -2.585  -4.811  0.00  0.00    -0.020 A 
ATOM      6  C   LIG d   1      10.542  -1.931  -5.963  0.00  0.00    -0.058 A 
ATOM      7  H   LIG d   1      10.868  -2.764  -4.022  0.00  0.00     0.065 H 
ATOM      8  C   LIG d   1       9.627  -1.702  -6.974  0.00  0.00    -0.061 A 
ATOM      9  H   LIG d   1      11.564  -1.596  -6.074  0.00  0.00     0.062 H 
ATOM     10  C   LIG d   1       8.320  -2.129  -6.835  0.00  0.00    -0.055 A 
ATOM     11  H   LIG d   1       9.934  -1.190  -7.873  0.00  0.00     0.062 H 
ATOM     12  H   LIG d   1       7.606  -1.950  -7.626  0.00  0.00     0.062 H 
BRANCH   4  13
ATOM     13  O   LIG d   1       8.452  -3.649  -3.531  0.00  0.00    -0.495 OA
BRANCH  13  14
ATOM     14  C   LIG d   1       9.484  -4.202  -2.713  0.00  0.00     0.079 C 
ATOM     15  H   LIG d   1       9.142  -5.144  -2.283  0.00  0.00     0.066 H 
ATOM     16  H   LIG d   1      10.371  -4.381  -3.321  0.00  0.00     0.066 H 
ATOM     17  H   LIG d   1       9.728  -3.503  -1.913  0.00  0.00     0.066 H 
ENDBRANCH  13  14
ENDBRANCH   4  13
ENDBRANCH   1   3
BRANCH   1  18
ATOM     18  C   LIG d   1       6.262  -4.469  -6.426  0.00  0.00    -0.041 C 
ATOM     19  H   LIG d   1       7.220  -4.855  -6.776  0.00  0.00     0.027 H 
ATOM     20  H   LIG d   1       5.653  -4.180  -7.282  0.00  0.00     0.027 H 
BRANCH  18  21
ATOM     21  C   LIG d   1       5.537  -5.554  -5.627  0.00  0.00    -0.029 C 
ATOM     22  H   LIG d   1       5.233  -5.151  -4.661  0.00  0.00     0.029 H 
ATOM     23  H   LIG d   1       6.206  -6.401  -5.473  0.00  0.00     0.029 H 
BRANCH  21  24
ATOM     24  C   LIG d   1       4.299  -6.016  -6.400  0.00  0.00     0.044 C 
ATOM     25  H   LIG d   1       4.538  -6.082  -7.461  0.00  0.00     0.056 H 
ATOM     26  H   LIG d   1       3.988  -6.994  -6.034  0.00  0.00     0.056 H 
BRANCH  24  27
ATOM     27  O   LIG d   1       3.241  -5.076  -6.208  0.00  0.00    -0.395 OA
ATOM     28  H   LIG d   1       3.469  -4.341  -5.622  0.00  0.00     0.209 HD
ENDBRANCH  24  27
ENDBRANCH  21  24
ENDBRANCH  18  21
ENDBRANCH   1  18
BRANCH   1  29
ATOM     29  C   LIG d   1       5.549  -2.123  -5.946  0.00  0.00     0.090 C 
ATOM     30  H   LIG d   1       6.129  -1.258  -6.265  0.00  0.00     0.065 H 
BRANCH  29  31
ATOM     31  C   LIG d   1       4.683  -1.742  -4.773  0.00  0.00     0.023 A 
ATOM     32  C   LIG d   1       3.927  -0.579  -4.817  0.00  0.00     0.126 A 
ATOM     33  C   LIG d   1       3.127  -0.234  -3.738  0.00  0.00    -0.020 A 
ATOM     34  C   LIG d   1       3.092  -1.041  -2.619  0.00  0.00    -0.058 A 
ATOM     35  H   LIG d   1       2.534   0.669  -3.773  0.00  0.00     0.065 H 
ATOM     36  C   LIG d   1       3.850  -2.197  -2.575  0.00  0.00    -0.061 A 
ATOM     37  H   LIG d   1       2.472  -0.771  -1.777  0.00  0.00     0.062 H 
ATOM     38  C   LIG d   1       4.644  -2.547  -3.651  0.00  0.00    -0.053 A 
ATOM     39  H   LIG d   1       3.821  -2.828  -1.699  0.00  0.00     0.062 H 
ATOM     40  H   LIG d   1       5.235  -3.450  -3.614  0.00  0.00     0.062 H 
BRANCH  32  41
ATOM     41  O   LIG d   1       3.967   0.217  -5.918  0.00  0.00    -0.495 OA
BRANCH  41  42
ATOM     42  C   LIG d   1       2.779   0.292  -6.709  0.00  0.00     0.079 C 
ATOM     43  H   LIG d   1       1.924   0.492  -6.062  0.00  0.00     0.066 H 
ATOM     44  H   LIG d   1       2.878   1.095  -7.438  0.00  0.00     0.066 H 
ATOM     45  H   LIG d   1       2.627  -0.655  -7.227  0.00  0.00     0.066 H 
ENDBRANCH  41  42
ENDBRANCH  32  41
ENDBRANCH  29  31
BRANCH  29  46
ATOM     46  O   LIG d   1       4.722  -2.567  -7.023  0.00  0.00    -0.387 OA
ATOM     47  H   LIG d   1       4.248  -1.857  -7.475  0.00  0.00     0.210 HD
ENDBRANCH  29  46
ENDBRANCH   1  29
TORSDOF 12
ENDMDL
MODEL 7
REMARK VINA RESULT:      -5.6      2.172      4.179
REMARK  12 active torsions:
REMARK  status: ('A' for Active; 'I' for Inactive)
REMARK    1  A    between atoms: C_1  and  O_2 
REMARK    2  A    between atoms: O_2  and  C_3 
REMARK    3  A    between atoms: C_8  and  C_9 
REMARK    4  A    between atoms: C_9  and  C_11 
REMARK    5  A    between atoms: C_9  and  C_15 
REMARK    6  A    between atoms: C_11  and  C_12 
REMARK    7  A    between atoms: C_12  and  C_13 
REMARK    8  A    between atoms: C_13  and  O_14 
REMARK    9  A    between atoms: C_15  and  C_17 
REMARK   10  A    between atoms: C_15  and  O_25 
REMARK   11  A    between atoms: C_22  and  O_23 
REMARK   12  A    between atoms: O_23  and  C_24 
ROOT
ATOM      1  C   LIG d   1       5.282  -0.887  -3.897  0.00  0.00     0.018 C 
ATOM      2  H   LIG d   1       5.159   0.157  -4.188  0.00  0.00     0.038 H 
ENDROOT
BRANCH   1   3
ATOM      3  C   LIG d   1       6.673  -1.346  -4.250  0.00  0.00     0.000 A 
ATOM      4  C   LIG d   1       7.471  -0.570  -5.078  0.00  0.00     0.124 A 
ATOM      5  C   LIG d   1       8.754  -0.993  -5.397  0.00  0.00    -0.020 A 
ATOM      6  C   LIG d   1       9.229  -2.190  -4.898  0.00  0.00    -0.058 A 
ATOM      7  H   LIG d   1       9.378  -0.389  -6.038  0.00  0.00     0.065 H 
ATOM      8  C   LIG d   1       8.430  -2.965  -4.077  0.00  0.00    -0.061 A 
ATOM      9  H   LIG d   1      10.226  -2.522  -5.149  0.00  0.00     0.062 H 
ATOM     10  C   LIG d   1       7.154  -2.543  -3.753  0.00  0.00    -0.055 A 
ATOM     11  H   LIG d   1       8.803  -3.900  -3.688  0.00  0.00     0.062 H 
ATOM     12  H   LIG d   1       6.531  -3.150  -3.112  0.00  0.00     0.062 H 
BRANCH   4  13
ATOM     13  O   LIG d   1       6.999   0.604  -5.573  0.00  0.00    -0.495 OA
BRANCH  13  14
ATOM     14  C   LIG d   1       7.139   0.820  -6.979  0.00  0.00     0.079 C 
ATOM     15  H   LIG d   1       6.153   0.876  -7.438  0.00  0.00     0.066 H 
ATOM     16  H   LIG d   1       7.674   1.754  -7.150  0.00  0.00     0.066 H 
ATOM     17  H   LIG d   1       7.700  -0.004  -7.418  0.00  0.00     0.066 H 
ENDBRANCH  13  14
ENDBRANCH   4  13
ENDBRANCH   1   3
BRANCH   1  18
ATOM     18  C   LIG d   1       5.066  -1.025  -2.389  0.00  0.00    -0.041 C 
ATOM     19  H   LIG d   1       6.010  -1.285  -1.909  0.00  0.00     0.027 H 
ATOM     20  H   LIG d   1       4.334  -1.808  -2.197  0.00  0.00     0.027 H 
BRANCH  18  21
ATOM     21  C   LIG d   1       4.556   0.302  -1.823  0.00  0.00    -0.029 C 
ATOM     22  H   LIG d   1       5.018   0.485  -0.853  0.00  0.00     0.029 H 
ATOM     23  H   LIG d   1       3.473   0.254  -1.705  0.00  0.00     0.029 H 
BRANCH  21  24
ATOM     24  C   LIG d   1       4.915   1.438  -2.783  0.00  0.00     0.044 C 
ATOM     25  H   LIG d   1       5.550   2.159  -2.269  0.00  0.00     0.056 H 
ATOM     26  H   LIG d   1       5.446   1.032  -3.644  0.00  0.00     0.056 H 
BRANCH  24  27
ATOM     27  O   LIG d   1       3.719   2.085  -3.223  0.00  0.00    -0.395 OA
ATOM     28  H   LIG d   1       3.662   2.196  -4.181  0.00  0.00     0.209 HD
ENDBRANCH  24  27
ENDBRANCH  21  24
ENDBRANCH  18  21
ENDBRANCH   1  18
BRANCH   1  29
ATOM     29  C   LIG d   1       4.258  -1.748  -4.639  0.00  0.00     0.090 C 
ATOM     30  H   LIG d   1       4.648  -2.759  -4.754  0.00  0.00     0.065 H 
BRANCH  29  31
ATOM     31  C   LIG d   1       3.996  -1.154  -6.000  0.00  0.00     0.023 A 
ATOM     32  C   LIG d   1       4.463  -1.795  -7.138  0.00  0.00     0.126 A 
ATOM     33  C   LIG d   1       4.215  -1.249  -8.389  0.00  0.00    -0.020 A 
ATOM     34  C   LIG d   1       3.515  -0.064  -8.499  0.00  0.00    -0.058 A 
ATOM     35  H   LIG d   1       4.573  -1.749  -9.278  0.00  0.00     0.065 H 
ATOM     36  C   LIG d   1       3.055   0.576  -7.361  0.00  0.00    -0.061 A 
ATOM     37  H   LIG d   1       3.325   0.364  -9.472  0.00  0.00     0.062 H 
ATOM     38  C   LIG d   1       3.296   0.031  -6.114  0.00  0.00    -0.053 A 
ATOM     39  H   LIG d   1       2.508   1.502  -7.449  0.00  0.00     0.062 H 
ATOM     40  H   LIG d   1       2.936   0.532  -5.228  0.00  0.00     0.062 H 
BRANCH  32  41
ATOM     41  O   LIG d   1       5.156  -2.959  -7.029  0.00  0.00    -0.495 OA
BRANCH  41  42
ATOM     42  C   LIG d   1       6.441  -3.010  -7.652  0.00  0.00     0.079 C 
ATOM     43  H   LIG d   1       6.756  -4.049  -7.752  0.00  0.00     0.066 H 
ATOM     44  H   LIG d   1       6.385  -2.551  -8.639  0.00  0.00     0.066 H 
ATOM     45  H   LIG d   1       7.164  -2.470  -7.040  0.00  0.00     0.066 H 
ENDBRANCH  41  42
ENDBRANCH  32  41
ENDBRANCH  29  31
BRANCH  29  46
ATOM     46  O   LIG d   1       3.039  -1.788  -3.895  0.00  0.00    -0.387 OA
ATOM     47  H   LIG d   1       2.243  -1.750  -4.441  0.00  0.00     0.210 HD
ENDBRANCH  29  46
ENDBRANCH   1  29
TORSDOF 12
ENDMDL
MODEL 8
REMARK VINA RESULT:      -5.6      2.060      5.831
REMARK  12 active torsions:
REMARK  status: ('A' for Active; 'I' for Inactive)
REMARK    1  A    between atoms: C_1  and  O_2 
REMARK    2  A    between atoms: O_2  and  C_3 
REMARK    3  A    between atoms: C_8  and  C_9 
REMARK    4  A    between atoms: C_9  and  C_11 
REMARK    5  A    between atoms: C_9  and  C_15 
REMARK    6  A    between atoms: C_11  and  C_12 
REMARK    7  A    between atoms: C_12  and  C_13 
REMARK    8  A    between atoms: C_13  and  O_14 
REMARK    9  A    between atoms: C_15  and  C_17 
REMARK   10  A    between atoms: C_15  and  O_25 
REMARK   11  A    between atoms: C_22  and  O_23 
REMARK   12  A    between atoms: O_23  and  C_24 
ROOT
ATOM      1  C   LIG d   1       6.573  -2.749  -5.155  0.00  0.00     0.018 C 
ATOM      2  H   LIG d   1       5.541  -2.416  -5.265  0.00  0.00     0.038 H 
ENDROOT
BRANCH   1   3
ATOM      3  C   LIG d   1       6.627  -4.253  -5.250  0.00  0.00     0.000 A 
ATOM      4  C   LIG d   1       5.491  -4.967  -5.602  0.00  0.00     0.124 A 
ATOM      5  C   LIG d   1       5.546  -6.351  -5.694  0.00  0.00    -0.020 A 
ATOM      6  C   LIG d   1       6.727  -7.014  -5.423  0.00  0.00    -0.058 A 
ATOM      7  H   LIG d   1       4.665  -6.909  -5.973  0.00  0.00     0.065 H 
ATOM      8  C   LIG d   1       7.856  -6.300  -5.065  0.00  0.00    -0.061 A 
ATOM      9  H   LIG d   1       6.769  -8.091  -5.489  0.00  0.00     0.062 H 
ATOM     10  C   LIG d   1       7.806  -4.921  -4.979  0.00  0.00    -0.055 A 
ATOM     11  H   LIG d   1       8.778  -6.820  -4.854  0.00  0.00     0.062 H 
ATOM     12  H   LIG d   1       8.690  -4.365  -4.700  0.00  0.00     0.062 H 
BRANCH   4  13
ATOM     13  O   LIG d   1       4.329  -4.313  -5.863  0.00  0.00    -0.495 OA
BRANCH  13  14
ATOM     14  C   LIG d   1       3.861  -4.334  -7.213  0.00  0.00     0.079 C 
ATOM     15  H   LIG d   1       4.362  -5.133  -7.759  0.00  0.00     0.066 H 
ATOM     16  H   LIG d   1       2.785  -4.508  -7.221  0.00  0.00     0.066 H 
ATOM     17  H   LIG d   1       4.078  -3.377  -7.688  0.00  0.00     0.066 H 
ENDBRANCH  13  14
ENDBRANCH   4  13
ENDBRANCH   1   3
BRANCH   1  18
ATOM     18  C   LIG d   1       7.429  -2.138  -6.266  0.00  0.00    -0.041 C 
ATOM     19  H   LIG d   1       8.141  -2.880  -6.627  0.00  0.00     0.027 H 
ATOM     20  H   LIG d   1       7.969  -1.277  -5.875  0.00  0.00     0.027 H 
BRANCH  18  21
ATOM     21  C   LIG d   1       6.527  -1.694  -7.419  0.00  0.00    -0.029 C 
ATOM     22  H   LIG d   1       6.117  -2.572  -7.918  0.00  0.00     0.029 H 
ATOM     23  H   LIG d   1       7.109  -1.110  -8.132  0.00  0.00     0.029 H 
BRANCH  21  24
ATOM     24  C   LIG d   1       5.383  -0.837  -6.872  0.00  0.00     0.044 C 
ATOM     25  H   LIG d   1       4.559  -0.834  -7.585  0.00  0.00     0.056 H 
ATOM     26  H   LIG d   1       5.042  -1.249  -5.922  0.00  0.00     0.056 H 
BRANCH  24  27
ATOM     27  O   LIG d   1       5.844   0.501  -6.672  0.00  0.00    -0.395 OA
ATOM     28  H   LIG d   1       6.563   0.577  -6.030  0.00  0.00     0.209 HD
ENDBRANCH  24  27
ENDBRANCH  21  24
ENDBRANCH  18  21
ENDBRANCH   1  18
BRANCH   1  29
ATOM     29  C   LIG d   1       7.111  -2.305  -3.794  0.00  0.00     0.090 C 
ATOM     30  H   LIG d   1       7.194  -3.170  -3.136  0.00  0.00     0.065 H 
BRANCH  29  31
ATOM     31  C   LIG d   1       6.166  -1.301  -3.184  0.00  0.00     0.023 A 
ATOM     32  C   LIG d   1       6.397   0.057  -3.349  0.00  0.00     0.126 A 
ATOM     33  C   LIG d   1       5.523   0.979  -2.792  0.00  0.00    -0.020 A 
ATOM     34  C   LIG d   1       4.432   0.544  -2.065  0.00  0.00    -0.058 A 
ATOM     35  H   LIG d   1       5.698   2.037  -2.923  0.00  0.00     0.065 H 
ATOM     36  C   LIG d   1       4.208  -0.811  -1.898  0.00  0.00    -0.061 A 
ATOM     37  H   LIG d   1       3.754   1.261  -1.628  0.00  0.00     0.062 H 
ATOM     38  C   LIG d   1       5.074  -1.731  -2.457  0.00  0.00    -0.053 A 
ATOM     39  H   LIG d   1       3.354  -1.149  -1.329  0.00  0.00     0.062 H 
ATOM     40  H   LIG d   1       4.896  -2.788  -2.324  0.00  0.00     0.062 H 
BRANCH  32  41
ATOM     41  O   LIG d   1       7.474   0.484  -4.060  0.00  0.00    -0.495 OA
BRANCH  41  42
ATOM     42  C   LIG d   1       7.887   1.838  -3.864  0.00  0.00     0.079 C 
ATOM     43  H   LIG d   1       7.243   2.502  -4.439  0.00  0.00     0.066 H 
ATOM     44  H   LIG d   1       7.816   2.089  -2.806  0.00  0.00     0.066 H 
ATOM     45  H   LIG d   1       8.918   1.955  -4.197  0.00  0.00     0.066 H 
ENDBRANCH  41  42
ENDBRANCH  32  41
ENDBRANCH  29  31
BRANCH  29  46
ATOM     46  O   LIG d   1       8.397  -1.707  -3.961  0.00  0.00    -0.387 OA
ATOM     47  H   LIG d   1       9.126  -2.236  -3.612  0.00  0.00     0.210 HD
ENDBRANCH  29  46
ENDBRANCH   1  29
TORSDOF 12
ENDMDL
MODEL 9
REMARK VINA RESULT:      -5.5      1.669      1.966
REMARK  12 active torsions:
REMARK  status: ('A' for Active; 'I' for Inactive)
REMARK    1  A    between atoms: C_1  and  O_2 
REMARK    2  A    between atoms: O_2  and  C_3 
REMARK    3  A    between atoms: C_8  and  C_9 
REMARK    4  A    between atoms: C_9  and  C_11 
REMARK    5  A    between atoms: C_9  and  C_15 
REMARK    6  A    between atoms: C_11  and  C_12 
REMARK    7  A    between atoms: C_12  and  C_13 
REMARK    8  A    between atoms: C_13  and  O_14 
REMARK    9  A    between atoms: C_15  and  C_17 
REMARK   10  A    between atoms: C_15  and  O_25 
REMARK   11  A    between atoms: C_22  and  O_23 
REMARK   12  A    between atoms: O_23  and  C_24 
ROOT
ATOM      1  C   LIG d   1       5.280  -1.376  -5.956  0.00  0.00     0.018 C 
ATOM      2  H   LIG d   1       4.759  -2.236  -6.376  0.00  0.00     0.038 H 
ENDROOT
BRANCH   1   3
ATOM      3  C   LIG d   1       4.950  -1.256  -4.490  0.00  0.00     0.000 A 
ATOM      4  C   LIG d   1       5.376  -0.147  -3.772  0.00  0.00     0.124 A 
ATOM      5  C   LIG d   1       5.065  -0.036  -2.424  0.00  0.00    -0.020 A 
ATOM      6  C   LIG d   1       4.343  -1.033  -1.799  0.00  0.00    -0.058 A 
ATOM      7  H   LIG d   1       5.391   0.828  -1.864  0.00  0.00     0.065 H 
ATOM      8  C   LIG d   1       3.924  -2.140  -2.515  0.00  0.00    -0.061 A 
ATOM      9  H   LIG d   1       4.105  -0.949  -0.748  0.00  0.00     0.062 H 
ATOM     10  C   LIG d   1       4.227  -2.250  -3.859  0.00  0.00    -0.055 A 
ATOM     11  H   LIG d   1       3.360  -2.918  -2.024  0.00  0.00     0.062 H 
ATOM     12  H   LIG d   1       3.900  -3.116  -4.417  0.00  0.00     0.062 H 
BRANCH   4  13
ATOM     13  O   LIG d   1       6.092   0.829  -4.389  0.00  0.00    -0.495 OA
BRANCH  13  14
ATOM     14  C   LIG d   1       7.291   1.261  -3.743  0.00  0.00     0.079 C 
ATOM     15  H   LIG d   1       8.119   0.622  -4.049  0.00  0.00     0.066 H 
ATOM     16  H   LIG d   1       7.504   2.292  -4.025  0.00  0.00     0.066 H 
ATOM     17  H   LIG d   1       7.165   1.200  -2.662  0.00  0.00     0.066 H 
ENDBRANCH  13  14
ENDBRANCH   4  13
ENDBRANCH   1   3
BRANCH   1  18
ATOM     18  C   LIG d   1       6.789  -1.562  -6.124  0.00  0.00    -0.041 C 
ATOM     19  H   LIG d   1       7.269  -1.548  -5.146  0.00  0.00     0.027 H 
ATOM     20  H   LIG d   1       7.188  -0.753  -6.735  0.00  0.00     0.027 H 
BRANCH  18  21
ATOM     21  C   LIG d   1       7.065  -2.902  -6.809  0.00  0.00    -0.029 C 
ATOM     22  H   LIG d   1       7.829  -2.767  -7.576  0.00  0.00     0.029 H 
ATOM     23  H   LIG d   1       6.149  -3.270  -7.270  0.00  0.00     0.029 H 
BRANCH  21  24
ATOM     24  C   LIG d   1       7.557  -3.914  -5.771  0.00  0.00     0.044 C 
ATOM     25  H   LIG d   1       8.275  -4.589  -6.236  0.00  0.00     0.056 H 
ATOM     26  H   LIG d   1       8.034  -3.385  -4.946  0.00  0.00     0.056 H 
BRANCH  24  27
ATOM     27  O   LIG d   1       6.447  -4.665  -5.277  0.00  0.00    -0.395 OA
ATOM     28  H   LIG d   1       5.602  -4.199  -5.329  0.00  0.00     0.209 HD
ENDBRANCH  24  27
ENDBRANCH  21  24
ENDBRANCH  18  21
ENDBRANCH   1  18
BRANCH   1  29
ATOM     29  C   LIG d   1       4.838  -0.105  -6.683  0.00  0.00     0.090 C 
ATOM     30  H   LIG d   1       4.355   0.569  -5.977  0.00  0.00     0.065 H 
BRANCH  29  31
ATOM     31  C   LIG d   1       3.866  -0.466  -7.778  0.00  0.00     0.023 A 
ATOM     32  C   LIG d   1       3.185   0.533  -8.458  0.00  0.00     0.126 A 
ATOM     33  C   LIG d   1       2.296   0.198  -9.468  0.00  0.00    -0.020 A 
ATOM     34  C   LIG d   1       2.081  -1.128  -9.787  0.00  0.00    -0.058 A 
ATOM     35  H   LIG d   1       1.768   0.975 -10.003  0.00  0.00     0.065 H 
ATOM     36  C   LIG d   1       2.757  -2.123  -9.103  0.00  0.00    -0.061 A 
ATOM     37  H   LIG d   1       1.385  -1.390 -10.570  0.00  0.00     0.062 H 
ATOM     38  C   LIG d   1       3.648  -1.791  -8.100  0.00  0.00    -0.053 A 
ATOM     39  H   LIG d   1       2.588  -3.159  -9.354  0.00  0.00     0.062 H 
ATOM     40  H   LIG d   1       4.175  -2.569  -7.567  0.00  0.00     0.062 H 
BRANCH  32  41
ATOM     41  O   LIG d   1       3.394   1.838  -8.140  0.00  0.00    -0.495 OA
BRANCH  41  42
ATOM     42  C   LIG d   1       3.950   2.673  -9.158  0.00  0.00     0.079 C 
ATOM     43  H   LIG d   1       3.150   3.059  -9.789  0.00  0.00     0.066 H 
ATOM     44  H   LIG d   1       4.481   3.505  -8.695  0.00  0.00     0.066 H 
ATOM     45  H   LIG d   1       4.644   2.092  -9.766  0.00  0.00     0.066 H 
ENDBRANCH  41  42
ENDBRANCH  32  41
ENDBRANCH  29  31
BRANCH  29  46
ATOM     46  O   LIG d   1       5.979   0.539  -7.254  0.00  0.00    -0.387 OA
ATOM     47  H   LIG d   1       6.804   0.049  -7.144  0.00  0.00     0.210 HD
ENDBRANCH  29  46
ENDBRANCH   1  29
TORSDOF 12
ENDMDL
MODEL 10
REMARK VINA RESULT:      -5.5      8.908     12.240
REMARK  12 active torsions:
REMARK  status: ('A' for Active; 'I' for Inactive)
REMARK    1  A    between atoms: C_1  and  O_2 
REMARK    2  A    between atoms: O_2  and  C_3 
REMARK    3  A    between atoms: C_8  and  C_9 
REMARK    4  A    between atoms: C_9  and  C_11 
REMARK    5  A    between atoms: C_9  and  C_15 
REMARK    6  A    between atoms: C_11  and  C_12 
REMARK    7  A    between atoms: C_12  and  C_13 
REMARK    8  A    between atoms: C_13  and  O_14 
REMARK    9  A    between atoms: C_15  and  C_17 
REMARK   10  A    between atoms: C_15  and  O_25 
REMARK   11  A    between atoms: C_22  and  O_23 
REMARK   12  A    between atoms: O_23  and  C_24 
ROOT
ATOM      1  C   LIG d   1      10.053   9.043  -1.532  0.00  0.00     0.018 C 
ATOM      2  H   LIG d   1      10.247   8.985  -2.603  0.00  0.00     0.038 H 
ENDROOT
BRANCH   1   3
ATOM      3  C   LIG d   1      11.360   9.170  -0.791  0.00  0.00     0.000 A 
ATOM      4  C   LIG d   1      12.560   9.063  -1.478  0.00  0.00     0.124 A 
ATOM      5  C   LIG d   1      13.762   9.186  -0.794  0.00  0.00    -0.020 A 
ATOM      6  C   LIG d   1      13.759   9.403   0.570  0.00  0.00    -0.058 A 
ATOM      7  H   LIG d   1      14.697   9.107  -1.327  0.00  0.00     0.065 H 
ATOM      8  C   LIG d   1      12.561   9.504   1.254  0.00  0.00    -0.061 A 
ATOM      9  H   LIG d   1      14.694   9.494   1.103  0.00  0.00     0.062 H 
ATOM     10  C   LIG d   1      11.363   9.388   0.573  0.00  0.00    -0.055 A 
ATOM     11  H   LIG d   1      12.562   9.674   2.319  0.00  0.00     0.062 H 
ATOM     12  H   LIG d   1      10.428   9.467   1.110  0.00  0.00     0.062 H 
BRANCH   4  13
ATOM     13  O   LIG d   1      12.560   8.843  -2.819  0.00  0.00    -0.495 OA
BRANCH  13  14
ATOM     14  C   LIG d   1      13.066   7.584  -3.271  0.00  0.00     0.079 C 
ATOM     15  H   LIG d   1      14.127   7.680  -3.497  0.00  0.00     0.066 H 
ATOM     16  H   LIG d   1      12.926   6.837  -2.490  0.00  0.00     0.066 H 
ATOM     17  H   LIG d   1      12.528   7.277  -4.167  0.00  0.00     0.066 H 
ENDBRANCH  13  14
ENDBRANCH   4  13
ENDBRANCH   1   3
BRANCH   1  18
ATOM     18  C   LIG d   1       9.179  10.263  -1.237  0.00  0.00    -0.041 C 
ATOM     19  H   LIG d   1       9.285  10.541  -0.188  0.00  0.00     0.027 H 
ATOM     20  H   LIG d   1       8.137  10.022  -1.445  0.00  0.00     0.027 H 
BRANCH  18  21
ATOM     21  C   LIG d   1       9.619  11.432  -2.121  0.00  0.00    -0.029 C 
ATOM     22  H   LIG d   1      10.645  11.270  -2.452  0.00  0.00     0.029 H 
ATOM     23  H   LIG d   1       9.563  12.360  -1.552  0.00  0.00     0.029 H 
BRANCH  21  24
ATOM     24  C   LIG d   1       8.698  11.525  -3.340  0.00  0.00     0.044 C 
ATOM     25  H   LIG d   1       8.869  12.472  -3.851  0.00  0.00     0.056 H 
ATOM     26  H   LIG d   1       8.910  10.700  -4.019  0.00  0.00     0.056 H 
BRANCH  24  27
ATOM     27  O   LIG d   1       7.337  11.453  -2.914  0.00  0.00    -0.395 OA
ATOM     28  H   LIG d   1       6.777  12.161  -3.262  0.00  0.00     0.209 HD
ENDBRANCH  24  27
ENDBRANCH  21  24
ENDBRANCH  18  21
ENDBRANCH   1  18
BRANCH   1  29
ATOM     29  C   LIG d   1       9.330   7.775  -1.074  0.00  0.00     0.090 C 
ATOM     30  H   LIG d   1       9.635   7.529  -0.058  0.00  0.00     0.065 H 
BRANCH  29  31
ATOM     31  C   LIG d   1       9.686   6.635  -1.994  0.00  0.00     0.023 A 
ATOM     32  C   LIG d   1      10.431   5.565  -1.517  0.00  0.00     0.126 A 
ATOM     33  C   LIG d   1      10.752   4.515  -2.365  0.00  0.00    -0.020 A 
ATOM     34  C   LIG d   1      10.341   4.541  -3.683  0.00  0.00    -0.058 A 
ATOM     35  H   LIG d   1      11.327   3.679  -1.994  0.00  0.00     0.065 H 
ATOM     36  C   LIG d   1       9.604   5.612  -4.157  0.00  0.00    -0.061 A 
ATOM     37  H   LIG d   1      10.595   3.726  -4.344  0.00  0.00     0.062 H 
ATOM     38  C   LIG d   1       9.278   6.657  -3.313  0.00  0.00    -0.053 A 
ATOM     39  H   LIG d   1       9.284   5.630  -5.188  0.00  0.00     0.062 H 
ATOM     40  H   LIG d   1       8.702   7.491  -3.686  0.00  0.00     0.062 H 
BRANCH  32  41
ATOM     41  O   LIG d   1      10.838   5.543  -0.221  0.00  0.00    -0.495 OA
BRANCH  41  42
ATOM     42  C   LIG d   1      12.241   5.673   0.021  0.00  0.00     0.079 C 
ATOM     43  H   LIG d   1      12.401   6.153   0.986  0.00  0.00     0.066 H 
ATOM     44  H   LIG d   1      12.701   4.686   0.026  0.00  0.00     0.066 H 
ATOM     45  H   LIG d   1      12.690   6.280  -0.765  0.00  0.00     0.066 H 
ENDBRANCH  41  42
ENDBRANCH  32  41
ENDBRANCH  29  31
BRANCH  29  46
ATOM     46  O   LIG d   1       7.919   7.991  -1.111  0.00  0.00    -0.387 OA
ATOM     47  H   LIG d   1       7.664   8.904  -1.302  0.00  0.00     0.210 HD
ENDBRANCH  29  46
ENDBRANCH   1  29
TORSDOF 12
ENDMDL
