MODEL 1
REMARK VINA RESULT:      -8.4      0.000      0.000
REMARK  1 active torsions:
REMARK  status: ('A' for Active; 'I' for Inactive)
REMARK    1  A    between atoms: C_18  and  C_19 
ROOT
ATOM      1  C   LIG d   1       3.849   1.046  -2.188  0.00  0.00    -0.061 A 
ATOM      2  C   LIG d   1       3.218  -0.182  -2.331  0.00  0.00    -0.061 A 
ATOM      3  C   LIG d   1       3.845  -1.222  -2.984  0.00  0.00    -0.047 A 
ATOM      4  C   LIG d   1       5.124  -1.036  -3.505  0.00  0.00     0.067 A 
ATOM      5  C   LIG d   1       5.762   0.213  -3.360  0.00  0.00    -0.000 A 
ATOM      6  C   LIG d   1       5.114   1.249  -2.698  0.00  0.00    -0.053 A 
ATOM      7  C   LIG d   1       7.117   0.372  -3.926  0.00  0.00     0.026 A 
ATOM      8  C   LIG d   1       7.791   1.582  -3.811  0.00  0.00    -0.039 A 
ATOM      9  C   LIG d   1       9.064   1.709  -4.350  0.00  0.00     0.029 A 
ATOM     10  C   LIG d   1       9.668   0.624  -5.010  0.00  0.00     0.139 A 
ATOM     11  C   LIG d   1       8.986  -0.579  -5.120  0.00  0.00     0.024 A 
ATOM     12  C   LIG d   1       7.715  -0.716  -4.584  0.00  0.00     0.143 A 
ATOM     13  O   LIG d   1       7.068  -1.899  -4.703  0.00  0.00    -0.422 OA
ATOM     14  C   LIG d   1       5.838  -2.110  -4.211  0.00  0.00     0.345 A 
ATOM     15  O   LIG d   1       5.309  -3.197  -4.351  0.00  0.00    -0.244 OA
ATOM     16  O   LIG d   1      10.885   1.031  -5.427  0.00  0.00    -0.462 OA
ATOM     17  C   LIG d   1      11.113   2.310  -5.081  0.00  0.00     0.101 A 
ATOM     18  C   LIG d   1      10.049   2.805  -4.412  0.00  0.00     0.028 A 
ATOM     19  H   LIG d   1       3.343   1.849  -1.674  0.00  0.00     0.062 H 
ATOM     20  H   LIG d   1       2.228  -0.325  -1.925  0.00  0.00     0.062 H 
ATOM     21  H   LIG d   1       3.349  -2.175  -3.091  0.00  0.00     0.063 H 
ATOM     22  H   LIG d   1       5.599   2.208  -2.584  0.00  0.00     0.062 H 
ATOM     23  H   LIG d   1       7.328   2.416  -3.305  0.00  0.00     0.063 H 
ATOM     24  H   LIG d   1       9.449  -1.415  -5.625  0.00  0.00     0.069 H 
ATOM     25  H   LIG d   1      12.016   2.860  -5.304  0.00  0.00     0.104 H 
ENDROOT
BRANCH  18  26
ATOM     26  C   LIG d   1       9.901   4.171  -3.854  0.00  0.00    -0.014 A 
ATOM     27  C   LIG d   1      10.255   4.429  -2.530  0.00  0.00    -0.051 A 
ATOM     28  C   LIG d   1      10.116   5.701  -2.016  0.00  0.00    -0.026 A 
ATOM     29  H   LIG d   1      10.639   3.633  -1.909  0.00  0.00     0.062 H 
ATOM     30  C   LIG d   1       9.625   6.723  -2.812  0.00  0.00     0.123 A 
ATOM     31  H   LIG d   1      10.391   5.901  -0.991  0.00  0.00     0.065 H 
ATOM     32  C   LIG d   1       9.271   6.472  -4.128  0.00  0.00    -0.026 A 
ATOM     33  F   LIG d   1       9.492   7.968  -2.305  0.00  0.00    -0.205 F 
ATOM     34  C   LIG d   1       9.412   5.203  -4.653  0.00  0.00    -0.051 A 
ATOM     35  H   LIG d   1       8.889   7.271  -4.745  0.00  0.00     0.065 H 
ATOM     36  H   LIG d   1       9.140   5.010  -5.680  0.00  0.00     0.062 H 
ENDBRANCH  18  26
TORSDOF 1
ENDMDL
MODEL 2
REMARK VINA RESULT:      -7.9      5.037      8.458
REMARK  1 active torsions:
REMARK  status: ('A' for Active; 'I' for Inactive)
REMARK    1  A    between atoms: C_18  and  C_19 
ROOT
ATOM      1  C   LIG d   1       3.986  -1.067  -2.136  0.00  0.00    -0.061 A 
ATOM      2  C   LIG d   1       4.191   0.285  -1.901  0.00  0.00    -0.061 A 
ATOM      3  C   LIG d   1       5.299   0.927  -2.413  0.00  0.00    -0.047 A 
ATOM      4  C   LIG d   1       6.220   0.209  -3.172  0.00  0.00     0.067 A 
ATOM      5  C   LIG d   1       6.011  -1.166  -3.408  0.00  0.00    -0.000 A 
ATOM      6  C   LIG d   1       4.888  -1.795  -2.884  0.00  0.00    -0.053 A 
ATOM      7  C   LIG d   1       7.010  -1.892  -4.217  0.00  0.00     0.026 A 
ATOM      8  C   LIG d   1       6.852  -3.248  -4.480  0.00  0.00    -0.039 A 
ATOM      9  C   LIG d   1       7.803  -3.912  -5.242  0.00  0.00     0.029 A 
ATOM     10  C   LIG d   1       8.920  -3.220  -5.744  0.00  0.00     0.139 A 
ATOM     11  C   LIG d   1       9.069  -1.867  -5.476  0.00  0.00     0.024 A 
ATOM     12  C   LIG d   1       8.124  -1.196  -4.716  0.00  0.00     0.143 A 
ATOM     13  O   LIG d   1       8.289   0.124  -4.466  0.00  0.00    -0.422 OA
ATOM     14  C   LIG d   1       7.419   0.843  -3.740  0.00  0.00     0.345 A 
ATOM     15  O   LIG d   1       7.624   2.027  -3.550  0.00  0.00    -0.244 OA
ATOM     16  O   LIG d   1       9.666  -4.106  -6.438  0.00  0.00    -0.462 OA
ATOM     17  C   LIG d   1       9.107  -5.329  -6.421  0.00  0.00     0.101 A 
ATOM     18  C   LIG d   1       7.956  -5.302  -5.713  0.00  0.00     0.028 A 
ATOM     19  H   LIG d   1       3.113  -1.554  -1.729  0.00  0.00     0.062 H 
ATOM     20  H   LIG d   1       3.475   0.840  -1.314  0.00  0.00     0.062 H 
ATOM     21  H   LIG d   1       5.451   1.980  -2.226  0.00  0.00     0.063 H 
ATOM     22  H   LIG d   1       4.723  -2.847  -3.063  0.00  0.00     0.062 H 
ATOM     23  H   LIG d   1       5.996  -3.780  -4.094  0.00  0.00     0.063 H 
ATOM     24  H   LIG d   1       9.926  -1.334  -5.862  0.00  0.00     0.069 H 
ATOM     25  H   LIG d   1       9.517  -6.203  -6.904  0.00  0.00     0.104 H 
ENDROOT
BRANCH  18  26
ATOM     26  C   LIG d   1       7.036  -6.437  -5.459  0.00  0.00    -0.014 A 
ATOM     27  C   LIG d   1       7.498  -7.580  -4.808  0.00  0.00    -0.051 A 
ATOM     28  C   LIG d   1       6.638  -8.632  -4.575  0.00  0.00    -0.026 A 
ATOM     29  H   LIG d   1       8.527  -7.639  -4.485  0.00  0.00     0.062 H 
ATOM     30  C   LIG d   1       5.317  -8.557  -4.987  0.00  0.00     0.123 A 
ATOM     31  H   LIG d   1       6.995  -9.518  -4.069  0.00  0.00     0.065 H 
ATOM     32  C   LIG d   1       4.854  -7.423  -5.635  0.00  0.00    -0.026 A 
ATOM     33  F   LIG d   1       4.479  -9.590  -4.755  0.00  0.00    -0.205 F 
ATOM     34  C   LIG d   1       5.706  -6.363  -5.868  0.00  0.00    -0.051 A 
ATOM     35  H   LIG d   1       3.824  -7.368  -5.955  0.00  0.00     0.065 H 
ATOM     36  H   LIG d   1       5.343  -5.477  -6.370  0.00  0.00     0.062 H 
ENDBRANCH  18  26
TORSDOF 1
ENDMDL
MODEL 3
REMARK VINA RESULT:      -7.5      4.889      7.173
REMARK  1 active torsions:
REMARK  status: ('A' for Active; 'I' for Inactive)
REMARK    1  A    between atoms: C_18  and  C_19 
ROOT
ATOM      1  C   LIG d   1       1.665  -0.341  -9.463  0.00  0.00    -0.061 A 
ATOM      2  C   LIG d   1       1.449  -0.838 -10.740  0.00  0.00    -0.061 A 
ATOM      3  C   LIG d   1       2.158  -1.929 -11.198  0.00  0.00    -0.047 A 
ATOM      4  C   LIG d   1       3.101  -2.534 -10.369  0.00  0.00     0.067 A 
ATOM      5  C   LIG d   1       3.319  -2.025  -9.071  0.00  0.00    -0.000 A 
ATOM      6  C   LIG d   1       2.594  -0.926  -8.628  0.00  0.00    -0.053 A 
ATOM      7  C   LIG d   1       4.326  -2.694  -8.223  0.00  0.00     0.026 A 
ATOM      8  C   LIG d   1       4.580  -2.234  -6.937  0.00  0.00    -0.039 A 
ATOM      9  C   LIG d   1       5.531  -2.877  -6.156  0.00  0.00     0.029 A 
ATOM     10  C   LIG d   1       6.234  -3.985  -6.662  0.00  0.00     0.139 A 
ATOM     11  C   LIG d   1       5.973  -4.436  -7.947  0.00  0.00     0.024 A 
ATOM     12  C   LIG d   1       5.025  -3.801  -8.734  0.00  0.00     0.143 A 
ATOM     13  O   LIG d   1       4.786  -4.258  -9.985  0.00  0.00    -0.422 OA
ATOM     14  C   LIG d   1       3.885  -3.698 -10.807  0.00  0.00     0.345 A 
ATOM     15  O   LIG d   1       3.717  -4.155 -11.922  0.00  0.00    -0.244 OA
ATOM     16  O   LIG d   1       7.082  -4.400  -5.697  0.00  0.00    -0.462 OA
ATOM     17  C   LIG d   1       6.977  -3.635  -4.597  0.00  0.00     0.101 A 
ATOM     18  C   LIG d   1       6.043  -2.676  -4.787  0.00  0.00     0.028 A 
ATOM     19  H   LIG d   1       1.100   0.513  -9.120  0.00  0.00     0.062 H 
ATOM     20  H   LIG d   1       0.718  -0.369 -11.380  0.00  0.00     0.062 H 
ATOM     21  H   LIG d   1       1.985  -2.311 -12.193  0.00  0.00     0.063 H 
ATOM     22  H   LIG d   1       2.757  -0.533  -7.635  0.00  0.00     0.062 H 
ATOM     23  H   LIG d   1       4.042  -1.382  -6.547  0.00  0.00     0.063 H 
ATOM     24  H   LIG d   1       6.511  -5.288  -8.337  0.00  0.00     0.069 H 
ATOM     25  H   LIG d   1       7.552  -3.769  -3.693  0.00  0.00     0.104 H 
ENDROOT
BRANCH  18  26
ATOM     26  C   LIG d   1       5.622  -1.635  -3.819  0.00  0.00    -0.014 A 
ATOM     27  C   LIG d   1       6.174  -0.357  -3.881  0.00  0.00    -0.051 A 
ATOM     28  C   LIG d   1       5.778   0.608  -2.979  0.00  0.00    -0.026 A 
ATOM     29  H   LIG d   1       6.910  -0.123  -4.636  0.00  0.00     0.062 H 
ATOM     30  C   LIG d   1       4.834   0.309  -2.011  0.00  0.00     0.123 A 
ATOM     31  H   LIG d   1       6.206   1.599  -3.027  0.00  0.00     0.065 H 
ATOM     32  C   LIG d   1       4.281  -0.960  -1.945  0.00  0.00    -0.026 A 
ATOM     33  F   LIG d   1       4.448   1.258  -1.130  0.00  0.00    -0.205 F 
ATOM     34  C   LIG d   1       4.668  -1.930  -2.847  0.00  0.00    -0.051 A 
ATOM     35  H   LIG d   1       3.545  -1.188  -1.189  0.00  0.00     0.065 H 
ATOM     36  H   LIG d   1       4.233  -2.918  -2.797  0.00  0.00     0.062 H 
ENDBRANCH  18  26
TORSDOF 1
ENDMDL
MODEL 4
REMARK VINA RESULT:      -7.3      6.672      9.541
REMARK  1 active torsions:
REMARK  status: ('A' for Active; 'I' for Inactive)
REMARK    1  A    between atoms: C_18  and  C_19 
ROOT
ATOM      1  C   LIG d   1       4.046  -1.854  -2.128  0.00  0.00    -0.061 A 
ATOM      2  C   LIG d   1       3.675  -0.541  -2.379  0.00  0.00    -0.061 A 
ATOM      3  C   LIG d   1       3.627  -0.058  -3.670  0.00  0.00    -0.047 A 
ATOM      4  C   LIG d   1       3.957  -0.898  -4.731  0.00  0.00     0.067 A 
ATOM      5  C   LIG d   1       4.335  -2.233  -4.474  0.00  0.00    -0.000 A 
ATOM      6  C   LIG d   1       4.377  -2.701  -3.166  0.00  0.00    -0.053 A 
ATOM      7  C   LIG d   1       4.678  -3.092  -5.625  0.00  0.00     0.026 A 
ATOM      8  C   LIG d   1       5.057  -4.415  -5.428  0.00  0.00    -0.039 A 
ATOM      9  C   LIG d   1       5.375  -5.205  -6.524  0.00  0.00     0.029 A 
ATOM     10  C   LIG d   1       5.315  -4.673  -7.825  0.00  0.00     0.139 A 
ATOM     11  C   LIG d   1       4.935  -3.352  -8.010  0.00  0.00     0.024 A 
ATOM     12  C   LIG d   1       4.616  -2.555  -6.922  0.00  0.00     0.143 A 
ATOM     13  O   LIG d   1       4.249  -1.268  -7.126  0.00  0.00    -0.422 OA
ATOM     14  C   LIG d   1       3.925  -0.435  -6.126  0.00  0.00     0.345 A 
ATOM     15  O   LIG d   1       3.603   0.711  -6.375  0.00  0.00    -0.244 OA
ATOM     16  O   LIG d   1       5.672  -5.655  -8.679  0.00  0.00    -0.462 OA
ATOM     17  C   LIG d   1       5.960  -6.791  -8.020  0.00  0.00     0.101 A 
ATOM     18  C   LIG d   1       5.799  -6.608  -6.691  0.00  0.00     0.028 A 
ATOM     19  H   LIG d   1       4.077  -2.216  -1.112  0.00  0.00     0.062 H 
ATOM     20  H   LIG d   1       3.419   0.109  -1.555  0.00  0.00     0.062 H 
ATOM     21  H   LIG d   1       3.337   0.965  -3.857  0.00  0.00     0.063 H 
ATOM     22  H   LIG d   1       4.666  -3.722  -2.965  0.00  0.00     0.062 H 
ATOM     23  H   LIG d   1       5.104  -4.824  -4.430  0.00  0.00     0.063 H 
ATOM     24  H   LIG d   1       4.888  -2.942  -9.009  0.00  0.00     0.069 H 
ATOM     25  H   LIG d   1       6.271  -7.714  -8.486  0.00  0.00     0.104 H 
ENDROOT
BRANCH  18  26
ATOM     26  C   LIG d   1       6.008  -7.611  -5.619  0.00  0.00    -0.014 A 
ATOM     27  C   LIG d   1       4.951  -8.416  -5.198  0.00  0.00    -0.051 A 
ATOM     28  C   LIG d   1       5.151  -9.348  -4.201  0.00  0.00    -0.026 A 
ATOM     29  H   LIG d   1       3.977  -8.310  -5.653  0.00  0.00     0.062 H 
ATOM     30  C   LIG d   1       6.399  -9.485  -3.617  0.00  0.00     0.123 A 
ATOM     31  H   LIG d   1       4.331  -9.972  -3.875  0.00  0.00     0.065 H 
ATOM     32  C   LIG d   1       7.454  -8.687  -4.032  0.00  0.00    -0.026 A 
ATOM     33  F   LIG d   1       6.590 -10.400  -2.642  0.00  0.00    -0.205 F 
ATOM     34  C   LIG d   1       7.264  -7.756  -5.033  0.00  0.00    -0.051 A 
ATOM     35  H   LIG d   1       8.425  -8.798  -3.574  0.00  0.00     0.065 H 
ATOM     36  H   LIG d   1       8.088  -7.137  -5.358  0.00  0.00     0.062 H 
ENDBRANCH  18  26
TORSDOF 1
ENDMDL
MODEL 5
REMARK VINA RESULT:      -6.8      5.292      9.079
REMARK  1 active torsions:
REMARK  status: ('A' for Active; 'I' for Inactive)
REMARK    1  A    between atoms: C_18  and  C_19 
ROOT
ATOM      1  C   LIG d   1      11.188  11.676  -0.912  0.00  0.00    -0.061 A 
ATOM      2  C   LIG d   1      11.494  11.834   0.431  0.00  0.00    -0.061 A 
ATOM      3  C   LIG d   1      11.564  10.741   1.270  0.00  0.00    -0.047 A 
ATOM      4  C   LIG d   1      11.322   9.467   0.760  0.00  0.00     0.067 A 
ATOM      5  C   LIG d   1      11.009   9.310  -0.607  0.00  0.00    -0.000 A 
ATOM      6  C   LIG d   1      10.944  10.423  -1.435  0.00  0.00    -0.053 A 
ATOM      7  C   LIG d   1      10.760   7.944  -1.109  0.00  0.00     0.026 A 
ATOM      8  C   LIG d   1      10.447   7.731  -2.447  0.00  0.00    -0.039 A 
ATOM      9  C   LIG d   1      10.216   6.439  -2.898  0.00  0.00     0.029 A 
ATOM     10  C   LIG d   1      10.295   5.352  -2.010  0.00  0.00     0.139 A 
ATOM     11  C   LIG d   1      10.608   5.574  -0.677  0.00  0.00     0.024 A 
ATOM     12  C   LIG d   1      10.840   6.861  -0.217  0.00  0.00     0.143 A 
ATOM     13  O   LIG d   1      11.143   7.055   1.088  0.00  0.00    -0.422 OA
ATOM     14  C   LIG d   1      11.382   8.268   1.608  0.00  0.00     0.345 A 
ATOM     15  O   LIG d   1      11.649   8.377   2.790  0.00  0.00    -0.244 OA
ATOM     16  O   LIG d   1      10.026   4.233  -2.716  0.00  0.00    -0.462 OA
ATOM     17  C   LIG d   1       9.777   4.522  -4.005  0.00  0.00     0.101 A 
ATOM     18  C   LIG d   1       9.877   5.854  -4.209  0.00  0.00     0.028 A 
ATOM     19  H   LIG d   1      11.138  12.543  -1.554  0.00  0.00     0.062 H 
ATOM     20  H   LIG d   1      11.682  12.822   0.825  0.00  0.00     0.062 H 
ATOM     21  H   LIG d   1      11.804  10.872   2.314  0.00  0.00     0.063 H 
ATOM     22  H   LIG d   1      10.705  10.307  -2.482  0.00  0.00     0.062 H 
ATOM     23  H   LIG d   1      10.385   8.566  -3.129  0.00  0.00     0.063 H 
ATOM     24  H   LIG d   1      10.670   4.739   0.006  0.00  0.00     0.069 H 
ATOM     25  H   LIG d   1       9.536   3.795  -4.767  0.00  0.00     0.104 H 
ENDROOT
BRANCH  18  26
ATOM     26  C   LIG d   1       9.683   6.579  -5.488  0.00  0.00    -0.014 A 
ATOM     27  C   LIG d   1       9.267   7.910  -5.482  0.00  0.00    -0.051 A 
ATOM     28  C   LIG d   1       9.089   8.580  -6.674  0.00  0.00    -0.026 A 
ATOM     29  H   LIG d   1       9.086   8.415  -4.544  0.00  0.00     0.062 H 
ATOM     30  C   LIG d   1       9.321   7.933  -7.877  0.00  0.00     0.123 A 
ATOM     31  H   LIG d   1       8.767   9.611  -6.670  0.00  0.00     0.065 H 
ATOM     32  C   LIG d   1       9.735   6.611  -7.888  0.00  0.00    -0.026 A 
ATOM     33  F   LIG d   1       9.147   8.594  -9.042  0.00  0.00    -0.205 F 
ATOM     34  C   LIG d   1       9.921   5.934  -6.700  0.00  0.00    -0.051 A 
ATOM     35  H   LIG d   1       9.915   6.111  -8.828  0.00  0.00     0.065 H 
ATOM     36  H   LIG d   1      10.247   4.904  -6.710  0.00  0.00     0.062 H 
ENDBRANCH  18  26
TORSDOF 1
ENDMDL
MODEL 6
REMARK VINA RESULT:      -6.7      5.883     10.753
REMARK  1 active torsions:
REMARK  status: ('A' for Active; 'I' for Inactive)
REMARK    1  A    between atoms: C_18  and  C_19 
ROOT
ATOM      1  C   LIG d   1       9.493  12.636  -2.938  0.00  0.00    -0.061 A 
ATOM      2  C   LIG d   1       9.675  13.830  -2.256  0.00  0.00    -0.061 A 
ATOM      3  C   LIG d   1      10.180  13.837  -0.973  0.00  0.00    -0.047 A 
ATOM      4  C   LIG d   1      10.509  12.632  -0.357  0.00  0.00     0.067 A 
ATOM      5  C   LIG d   1      10.322  11.418  -1.052  0.00  0.00    -0.000 A 
ATOM      6  C   LIG d   1       9.812  11.432  -2.344  0.00  0.00    -0.053 A 
ATOM      7  C   LIG d   1      10.683  10.162  -0.365  0.00  0.00     0.026 A 
ATOM      8  C   LIG d   1      10.519   8.938  -1.004  0.00  0.00    -0.039 A 
ATOM      9  C   LIG d   1      10.864   7.769  -0.340  0.00  0.00     0.029 A 
ATOM     10  C   LIG d   1      11.374   7.819   0.969  0.00  0.00     0.139 A 
ATOM     11  C   LIG d   1      11.534   9.045   1.598  0.00  0.00     0.024 A 
ATOM     12  C   LIG d   1      11.193  10.218   0.943  0.00  0.00     0.143 A 
ATOM     13  O   LIG d   1      11.356  11.404   1.576  0.00  0.00    -0.422 OA
ATOM     14  C   LIG d   1      11.050  12.581   1.010  0.00  0.00     0.345 A 
ATOM     15  O   LIG d   1      11.220  13.613   1.631  0.00  0.00    -0.244 OA
ATOM     16  O   LIG d   1      11.618   6.550   1.357  0.00  0.00    -0.462 OA
ATOM     17  C   LIG d   1      11.299   5.676   0.386  0.00  0.00     0.101 A 
ATOM     18  C   LIG d   1      10.832   6.338  -0.696  0.00  0.00     0.028 A 
ATOM     19  H   LIG d   1       9.097  12.649  -3.942  0.00  0.00     0.062 H 
ATOM     20  H   LIG d   1       9.420  14.764  -2.735  0.00  0.00     0.062 H 
ATOM     21  H   LIG d   1      10.319  14.771  -0.448  0.00  0.00     0.063 H 
ATOM     22  H   LIG d   1       9.668  10.506  -2.880  0.00  0.00     0.062 H 
ATOM     23  H   LIG d   1      10.125   8.898  -2.009  0.00  0.00     0.063 H 
ATOM     24  H   LIG d   1      11.928   9.086   2.604  0.00  0.00     0.069 H 
ATOM     25  H   LIG d   1      11.403   4.604   0.460  0.00  0.00     0.104 H 
ENDROOT
BRANCH  18  26
ATOM     26  C   LIG d   1      10.379   5.746  -1.978  0.00  0.00    -0.014 A 
ATOM     27  C   LIG d   1       9.770   6.547  -2.942  0.00  0.00    -0.051 A 
ATOM     28  C   LIG d   1       9.351   5.992  -4.133  0.00  0.00    -0.026 A 
ATOM     29  H   LIG d   1       9.628   7.602  -2.757  0.00  0.00     0.062 H 
ATOM     30  C   LIG d   1       9.533   4.639  -4.372  0.00  0.00     0.123 A 
ATOM     31  H   LIG d   1       8.879   6.613  -4.881  0.00  0.00     0.065 H 
ATOM     32  C   LIG d   1      10.137   3.838  -3.417  0.00  0.00    -0.026 A 
ATOM     33  F   LIG d   1       9.122   4.100  -5.541  0.00  0.00    -0.205 F 
ATOM     34  C   LIG d   1      10.565   4.386  -2.224  0.00  0.00    -0.051 A 
ATOM     35  H   LIG d   1      10.277   2.785  -3.607  0.00  0.00     0.065 H 
ATOM     36  H   LIG d   1      11.040   3.762  -1.482  0.00  0.00     0.062 H 
ENDBRANCH  18  26
TORSDOF 1
ENDMDL
MODEL 7
REMARK VINA RESULT:      -6.7      5.315      7.214
REMARK  1 active torsions:
REMARK  status: ('A' for Active; 'I' for Inactive)
REMARK    1  A    between atoms: C_18  and  C_19 
ROOT
ATOM      1  C   LIG d   1       9.115   8.846  -7.580  0.00  0.00    -0.061 A 
ATOM      2  C   LIG d   1       9.092   8.103  -8.752  0.00  0.00    -0.061 A 
ATOM      3  C   LIG d   1       9.364   6.751  -8.733  0.00  0.00    -0.047 A 
ATOM      4  C   LIG d   1       9.666   6.128  -7.524  0.00  0.00     0.067 A 
ATOM      5  C   LIG d   1       9.691   6.885  -6.334  0.00  0.00    -0.000 A 
ATOM      6  C   LIG d   1       9.414   8.246  -6.374  0.00  0.00    -0.053 A 
ATOM      7  C   LIG d   1      10.016   6.188  -5.074  0.00  0.00     0.026 A 
ATOM      8  C   LIG d   1      10.054   6.887  -3.873  0.00  0.00    -0.039 A 
ATOM      9  C   LIG d   1      10.362   6.212  -2.699  0.00  0.00     0.029 A 
ATOM     10  C   LIG d   1      10.635   4.833  -2.723  0.00  0.00     0.139 A 
ATOM     11  C   LIG d   1      10.594   4.145  -3.927  0.00  0.00     0.024 A 
ATOM     12  C   LIG d   1      10.288   4.810  -5.104  0.00  0.00     0.143 A 
ATOM     13  O   LIG d   1      10.254   4.119  -6.268  0.00  0.00    -0.422 OA
ATOM     14  C   LIG d   1       9.966   4.690  -7.447  0.00  0.00     0.345 A 
ATOM     15  O   LIG d   1       9.952   4.015  -8.458  0.00  0.00    -0.244 OA
ATOM     16  O   LIG d   1      10.898   4.451  -1.456  0.00  0.00    -0.462 OA
ATOM     17  C   LIG d   1      10.815   5.492  -0.609  0.00  0.00     0.101 A 
ATOM     18  C   LIG d   1      10.485   6.614  -1.285  0.00  0.00     0.028 A 
ATOM     19  H   LIG d   1       8.899   9.903  -7.613  0.00  0.00     0.062 H 
ATOM     20  H   LIG d   1       8.856   8.588  -9.687  0.00  0.00     0.062 H 
ATOM     21  H   LIG d   1       9.343   6.180  -9.649  0.00  0.00     0.063 H 
ATOM     22  H   LIG d   1       9.431   8.830  -5.466  0.00  0.00     0.062 H 
ATOM     23  H   LIG d   1       9.846   7.946  -3.853  0.00  0.00     0.063 H 
ATOM     24  H   LIG d   1      10.803   3.085  -3.947  0.00  0.00     0.069 H 
ATOM     25  H   LIG d   1      10.984   5.437   0.457  0.00  0.00     0.104 H 
ENDROOT
BRANCH  18  26
ATOM     26  C   LIG d   1      10.288   7.971  -0.722  0.00  0.00    -0.014 A 
ATOM     27  C   LIG d   1       9.099   8.661  -0.957  0.00  0.00    -0.051 A 
ATOM     28  C   LIG d   1       8.921   9.923  -0.431  0.00  0.00    -0.026 A 
ATOM     29  H   LIG d   1       8.319   8.206  -1.550  0.00  0.00     0.062 H 
ATOM     30  C   LIG d   1       9.920  10.507   0.331  0.00  0.00     0.123 A 
ATOM     31  H   LIG d   1       8.000  10.457  -0.612  0.00  0.00     0.065 H 
ATOM     32  C   LIG d   1      11.104   9.825   0.567  0.00  0.00    -0.026 A 
ATOM     33  F   LIG d   1       9.741  11.743   0.846  0.00  0.00    -0.205 F 
ATOM     34  C   LIG d   1      11.289   8.560   0.049  0.00  0.00    -0.051 A 
ATOM     35  H   LIG d   1      11.880  10.284   1.161  0.00  0.00     0.065 H 
ATOM     36  H   LIG d   1      12.210   8.028   0.238  0.00  0.00     0.062 H 
ENDBRANCH  18  26
TORSDOF 1
ENDMDL
MODEL 8
REMARK VINA RESULT:      -6.7      6.665      8.789
REMARK  1 active torsions:
REMARK  status: ('A' for Active; 'I' for Inactive)
REMARK    1  A    between atoms: C_18  and  C_19 
ROOT
ATOM      1  C   LIG d   1       9.961   4.723  -6.525  0.00  0.00    -0.061 A 
ATOM      2  C   LIG d   1       9.731   4.927  -7.878  0.00  0.00    -0.061 A 
ATOM      3  C   LIG d   1       9.535   6.199  -8.373  0.00  0.00    -0.047 A 
ATOM      4  C   LIG d   1       9.568   7.288  -7.504  0.00  0.00     0.067 A 
ATOM      5  C   LIG d   1       9.801   7.078  -6.129  0.00  0.00    -0.000 A 
ATOM      6  C   LIG d   1       9.996   5.788  -5.649  0.00  0.00    -0.053 A 
ATOM      7  C   LIG d   1       9.828   8.257  -5.241  0.00  0.00     0.026 A 
ATOM      8  C   LIG d   1      10.054   8.106  -3.877  0.00  0.00    -0.039 A 
ATOM      9  C   LIG d   1      10.075   9.228  -3.060  0.00  0.00     0.029 A 
ATOM     10  C   LIG d   1       9.869  10.508  -3.605  0.00  0.00     0.139 A 
ATOM     11  C   LIG d   1       9.645  10.648  -4.967  0.00  0.00     0.024 A 
ATOM     12  C   LIG d   1       9.622   9.533  -5.791  0.00  0.00     0.143 A 
ATOM     13  O   LIG d   1       9.401   9.693  -7.117  0.00  0.00    -0.422 OA
ATOM     14  C   LIG d   1       9.365   8.665  -7.979  0.00  0.00     0.345 A 
ATOM     15  O   LIG d   1       9.161   8.873  -9.160  0.00  0.00    -0.244 OA
ATOM     16  O   LIG d   1       9.943  11.395  -2.591  0.00  0.00    -0.462 OA
ATOM     17  C   LIG d   1      10.183  10.777  -1.422  0.00  0.00     0.101 A 
ATOM     18  C   LIG d   1      10.284   9.444  -1.616  0.00  0.00     0.028 A 
ATOM     19  H   LIG d   1      10.113   3.720  -6.154  0.00  0.00     0.062 H 
ATOM     20  H   LIG d   1       9.707   4.082  -8.550  0.00  0.00     0.062 H 
ATOM     21  H   LIG d   1       9.357   6.350  -9.427  0.00  0.00     0.063 H 
ATOM     22  H   LIG d   1      10.175   5.623  -4.597  0.00  0.00     0.062 H 
ATOM     23  H   LIG d   1      10.210   7.124  -3.458  0.00  0.00     0.063 H 
ATOM     24  H   LIG d   1       9.488  11.631  -5.387  0.00  0.00     0.069 H 
ATOM     25  H   LIG d   1      10.283  11.274  -0.468  0.00  0.00     0.104 H 
ENDROOT
BRANCH  18  26
ATOM     26  C   LIG d   1      10.550   8.409  -0.588  0.00  0.00    -0.014 A 
ATOM     27  C   LIG d   1      10.331   7.062  -0.877  0.00  0.00    -0.051 A 
ATOM     28  C   LIG d   1      10.580   6.104   0.083  0.00  0.00    -0.026 A 
ATOM     29  H   LIG d   1       9.969   6.771  -1.852  0.00  0.00     0.062 H 
ATOM     30  C   LIG d   1      11.046   6.476   1.333  0.00  0.00     0.123 A 
ATOM     31  H   LIG d   1      10.411   5.060  -0.141  0.00  0.00     0.065 H 
ATOM     32  C   LIG d   1      11.264   7.812   1.626  0.00  0.00    -0.026 A 
ATOM     33  F   LIG d   1      11.289   5.533   2.270  0.00  0.00    -0.205 F 
ATOM     34  C   LIG d   1      11.023   8.778   0.670  0.00  0.00    -0.051 A 
ATOM     35  H   LIG d   1      11.627   8.098   2.602  0.00  0.00     0.065 H 
ATOM     36  H   LIG d   1      11.198   9.820   0.898  0.00  0.00     0.062 H 
ENDBRANCH  18  26
TORSDOF 1
ENDMDL
MODEL 9
REMARK VINA RESULT:      -6.5      4.528      6.771
REMARK  1 active torsions:
REMARK  status: ('A' for Active; 'I' for Inactive)
REMARK    1  A    between atoms: C_18  and  C_19 
ROOT
ATOM      1  C   LIG d   1       9.485   8.886  -7.566  0.00  0.00    -0.061 A 
ATOM      2  C   LIG d   1       9.245   8.659  -8.913  0.00  0.00    -0.061 A 
ATOM      3  C   LIG d   1       9.195   7.374  -9.412  0.00  0.00    -0.047 A 
ATOM      4  C   LIG d   1       9.387   6.295  -8.552  0.00  0.00     0.067 A 
ATOM      5  C   LIG d   1       9.632   6.528  -7.182  0.00  0.00    -0.000 A 
ATOM      6  C   LIG d   1       9.679   7.830  -6.699  0.00  0.00    -0.053 A 
ATOM      7  C   LIG d   1       9.830   5.358  -6.303  0.00  0.00     0.026 A 
ATOM      8  C   LIG d   1      10.074   5.531  -4.946  0.00  0.00    -0.039 A 
ATOM      9  C   LIG d   1      10.259   4.418  -4.137  0.00  0.00     0.029 A 
ATOM     10  C   LIG d   1      10.201   3.124  -4.685  0.00  0.00     0.139 A 
ATOM     11  C   LIG d   1       9.957   2.962  -6.041  0.00  0.00     0.024 A 
ATOM     12  C   LIG d   1       9.771   4.068  -6.857  0.00  0.00     0.143 A 
ATOM     13  O   LIG d   1       9.535   3.887  -8.177  0.00  0.00    -0.422 OA
ATOM     14  C   LIG d   1       9.345   4.905  -9.030  0.00  0.00     0.345 A 
ATOM     15  O   LIG d   1       9.137   4.677 -10.207  0.00  0.00    -0.244 OA
ATOM     16  O   LIG d   1      10.414   2.250  -3.680  0.00  0.00    -0.462 OA
ATOM     17  C   LIG d   1      10.607   2.889  -2.513  0.00  0.00     0.101 A 
ATOM     18  C   LIG d   1      10.524   4.225  -2.699  0.00  0.00     0.028 A 
ATOM     19  H   LIG d   1       9.520   9.898  -7.193  0.00  0.00     0.062 H 
ATOM     20  H   LIG d   1       9.096   9.496  -9.578  0.00  0.00     0.062 H 
ATOM     21  H   LIG d   1       9.008   7.206 -10.462  0.00  0.00     0.063 H 
ATOM     22  H   LIG d   1       9.865   8.013  -5.651  0.00  0.00     0.062 H 
ATOM     23  H   LIG d   1      10.120   6.524  -4.524  0.00  0.00     0.063 H 
ATOM     24  H   LIG d   1       9.911   1.969  -6.464  0.00  0.00     0.069 H 
ATOM     25  H   LIG d   1      10.797   2.405  -1.567  0.00  0.00     0.104 H 
ENDROOT
BRANCH  18  26
ATOM     26  C   LIG d   1      10.670   5.281  -1.668  0.00  0.00    -0.014 A 
ATOM     27  C   LIG d   1       9.872   6.423  -1.718  0.00  0.00    -0.051 A 
ATOM     28  C   LIG d   1      10.012   7.402  -0.757  0.00  0.00    -0.026 A 
ATOM     29  H   LIG d   1       9.145   6.540  -2.508  0.00  0.00     0.062 H 
ATOM     30  C   LIG d   1      10.943   7.253   0.258  0.00  0.00     0.123 A 
ATOM     31  H   LIG d   1       9.393   8.287  -0.795  0.00  0.00     0.065 H 
ATOM     32  C   LIG d   1      11.739   6.120   0.311  0.00  0.00    -0.026 A 
ATOM     33  F   LIG d   1      11.076   8.214   1.197  0.00  0.00    -0.205 F 
ATOM     34  C   LIG d   1      11.603   5.133  -0.643  0.00  0.00    -0.051 A 
ATOM     35  H   LIG d   1      12.464   6.008   1.103  0.00  0.00     0.065 H 
ATOM     36  H   LIG d   1      12.221   4.248  -0.598  0.00  0.00     0.062 H 
ENDBRANCH  18  26
TORSDOF 1
ENDMDL
MODEL 10
REMARK VINA RESULT:      -6.5      6.394     10.345
REMARK  1 active torsions:
REMARK  status: ('A' for Active; 'I' for Inactive)
REMARK    1  A    between atoms: C_18  and  C_19 
ROOT
ATOM      1  C   LIG d   1       9.954  13.621  -3.371  0.00  0.00    -0.061 A 
ATOM      2  C   LIG d   1       9.811  14.655  -4.284  0.00  0.00    -0.061 A 
ATOM      3  C   LIG d   1       9.657  14.389  -5.629  0.00  0.00    -0.047 A 
ATOM      4  C   LIG d   1       9.647  13.068  -6.072  0.00  0.00     0.067 A 
ATOM      5  C   LIG d   1       9.795  12.018  -5.141  0.00  0.00    -0.000 A 
ATOM      6  C   LIG d   1       9.948  12.307  -3.791  0.00  0.00    -0.053 A 
ATOM      7  C   LIG d   1       9.779  10.632  -5.649  0.00  0.00     0.026 A 
ATOM      8  C   LIG d   1       9.920   9.560  -4.776  0.00  0.00    -0.039 A 
ATOM      9  C   LIG d   1       9.903   8.265  -5.275  0.00  0.00     0.029 A 
ATOM     10  C   LIG d   1       9.745   8.037  -6.654  0.00  0.00     0.139 A 
ATOM     11  C   LIG d   1       9.606   9.113  -7.517  0.00  0.00     0.024 A 
ATOM     12  C   LIG d   1       9.621  10.410  -7.028  0.00  0.00     0.143 A 
ATOM     13  O   LIG d   1       9.484  11.446  -7.888  0.00  0.00    -0.422 OA
ATOM     14  C   LIG d   1       9.488  12.728  -7.493  0.00  0.00     0.345 A 
ATOM     15  O   LIG d   1       9.361  13.615  -8.316  0.00  0.00    -0.244 OA
ATOM     16  O   LIG d   1       9.767   6.701  -6.847  0.00  0.00    -0.462 OA
ATOM     17  C   LIG d   1       9.928   6.045  -5.684  0.00  0.00     0.101 A 
ATOM     18  C   LIG d   1      10.015   6.927  -4.664  0.00  0.00     0.028 A 
ATOM     19  H   LIG d   1      10.073  13.847  -2.322  0.00  0.00     0.062 H 
ATOM     20  H   LIG d   1       9.818  15.678  -3.939  0.00  0.00     0.062 H 
ATOM     21  H   LIG d   1       9.546  15.199  -6.334  0.00  0.00     0.063 H 
ATOM     22  H   LIG d   1      10.060  11.506  -3.074  0.00  0.00     0.062 H 
ATOM     23  H   LIG d   1      10.042   9.734  -3.717  0.00  0.00     0.063 H 
ATOM     24  H   LIG d   1       9.484   8.940  -8.576  0.00  0.00     0.069 H 
ATOM     25  H   LIG d   1       9.977   4.971  -5.582  0.00  0.00     0.104 H 
ENDROOT
BRANCH  18  26
ATOM     26  C   LIG d   1      10.190   6.613  -3.225  0.00  0.00    -0.014 A 
ATOM     27  C   LIG d   1      10.846   5.446  -2.838  0.00  0.00    -0.051 A 
ATOM     28  C   LIG d   1      11.006   5.159  -1.498  0.00  0.00    -0.026 A 
ATOM     29  H   LIG d   1      11.230   4.768  -3.586  0.00  0.00     0.062 H 
ATOM     30  C   LIG d   1      10.516   6.028  -0.537  0.00  0.00     0.123 A 
ATOM     31  H   LIG d   1      11.515   4.255  -1.198  0.00  0.00     0.065 H 
ATOM     32  C   LIG d   1       9.862   7.190  -0.918  0.00  0.00    -0.026 A 
ATOM     33  F   LIG d   1      10.676   5.744   0.773  0.00  0.00    -0.205 F 
ATOM     34  C   LIG d   1       9.702   7.488  -2.255  0.00  0.00    -0.051 A 
ATOM     35  H   LIG d   1       9.482   7.864  -0.165  0.00  0.00     0.065 H 
ATOM     36  H   LIG d   1       9.197   8.396  -2.550  0.00  0.00     0.062 H 
ENDBRANCH  18  26
TORSDOF 1
ENDMDL
