MODEL 1
REMARK VINA RESULT:      -7.4      0.000      0.000
REMARK  7 active torsions:
REMARK  status: ('A' for Active; 'I' for Inactive)
REMARK    1  A    between atoms: C_1  and  C_2 
REMARK    2  A    between atoms: C_2  and  C_3 
REMARK    3  A    between atoms: C_3  and  C_4 
REMARK    4  A    between atoms: C_4  and  C_5 
REMARK    5  A    between atoms: C_5  and  O_6 
REMARK    6  A    between atoms: O_6  and  C_7 
REMARK    7  A    between atoms: C_10  and  N_13 
ROOT
ATOM      1  N   LIG d   1       8.723   2.450  -4.908  0.00  0.00    -0.210 N 
ATOM      2  C   LIG d   1       9.226   3.427  -4.089  0.00  0.00     0.232 C 
ATOM      3  O   LIG d   1       9.525   3.346  -2.917  0.00  0.00    -0.274 OA
ATOM      4  C   LIG d   1       9.320   4.652  -5.012  0.00  0.00     0.073 C 
ATOM      5  H   LIG d   1       8.374   5.154  -5.217  0.00  0.00     0.042 H 
ATOM      6  C   LIG d   1       9.929   3.800  -6.186  0.00  0.00     0.073 C 
ATOM      7  H   LIG d   1      10.838   3.368  -5.768  0.00  0.00     0.042 H 
ATOM      8  C   LIG d   1       8.953   2.700  -6.242  0.00  0.00     0.232 C 
ATOM      9  O   LIG d   1       8.474   2.155  -7.213  0.00  0.00    -0.274 OA
ATOM     10  C   LIG d   1      10.375   4.701  -7.337  0.00  0.00     0.088 C 
ATOM     11  C   LIG d   1      11.809   4.818  -6.716  0.00  0.00    -0.021 A 
ATOM     12  C   LIG d   1      12.948   4.634  -7.430  0.00  0.00    -0.057 A 
ATOM     13  C   LIG d   1      14.161   4.670  -6.744  0.00  0.00    -0.061 A 
ATOM     14  C   LIG d   1      14.168   4.875  -5.377  0.00  0.00    -0.061 A 
ATOM     15  C   LIG d   1      12.993   5.092  -4.676  0.00  0.00    -0.057 A 
ATOM     16  C   LIG d   1      11.797   5.109  -5.365  0.00  0.00    -0.021 A 
ATOM     17  C   LIG d   1      10.516   5.611  -4.659  0.00  0.00     0.088 C 
ATOM     18  C   LIG d   1      10.075   6.655  -5.724  0.00  0.00    -0.021 A 
ATOM     19  C   LIG d   1       9.925   6.150  -7.026  0.00  0.00    -0.021 A 
ATOM     20  C   LIG d   1       9.411   6.951  -8.020  0.00  0.00    -0.057 A 
ATOM     21  C   LIG d   1       9.095   8.268  -7.721  0.00  0.00    -0.061 A 
ATOM     22  C   LIG d   1       9.296   8.775  -6.452  0.00  0.00    -0.061 A 
ATOM     23  C   LIG d   1       9.797   7.954  -5.419  0.00  0.00    -0.057 A 
ATOM     24 BR   LIG d   1      10.663   6.178  -2.783  0.00  0.00    -0.073 Br
ATOM     25 BR   LIG d   1      10.135   4.045  -9.174  0.00  0.00    -0.073 Br
ATOM     26  H   LIG d   1      12.916   4.464  -8.495  0.00  0.00     0.062 H 
ATOM     27  H   LIG d   1      15.090   4.538  -7.279  0.00  0.00     0.062 H 
ATOM     28  H   LIG d   1      15.108   4.866  -4.846  0.00  0.00     0.062 H 
ATOM     29  H   LIG d   1      13.013   5.245  -3.607  0.00  0.00     0.062 H 
ATOM     30  H   LIG d   1       9.258   6.560  -9.016  0.00  0.00     0.062 H 
ATOM     31  H   LIG d   1       8.687   8.905  -8.492  0.00  0.00     0.062 H 
ATOM     32  H   LIG d   1       9.074   9.812  -6.243  0.00  0.00     0.062 H 
ATOM     33  H   LIG d   1       9.936   8.330  -4.416  0.00  0.00     0.062 H 
ENDROOT
BRANCH   1  34
ATOM     34  C   LIG d   1       8.050   1.312  -4.437  0.00  0.00     0.044 A 
ATOM     35  C   LIG d   1       6.951   1.453  -3.600  0.00  0.00    -0.036 A 
ATOM     36  C   LIG d   1       6.289   0.333  -3.137  0.00  0.00    -0.018 A 
ATOM     37  H   LIG d   1       6.614   2.438  -3.312  0.00  0.00     0.064 H 
ATOM     38  C   LIG d   1       6.722  -0.932  -3.508  0.00  0.00     0.121 A 
ATOM     39  H   LIG d   1       5.434   0.443  -2.486  0.00  0.00     0.066 H 
ATOM     40  C   LIG d   1       7.823  -1.072  -4.339  0.00  0.00    -0.018 A 
ATOM     41  C   LIG d   1       8.483   0.046  -4.807  0.00  0.00    -0.036 A 
ATOM     42  H   LIG d   1       8.162  -2.058  -4.624  0.00  0.00     0.066 H 
ATOM     43  H   LIG d   1       9.337  -0.063  -5.459  0.00  0.00     0.064 H 
BRANCH  38  44
ATOM     44  O   LIG d   1       6.070  -2.034  -3.051  0.00  0.00    -0.492 OA
BRANCH  44  45
ATOM     45  C   LIG d   1       4.772  -2.290  -3.591  0.00  0.00     0.090 C 
ATOM     46  H   LIG d   1       4.711  -3.329  -3.915  0.00  0.00     0.070 H 
ATOM     47  H   LIG d   1       4.596  -1.633  -4.444  0.00  0.00     0.070 H 
BRANCH  45  48
ATOM     48  C   LIG d   1       3.712  -2.027  -2.519  0.00  0.00    -0.019 C 
ATOM     49  H   LIG d   1       4.201  -1.767  -1.581  0.00  0.00     0.030 H 
ATOM     50  H   LIG d   1       3.108  -2.925  -2.378  0.00  0.00     0.030 H 
BRANCH  48  51
ATOM     51  C   LIG d   1       2.812  -0.872  -2.963  0.00  0.00    -0.050 C 
ATOM     52  H   LIG d   1       2.997  -0.003  -2.332  0.00  0.00     0.027 H 
ATOM     53  H   LIG d   1       1.767  -1.171  -2.874  0.00  0.00     0.027 H 
BRANCH  51  54
ATOM     54  C   LIG d   1       3.118  -0.519  -4.420  0.00  0.00    -0.056 C 
ATOM     55  H   LIG d   1       2.746  -1.309  -5.072  0.00  0.00     0.026 H 
ATOM     56  H   LIG d   1       4.195  -0.418  -4.551  0.00  0.00     0.026 H 
BRANCH  54  57
ATOM     57  C   LIG d   1       2.435   0.803  -4.779  0.00  0.00    -0.065 C 
ATOM     58  H   LIG d   1       1.714   0.633  -5.579  0.00  0.00     0.023 H 
ATOM     59  H   LIG d   1       1.920   1.195  -3.902  0.00  0.00     0.023 H 
ATOM     60  H   LIG d   1       3.185   1.520  -5.111  0.00  0.00     0.023 H 
ENDBRANCH  54  57
ENDBRANCH  51  54
ENDBRANCH  48  51
ENDBRANCH  45  48
ENDBRANCH  44  45
ENDBRANCH  38  44
ENDBRANCH   1  34
TORSDOF 7
ENDMDL
MODEL 2
REMARK VINA RESULT:      -7.2      5.286      8.942
REMARK  7 active torsions:
REMARK  status: ('A' for Active; 'I' for Inactive)
REMARK    1  A    between atoms: C_1  and  C_2 
REMARK    2  A    between atoms: C_2  and  C_3 
REMARK    3  A    between atoms: C_3  and  C_4 
REMARK    4  A    between atoms: C_4  and  C_5 
REMARK    5  A    between atoms: C_5  and  O_6 
REMARK    6  A    between atoms: O_6  and  C_7 
REMARK    7  A    between atoms: C_10  and  N_13 
ROOT
ATOM      1  N   LIG d   1       5.740  -4.418  -5.803  0.00  0.00    -0.210 N 
ATOM      2  C   LIG d   1       6.471  -3.642  -6.664  0.00  0.00     0.232 C 
ATOM      3  O   LIG d   1       6.943  -3.949  -7.738  0.00  0.00    -0.274 OA
ATOM      4  C   LIG d   1       6.548  -2.288  -5.943  0.00  0.00     0.073 C 
ATOM      5  H   LIG d   1       7.260  -2.240  -5.118  0.00  0.00     0.042 H 
ATOM      6  C   LIG d   1       5.025  -2.337  -5.551  0.00  0.00     0.073 C 
ATOM      7  H   LIG d   1       4.500  -2.412  -6.504  0.00  0.00     0.042 H 
ATOM      8  C   LIG d   1       4.955  -3.678  -4.950  0.00  0.00     0.232 C 
ATOM      9  O   LIG d   1       4.360  -4.037  -3.957  0.00  0.00    -0.274 OA
ATOM     10  C   LIG d   1       4.582  -1.016  -4.923  0.00  0.00     0.088 C 
ATOM     11  C   LIG d   1       4.173  -0.461  -6.330  0.00  0.00    -0.021 A 
ATOM     12  C   LIG d   1       2.982   0.139  -6.579  0.00  0.00    -0.057 A 
ATOM     13  C   LIG d   1       2.696   0.504  -7.892  0.00  0.00    -0.061 A 
ATOM     14  C   LIG d   1       3.614   0.238  -8.891  0.00  0.00    -0.061 A 
ATOM     15  C   LIG d   1       4.837  -0.347  -8.607  0.00  0.00    -0.057 A 
ATOM     16  C   LIG d   1       5.140  -0.660  -7.298  0.00  0.00    -0.021 A 
ATOM     17  C   LIG d   1       6.587  -1.058  -6.923  0.00  0.00     0.088 C 
ATOM     18  C   LIG d   1       6.794  -0.053  -5.754  0.00  0.00    -0.021 A 
ATOM     19  C   LIG d   1       5.833  -0.122  -4.733  0.00  0.00    -0.021 A 
ATOM     20  C   LIG d   1       5.989   0.625  -3.587  0.00  0.00    -0.057 A 
ATOM     21  C   LIG d   1       7.081   1.475  -3.489  0.00  0.00    -0.061 A 
ATOM     22  C   LIG d   1       7.995   1.580  -4.520  0.00  0.00    -0.061 A 
ATOM     23  C   LIG d   1       7.857   0.798  -5.687  0.00  0.00    -0.057 A 
ATOM     24 BR   LIG d   1       7.924  -1.123  -8.363  0.00  0.00    -0.073 Br
ATOM     25 BR   LIG d   1       3.273  -1.080  -3.459  0.00  0.00    -0.073 Br
ATOM     26  H   LIG d   1       2.276   0.325  -5.782  0.00  0.00     0.062 H 
ATOM     27  H   LIG d   1       1.762   0.993  -8.128  0.00  0.00     0.062 H 
ATOM     28  H   LIG d   1       3.372   0.492  -9.913  0.00  0.00     0.062 H 
ATOM     29  H   LIG d   1       5.543  -0.554  -9.399  0.00  0.00     0.062 H 
ATOM     30  H   LIG d   1       5.274   0.551  -2.781  0.00  0.00     0.062 H 
ATOM     31  H   LIG d   1       7.218   2.063  -2.593  0.00  0.00     0.062 H 
ATOM     32  H   LIG d   1       8.822   2.270  -4.440  0.00  0.00     0.062 H 
ATOM     33  H   LIG d   1       8.576   0.851  -6.490  0.00  0.00     0.062 H 
ENDROOT
BRANCH   1  34
ATOM     34  C   LIG d   1       5.783  -5.822  -5.797  0.00  0.00     0.044 A 
ATOM     35  C   LIG d   1       6.919  -6.479  -5.343  0.00  0.00    -0.036 A 
ATOM     36  C   LIG d   1       6.961  -7.859  -5.337  0.00  0.00    -0.018 A 
ATOM     37  H   LIG d   1       7.769  -5.911  -4.995  0.00  0.00     0.064 H 
ATOM     38  C   LIG d   1       5.868  -8.589  -5.783  0.00  0.00     0.121 A 
ATOM     39  H   LIG d   1       7.844  -8.370  -4.984  0.00  0.00     0.066 H 
ATOM     40  C   LIG d   1       4.736  -7.932  -6.242  0.00  0.00    -0.018 A 
ATOM     41  C   LIG d   1       4.690  -6.552  -6.245  0.00  0.00    -0.036 A 
ATOM     42  H   LIG d   1       3.887  -8.501  -6.594  0.00  0.00     0.066 H 
ATOM     43  H   LIG d   1       3.807  -6.041  -6.596  0.00  0.00     0.064 H 
BRANCH  38  44
ATOM     44  O   LIG d   1       5.910  -9.948  -5.777  0.00  0.00    -0.492 OA
BRANCH  44  45
ATOM     45  C   LIG d   1       6.604 -10.570  -4.694  0.00  0.00     0.090 C 
ATOM     46  H   LIG d   1       7.044  -9.804  -4.056  0.00  0.00     0.070 H 
ATOM     47  H   LIG d   1       7.394 -11.212  -5.087  0.00  0.00     0.070 H 
BRANCH  45  48
ATOM     48  C   LIG d   1       5.623 -11.413  -3.877  0.00  0.00    -0.019 C 
ATOM     49  H   LIG d   1       6.139 -12.285  -3.475  0.00  0.00     0.030 H 
ATOM     50  H   LIG d   1       4.803 -11.739  -4.518  0.00  0.00     0.030 H 
BRANCH  48  51
ATOM     51  C   LIG d   1       5.066 -10.574  -2.724  0.00  0.00    -0.050 C 
ATOM     52  H   LIG d   1       5.745  -9.748  -2.515  0.00  0.00     0.027 H 
ATOM     53  H   LIG d   1       4.967 -11.198  -1.836  0.00  0.00     0.027 H 
BRANCH  51  54
ATOM     54  C   LIG d   1       3.694 -10.021  -3.114  0.00  0.00    -0.056 C 
ATOM     55  H   LIG d   1       3.821  -9.162  -3.772  0.00  0.00     0.026 H 
ATOM     56  H   LIG d   1       3.158  -9.714  -2.216  0.00  0.00     0.026 H 
BRANCH  54  57
ATOM     57  C   LIG d   1       2.894 -11.106  -3.838  0.00  0.00    -0.065 C 
ATOM     58  H   LIG d   1       2.826 -11.991  -3.205  0.00  0.00     0.023 H 
ATOM     59  H   LIG d   1       1.892 -10.736  -4.055  0.00  0.00     0.023 H 
ATOM     60  H   LIG d   1       3.396 -11.365  -4.770  0.00  0.00     0.023 H 
ENDBRANCH  54  57
ENDBRANCH  51  54
ENDBRANCH  48  51
ENDBRANCH  45  48
ENDBRANCH  44  45
ENDBRANCH  38  44
ENDBRANCH   1  34
TORSDOF 7
ENDMDL
MODEL 3
REMARK VINA RESULT:      -7.1      3.319      8.664
REMARK  7 active torsions:
REMARK  status: ('A' for Active; 'I' for Inactive)
REMARK    1  A    between atoms: C_1  and  C_2 
REMARK    2  A    between atoms: C_2  and  C_3 
REMARK    3  A    between atoms: C_3  and  C_4 
REMARK    4  A    between atoms: C_4  and  C_5 
REMARK    5  A    between atoms: C_5  and  O_6 
REMARK    6  A    between atoms: O_6  and  C_7 
REMARK    7  A    between atoms: C_10  and  N_13 
ROOT
ATOM      1  N   LIG d   1       8.219   1.660  -4.746  0.00  0.00    -0.210 N 
ATOM      2  C   LIG d   1       7.289   1.000  -3.987  0.00  0.00     0.232 C 
ATOM      3  O   LIG d   1       6.702   1.397  -3.003  0.00  0.00    -0.274 OA
ATOM      4  C   LIG d   1       7.168  -0.365  -4.681  0.00  0.00     0.073 C 
ATOM      5  H   LIG d   1       7.985  -1.060  -4.486  0.00  0.00     0.042 H 
ATOM      6  C   LIG d   1       7.134   0.293  -6.109  0.00  0.00     0.073 C 
ATOM      7  H   LIG d   1       6.274   0.963  -6.082  0.00  0.00     0.042 H 
ATOM      8  C   LIG d   1       8.320   1.160  -6.024  0.00  0.00     0.232 C 
ATOM      9  O   LIG d   1       9.167   1.377  -6.863  0.00  0.00    -0.274 OA
ATOM     10  C   LIG d   1       6.827  -0.752  -7.181  0.00  0.00     0.088 C 
ATOM     11  C   LIG d   1       5.291  -0.468  -7.046  0.00  0.00    -0.021 A 
ATOM     12  C   LIG d   1       4.476  -0.251  -8.109  0.00  0.00    -0.057 A 
ATOM     13  C   LIG d   1       3.148   0.085  -7.855  0.00  0.00    -0.061 A 
ATOM     14  C   LIG d   1       2.709   0.199  -6.548  0.00  0.00    -0.061 A 
ATOM     15  C   LIG d   1       3.554  -0.058  -5.481  0.00  0.00    -0.057 A 
ATOM     16  C   LIG d   1       4.854  -0.442  -5.735  0.00  0.00    -0.021 A 
ATOM     17  C   LIG d   1       5.728  -0.991  -4.583  0.00  0.00     0.088 C 
ATOM     18  C   LIG d   1       6.187  -2.311  -5.266  0.00  0.00    -0.021 A 
ATOM     19  C   LIG d   1       6.812  -2.149  -6.513  0.00  0.00    -0.021 A 
ATOM     20  C   LIG d   1       7.378  -3.232  -7.146  0.00  0.00    -0.057 A 
ATOM     21  C   LIG d   1       7.273  -4.482  -6.554  0.00  0.00    -0.061 A 
ATOM     22  C   LIG d   1       6.609  -4.645  -5.353  0.00  0.00    -0.061 A 
ATOM     23  C   LIG d   1       6.050  -3.535  -4.683  0.00  0.00    -0.057 A 
ATOM     24 BR   LIG d   1       4.929  -1.083  -2.789  0.00  0.00    -0.073 Br
ATOM     25 BR   LIG d   1       7.721  -0.582  -8.923  0.00  0.00    -0.073 Br
ATOM     26  H   LIG d   1       4.845  -0.336  -9.120  0.00  0.00     0.062 H 
ATOM     27  H   LIG d   1       2.466   0.255  -8.674  0.00  0.00     0.062 H 
ATOM     28  H   LIG d   1       1.688   0.495  -6.357  0.00  0.00     0.062 H 
ATOM     29  H   LIG d   1       3.199   0.041  -4.465  0.00  0.00     0.062 H 
ATOM     30  H   LIG d   1       7.892  -3.111  -8.088  0.00  0.00     0.062 H 
ATOM     31  H   LIG d   1       7.716  -5.339  -7.038  0.00  0.00     0.062 H 
ATOM     32  H   LIG d   1       6.510  -5.629  -4.920  0.00  0.00     0.062 H 
ATOM     33  H   LIG d   1       5.550  -3.643  -3.732  0.00  0.00     0.062 H 
ENDROOT
BRANCH   1  34
ATOM     34  C   LIG d   1       8.985   2.738  -4.272  0.00  0.00     0.044 A 
ATOM     35  C   LIG d   1       9.877   2.547  -3.226  0.00  0.00    -0.036 A 
ATOM     36  C   LIG d   1      10.630   3.607  -2.760  0.00  0.00    -0.018 A 
ATOM     37  H   LIG d   1       9.983   1.571  -2.776  0.00  0.00     0.064 H 
ATOM     38  C   LIG d   1      10.495   4.861  -3.338  0.00  0.00     0.121 A 
ATOM     39  H   LIG d   1      11.325   3.459  -1.946  0.00  0.00     0.066 H 
ATOM     40  C   LIG d   1       9.600   5.052  -4.379  0.00  0.00    -0.018 A 
ATOM     41  C   LIG d   1       8.850   3.993  -4.850  0.00  0.00    -0.036 A 
ATOM     42  H   LIG d   1       9.492   6.030  -4.826  0.00  0.00     0.066 H 
ATOM     43  H   LIG d   1       8.157   4.140  -5.664  0.00  0.00     0.064 H 
BRANCH  38  44
ATOM     44  O   LIG d   1      11.237   5.904  -2.879  0.00  0.00    -0.492 OA
BRANCH  44  45
ATOM     45  C   LIG d   1      10.539   7.117  -2.587  0.00  0.00     0.090 C 
ATOM     46  H   LIG d   1       9.815   7.318  -3.376  0.00  0.00     0.070 H 
ATOM     47  H   LIG d   1      11.251   7.942  -2.529  0.00  0.00     0.070 H 
BRANCH  45  48
ATOM     48  C   LIG d   1       9.811   6.977  -1.248  0.00  0.00    -0.019 C 
ATOM     49  H   LIG d   1       9.311   6.010  -1.206  0.00  0.00     0.030 H 
ATOM     50  H   LIG d   1       9.072   7.774  -1.153  0.00  0.00     0.030 H 
BRANCH  48  51
ATOM     51  C   LIG d   1      10.822   7.080  -0.104  0.00  0.00    -0.050 C 
ATOM     52  H   LIG d   1      10.434   7.749   0.665  0.00  0.00     0.027 H 
ATOM     53  H   LIG d   1      11.764   7.473  -0.487  0.00  0.00     0.027 H 
BRANCH  51  54
ATOM     54  C   LIG d   1      11.055   5.693   0.496  0.00  0.00    -0.056 C 
ATOM     55  H   LIG d   1      12.051   5.342   0.226  0.00  0.00     0.026 H 
ATOM     56  H   LIG d   1      10.309   4.999   0.109  0.00  0.00     0.026 H 
BRANCH  54  57
ATOM     57  C   LIG d   1      10.937   5.770   2.020  0.00  0.00    -0.065 C 
ATOM     58  H   LIG d   1       9.901   5.599   2.313  0.00  0.00     0.023 H 
ATOM     59  H   LIG d   1      11.574   5.011   2.473  0.00  0.00     0.023 H 
ATOM     60  H   LIG d   1      11.251   6.758   2.358  0.00  0.00     0.023 H 
ENDBRANCH  54  57
ENDBRANCH  51  54
ENDBRANCH  48  51
ENDBRANCH  45  48
ENDBRANCH  44  45
ENDBRANCH  38  44
ENDBRANCH   1  34
TORSDOF 7
ENDMDL
MODEL 4
REMARK VINA RESULT:      -7.0      5.226      8.288
REMARK  7 active torsions:
REMARK  status: ('A' for Active; 'I' for Inactive)
REMARK    1  A    between atoms: C_1  and  C_2 
REMARK    2  A    between atoms: C_2  and  C_3 
REMARK    3  A    between atoms: C_3  and  C_4 
REMARK    4  A    between atoms: C_4  and  C_5 
REMARK    5  A    between atoms: C_5  and  O_6 
REMARK    6  A    between atoms: O_6  and  C_7 
REMARK    7  A    between atoms: C_10  and  N_13 
ROOT
ATOM      1  N   LIG d   1       5.859  -4.196  -5.951  0.00  0.00    -0.210 N 
ATOM      2  C   LIG d   1       4.995  -3.431  -5.213  0.00  0.00     0.232 C 
ATOM      3  O   LIG d   1       4.550  -3.653  -4.107  0.00  0.00    -0.274 OA
ATOM      4  C   LIG d   1       4.723  -2.223  -6.122  0.00  0.00     0.073 C 
ATOM      5  H   LIG d   1       4.033  -2.407  -6.946  0.00  0.00     0.042 H 
ATOM      6  C   LIG d   1       6.244  -2.084  -6.499  0.00  0.00     0.073 C 
ATOM      7  H   LIG d   1       6.751  -1.939  -5.545  0.00  0.00     0.042 H 
ATOM      8  C   LIG d   1       6.539  -3.469  -6.901  0.00  0.00     0.232 C 
ATOM      9  O   LIG d   1       7.208  -3.866  -7.831  0.00  0.00    -0.274 OA
ATOM     10  C   LIG d   1       6.489  -0.813  -7.310  0.00  0.00     0.088 C 
ATOM     11  C   LIG d   1       6.771  -0.005  -5.997  0.00  0.00    -0.021 A 
ATOM     12  C   LIG d   1       7.847   0.805  -5.835  0.00  0.00    -0.057 A 
ATOM     13  C   LIG d   1       8.040   1.394  -4.588  0.00  0.00    -0.061 A 
ATOM     14  C   LIG d   1       7.150   1.130  -3.562  0.00  0.00    -0.061 A 
ATOM     15  C   LIG d   1       6.042   0.324  -3.761  0.00  0.00    -0.057 A 
ATOM     16  C   LIG d   1       5.824  -0.216  -5.012  0.00  0.00    -0.021 A 
ATOM     17  C   LIG d   1       4.467  -0.888  -5.329  0.00  0.00     0.088 C 
ATOM     18  C   LIG d   1       4.134  -0.105  -6.631  0.00  0.00    -0.021 A 
ATOM     19  C   LIG d   1       5.119  -0.165  -7.630  0.00  0.00    -0.021 A 
ATOM     20  C   LIG d   1       4.875   0.377  -8.871  0.00  0.00    -0.057 A 
ATOM     21  C   LIG d   1       3.666   1.021  -9.093  0.00  0.00    -0.061 A 
ATOM     22  C   LIG d   1       2.722   1.125  -8.089  0.00  0.00    -0.061 A 
ATOM     23  C   LIG d   1       2.953   0.547  -6.822  0.00  0.00    -0.057 A 
ATOM     24 BR   LIG d   1       3.122  -0.960  -3.897  0.00  0.00    -0.073 Br
ATOM     25 BR   LIG d   1       7.828  -0.874  -8.748  0.00  0.00    -0.073 Br
ATOM     26  H   LIG d   1       8.534   0.987  -6.649  0.00  0.00     0.062 H 
ATOM     27  H   LIG d   1       8.879   2.053  -4.423  0.00  0.00     0.062 H 
ATOM     28  H   LIG d   1       7.324   1.561  -2.587  0.00  0.00     0.062 H 
ATOM     29  H   LIG d   1       5.358   0.122  -2.949  0.00  0.00     0.062 H 
ATOM     30  H   LIG d   1       5.613   0.305  -9.657  0.00  0.00     0.062 H 
ATOM     31  H   LIG d   1       3.461   1.446 -10.064  0.00  0.00     0.062 H 
ATOM     32  H   LIG d   1       1.799   1.655  -8.269  0.00  0.00     0.062 H 
ATOM     33  H   LIG d   1       2.214   0.599  -6.035  0.00  0.00     0.062 H 
ENDROOT
BRANCH   1  34
ATOM     34  C   LIG d   1       6.037  -5.575  -5.756  0.00  0.00     0.044 A 
ATOM     35  C   LIG d   1       4.991  -6.452  -6.007  0.00  0.00    -0.036 A 
ATOM     36  C   LIG d   1       5.167  -7.808  -5.814  0.00  0.00    -0.018 A 
ATOM     37  H   LIG d   1       4.040  -6.074  -6.352  0.00  0.00     0.064 H 
ATOM     38  C   LIG d   1       6.388  -8.294  -5.371  0.00  0.00     0.121 A 
ATOM     39  H   LIG d   1       4.352  -8.490  -6.009  0.00  0.00     0.066 H 
ATOM     40  C   LIG d   1       7.432  -7.417  -5.115  0.00  0.00    -0.018 A 
ATOM     41  C   LIG d   1       7.260  -6.061  -5.311  0.00  0.00    -0.036 A 
ATOM     42  H   LIG d   1       8.382  -7.795  -4.766  0.00  0.00     0.066 H 
ATOM     43  H   LIG d   1       8.074  -5.379  -5.118  0.00  0.00     0.064 H 
BRANCH  38  44
ATOM     44  O   LIG d   1       6.560  -9.629  -5.181  0.00  0.00    -0.492 OA
BRANCH  44  45
ATOM     45  C   LIG d   1       6.961 -10.052  -3.877  0.00  0.00     0.090 C 
ATOM     46  H   LIG d   1       6.835  -9.229  -3.173  0.00  0.00     0.070 H 
ATOM     47  H   LIG d   1       8.009 -10.355  -3.897  0.00  0.00     0.070 H 
BRANCH  45  48
ATOM     48  C   LIG d   1       6.098 -11.237  -3.437  0.00  0.00    -0.019 C 
ATOM     49  H   LIG d   1       6.731 -11.999  -2.983  0.00  0.00     0.030 H 
ATOM     50  H   LIG d   1       5.588 -11.656  -4.305  0.00  0.00     0.030 H 
BRANCH  48  51
ATOM     51  C   LIG d   1       5.061 -10.761  -2.417  0.00  0.00    -0.050 C 
ATOM     52  H   LIG d   1       5.530 -10.070  -1.717  0.00  0.00     0.027 H 
ATOM     53  H   LIG d   1       4.668 -11.620  -1.872  0.00  0.00     0.027 H 
BRANCH  51  54
ATOM     54  C   LIG d   1       3.917 -10.053  -3.145  0.00  0.00    -0.056 C 
ATOM     55  H   LIG d   1       4.322  -9.446  -3.955  0.00  0.00     0.026 H 
ATOM     56  H   LIG d   1       3.381  -9.413  -2.445  0.00  0.00     0.026 H 
BRANCH  54  57
ATOM     57  C   LIG d   1       2.956 -11.096  -3.720  0.00  0.00    -0.065 C 
ATOM     58  H   LIG d   1       1.945 -10.889  -3.370  0.00  0.00     0.023 H 
ATOM     59  H   LIG d   1       2.981 -11.052  -4.809  0.00  0.00     0.023 H 
ATOM     60  H   LIG d   1       3.259 -12.089  -3.390  0.00  0.00     0.023 H 
ENDBRANCH  54  57
ENDBRANCH  51  54
ENDBRANCH  48  51
ENDBRANCH  45  48
ENDBRANCH  44  45
ENDBRANCH  38  44
ENDBRANCH   1  34
TORSDOF 7
ENDMDL
MODEL 5
REMARK VINA RESULT:      -6.9      3.170      9.258
REMARK  7 active torsions:
REMARK  status: ('A' for Active; 'I' for Inactive)
REMARK    1  A    between atoms: C_1  and  C_2 
REMARK    2  A    between atoms: C_2  and  C_3 
REMARK    3  A    between atoms: C_3  and  C_4 
REMARK    4  A    between atoms: C_4  and  C_5 
REMARK    5  A    between atoms: C_5  and  O_6 
REMARK    6  A    between atoms: O_6  and  C_7 
REMARK    7  A    between atoms: C_10  and  N_13 
ROOT
ATOM      1  N   LIG d   1       7.803   0.659  -6.539  0.00  0.00    -0.210 N 
ATOM      2  C   LIG d   1       8.066  -0.393  -5.700  0.00  0.00     0.232 C 
ATOM      3  O   LIG d   1       8.939  -0.488  -4.864  0.00  0.00    -0.274 OA
ATOM      4  C   LIG d   1       6.989  -1.422  -6.073  0.00  0.00     0.073 C 
ATOM      5  H   LIG d   1       7.169  -1.970  -6.998  0.00  0.00     0.042 H 
ATOM      6  C   LIG d   1       5.864  -0.324  -6.117  0.00  0.00     0.073 C 
ATOM      7  H   LIG d   1       5.869   0.115  -5.119  0.00  0.00     0.042 H 
ATOM      8  C   LIG d   1       6.505   0.669  -6.994  0.00  0.00     0.232 C 
ATOM      9  O   LIG d   1       6.015   1.326  -7.887  0.00  0.00    -0.274 OA
ATOM     10  C   LIG d   1       4.487  -0.963  -6.294  0.00  0.00     0.088 C 
ATOM     11  C   LIG d   1       4.303  -1.046  -4.740  0.00  0.00    -0.021 A 
ATOM     12  C   LIG d   1       3.183  -0.631  -4.097  0.00  0.00    -0.057 A 
ATOM     13  C   LIG d   1       3.177  -0.668  -2.705  0.00  0.00    -0.061 A 
ATOM     14  C   LIG d   1       4.300  -1.107  -2.028  0.00  0.00    -0.061 A 
ATOM     15  C   LIG d   1       5.421  -1.555  -2.708  0.00  0.00    -0.057 A 
ATOM     16  C   LIG d   1       5.405  -1.568  -4.087  0.00  0.00    -0.021 A 
ATOM     17  C   LIG d   1       6.523  -2.308  -4.858  0.00  0.00     0.088 C 
ATOM     18  C   LIG d   1       5.617  -3.188  -5.766  0.00  0.00    -0.021 A 
ATOM     19  C   LIG d   1       4.680  -2.481  -6.535  0.00  0.00    -0.021 A 
ATOM     20  C   LIG d   1       3.918  -3.142  -7.472  0.00  0.00    -0.057 A 
ATOM     21  C   LIG d   1       4.063  -4.515  -7.602  0.00  0.00    -0.061 A 
ATOM     22  C   LIG d   1       4.948  -5.214  -6.804  0.00  0.00    -0.061 A 
ATOM     23  C   LIG d   1       5.753  -4.541  -5.859  0.00  0.00    -0.057 A 
ATOM     24 BR   LIG d   1       7.941  -3.177  -3.809  0.00  0.00    -0.073 Br
ATOM     25 BR   LIG d   1       3.165  -0.023  -7.404  0.00  0.00    -0.073 Br
ATOM     26  H   LIG d   1       2.323  -0.282  -4.648  0.00  0.00     0.062 H 
ATOM     27  H   LIG d   1       2.301  -0.355  -2.158  0.00  0.00     0.062 H 
ATOM     28  H   LIG d   1       4.303  -1.100  -0.948  0.00  0.00     0.062 H 
ATOM     29  H   LIG d   1       6.293  -1.891  -2.166  0.00  0.00     0.062 H 
ATOM     30  H   LIG d   1       3.220  -2.600  -8.093  0.00  0.00     0.062 H 
ATOM     31  H   LIG d   1       3.474  -5.045  -8.336  0.00  0.00     0.062 H 
ATOM     32  H   LIG d   1       5.026  -6.288  -6.896  0.00  0.00     0.062 H 
ATOM     33  H   LIG d   1       6.467  -5.071  -5.246  0.00  0.00     0.062 H 
ENDROOT
BRANCH   1  34
ATOM     34  C   LIG d   1       8.757   1.626  -6.893  0.00  0.00     0.044 A 
ATOM     35  C   LIG d   1       9.522   1.459  -8.039  0.00  0.00    -0.036 A 
ATOM     36  C   LIG d   1      10.460   2.412  -8.387  0.00  0.00    -0.018 A 
ATOM     37  H   LIG d   1       9.384   0.585  -8.659  0.00  0.00     0.064 H 
ATOM     38  C   LIG d   1      10.637   3.535  -7.592  0.00  0.00     0.121 A 
ATOM     39  H   LIG d   1      11.055   2.282  -9.279  0.00  0.00     0.066 H 
ATOM     40  C   LIG d   1       9.876   3.698  -6.444  0.00  0.00    -0.018 A 
ATOM     41  C   LIG d   1       8.935   2.750  -6.097  0.00  0.00    -0.036 A 
ATOM     42  H   LIG d   1      10.017   4.571  -5.822  0.00  0.00     0.066 H 
ATOM     43  H   LIG d   1       8.339   2.880  -5.207  0.00  0.00     0.064 H 
BRANCH  38  44
ATOM     44  O   LIG d   1      11.561   4.471  -7.935  0.00  0.00    -0.492 OA
BRANCH  44  45
ATOM     45  C   LIG d   1      11.245   5.833  -7.637  0.00  0.00     0.090 C 
ATOM     46  H   LIG d   1      12.148   6.354  -7.319  0.00  0.00     0.070 H 
ATOM     47  H   LIG d   1      10.505   5.868  -6.836  0.00  0.00     0.070 H 
BRANCH  45  48
ATOM     48  C   LIG d   1      10.677   6.511  -8.886  0.00  0.00    -0.019 C 
ATOM     49  H   LIG d   1      10.874   5.888  -9.758  0.00  0.00     0.030 H 
ATOM     50  H   LIG d   1      11.153   7.483  -9.018  0.00  0.00     0.030 H 
BRANCH  48  51
ATOM     51  C   LIG d   1       9.168   6.699  -8.722  0.00  0.00    -0.050 C 
ATOM     52  H   LIG d   1       8.922   7.757  -8.812  0.00  0.00     0.027 H 
ATOM     53  H   LIG d   1       8.860   6.336  -7.741  0.00  0.00     0.027 H 
BRANCH  51  54
ATOM     54  C   LIG d   1       8.435   5.911  -9.810  0.00  0.00    -0.056 C 
ATOM     55  H   LIG d   1       7.814   6.589 -10.395  0.00  0.00     0.026 H 
ATOM     56  H   LIG d   1       7.807   5.151  -9.347  0.00  0.00     0.026 H 
BRANCH  54  57
ATOM     57  C   LIG d   1       9.458   5.237 -10.727  0.00  0.00    -0.065 C 
ATOM     58  H   LIG d   1       9.614   4.208 -10.402  0.00  0.00     0.023 H 
ATOM     59  H   LIG d   1       9.087   5.243 -11.752  0.00  0.00     0.023 H 
ATOM     60  H   LIG d   1      10.402   5.780 -10.678  0.00  0.00     0.023 H 
ENDBRANCH  54  57
ENDBRANCH  51  54
ENDBRANCH  48  51
ENDBRANCH  45  48
ENDBRANCH  44  45
ENDBRANCH  38  44
ENDBRANCH   1  34
TORSDOF 7
ENDMDL
MODEL 6
REMARK VINA RESULT:      -6.5      5.799      8.768
REMARK  7 active torsions:
REMARK  status: ('A' for Active; 'I' for Inactive)
REMARK    1  A    between atoms: C_1  and  C_2 
REMARK    2  A    between atoms: C_2  and  C_3 
REMARK    3  A    between atoms: C_3  and  C_4 
REMARK    4  A    between atoms: C_4  and  C_5 
REMARK    5  A    between atoms: C_5  and  O_6 
REMARK    6  A    between atoms: O_6  and  C_7 
REMARK    7  A    between atoms: C_10  and  N_13 
ROOT
ATOM      1  N   LIG d   1       4.725  -1.292  -8.142  0.00  0.00    -0.210 N 
ATOM      2  C   LIG d   1       4.499  -2.295  -7.236  0.00  0.00     0.232 C 
ATOM      3  O   LIG d   1       4.182  -3.445  -7.450  0.00  0.00    -0.274 OA
ATOM      4  C   LIG d   1       4.745  -1.612  -5.882  0.00  0.00     0.073 C 
ATOM      5  H   LIG d   1       3.940  -0.965  -5.534  0.00  0.00     0.042 H 
ATOM      6  C   LIG d   1       6.043  -0.896  -6.407  0.00  0.00     0.073 C 
ATOM      7  H   LIG d   1       6.695  -1.709  -6.728  0.00  0.00     0.042 H 
ATOM      8  C   LIG d   1       5.523  -0.289  -7.642  0.00  0.00     0.232 C 
ATOM      9  O   LIG d   1       5.741   0.812  -8.101  0.00  0.00    -0.274 OA
ATOM     10  C   LIG d   1       6.774  -0.190  -5.265  0.00  0.00     0.088 C 
ATOM     11  C   LIG d   1       7.629  -1.474  -4.991  0.00  0.00    -0.021 A 
ATOM     12  C   LIG d   1       8.978  -1.457  -4.846  0.00  0.00    -0.057 A 
ATOM     13  C   LIG d   1       9.636  -2.676  -4.702  0.00  0.00    -0.061 A 
ATOM     14  C   LIG d   1       8.908  -3.852  -4.723  0.00  0.00    -0.061 A 
ATOM     15  C   LIG d   1       7.528  -3.842  -4.841  0.00  0.00    -0.057 A 
ATOM     16  C   LIG d   1       6.874  -2.631  -4.930  0.00  0.00    -0.021 A 
ATOM     17  C   LIG d   1       5.334  -2.582  -4.790  0.00  0.00     0.088 C 
ATOM     18  C   LIG d   1       5.250  -1.490  -3.686  0.00  0.00    -0.021 A 
ATOM     19  C   LIG d   1       5.896  -0.282  -3.992  0.00  0.00    -0.021 A 
ATOM     20  C   LIG d   1       5.775   0.798  -3.149  0.00  0.00    -0.057 A 
ATOM     21  C   LIG d   1       5.046   0.652  -1.977  0.00  0.00    -0.061 A 
ATOM     22  C   LIG d   1       4.457  -0.555  -1.653  0.00  0.00    -0.061 A 
ATOM     23  C   LIG d   1       4.554  -1.661  -2.526  0.00  0.00    -0.057 A 
ATOM     24 BR   LIG d   1       4.382  -4.280  -4.517  0.00  0.00    -0.073 Br
ATOM     25 BR   LIG d   1       7.651   1.527  -5.648  0.00  0.00    -0.073 Br
ATOM     26  H   LIG d   1       9.525  -0.525  -4.845  0.00  0.00     0.062 H 
ATOM     27  H   LIG d   1      10.707  -2.702  -4.574  0.00  0.00     0.062 H 
ATOM     28  H   LIG d   1       9.427  -4.796  -4.646  0.00  0.00     0.062 H 
ATOM     29  H   LIG d   1       6.973  -4.769  -4.861  0.00  0.00     0.062 H 
ATOM     30  H   LIG d   1       6.239   1.742  -3.394  0.00  0.00     0.062 H 
ATOM     31  H   LIG d   1       4.939   1.493  -1.309  0.00  0.00     0.062 H 
ATOM     32  H   LIG d   1       3.919  -0.662  -0.723  0.00  0.00     0.062 H 
ATOM     33  H   LIG d   1       4.078  -2.603  -2.299  0.00  0.00     0.062 H 
ENDROOT
BRANCH   1  34
ATOM     34  C   LIG d   1       4.202  -1.291  -9.445  0.00  0.00     0.044 A 
ATOM     35  C   LIG d   1       2.953  -0.737  -9.690  0.00  0.00    -0.036 A 
ATOM     36  C   LIG d   1       2.439  -0.736 -10.972  0.00  0.00    -0.018 A 
ATOM     37  H   LIG d   1       2.384  -0.307  -8.880  0.00  0.00     0.064 H 
ATOM     38  C   LIG d   1       3.170  -1.287 -12.014  0.00  0.00     0.121 A 
ATOM     39  H   LIG d   1       1.467  -0.304 -11.163  0.00  0.00     0.066 H 
ATOM     40  C   LIG d   1       4.416  -1.846 -11.767  0.00  0.00    -0.018 A 
ATOM     41  C   LIG d   1       4.934  -1.844 -10.488  0.00  0.00    -0.036 A 
ATOM     42  H   LIG d   1       4.983  -2.280 -12.578  0.00  0.00     0.066 H 
ATOM     43  H   LIG d   1       5.905  -2.273 -10.297  0.00  0.00     0.064 H 
BRANCH  38  44
ATOM     44  O   LIG d   1       2.664  -1.286 -13.275  0.00  0.00    -0.492 OA
BRANCH  44  45
ATOM     45  C   LIG d   1       1.422  -1.964 -13.476  0.00  0.00     0.090 C 
ATOM     46  H   LIG d   1       1.157  -1.932 -14.533  0.00  0.00     0.070 H 
ATOM     47  H   LIG d   1       0.641  -1.476 -12.891  0.00  0.00     0.070 H 
BRANCH  45  48
ATOM     48  C   LIG d   1       1.558  -3.422 -13.029  0.00  0.00    -0.019 C 
ATOM     49  H   LIG d   1       2.429  -3.523 -12.382  0.00  0.00     0.030 H 
ATOM     50  H   LIG d   1       1.678  -4.060 -13.905  0.00  0.00     0.030 H 
BRANCH  48  51
ATOM     51  C   LIG d   1       0.301  -3.839 -12.262  0.00  0.00    -0.050 C 
ATOM     52  H   LIG d   1      -0.019  -4.825 -12.598  0.00  0.00     0.027 H 
ATOM     53  H   LIG d   1      -0.493  -3.116 -12.445  0.00  0.00     0.027 H 
BRANCH  51  54
ATOM     54  C   LIG d   1       0.611  -3.886 -10.764  0.00  0.00    -0.056 C 
ATOM     55  H   LIG d   1      -0.127  -4.509 -10.259  0.00  0.00     0.026 H 
ATOM     56  H   LIG d   1       0.576  -2.878 -10.354  0.00  0.00     0.026 H 
BRANCH  54  57
ATOM     57  C   LIG d   1       2.008  -4.474 -10.551  0.00  0.00    -0.065 C 
ATOM     58  H   LIG d   1       2.632  -4.248 -11.415  0.00  0.00     0.023 H 
ATOM     59  H   LIG d   1       2.453  -4.039  -9.656  0.00  0.00     0.023 H 
ATOM     60  H   LIG d   1       1.931  -5.555 -10.431  0.00  0.00     0.023 H 
ENDBRANCH  54  57
ENDBRANCH  51  54
ENDBRANCH  48  51
ENDBRANCH  45  48
ENDBRANCH  44  45
ENDBRANCH  38  44
ENDBRANCH   1  34
TORSDOF 7
ENDMDL
MODEL 7
REMARK VINA RESULT:      -6.4      6.186      9.651
REMARK  7 active torsions:
REMARK  status: ('A' for Active; 'I' for Inactive)
REMARK    1  A    between atoms: C_1  and  C_2 
REMARK    2  A    between atoms: C_2  and  C_3 
REMARK    3  A    between atoms: C_3  and  C_4 
REMARK    4  A    between atoms: C_4  and  C_5 
REMARK    5  A    between atoms: C_5  and  O_6 
REMARK    6  A    between atoms: O_6  and  C_7 
REMARK    7  A    between atoms: C_10  and  N_13 
ROOT
ATOM      1  N   LIG d   1       5.303  -1.114  -8.318  0.00  0.00    -0.210 N 
ATOM      2  C   LIG d   1       4.937  -2.265  -7.672  0.00  0.00     0.232 C 
ATOM      3  O   LIG d   1       4.661  -3.343  -8.154  0.00  0.00    -0.274 OA
ATOM      4  C   LIG d   1       4.958  -1.863  -6.190  0.00  0.00     0.073 C 
ATOM      5  H   LIG d   1       4.105  -1.271  -5.856  0.00  0.00     0.042 H 
ATOM      6  C   LIG d   1       6.322  -1.096  -6.351  0.00  0.00     0.073 C 
ATOM      7  H   LIG d   1       7.019  -1.851  -6.716  0.00  0.00     0.042 H 
ATOM      8  C   LIG d   1       6.007  -0.248  -7.512  0.00  0.00     0.232 C 
ATOM      9  O   LIG d   1       6.293   0.913  -7.708  0.00  0.00    -0.274 OA
ATOM     10  C   LIG d   1       6.855  -0.644  -4.993  0.00  0.00     0.088 C 
ATOM     11  C   LIG d   1       7.658  -1.981  -4.841  0.00  0.00    -0.021 A 
ATOM     12  C   LIG d   1       8.966  -2.030  -4.482  0.00  0.00    -0.057 A 
ATOM     13  C   LIG d   1       9.595  -3.273  -4.474  0.00  0.00    -0.061 A 
ATOM     14  C   LIG d   1       8.884  -4.401  -4.839  0.00  0.00    -0.061 A 
ATOM     15  C   LIG d   1       7.541  -4.329  -5.171  0.00  0.00    -0.057 A 
ATOM     16  C   LIG d   1       6.907  -3.105  -5.127  0.00  0.00    -0.021 A 
ATOM     17  C   LIG d   1       5.365  -3.040  -5.228  0.00  0.00     0.088 C 
ATOM     18  C   LIG d   1       5.099  -2.179  -3.960  0.00  0.00    -0.021 A 
ATOM     19  C   LIG d   1       5.783  -0.954  -3.919  0.00  0.00    -0.021 A 
ATOM     20  C   LIG d   1       5.523  -0.053  -2.912  0.00  0.00    -0.057 A 
ATOM     21  C   LIG d   1       4.615  -0.400  -1.923  0.00  0.00    -0.061 A 
ATOM     22  C   LIG d   1       3.985  -1.630  -1.938  0.00  0.00    -0.061 A 
ATOM     23  C   LIG d   1       4.225  -2.550  -2.982  0.00  0.00    -0.057 A 
ATOM     24 BR   LIG d   1       4.386  -4.731  -5.445  0.00  0.00    -0.073 Br
ATOM     25 BR   LIG d   1       7.777   1.089  -4.890  0.00  0.00    -0.073 Br
ATOM     26  H   LIG d   1       9.503  -1.132  -4.212  0.00  0.00     0.062 H 
ATOM     27  H   LIG d   1      10.632  -3.353  -4.184  0.00  0.00     0.062 H 
ATOM     28  H   LIG d   1       9.387  -5.357  -4.865  0.00  0.00     0.062 H 
ATOM     29  H   LIG d   1       7.000  -5.219  -5.459  0.00  0.00     0.062 H 
ATOM     30  H   LIG d   1       6.018   0.907  -2.892  0.00  0.00     0.062 H 
ATOM     31  H   LIG d   1       4.398   0.299  -1.129  0.00  0.00     0.062 H 
ATOM     32  H   LIG d   1       3.303  -1.898  -1.144  0.00  0.00     0.062 H 
ATOM     33  H   LIG d   1       3.721  -3.504  -3.021  0.00  0.00     0.062 H 
ENDROOT
BRANCH   1  34
ATOM     34  C   LIG d   1       4.998  -0.847  -9.663  0.00  0.00     0.044 A 
ATOM     35  C   LIG d   1       5.940  -1.097 -10.651  0.00  0.00    -0.036 A 
ATOM     36  C   LIG d   1       5.639  -0.835 -11.973  0.00  0.00    -0.018 A 
ATOM     37  H   LIG d   1       6.908  -1.497 -10.386  0.00  0.00     0.064 H 
ATOM     38  C   LIG d   1       4.396  -0.322 -12.314  0.00  0.00     0.121 A 
ATOM     39  H   LIG d   1       6.372  -1.030 -12.742  0.00  0.00     0.066 H 
ATOM     40  C   LIG d   1       3.457  -0.067 -11.325  0.00  0.00    -0.018 A 
ATOM     41  C   LIG d   1       3.753  -0.333 -10.004  0.00  0.00    -0.036 A 
ATOM     42  H   LIG d   1       2.490   0.336 -11.590  0.00  0.00     0.066 H 
ATOM     43  H   LIG d   1       3.021  -0.140  -9.235  0.00  0.00     0.064 H 
BRANCH  38  44
ATOM     44  O   LIG d   1       4.100  -0.064 -13.615  0.00  0.00    -0.492 OA
BRANCH  44  45
ATOM     45  C   LIG d   1       4.922  -0.690 -14.603  0.00  0.00     0.090 C 
ATOM     46  H   LIG d   1       5.256  -1.660 -14.236  0.00  0.00     0.070 H 
ATOM     47  H   LIG d   1       5.789  -0.060 -14.807  0.00  0.00     0.070 H 
BRANCH  45  48
ATOM     48  C   LIG d   1       4.117  -0.880 -15.890  0.00  0.00    -0.019 C 
ATOM     49  H   LIG d   1       3.052  -0.875 -15.657  0.00  0.00     0.030 H 
ATOM     50  H   LIG d   1       4.384  -1.834 -16.347  0.00  0.00     0.030 H 
BRANCH  48  51
ATOM     51  C   LIG d   1       4.433   0.258 -16.863  0.00  0.00    -0.050 C 
ATOM     52  H   LIG d   1       5.157  -0.085 -17.602  0.00  0.00     0.027 H 
ATOM     53  H   LIG d   1       4.847   1.102 -16.312  0.00  0.00     0.027 H 
BRANCH  51  54
ATOM     54  C   LIG d   1       3.148   0.693 -17.571  0.00  0.00    -0.056 C 
ATOM     55  H   LIG d   1       2.296   0.181 -17.126  0.00  0.00     0.026 H 
ATOM     56  H   LIG d   1       3.212   0.440 -18.629  0.00  0.00     0.026 H 
BRANCH  54  57
ATOM     57  C   LIG d   1       2.971   2.206 -17.419  0.00  0.00    -0.065 C 
ATOM     58  H   LIG d   1       3.651   2.576 -16.653  0.00  0.00     0.023 H 
ATOM     59  H   LIG d   1       3.191   2.695 -18.368  0.00  0.00     0.023 H 
ATOM     60  H   LIG d   1       1.943   2.423 -17.128  0.00  0.00     0.023 H 
ENDBRANCH  54  57
ENDBRANCH  51  54
ENDBRANCH  48  51
ENDBRANCH  45  48
ENDBRANCH  44  45
ENDBRANCH  38  44
ENDBRANCH   1  34
TORSDOF 7
ENDMDL
MODEL 8
REMARK VINA RESULT:      -6.4      3.950      5.884
REMARK  7 active torsions:
REMARK  status: ('A' for Active; 'I' for Inactive)
REMARK    1  A    between atoms: C_1  and  C_2 
REMARK    2  A    between atoms: C_2  and  C_3 
REMARK    3  A    between atoms: C_3  and  C_4 
REMARK    4  A    between atoms: C_4  and  C_5 
REMARK    5  A    between atoms: C_5  and  O_6 
REMARK    6  A    between atoms: O_6  and  C_7 
REMARK    7  A    between atoms: C_10  and  N_13 
ROOT
ATOM      1  N   LIG d   1       7.613   1.648  -8.581  0.00  0.00    -0.210 N 
ATOM      2  C   LIG d   1       8.744   2.299  -8.997  0.00  0.00     0.232 C 
ATOM      3  O   LIG d   1       8.922   2.913 -10.028  0.00  0.00    -0.274 OA
ATOM      4  C   LIG d   1       9.733   2.066  -7.846  0.00  0.00     0.073 C 
ATOM      5  H   LIG d   1      10.182   1.073  -7.812  0.00  0.00     0.042 H 
ATOM      6  C   LIG d   1       8.640   2.377  -6.758  0.00  0.00     0.073 C 
ATOM      7  H   LIG d   1       8.306   3.390  -6.987  0.00  0.00     0.042 H 
ATOM      8  C   LIG d   1       7.560   1.488  -7.215  0.00  0.00     0.232 C 
ATOM      9  O   LIG d   1       6.816   0.793  -6.557  0.00  0.00    -0.274 OA
ATOM     10  C   LIG d   1       9.261   2.438  -5.364  0.00  0.00     0.088 C 
ATOM     11  C   LIG d   1       9.505   3.978  -5.517  0.00  0.00    -0.021 A 
ATOM     12  C   LIG d   1       9.163   4.886  -4.570  0.00  0.00    -0.057 A 
ATOM     13  C   LIG d   1       9.343   6.236  -4.863  0.00  0.00    -0.061 A 
ATOM     14  C   LIG d   1       9.846   6.607  -6.097  0.00  0.00    -0.061 A 
ATOM     15  C   LIG d   1      10.218   5.658  -7.036  0.00  0.00    -0.057 A 
ATOM     16  C   LIG d   1      10.088   4.321  -6.723  0.00  0.00    -0.021 A 
ATOM     17  C   LIG d   1      10.741   3.256  -7.635  0.00  0.00     0.088 C 
ATOM     18  C   LIG d   1      11.525   2.481  -6.539  0.00  0.00    -0.021 A 
ATOM     19  C   LIG d   1      10.746   2.008  -5.471  0.00  0.00    -0.021 A 
ATOM     20  C   LIG d   1      11.309   1.195  -4.514  0.00  0.00    -0.057 A 
ATOM     21  C   LIG d   1      12.661   0.899  -4.600  0.00  0.00    -0.061 A 
ATOM     22  C   LIG d   1      13.436   1.412  -5.623  0.00  0.00    -0.061 A 
ATOM     23  C   LIG d   1      12.861   2.223  -6.625  0.00  0.00    -0.057 A 
ATOM     24 BR   LIG d   1      11.709   3.880  -9.229  0.00  0.00    -0.073 Br
ATOM     25 BR   LIG d   1       8.216   1.741  -3.852  0.00  0.00    -0.073 Br
ATOM     26  H   LIG d   1       8.761   4.572  -3.618  0.00  0.00     0.062 H 
ATOM     27  H   LIG d   1       9.091   6.988  -4.131  0.00  0.00     0.062 H 
ATOM     28  H   LIG d   1       9.950   7.655  -6.332  0.00  0.00     0.062 H 
ATOM     29  H   LIG d   1      10.605   5.962  -7.998  0.00  0.00     0.062 H 
ATOM     30  H   LIG d   1      10.708   0.798  -3.709  0.00  0.00     0.062 H 
ATOM     31  H   LIG d   1      13.114   0.259  -3.858  0.00  0.00     0.062 H 
ATOM     32  H   LIG d   1      14.494   1.196  -5.659  0.00  0.00     0.062 H 
ATOM     33  H   LIG d   1      13.449   2.610  -7.444  0.00  0.00     0.062 H 
ENDROOT
BRANCH   1  34
ATOM     34  C   LIG d   1       6.610   1.196  -9.454  0.00  0.00     0.044 A 
ATOM     35  C   LIG d   1       5.390   1.856  -9.510  0.00  0.00    -0.036 A 
ATOM     36  C   LIG d   1       4.405   1.411 -10.370  0.00  0.00    -0.018 A 
ATOM     37  H   LIG d   1       5.211   2.716  -8.882  0.00  0.00     0.064 H 
ATOM     38  C   LIG d   1       4.635   0.307 -11.178  0.00  0.00     0.121 A 
ATOM     39  H   LIG d   1       3.456   1.924 -10.414  0.00  0.00     0.066 H 
ATOM     40  C   LIG d   1       5.852  -0.355 -11.117  0.00  0.00    -0.018 A 
ATOM     41  C   LIG d   1       6.840   0.091 -10.262  0.00  0.00    -0.036 A 
ATOM     42  H   LIG d   1       6.030  -1.218 -11.743  0.00  0.00     0.066 H 
ATOM     43  H   LIG d   1       7.790  -0.421 -10.219  0.00  0.00     0.064 H 
BRANCH  38  44
ATOM     44  O   LIG d   1       3.665  -0.131 -12.023  0.00  0.00    -0.492 OA
BRANCH  44  45
ATOM     45  C   LIG d   1       2.969  -1.323 -11.652  0.00  0.00     0.090 C 
ATOM     46  H   LIG d   1       3.405  -1.727 -10.738  0.00  0.00     0.070 H 
ATOM     47  H   LIG d   1       3.055  -2.059 -12.452  0.00  0.00     0.070 H 
BRANCH  45  48
ATOM     48  C   LIG d   1       1.493  -0.999 -11.414  0.00  0.00    -0.019 C 
ATOM     49  H   LIG d   1       0.884  -1.865 -11.674  0.00  0.00     0.030 H 
ATOM     50  H   LIG d   1       1.203  -0.150 -12.034  0.00  0.00     0.030 H 
BRANCH  48  51
ATOM     51  C   LIG d   1       1.278  -0.650  -9.939  0.00  0.00    -0.050 C 
ATOM     52  H   LIG d   1       0.296  -1.000  -9.622  0.00  0.00     0.027 H 
ATOM     53  H   LIG d   1       1.339   0.431  -9.810  0.00  0.00     0.027 H 
BRANCH  51  54
ATOM     54  C   LIG d   1       2.360  -1.325  -9.093  0.00  0.00    -0.056 C 
ATOM     55  H   LIG d   1       3.255  -1.473  -9.697  0.00  0.00     0.026 H 
ATOM     56  H   LIG d   1       1.996  -2.290  -8.742  0.00  0.00     0.026 H 
BRANCH  54  57
ATOM     57  C   LIG d   1       2.695  -0.439  -7.892  0.00  0.00    -0.065 C 
ATOM     58  H   LIG d   1       3.648   0.062  -8.065  0.00  0.00     0.023 H 
ATOM     59  H   LIG d   1       1.910   0.307  -7.760  0.00  0.00     0.023 H 
ATOM     60  H   LIG d   1       2.765  -1.054  -6.995  0.00  0.00     0.023 H 
ENDBRANCH  54  57
ENDBRANCH  51  54
ENDBRANCH  48  51
ENDBRANCH  45  48
ENDBRANCH  44  45
ENDBRANCH  38  44
ENDBRANCH   1  34
TORSDOF 7
ENDMDL
MODEL 9
REMARK VINA RESULT:      -6.4      3.296      8.395
REMARK  7 active torsions:
REMARK  status: ('A' for Active; 'I' for Inactive)
REMARK    1  A    between atoms: C_1  and  C_2 
REMARK    2  A    between atoms: C_2  and  C_3 
REMARK    3  A    between atoms: C_3  and  C_4 
REMARK    4  A    between atoms: C_4  and  C_5 
REMARK    5  A    between atoms: C_5  and  O_6 
REMARK    6  A    between atoms: O_6  and  C_7 
REMARK    7  A    between atoms: C_10  and  N_13 
ROOT
ATOM      1  N   LIG d   1       8.334   1.880  -4.704  0.00  0.00    -0.210 N 
ATOM      2  C   LIG d   1       8.560   1.325  -5.936  0.00  0.00     0.232 C 
ATOM      3  O   LIG d   1       9.600   1.274  -6.558  0.00  0.00    -0.274 OA
ATOM      4  C   LIG d   1       7.181   0.783  -6.340  0.00  0.00     0.073 C 
ATOM      5  H   LIG d   1       6.469   1.533  -6.685  0.00  0.00     0.042 H 
ATOM      6  C   LIG d   1       6.927   0.181  -4.909  0.00  0.00     0.073 C 
ATOM      7  H   LIG d   1       7.755  -0.511  -4.752  0.00  0.00     0.042 H 
ATOM      8  C   LIG d   1       7.226   1.357  -4.077  0.00  0.00     0.232 C 
ATOM      9  O   LIG d   1       6.645   1.762  -3.093  0.00  0.00    -0.274 OA
ATOM     10  C   LIG d   1       5.655  -0.665  -4.893  0.00  0.00     0.088 C 
ATOM     11  C   LIG d   1       6.479  -1.948  -5.254  0.00  0.00    -0.021 A 
ATOM     12  C   LIG d   1       6.356  -3.125  -4.592  0.00  0.00    -0.057 A 
ATOM     13  C   LIG d   1       7.213  -4.166  -4.944  0.00  0.00    -0.061 A 
ATOM     14  C   LIG d   1       8.158  -3.968  -5.934  0.00  0.00    -0.061 A 
ATOM     15  C   LIG d   1       8.243  -2.766  -6.618  0.00  0.00    -0.057 A 
ATOM     16  C   LIG d   1       7.359  -1.755  -6.304  0.00  0.00    -0.021 A 
ATOM     17  C   LIG d   1       7.255  -0.517  -7.225  0.00  0.00     0.088 C 
ATOM     18  C   LIG d   1       5.715  -0.533  -7.440  0.00  0.00    -0.021 A 
ATOM     19  C   LIG d   1       4.949  -0.512  -6.264  0.00  0.00    -0.021 A 
ATOM     20  C   LIG d   1       3.580  -0.389  -6.334  0.00  0.00    -0.057 A 
ATOM     21  C   LIG d   1       2.978  -0.337  -7.583  0.00  0.00    -0.061 A 
ATOM     22  C   LIG d   1       3.731  -0.412  -8.738  0.00  0.00    -0.061 A 
ATOM     23  C   LIG d   1       5.138  -0.511  -8.676  0.00  0.00    -0.057 A 
ATOM     24 BR   LIG d   1       8.430  -0.443  -8.799  0.00  0.00    -0.073 Br
ATOM     25 BR   LIG d   1       4.534  -0.623  -3.279  0.00  0.00    -0.073 Br
ATOM     26  H   LIG d   1       5.618  -3.251  -3.814  0.00  0.00     0.062 H 
ATOM     27  H   LIG d   1       7.139  -5.121  -4.446  0.00  0.00     0.062 H 
ATOM     28  H   LIG d   1       8.843  -4.766  -6.178  0.00  0.00     0.062 H 
ATOM     29  H   LIG d   1       8.990  -2.624  -7.385  0.00  0.00     0.062 H 
ATOM     30  H   LIG d   1       2.986  -0.336  -5.434  0.00  0.00     0.062 H 
ATOM     31  H   LIG d   1       1.905  -0.236  -7.652  0.00  0.00     0.062 H 
ATOM     32  H   LIG d   1       3.245  -0.401  -9.702  0.00  0.00     0.062 H 
ATOM     33  H   LIG d   1       5.742  -0.546  -9.570  0.00  0.00     0.062 H 
ENDROOT
BRANCH   1  34
ATOM     34  C   LIG d   1       9.149   2.873  -4.138  0.00  0.00     0.044 A 
ATOM     35  C   LIG d   1       9.985   2.562  -3.074  0.00  0.00    -0.036 A 
ATOM     36  C   LIG d   1      10.787   3.539  -2.518  0.00  0.00    -0.018 A 
ATOM     37  H   LIG d   1      10.009   1.556  -2.682  0.00  0.00     0.064 H 
ATOM     38  C   LIG d   1      10.758   4.831  -3.023  0.00  0.00     0.121 A 
ATOM     39  H   LIG d   1      11.438   3.297  -1.691  0.00  0.00     0.066 H 
ATOM     40  C   LIG d   1       9.918   5.143  -4.082  0.00  0.00    -0.018 A 
ATOM     41  C   LIG d   1       9.119   4.167  -4.642  0.00  0.00    -0.036 A 
ATOM     42  H   LIG d   1       9.892   6.151  -4.472  0.00  0.00     0.066 H 
ATOM     43  H   LIG d   1       8.470   4.408  -5.470  0.00  0.00     0.064 H 
BRANCH  38  44
ATOM     44  O   LIG d   1      11.547   5.793  -2.475  0.00  0.00    -0.492 OA
BRANCH  44  45
ATOM     45  C   LIG d   1      11.352   6.079  -1.088  0.00  0.00     0.090 C 
ATOM     46  H   LIG d   1      12.292   5.944  -0.554  0.00  0.00     0.070 H 
ATOM     47  H   LIG d   1      10.601   5.403  -0.678  0.00  0.00     0.070 H 
BRANCH  45  48
ATOM     48  C   LIG d   1      10.878   7.525  -0.928  0.00  0.00    -0.019 C 
ATOM     49  H   LIG d   1      11.487   8.179  -1.552  0.00  0.00     0.030 H 
ATOM     50  H   LIG d   1      10.977   7.825   0.116  0.00  0.00     0.030 H 
BRANCH  48  51
ATOM     51  C   LIG d   1       9.412   7.632  -1.353  0.00  0.00    -0.050 C 
ATOM     52  H   LIG d   1       8.862   6.768  -0.983  0.00  0.00     0.027 H 
ATOM     53  H   LIG d   1       9.352   7.663  -2.442  0.00  0.00     0.027 H 
BRANCH  51  54
ATOM     54  C   LIG d   1       8.805   8.911  -0.773  0.00  0.00    -0.056 C 
ATOM     55  H   LIG d   1       8.297   8.680   0.163  0.00  0.00     0.026 H 
ATOM     56  H   LIG d   1       8.090   9.327  -1.481  0.00  0.00     0.026 H 
BRANCH  54  57
ATOM     57  C   LIG d   1       9.917   9.930  -0.512  0.00  0.00    -0.065 C 
ATOM     58  H   LIG d   1      10.867   9.409  -0.398  0.00  0.00     0.023 H 
ATOM     59  H   LIG d   1       9.980  10.622  -1.352  0.00  0.00     0.023 H 
ATOM     60  H   LIG d   1       9.694  10.484   0.400  0.00  0.00     0.023 H 
ENDBRANCH  54  57
ENDBRANCH  51  54
ENDBRANCH  48  51
ENDBRANCH  45  48
ENDBRANCH  44  45
ENDBRANCH  38  44
ENDBRANCH   1  34
TORSDOF 7
ENDMDL
MODEL 10
REMARK VINA RESULT:      -6.4      5.428      8.999
REMARK  7 active torsions:
REMARK  status: ('A' for Active; 'I' for Inactive)
REMARK    1  A    between atoms: C_1  and  C_2 
REMARK    2  A    between atoms: C_2  and  C_3 
REMARK    3  A    between atoms: C_3  and  C_4 
REMARK    4  A    between atoms: C_4  and  C_5 
REMARK    5  A    between atoms: C_5  and  O_6 
REMARK    6  A    between atoms: O_6  and  C_7 
REMARK    7  A    between atoms: C_10  and  N_13 
ROOT
ATOM      1  N   LIG d   1       9.222  -3.123  -4.879  0.00  0.00    -0.210 N 
ATOM      2  C   LIG d   1       8.002  -3.736  -4.984  0.00  0.00     0.232 C 
ATOM      3  O   LIG d   1       7.673  -4.832  -4.582  0.00  0.00    -0.274 OA
ATOM      4  C   LIG d   1       7.148  -2.702  -5.734  0.00  0.00     0.073 C 
ATOM      5  H   LIG d   1       7.333  -2.637  -6.807  0.00  0.00     0.042 H 
ATOM      6  C   LIG d   1       7.696  -1.518  -4.856  0.00  0.00     0.073 C 
ATOM      7  H   LIG d   1       7.436  -1.793  -3.833  0.00  0.00     0.042 H 
ATOM      8  C   LIG d   1       9.143  -1.753  -4.977  0.00  0.00     0.232 C 
ATOM      9  O   LIG d   1      10.036  -0.946  -5.127  0.00  0.00    -0.274 OA
ATOM     10  C   LIG d   1       6.939  -0.224  -5.154  0.00  0.00     0.088 C 
ATOM     11  C   LIG d   1       5.903  -0.546  -4.024  0.00  0.00    -0.021 A 
ATOM     12  C   LIG d   1       5.527   0.352  -3.079  0.00  0.00    -0.057 A 
ATOM     13  C   LIG d   1       4.670  -0.082  -2.069  0.00  0.00    -0.061 A 
ATOM     14  C   LIG d   1       4.245  -1.397  -2.052  0.00  0.00    -0.061 A 
ATOM     15  C   LIG d   1       4.618  -2.287  -3.047  0.00  0.00    -0.057 A 
ATOM     16  C   LIG d   1       5.423  -1.841  -4.074  0.00  0.00    -0.021 A 
ATOM     17  C   LIG d   1       5.629  -2.729  -5.324  0.00  0.00     0.088 C 
ATOM     18  C   LIG d   1       5.254  -1.675  -6.405  0.00  0.00    -0.021 A 
ATOM     19  C   LIG d   1       5.988  -0.480  -6.350  0.00  0.00    -0.021 A 
ATOM     20  C   LIG d   1       5.835   0.468  -7.336  0.00  0.00    -0.057 A 
ATOM     21  C   LIG d   1       4.913   0.239  -8.347  0.00  0.00    -0.061 A 
ATOM     22  C   LIG d   1       4.154  -0.916  -8.366  0.00  0.00    -0.061 A 
ATOM     23  C   LIG d   1       4.323  -1.906  -7.374  0.00  0.00    -0.057 A 
ATOM     24 BR   LIG d   1       4.739  -4.482  -5.362  0.00  0.00    -0.073 Br
ATOM     25 BR   LIG d   1       7.946   1.464  -5.132  0.00  0.00    -0.073 Br
ATOM     26  H   LIG d   1       5.882   1.372  -3.107  0.00  0.00     0.062 H 
ATOM     27  H   LIG d   1       4.341   0.606  -1.305  0.00  0.00     0.062 H 
ATOM     28  H   LIG d   1       3.610  -1.738  -1.248  0.00  0.00     0.062 H 
ATOM     29  H   LIG d   1       4.282  -3.314  -3.018  0.00  0.00     0.062 H 
ATOM     30  H   LIG d   1       6.421   1.375  -7.321  0.00  0.00     0.062 H 
ATOM     31  H   LIG d   1       4.787   0.973  -9.128  0.00  0.00     0.062 H 
ATOM     32  H   LIG d   1       3.419  -1.066  -9.143  0.00  0.00     0.062 H 
ATOM     33  H   LIG d   1       3.755  -2.824  -7.390  0.00  0.00     0.062 H 
ENDROOT
BRANCH   1  34
ATOM     34  C   LIG d   1      10.427  -3.819  -4.686  0.00  0.00     0.044 A 
ATOM     35  C   LIG d   1      10.802  -4.214  -3.409  0.00  0.00    -0.036 A 
ATOM     36  C   LIG d   1      11.987  -4.898  -3.220  0.00  0.00    -0.018 A 
ATOM     37  H   LIG d   1      10.169  -3.986  -2.565  0.00  0.00     0.064 H 
ATOM     38  C   LIG d   1      12.800  -5.191  -4.305  0.00  0.00     0.121 A 
ATOM     39  H   LIG d   1      12.279  -5.205  -2.226  0.00  0.00     0.066 H 
ATOM     40  C   LIG d   1      12.427  -4.792  -5.579  0.00  0.00    -0.018 A 
ATOM     41  C   LIG d   1      11.241  -4.112  -5.772  0.00  0.00    -0.036 A 
ATOM     42  H   LIG d   1      13.063  -5.017  -6.424  0.00  0.00     0.066 H 
ATOM     43  H   LIG d   1      10.948  -3.805  -6.764  0.00  0.00     0.064 H 
BRANCH  38  44
ATOM     44  O   LIG d   1      13.966  -5.865  -4.117  0.00  0.00    -0.492 OA
BRANCH  44  45
ATOM     45  C   LIG d   1      14.810  -5.418  -3.054  0.00  0.00     0.090 C 
ATOM     46  H   LIG d   1      15.441  -6.242  -2.721  0.00  0.00     0.070 H 
ATOM     47  H   LIG d   1      14.195  -5.073  -2.222  0.00  0.00     0.070 H 
BRANCH  45  48
ATOM     48  C   LIG d   1      15.690  -4.268  -3.548  0.00  0.00    -0.019 C 
ATOM     49  H   LIG d   1      15.655  -4.227  -4.637  0.00  0.00     0.030 H 
ATOM     50  H   LIG d   1      16.717  -4.433  -3.223  0.00  0.00     0.030 H 
BRANCH  48  51
ATOM     51  C   LIG d   1      15.176  -2.948  -2.970  0.00  0.00    -0.050 C 
ATOM     52  H   LIG d   1      15.963  -2.479  -2.381  0.00  0.00     0.027 H 
ATOM     53  H   LIG d   1      14.312  -3.141  -2.335  0.00  0.00     0.027 H 
BRANCH  51  54
ATOM     54  C   LIG d   1      14.770  -2.015  -4.113  0.00  0.00    -0.056 C 
ATOM     55  H   LIG d   1      14.781  -2.566  -5.054  0.00  0.00     0.026 H 
ATOM     56  H   LIG d   1      15.472  -1.184  -4.171  0.00  0.00     0.026 H 
BRANCH  54  57
ATOM     57  C   LIG d   1      13.361  -1.476  -3.855  0.00  0.00    -0.065 C 
ATOM     58  H   LIG d   1      12.626  -2.208  -4.188  0.00  0.00     0.023 H 
ATOM     59  H   LIG d   1      13.233  -1.291  -2.788  0.00  0.00     0.023 H 
ATOM     60  H   LIG d   1      13.223  -0.546  -4.405  0.00  0.00     0.023 H 
ENDBRANCH  54  57
ENDBRANCH  51  54
ENDBRANCH  48  51
ENDBRANCH  45  48
ENDBRANCH  44  45
ENDBRANCH  38  44
ENDBRANCH   1  34
TORSDOF 7
ENDMDL
