MODEL 1
REMARK VINA RESULT:      -6.4      0.000      0.000
REMARK  5 active torsions:
REMARK  status: ('A' for Active; 'I' for Inactive)
REMARK    1  A    between atoms: C_1  and  C_2 
REMARK    2  A    between atoms: C_6  and  C_19 
REMARK    3  A    between atoms: C_7  and  N_8 
REMARK       I    between atoms: N_8  and  C_9 
REMARK    4  A    between atoms: C_9  and  C_11 
REMARK    5  A    between atoms: N_17  and  C_18 
ROOT
ATOM      1  N   LIG d   1       3.372  -0.876  -5.628  0.00  0.00    -0.280 N 
ATOM      2  C   LIG d   1       4.201  -0.488  -6.616  0.00  0.00     0.266 C 
ATOM      3  O   LIG d   1       5.259   0.040  -6.348  0.00  0.00    -0.269 OA
ATOM      4  H   LIG d   1       2.548  -1.343  -5.840  0.00  0.00     0.155 HD
ENDROOT
BRANCH   2   5
ATOM      5  C   LIG d   1       3.813  -0.710  -8.056  0.00  0.00     0.057 C 
ATOM      6  H   LIG d   1       4.639  -0.416  -8.704  0.00  0.00     0.095 H 
ATOM      7  N   LIG d   1       2.631   0.099  -8.374  0.00  0.00     0.242 N 
ATOM      8  C   LIG d   1       2.292  -0.053  -9.794  0.00  0.00    -0.031 C 
ATOM      9  H   LIG d   1       1.853  -0.207  -7.808  0.00  0.00     0.204 HD
ATOM     10  C   LIG d   1       1.915  -1.508 -10.079  0.00  0.00    -0.012 C 
ATOM     11  H   LIG d   1       3.150   0.227 -10.405  0.00  0.00     0.081 H 
ATOM     12  H   LIG d   1       1.447   0.594 -10.037  0.00  0.00     0.081 H 
ATOM     13  C   LIG d   1       3.103  -2.413  -9.738  0.00  0.00    -0.043 C 
ATOM     14  H   LIG d   1       1.665  -1.619 -11.134  0.00  0.00     0.032 H 
ATOM     15  H   LIG d   1       1.056  -1.788  -9.470  0.00  0.00     0.032 H 
ATOM     16  C   LIG d   1       3.496  -2.191  -8.274  0.00  0.00    -0.001 C 
ATOM     17  H   LIG d   1       3.946  -2.167 -10.384  0.00  0.00     0.027 H 
ATOM     18  H   LIG d   1       2.821  -3.455  -9.886  0.00  0.00     0.027 H 
ATOM     19  H   LIG d   1       4.376  -2.791  -8.039  0.00  0.00     0.033 H 
ATOM     20  H   LIG d   1       2.670  -2.487  -7.627  0.00  0.00     0.033 H 
BRANCH   7  21
ATOM     21  C   LIG d   1       2.914   1.512  -8.088  0.00  0.00    -0.042 C 
ATOM     22  H   LIG d   1       2.052   1.962  -7.594  0.00  0.00     0.078 H 
ATOM     23  H   LIG d   1       3.785   1.584  -7.438  0.00  0.00     0.078 H 
ATOM     24  H   LIG d   1       3.112   2.038  -9.022  0.00  0.00     0.078 H 
ENDBRANCH   7  21
ENDBRANCH   2   5
BRANCH   1  25
ATOM     25  C   LIG d   1       3.698  -0.606  -4.295  0.00  0.00     0.039 A 
ATOM     26  C   LIG d   1       4.386  -1.549  -3.541  0.00  0.00    -0.029 A 
ATOM     27  C   LIG d   1       4.713  -1.277  -2.227  0.00  0.00    -0.057 A 
ATOM     28  C   LIG d   1       4.350  -0.068  -1.659  0.00  0.00    -0.061 A 
ATOM     29  H   LIG d   1       5.252  -2.006  -1.642  0.00  0.00     0.062 H 
ATOM     30  C   LIG d   1       3.660   0.870  -2.405  0.00  0.00    -0.057 A 
ATOM     31  H   LIG d   1       4.606   0.142  -0.632  0.00  0.00     0.062 H 
ATOM     32  C   LIG d   1       3.331   0.604  -3.719  0.00  0.00    -0.029 A 
ATOM     33  H   LIG d   1       3.378   1.812  -1.958  0.00  0.00     0.062 H 
BRANCH  26  34
ATOM     34  C   LIG d   1       4.782  -2.864  -4.160  0.00  0.00    -0.038 C 
ATOM     35  H   LIG d   1       3.940  -3.556  -4.114  0.00  0.00     0.028 H 
ATOM     36  H   LIG d   1       5.063  -2.705  -5.201  0.00  0.00     0.028 H 
ATOM     37  H   LIG d   1       5.627  -3.284  -3.615  0.00  0.00     0.028 H 
ENDBRANCH  26  34
BRANCH  32  38
ATOM     38  C   LIG d   1       2.579   1.627  -4.530  0.00  0.00    -0.038 C 
ATOM     39  H   LIG d   1       1.731   1.996  -3.953  0.00  0.00     0.028 H 
ATOM     40  H   LIG d   1       3.242   2.456  -4.774  0.00  0.00     0.028 H 
ATOM     41  H   LIG d   1       2.218   1.168  -5.451  0.00  0.00     0.028 H 
ENDBRANCH  32  38
ENDBRANCH   1  25
TORSDOF 5
ENDMDL
MODEL 2
REMARK VINA RESULT:      -6.4      0.055      2.020
REMARK  5 active torsions:
REMARK  status: ('A' for Active; 'I' for Inactive)
REMARK    1  A    between atoms: C_1  and  C_2 
REMARK    2  A    between atoms: C_6  and  C_19 
REMARK    3  A    between atoms: C_7  and  N_8 
REMARK       I    between atoms: N_8  and  C_9 
REMARK    4  A    between atoms: C_9  and  C_11 
REMARK    5  A    between atoms: N_17  and  C_18 
ROOT
ATOM      1  N   LIG d   1       3.372  -0.918  -5.652  0.00  0.00    -0.280 N 
ATOM      2  C   LIG d   1       4.194  -0.526  -6.645  0.00  0.00     0.266 C 
ATOM      3  O   LIG d   1       5.247   0.017  -6.383  0.00  0.00    -0.269 OA
ATOM      4  H   LIG d   1       2.554  -1.396  -5.859  0.00  0.00     0.155 HD
ENDROOT
BRANCH   2   5
ATOM      5  C   LIG d   1       3.806  -0.763  -8.082  0.00  0.00     0.057 C 
ATOM      6  H   LIG d   1       4.631  -0.474  -8.733  0.00  0.00     0.095 H 
ATOM      7  N   LIG d   1       2.622   0.040  -8.407  0.00  0.00     0.242 N 
ATOM      8  C   LIG d   1       2.283  -0.126  -9.826  0.00  0.00    -0.031 C 
ATOM      9  H   LIG d   1       1.845  -0.262  -7.838  0.00  0.00     0.204 HD
ATOM     10  C   LIG d   1       1.909  -1.585 -10.096  0.00  0.00    -0.012 C 
ATOM     11  H   LIG d   1       3.140   0.149 -10.440  0.00  0.00     0.081 H 
ATOM     12  H   LIG d   1       1.437   0.516 -10.074  0.00  0.00     0.081 H 
ATOM     13  C   LIG d   1       3.099  -2.484  -9.747  0.00  0.00    -0.043 C 
ATOM     14  H   LIG d   1       1.659  -1.707 -11.150  0.00  0.00     0.032 H 
ATOM     15  H   LIG d   1       1.052  -1.861  -9.484  0.00  0.00     0.032 H 
ATOM     16  C   LIG d   1       3.493  -2.247  -8.286  0.00  0.00    -0.001 C 
ATOM     17  H   LIG d   1       3.941  -2.242 -10.396  0.00  0.00     0.027 H 
ATOM     18  H   LIG d   1       2.820  -3.528  -9.884  0.00  0.00     0.027 H 
ATOM     19  H   LIG d   1       4.374  -2.842  -8.045  0.00  0.00     0.033 H 
ATOM     20  H   LIG d   1       2.668  -2.538  -7.635  0.00  0.00     0.033 H 
BRANCH   7  21
ATOM     21  C   LIG d   1       2.902   1.456  -8.135  0.00  0.00    -0.042 C 
ATOM     22  H   LIG d   1       3.972   1.641  -8.239  0.00  0.00     0.078 H 
ATOM     23  H   LIG d   1       2.356   2.077  -8.845  0.00  0.00     0.078 H 
ATOM     24  H   LIG d   1       2.589   1.700  -7.121  0.00  0.00     0.078 H 
ENDBRANCH   7  21
ENDBRANCH   2   5
BRANCH   1  25
ATOM     25  C   LIG d   1       3.698  -0.634  -4.321  0.00  0.00     0.039 A 
ATOM     26  C   LIG d   1       3.323   0.578  -3.755  0.00  0.00    -0.029 A 
ATOM     27  C   LIG d   1       3.641   0.853  -2.440  0.00  0.00    -0.057 A 
ATOM     28  C   LIG d   1       4.337  -0.076  -1.687  0.00  0.00    -0.061 A 
ATOM     29  H   LIG d   1       3.346   1.792  -1.998  0.00  0.00     0.062 H 
ATOM     30  C   LIG d   1       4.716  -1.281  -2.249  0.00  0.00    -0.057 A 
ATOM     31  H   LIG d   1       4.584   0.141  -0.659  0.00  0.00     0.062 H 
ATOM     32  C   LIG d   1       4.401  -1.562  -3.564  0.00  0.00    -0.029 A 
ATOM     33  H   LIG d   1       5.260  -2.004  -1.658  0.00  0.00     0.062 H 
BRANCH  26  34
ATOM     34  C   LIG d   1       2.565   1.589  -4.576  0.00  0.00    -0.038 C 
ATOM     35  H   LIG d   1       2.334   2.458  -3.960  0.00  0.00     0.028 H 
ATOM     36  H   LIG d   1       3.176   1.899  -5.424  0.00  0.00     0.028 H 
ATOM     37  H   LIG d   1       1.639   1.144  -4.938  0.00  0.00     0.028 H 
ENDBRANCH  26  34
BRANCH  32  38
ATOM     38  C   LIG d   1       4.816  -2.875  -4.174  0.00  0.00    -0.038 C 
ATOM     39  H   LIG d   1       3.935  -3.494  -4.340  0.00  0.00     0.028 H 
ATOM     40  H   LIG d   1       5.315  -2.692  -5.126  0.00  0.00     0.028 H 
ATOM     41  H   LIG d   1       5.500  -3.391  -3.499  0.00  0.00     0.028 H 
ENDBRANCH  32  38
ENDBRANCH   1  25
TORSDOF 5
ENDMDL
MODEL 3
REMARK VINA RESULT:      -6.3      0.908      1.717
REMARK  5 active torsions:
REMARK  status: ('A' for Active; 'I' for Inactive)
REMARK    1  A    between atoms: C_1  and  C_2 
REMARK    2  A    between atoms: C_6  and  C_19 
REMARK    3  A    between atoms: C_7  and  N_8 
REMARK       I    between atoms: N_8  and  C_9 
REMARK    4  A    between atoms: C_9  and  C_11 
REMARK    5  A    between atoms: N_17  and  C_18 
ROOT
ATOM      1  N   LIG d   1       3.122  -0.724  -5.371  0.00  0.00    -0.280 N 
ATOM      2  C   LIG d   1       3.851  -0.418  -6.463  0.00  0.00     0.266 C 
ATOM      3  O   LIG d   1       4.928   0.126  -6.341  0.00  0.00    -0.269 OA
ATOM      4  H   LIG d   1       2.284  -1.203  -5.465  0.00  0.00     0.155 HD
ENDROOT
BRANCH   2   5
ATOM      5  C   LIG d   1       3.327  -0.754  -7.836  0.00  0.00     0.057 C 
ATOM      6  H   LIG d   1       2.431  -1.367  -7.742  0.00  0.00     0.095 H 
ATOM      7  N   LIG d   1       4.351  -1.496  -8.581  0.00  0.00     0.242 N 
ATOM      8  C   LIG d   1       3.822  -1.894  -9.891  0.00  0.00    -0.031 C 
ATOM      9  H   LIG d   1       5.163  -0.910  -8.710  0.00  0.00     0.204 HD
ATOM     10  C   LIG d   1       3.500  -0.645 -10.715  0.00  0.00    -0.012 C 
ATOM     11  H   LIG d   1       2.915  -2.482  -9.754  0.00  0.00     0.081 H 
ATOM     12  H   LIG d   1       4.567  -2.493 -10.417  0.00  0.00     0.081 H 
ATOM     13  C   LIG d   1       2.454   0.192  -9.974  0.00  0.00    -0.043 C 
ATOM     14  H   LIG d   1       3.107  -0.943 -11.687  0.00  0.00     0.032 H 
ATOM     15  H   LIG d   1       4.407  -0.057 -10.854  0.00  0.00     0.032 H 
ATOM     16  C   LIG d   1       2.986   0.538  -8.580  0.00  0.00    -0.001 C 
ATOM     17  H   LIG d   1       1.530  -0.378  -9.881  0.00  0.00     0.027 H 
ATOM     18  H   LIG d   1       2.263   1.110 -10.530  0.00  0.00     0.027 H 
ATOM     19  H   LIG d   1       2.224   1.087  -8.026  0.00  0.00     0.033 H 
ATOM     20  H   LIG d   1       3.881   1.152  -8.675  0.00  0.00     0.033 H 
BRANCH   7  21
ATOM     21  C   LIG d   1       4.733  -2.696  -7.824  0.00  0.00    -0.042 C 
ATOM     22  H   LIG d   1       5.023  -2.411  -6.813  0.00  0.00     0.078 H 
ATOM     23  H   LIG d   1       3.887  -3.382  -7.780  0.00  0.00     0.078 H 
ATOM     24  H   LIG d   1       5.573  -3.184  -8.318  0.00  0.00     0.078 H 
ENDBRANCH   7  21
ENDBRANCH   2   5
BRANCH   1  25
ATOM     25  C   LIG d   1       3.574  -0.349  -4.101  0.00  0.00     0.039 A 
ATOM     26  C   LIG d   1       4.286  -1.252  -3.320  0.00  0.00    -0.029 A 
ATOM     27  C   LIG d   1       4.736  -0.876  -2.070  0.00  0.00    -0.057 A 
ATOM     28  C   LIG d   1       4.474   0.396  -1.593  0.00  0.00    -0.061 A 
ATOM     29  H   LIG d   1       5.292  -1.575  -1.465  0.00  0.00     0.062 H 
ATOM     30  C   LIG d   1       3.763   1.294  -2.365  0.00  0.00    -0.057 A 
ATOM     31  H   LIG d   1       4.828   0.686  -0.614  0.00  0.00     0.062 H 
ATOM     32  C   LIG d   1       3.310   0.925  -3.616  0.00  0.00    -0.029 A 
ATOM     33  H   LIG d   1       3.559   2.286  -1.988  0.00  0.00     0.062 H 
BRANCH  26  34
ATOM     34  C   LIG d   1       4.570  -2.636  -3.841  0.00  0.00    -0.038 C 
ATOM     35  H   LIG d   1       3.770  -3.312  -3.536  0.00  0.00     0.028 H 
ATOM     36  H   LIG d   1       4.627  -2.610  -4.929  0.00  0.00     0.028 H 
ATOM     37  H   LIG d   1       5.518  -2.990  -3.436  0.00  0.00     0.028 H 
ENDBRANCH  26  34
BRANCH  32  38
ATOM     38  C   LIG d   1       2.533   1.906  -4.456  0.00  0.00    -0.038 C 
ATOM     39  H   LIG d   1       1.596   2.150  -3.957  0.00  0.00     0.028 H 
ATOM     40  H   LIG d   1       3.120   2.814  -4.592  0.00  0.00     0.028 H 
ATOM     41  H   LIG d   1       2.320   1.463  -5.430  0.00  0.00     0.028 H 
ENDBRANCH  32  38
ENDBRANCH   1  25
TORSDOF 5
ENDMDL
MODEL 4
REMARK VINA RESULT:      -6.2      1.244      2.835
REMARK  5 active torsions:
REMARK  status: ('A' for Active; 'I' for Inactive)
REMARK    1  A    between atoms: C_1  and  C_2 
REMARK    2  A    between atoms: C_6  and  C_19 
REMARK    3  A    between atoms: C_7  and  N_8 
REMARK       I    between atoms: N_8  and  C_9 
REMARK    4  A    between atoms: C_9  and  C_11 
REMARK    5  A    between atoms: N_17  and  C_18 
ROOT
ATOM      1  N   LIG d   1       3.377  -0.710  -5.863  0.00  0.00    -0.280 N 
ATOM      2  C   LIG d   1       4.242  -0.185  -6.753  0.00  0.00     0.266 C 
ATOM      3  O   LIG d   1       5.323   0.221  -6.382  0.00  0.00    -0.269 OA
ATOM      4  H   LIG d   1       2.533  -1.080  -6.166  0.00  0.00     0.155 HD
ENDROOT
BRANCH   2   5
ATOM      5  C   LIG d   1       3.865  -0.102  -8.211  0.00  0.00     0.057 C 
ATOM      6  H   LIG d   1       2.882  -0.551  -8.357  0.00  0.00     0.095 H 
ATOM      7  N   LIG d   1       4.857  -0.826  -9.013  0.00  0.00     0.242 N 
ATOM      8  C   LIG d   1       4.457  -0.817 -10.425  0.00  0.00    -0.031 C 
ATOM      9  H   LIG d   1       5.758  -0.381  -8.915  0.00  0.00     0.204 HD
ATOM     10  C   LIG d   1       4.442   0.623 -10.944  0.00  0.00    -0.012 C 
ATOM     11  H   LIG d   1       3.462  -1.249 -10.525  0.00  0.00     0.081 H 
ATOM     12  H   LIG d   1       5.168  -1.404 -11.008  0.00  0.00     0.081 H 
ATOM     13  C   LIG d   1       3.442   1.444 -10.124  0.00  0.00    -0.043 C 
ATOM     14  H   LIG d   1       4.143   0.628 -11.993  0.00  0.00     0.032 H 
ATOM     15  H   LIG d   1       5.436   1.056 -10.847  0.00  0.00     0.032 H 
ATOM     16  C   LIG d   1       3.825   1.365  -8.644  0.00  0.00    -0.001 C 
ATOM     17  H   LIG d   1       2.439   1.041 -10.264  0.00  0.00     0.027 H 
ATOM     18  H   LIG d   1       3.468   2.483 -10.453  0.00  0.00     0.027 H 
ATOM     19  H   LIG d   1       3.087   1.901  -8.048  0.00  0.00     0.033 H 
ATOM     20  H   LIG d   1       4.808   1.814  -8.498  0.00  0.00     0.033 H 
BRANCH   7  21
ATOM     21  C   LIG d   1       4.948  -2.215  -8.542  0.00  0.00    -0.042 C 
ATOM     22  H   LIG d   1       5.371  -2.839  -9.330  0.00  0.00     0.078 H 
ATOM     23  H   LIG d   1       5.588  -2.259  -7.661  0.00  0.00     0.078 H 
ATOM     24  H   LIG d   1       3.952  -2.577  -8.287  0.00  0.00     0.078 H 
ENDBRANCH   7  21
ENDBRANCH   2   5
BRANCH   1  25
ATOM     25  C   LIG d   1       3.697  -0.722  -4.501  0.00  0.00     0.039 A 
ATOM     26  C   LIG d   1       3.382   0.370  -3.702  0.00  0.00    -0.029 A 
ATOM     27  C   LIG d   1       3.693   0.353  -2.356  0.00  0.00    -0.057 A 
ATOM     28  C   LIG d   1       4.323  -0.748  -1.806  0.00  0.00    -0.061 A 
ATOM     29  H   LIG d   1       3.444   1.199  -1.734  0.00  0.00     0.062 H 
ATOM     30  C   LIG d   1       4.643  -1.835  -2.599  0.00  0.00    -0.057 A 
ATOM     31  H   LIG d   1       4.566  -0.759  -0.753  0.00  0.00     0.062 H 
ATOM     32  C   LIG d   1       4.334  -1.824  -3.945  0.00  0.00    -0.029 A 
ATOM     33  H   LIG d   1       5.136  -2.692  -2.165  0.00  0.00     0.062 H 
BRANCH  26  34
ATOM     34  C   LIG d   1       2.695   1.569  -4.303  0.00  0.00    -0.038 C 
ATOM     35  H   LIG d   1       3.007   2.470  -3.775  0.00  0.00     0.028 H 
ATOM     36  H   LIG d   1       2.967   1.653  -5.355  0.00  0.00     0.028 H 
ATOM     37  H   LIG d   1       1.615   1.452  -4.214  0.00  0.00     0.028 H 
ENDBRANCH  26  34
BRANCH  32  38
ATOM     38  C   LIG d   1       4.685  -3.008  -4.808  0.00  0.00    -0.038 C 
ATOM     39  H   LIG d   1       4.689  -3.912  -4.201  0.00  0.00     0.028 H 
ATOM     40  H   LIG d   1       3.947  -3.108  -5.604  0.00  0.00     0.028 H 
ATOM     41  H   LIG d   1       5.673  -2.860  -5.245  0.00  0.00     0.028 H 
ENDBRANCH  32  38
ENDBRANCH   1  25
TORSDOF 5
ENDMDL
MODEL 5
REMARK VINA RESULT:      -6.1      2.038      2.699
REMARK  5 active torsions:
REMARK  status: ('A' for Active; 'I' for Inactive)
REMARK    1  A    between atoms: C_1  and  C_2 
REMARK    2  A    between atoms: C_6  and  C_19 
REMARK    3  A    between atoms: C_7  and  N_8 
REMARK       I    between atoms: N_8  and  C_9 
REMARK    4  A    between atoms: C_9  and  C_11 
REMARK    5  A    between atoms: N_17  and  C_18 
ROOT
ATOM      1  N   LIG d   1       4.220   0.298  -5.506  0.00  0.00    -0.280 N 
ATOM      2  C   LIG d   1       4.197  -0.371  -6.676  0.00  0.00     0.266 C 
ATOM      3  O   LIG d   1       4.176  -1.583  -6.681  0.00  0.00    -0.269 OA
ATOM      4  H   LIG d   1       4.187   1.268  -5.501  0.00  0.00     0.155 HD
ENDROOT
BRANCH   2   5
ATOM      5  C   LIG d   1       4.197   0.389  -7.978  0.00  0.00     0.057 C 
ATOM      6  H   LIG d   1       4.197  -0.317  -8.809  0.00  0.00     0.095 H 
ATOM      7  N   LIG d   1       5.396   1.231  -8.052  0.00  0.00     0.242 N 
ATOM      8  C   LIG d   1       5.443   1.916  -9.350  0.00  0.00    -0.031 C 
ATOM      9  H   LIG d   1       5.371   1.916  -7.311  0.00  0.00     0.204 HD
ATOM     10  C   LIG d   1       4.241   2.854  -9.479  0.00  0.00    -0.012 C 
ATOM     11  H   LIG d   1       5.416   1.179 -10.152  0.00  0.00     0.081 H 
ATOM     12  H   LIG d   1       6.364   2.496  -9.421  0.00  0.00     0.081 H 
ATOM     13  C   LIG d   1       2.950   2.036  -9.379  0.00  0.00    -0.043 C 
ATOM     14  H   LIG d   1       4.277   3.360 -10.444  0.00  0.00     0.032 H 
ATOM     15  H   LIG d   1       4.268   3.592  -8.679  0.00  0.00     0.032 H 
ATOM     16  C   LIG d   1       2.946   1.266  -8.055  0.00  0.00    -0.001 C 
ATOM     17  H   LIG d   1       2.899   1.332 -10.211  0.00  0.00     0.027 H 
ATOM     18  H   LIG d   1       2.091   2.706  -9.414  0.00  0.00     0.027 H 
ATOM     19  H   LIG d   1       2.057   0.639  -8.001  0.00  0.00     0.033 H 
ATOM     20  H   LIG d   1       2.945   1.973  -7.225  0.00  0.00     0.033 H 
BRANCH   7  21
ATOM     21  C   LIG d   1       6.593   0.393  -7.900  0.00  0.00    -0.042 C 
ATOM     22  H   LIG d   1       6.913   0.403  -6.857  0.00  0.00     0.078 H 
ATOM     23  H   LIG d   1       6.362  -0.628  -8.199  0.00  0.00     0.078 H 
ATOM     24  H   LIG d   1       7.393   0.785  -8.528  0.00  0.00     0.078 H 
ENDBRANCH   7  21
ENDBRANCH   2   5
BRANCH   1  25
ATOM     25  C   LIG d   1       4.292  -0.405  -4.300  0.00  0.00     0.039 A 
ATOM     26  C   LIG d   1       5.528  -0.762  -3.774  0.00  0.00    -0.029 A 
ATOM     27  C   LIG d   1       5.596  -1.451  -2.579  0.00  0.00    -0.057 A 
ATOM     28  C   LIG d   1       4.435  -1.792  -1.909  0.00  0.00    -0.061 A 
ATOM     29  H   LIG d   1       6.556  -1.724  -2.168  0.00  0.00     0.062 H 
ATOM     30  C   LIG d   1       3.204  -1.443  -2.432  0.00  0.00    -0.057 A 
ATOM     31  H   LIG d   1       4.491  -2.331  -0.975  0.00  0.00     0.062 H 
ATOM     32  C   LIG d   1       3.129  -0.753  -3.626  0.00  0.00    -0.029 A 
ATOM     33  H   LIG d   1       2.299  -1.711  -1.906  0.00  0.00     0.062 H 
BRANCH  26  34
ATOM     34  C   LIG d   1       6.792  -0.391  -4.505  0.00  0.00    -0.038 C 
ATOM     35  H   LIG d   1       6.544  -0.040  -5.507  0.00  0.00     0.028 H 
ATOM     36  H   LIG d   1       7.306   0.401  -3.960  0.00  0.00     0.028 H 
ATOM     37  H   LIG d   1       7.441  -1.263  -4.576  0.00  0.00     0.028 H 
ENDBRANCH  26  34
BRANCH  32  38
ATOM     38  C   LIG d   1       1.786  -0.375  -4.195  0.00  0.00    -0.038 C 
ATOM     39  H   LIG d   1       1.892   0.512  -4.818  0.00  0.00     0.028 H 
ATOM     40  H   LIG d   1       1.402  -1.198  -4.797  0.00  0.00     0.028 H 
ATOM     41  H   LIG d   1       1.091  -0.166  -3.381  0.00  0.00     0.028 H 
ENDBRANCH  32  38
ENDBRANCH   1  25
TORSDOF 5
ENDMDL
MODEL 6
REMARK VINA RESULT:      -6.0      4.401      6.418
REMARK  5 active torsions:
REMARK  status: ('A' for Active; 'I' for Inactive)
REMARK    1  A    between atoms: C_1  and  C_2 
REMARK    2  A    between atoms: C_6  and  C_19 
REMARK    3  A    between atoms: C_7  and  N_8 
REMARK       I    between atoms: N_8  and  C_9 
REMARK    4  A    between atoms: C_9  and  C_11 
REMARK    5  A    between atoms: N_17  and  C_18 
ROOT
ATOM      1  N   LIG d   1       7.183  -0.089  -3.291  0.00  0.00    -0.280 N 
ATOM      2  C   LIG d   1       7.431   0.575  -4.437  0.00  0.00     0.266 C 
ATOM      3  O   LIG d   1       6.574   0.654  -5.291  0.00  0.00    -0.269 OA
ATOM      4  H   LIG d   1       7.851  -0.110  -2.588  0.00  0.00     0.155 HD
ENDROOT
BRANCH   2   5
ATOM      5  C   LIG d   1       8.775   1.222  -4.657  0.00  0.00     0.057 C 
ATOM      6  H   LIG d   1       8.785   1.718  -5.628  0.00  0.00     0.095 H 
ATOM      7  N   LIG d   1       9.823   0.195  -4.622  0.00  0.00     0.242 N 
ATOM      8  C   LIG d   1      11.127   0.805  -4.912  0.00  0.00    -0.031 C 
ATOM      9  H   LIG d   1       9.846  -0.230  -3.707  0.00  0.00     0.204 HD
ATOM     10  C   LIG d   1      11.472   1.819  -3.819  0.00  0.00    -0.012 C 
ATOM     11  H   LIG d   1      11.086   1.310  -5.876  0.00  0.00     0.081 H 
ATOM     12  H   LIG d   1      11.892   0.028  -4.940  0.00  0.00     0.081 H 
ATOM     13  C   LIG d   1      10.396   2.908  -3.782  0.00  0.00    -0.043 C 
ATOM     14  H   LIG d   1      12.440   2.271  -4.036  0.00  0.00     0.032 H 
ATOM     15  H   LIG d   1      11.515   1.315  -2.854  0.00  0.00     0.032 H 
ATOM     16  C   LIG d   1       9.030   2.253  -3.555  0.00  0.00    -0.001 C 
ATOM     17  H   LIG d   1      10.390   3.446  -4.730  0.00  0.00     0.027 H 
ATOM     18  H   LIG d   1      10.607   3.601  -2.968  0.00  0.00     0.027 H 
ATOM     19  H   LIG d   1       8.252   3.016  -3.583  0.00  0.00     0.033 H 
ATOM     20  H   LIG d   1       9.021   1.758  -2.584  0.00  0.00     0.033 H 
BRANCH   7  21
ATOM     21  C   LIG d   1       9.532  -0.834  -5.630  0.00  0.00    -0.042 C 
ATOM     22  H   LIG d   1       8.487  -1.136  -5.549  0.00  0.00     0.078 H 
ATOM     23  H   LIG d   1       9.719  -0.432  -6.625  0.00  0.00     0.078 H 
ATOM     24  H   LIG d   1      10.173  -1.699  -5.460  0.00  0.00     0.078 H 
ENDBRANCH   7  21
ENDBRANCH   2   5
BRANCH   1  25
ATOM     25  C   LIG d   1       5.962  -0.749  -3.116  0.00  0.00     0.039 A 
ATOM     26  C   LIG d   1       4.890  -0.088  -2.531  0.00  0.00    -0.029 A 
ATOM     27  C   LIG d   1       3.684  -0.740  -2.366  0.00  0.00    -0.057 A 
ATOM     28  C   LIG d   1       3.546  -2.054  -2.777  0.00  0.00    -0.061 A 
ATOM     29  H   LIG d   1       2.849  -0.226  -1.915  0.00  0.00     0.062 H 
ATOM     30  C   LIG d   1       4.612  -2.717  -3.355  0.00  0.00    -0.057 A 
ATOM     31  H   LIG d   1       2.602  -2.562  -2.647  0.00  0.00     0.062 H 
ATOM     32  C   LIG d   1       5.820  -2.069  -3.524  0.00  0.00    -0.029 A 
ATOM     33  H   LIG d   1       4.500  -3.743  -3.674  0.00  0.00     0.062 H 
BRANCH  26  34
ATOM     34  C   LIG d   1       5.041   1.343  -2.083  0.00  0.00    -0.038 C 
ATOM     35  H   LIG d   1       4.565   1.473  -1.111  0.00  0.00     0.028 H 
ATOM     36  H   LIG d   1       6.101   1.587  -2.004  0.00  0.00     0.028 H 
ATOM     37  H   LIG d   1       4.569   2.004  -2.810  0.00  0.00     0.028 H 
ENDBRANCH  26  34
BRANCH  32  38
ATOM     38  C   LIG d   1       6.982  -2.794  -4.153  0.00  0.00    -0.038 C 
ATOM     39  H   LIG d   1       7.589  -2.086  -4.717  0.00  0.00     0.028 H 
ATOM     40  H   LIG d   1       7.590  -3.252  -3.373  0.00  0.00     0.028 H 
ATOM     41  H   LIG d   1       6.609  -3.567  -4.824  0.00  0.00     0.028 H 
ENDBRANCH  32  38
ENDBRANCH   1  25
TORSDOF 5
ENDMDL
MODEL 7
REMARK VINA RESULT:      -6.0      1.147      6.136
REMARK  5 active torsions:
REMARK  status: ('A' for Active; 'I' for Inactive)
REMARK    1  A    between atoms: C_1  and  C_2 
REMARK    2  A    between atoms: C_6  and  C_19 
REMARK    3  A    between atoms: C_7  and  N_8 
REMARK       I    between atoms: N_8  and  C_9 
REMARK    4  A    between atoms: C_9  and  C_11 
REMARK    5  A    between atoms: N_17  and  C_18 
ROOT
ATOM      1  N   LIG d   1       3.145  -0.681  -7.193  0.00  0.00    -0.280 N 
ATOM      2  C   LIG d   1       4.302  -0.560  -6.515  0.00  0.00     0.266 C 
ATOM      3  O   LIG d   1       5.334  -0.331  -7.110  0.00  0.00    -0.269 OA
ATOM      4  H   LIG d   1       2.312  -0.815  -6.713  0.00  0.00     0.155 HD
ENDROOT
BRANCH   2   5
ATOM      5  C   LIG d   1       4.315  -0.706  -5.014  0.00  0.00     0.057 C 
ATOM      6  H   LIG d   1       5.305  -0.454  -4.634  0.00  0.00     0.095 H 
ATOM      7  N   LIG d   1       3.993  -2.092  -4.656  0.00  0.00     0.242 N 
ATOM      8  C   LIG d   1       4.078  -2.263  -3.201  0.00  0.00    -0.031 C 
ATOM      9  H   LIG d   1       3.057  -2.310  -4.966  0.00  0.00     0.204 HD
ATOM     10  C   LIG d   1       3.031  -1.380  -2.519  0.00  0.00    -0.012 C 
ATOM     11  H   LIG d   1       5.072  -1.977  -2.858  0.00  0.00     0.081 H 
ATOM     12  H   LIG d   1       3.893  -3.307  -2.946  0.00  0.00     0.081 H 
ATOM     13  C   LIG d   1       3.295   0.085  -2.878  0.00  0.00    -0.043 C 
ATOM     14  H   LIG d   1       3.097  -1.507  -1.438  0.00  0.00     0.032 H 
ATOM     15  H   LIG d   1       2.036  -1.666  -2.859  0.00  0.00     0.032 H 
ATOM     16  C   LIG d   1       3.278   0.237  -4.402  0.00  0.00    -0.001 C 
ATOM     17  H   LIG d   1       4.269   0.385  -2.492  0.00  0.00     0.027 H 
ATOM     18  H   LIG d   1       2.518   0.713  -2.441  0.00  0.00     0.027 H 
ATOM     19  H   LIG d   1       3.520   1.267  -4.667  0.00  0.00     0.033 H 
ATOM     20  H   LIG d   1       2.287  -0.014  -4.782  0.00  0.00     0.033 H 
BRANCH   7  21
ATOM     21  C   LIG d   1       4.945  -3.000  -5.310  0.00  0.00    -0.042 C 
ATOM     22  H   LIG d   1       4.430  -3.571  -6.084  0.00  0.00     0.078 H 
ATOM     23  H   LIG d   1       5.749  -2.420  -5.761  0.00  0.00     0.078 H 
ATOM     24  H   LIG d   1       5.359  -3.685  -4.570  0.00  0.00     0.078 H 
ENDBRANCH   7  21
ENDBRANCH   2   5
BRANCH   1  25
ATOM     25  C   LIG d   1       3.143  -0.616  -8.591  0.00  0.00     0.039 A 
ATOM     26  C   LIG d   1       3.007   0.609  -9.231  0.00  0.00    -0.029 A 
ATOM     27  C   LIG d   1       3.013   0.671 -10.611  0.00  0.00    -0.057 A 
ATOM     28  C   LIG d   1       3.146  -0.487 -11.355  0.00  0.00    -0.061 A 
ATOM     29  H   LIG d   1       2.912   1.623 -11.108  0.00  0.00     0.062 H 
ATOM     30  C   LIG d   1       3.276  -1.709 -10.721  0.00  0.00    -0.057 A 
ATOM     31  H   LIG d   1       3.150  -0.437 -12.434  0.00  0.00     0.062 H 
ATOM     32  C   LIG d   1       3.272  -1.777  -9.342  0.00  0.00    -0.029 A 
ATOM     33  H   LIG d   1       3.379  -2.612 -11.306  0.00  0.00     0.062 H 
BRANCH  26  34
ATOM     34  C   LIG d   1       2.862   1.870  -8.420  0.00  0.00    -0.038 C 
ATOM     35  H   LIG d   1       3.839   2.336  -8.291  0.00  0.00     0.028 H 
ATOM     36  H   LIG d   1       2.197   2.561  -8.939  0.00  0.00     0.028 H 
ATOM     37  H   LIG d   1       2.444   1.629  -7.443  0.00  0.00     0.028 H 
ENDBRANCH  26  34
BRANCH  32  38
ATOM     38  C   LIG d   1       3.412  -3.110  -8.652  0.00  0.00    -0.038 C 
ATOM     39  H   LIG d   1       2.526  -3.714  -8.846  0.00  0.00     0.028 H 
ATOM     40  H   LIG d   1       4.293  -3.625  -9.033  0.00  0.00     0.028 H 
ATOM     41  H   LIG d   1       3.518  -2.955  -7.578  0.00  0.00     0.028 H 
ENDBRANCH  32  38
ENDBRANCH   1  25
TORSDOF 5
ENDMDL
MODEL 8
REMARK VINA RESULT:      -6.0      1.145      5.818
REMARK  5 active torsions:
REMARK  status: ('A' for Active; 'I' for Inactive)
REMARK    1  A    between atoms: C_1  and  C_2 
REMARK    2  A    between atoms: C_6  and  C_19 
REMARK    3  A    between atoms: C_7  and  N_8 
REMARK       I    between atoms: N_8  and  C_9 
REMARK    4  A    between atoms: C_9  and  C_11 
REMARK    5  A    between atoms: N_17  and  C_18 
ROOT
ATOM      1  N   LIG d   1       3.143  -0.686  -7.190  0.00  0.00    -0.280 N 
ATOM      2  C   LIG d   1       4.301  -0.565  -6.513  0.00  0.00     0.266 C 
ATOM      3  O   LIG d   1       5.332  -0.339  -7.110  0.00  0.00    -0.269 OA
ATOM      4  H   LIG d   1       2.311  -0.818  -6.709  0.00  0.00     0.155 HD
ENDROOT
BRANCH   2   5
ATOM      5  C   LIG d   1       4.315  -0.708  -5.012  0.00  0.00     0.057 C 
ATOM      6  H   LIG d   1       5.305  -0.453  -4.633  0.00  0.00     0.095 H 
ATOM      7  N   LIG d   1       3.994  -2.093  -4.651  0.00  0.00     0.242 N 
ATOM      8  C   LIG d   1       4.081  -2.260  -3.195  0.00  0.00    -0.031 C 
ATOM      9  H   LIG d   1       3.059  -2.313  -4.959  0.00  0.00     0.204 HD
ATOM     10  C   LIG d   1       3.033  -1.378  -2.514  0.00  0.00    -0.012 C 
ATOM     11  H   LIG d   1       5.075  -1.972  -2.854  0.00  0.00     0.081 H 
ATOM     12  H   LIG d   1       3.897  -3.304  -2.938  0.00  0.00     0.081 H 
ATOM     13  C   LIG d   1       3.294   0.087  -2.877  0.00  0.00    -0.043 C 
ATOM     14  H   LIG d   1       3.099  -1.502  -1.433  0.00  0.00     0.032 H 
ATOM     15  H   LIG d   1       2.039  -1.665  -2.853  0.00  0.00     0.032 H 
ATOM     16  C   LIG d   1       3.277   0.236  -4.401  0.00  0.00    -0.001 C 
ATOM     17  H   LIG d   1       4.268   0.390  -2.492  0.00  0.00     0.027 H 
ATOM     18  H   LIG d   1       2.517   0.715  -2.441  0.00  0.00     0.027 H 
ATOM     19  H   LIG d   1       3.517   1.265  -4.669  0.00  0.00     0.033 H 
ATOM     20  H   LIG d   1       2.286  -0.018  -4.780  0.00  0.00     0.033 H 
BRANCH   7  21
ATOM     21  C   LIG d   1       4.948  -3.002  -5.303  0.00  0.00    -0.042 C 
ATOM     22  H   LIG d   1       5.963  -2.735  -5.008  0.00  0.00     0.078 H 
ATOM     23  H   LIG d   1       4.738  -4.027  -5.000  0.00  0.00     0.078 H 
ATOM     24  H   LIG d   1       4.850  -2.914  -6.385  0.00  0.00     0.078 H 
ENDBRANCH   7  21
ENDBRANCH   2   5
BRANCH   1  25
ATOM     25  C   LIG d   1       3.140  -0.625  -8.587  0.00  0.00     0.039 A 
ATOM     26  C   LIG d   1       3.275  -1.787  -9.336  0.00  0.00    -0.029 A 
ATOM     27  C   LIG d   1       3.266  -1.724 -10.716  0.00  0.00    -0.057 A 
ATOM     28  C   LIG d   1       3.128  -0.503 -11.352  0.00  0.00    -0.061 A 
ATOM     29  H   LIG d   1       3.366  -2.627 -11.298  0.00  0.00     0.062 H 
ATOM     30  C   LIG d   1       2.998   0.656 -10.610  0.00  0.00    -0.057 A 
ATOM     31  H   LIG d   1       3.121  -0.456 -12.431  0.00  0.00     0.062 H 
ATOM     32  C   LIG d   1       3.006   0.599  -9.230  0.00  0.00    -0.029 A 
ATOM     33  H   LIG d   1       2.891   1.607 -11.110  0.00  0.00     0.062 H 
BRANCH  26  34
ATOM     34  C   LIG d   1       3.426  -3.116  -8.643  0.00  0.00    -0.038 C 
ATOM     35  H   LIG d   1       3.293  -2.984  -7.569  0.00  0.00     0.028 H 
ATOM     36  H   LIG d   1       2.672  -3.808  -9.018  0.00  0.00     0.028 H 
ATOM     37  H   LIG d   1       4.419  -3.519  -8.839  0.00  0.00     0.028 H 
ENDBRANCH  26  34
BRANCH  32  38
ATOM     38  C   LIG d   1       2.866   1.864  -8.423  0.00  0.00    -0.038 C 
ATOM     39  H   LIG d   1       3.098   2.723  -9.051  0.00  0.00     0.028 H 
ATOM     40  H   LIG d   1       1.844   1.948  -8.054  0.00  0.00     0.028 H 
ATOM     41  H   LIG d   1       3.556   1.835  -7.579  0.00  0.00     0.028 H 
ENDBRANCH  32  38
ENDBRANCH   1  25
TORSDOF 5
ENDMDL
MODEL 9
REMARK VINA RESULT:      -5.7      1.344      1.863
REMARK  5 active torsions:
REMARK  status: ('A' for Active; 'I' for Inactive)
REMARK    1  A    between atoms: C_1  and  C_2 
REMARK    2  A    between atoms: C_6  and  C_19 
REMARK    3  A    between atoms: C_7  and  N_8 
REMARK       I    between atoms: N_8  and  C_9 
REMARK    4  A    between atoms: C_9  and  C_11 
REMARK    5  A    between atoms: N_17  and  C_18 
ROOT
ATOM      1  N   LIG d   1       3.744  -1.438  -5.998  0.00  0.00    -0.280 N 
ATOM      2  C   LIG d   1       4.086  -0.568  -6.969  0.00  0.00     0.266 C 
ATOM      3  O   LIG d   1       4.662   0.461  -6.686  0.00  0.00    -0.269 OA
ATOM      4  H   LIG d   1       3.327  -2.283  -6.228  0.00  0.00     0.155 HD
ENDROOT
BRANCH   2   5
ATOM      5  C   LIG d   1       3.752  -0.875  -8.407  0.00  0.00     0.057 C 
ATOM      6  H   LIG d   1       3.360  -1.889  -8.479  0.00  0.00     0.095 H 
ATOM      7  N   LIG d   1       4.966  -0.760  -9.224  0.00  0.00     0.242 N 
ATOM      8  C   LIG d   1       4.667  -1.132 -10.612  0.00  0.00    -0.031 C 
ATOM      9  H   LIG d   1       5.301   0.191  -9.195  0.00  0.00     0.204 HD
ATOM     10  C   LIG d   1       3.650  -0.150 -11.199  0.00  0.00    -0.012 C 
ATOM     11  H   LIG d   1       4.254  -2.140 -10.639  0.00  0.00     0.081 H 
ATOM     12  H   LIG d   1       5.584  -1.099 -11.202  0.00  0.00     0.081 H 
ATOM     13  C   LIG d   1       2.364  -0.199 -10.368  0.00  0.00    -0.043 C 
ATOM     14  H   LIG d   1       3.428  -0.428 -12.229  0.00  0.00     0.032 H 
ATOM     15  H   LIG d   1       4.062   0.858 -11.174  0.00  0.00     0.032 H 
ATOM     16  C   LIG d   1       2.700   0.117  -8.907  0.00  0.00    -0.001 C 
ATOM     17  H   LIG d   1       1.925  -1.194 -10.435  0.00  0.00     0.027 H 
ATOM     18  H   LIG d   1       1.657   0.540 -10.747  0.00  0.00     0.027 H 
ATOM     19  H   LIG d   1       1.799   0.029  -8.300  0.00  0.00     0.033 H 
ATOM     20  H   LIG d   1       3.091   1.131  -8.835  0.00  0.00     0.033 H 
BRANCH   7  21
ATOM     21  C   LIG d   1       6.000  -1.657  -8.692  0.00  0.00    -0.042 C 
ATOM     22  H   LIG d   1       6.341  -2.327  -9.482  0.00  0.00     0.078 H 
ATOM     23  H   LIG d   1       6.840  -1.067  -8.327  0.00  0.00     0.078 H 
ATOM     24  H   LIG d   1       5.585  -2.244  -7.873  0.00  0.00     0.078 H 
ENDBRANCH   7  21
ENDBRANCH   2   5
BRANCH   1  25
ATOM     25  C   LIG d   1       3.989  -1.122  -4.658  0.00  0.00     0.039 A 
ATOM     26  C   LIG d   1       5.104  -1.641  -4.012  0.00  0.00    -0.029 A 
ATOM     27  C   LIG d   1       5.347  -1.322  -2.690  0.00  0.00    -0.057 A 
ATOM     28  C   LIG d   1       4.477  -0.491  -2.008  0.00  0.00    -0.061 A 
ATOM     29  H   LIG d   1       6.216  -1.721  -2.190  0.00  0.00     0.062 H 
ATOM     30  C   LIG d   1       3.363   0.023  -2.646  0.00  0.00    -0.057 A 
ATOM     31  H   LIG d   1       4.669  -0.243  -0.974  0.00  0.00     0.062 H 
ATOM     32  C   LIG d   1       3.115  -0.292  -3.967  0.00  0.00    -0.029 A 
ATOM     33  H   LIG d   1       2.685   0.671  -2.109  0.00  0.00     0.062 H 
BRANCH  26  34
ATOM     34  C   LIG d   1       6.051  -2.546  -4.756  0.00  0.00    -0.038 C 
ATOM     35  H   LIG d   1       6.876  -2.828  -4.101  0.00  0.00     0.028 H 
ATOM     36  H   LIG d   1       5.520  -3.443  -5.076  0.00  0.00     0.028 H 
ATOM     37  H   LIG d   1       6.442  -2.025  -5.629  0.00  0.00     0.028 H 
ENDBRANCH  26  34
BRANCH  32  38
ATOM     38  C   LIG d   1       1.900   0.268  -4.660  0.00  0.00    -0.038 C 
ATOM     39  H   LIG d   1       2.161   1.206  -5.150  0.00  0.00     0.028 H 
ATOM     40  H   LIG d   1       1.546  -0.444  -5.405  0.00  0.00     0.028 H 
ATOM     41  H   LIG d   1       1.113   0.448  -3.928  0.00  0.00     0.028 H 
ENDBRANCH  32  38
ENDBRANCH   1  25
TORSDOF 5
ENDMDL
MODEL 10
REMARK VINA RESULT:      -5.5      4.205      5.183
REMARK  5 active torsions:
REMARK  status: ('A' for Active; 'I' for Inactive)
REMARK    1  A    between atoms: C_1  and  C_2 
REMARK    2  A    between atoms: C_6  and  C_19 
REMARK    3  A    between atoms: C_7  and  N_8 
REMARK       I    between atoms: N_8  and  C_9 
REMARK    4  A    between atoms: C_9  and  C_11 
REMARK    5  A    between atoms: N_17  and  C_18 
ROOT
ATOM      1  N   LIG d   1       6.513  -1.592  -3.239  0.00  0.00    -0.280 N 
ATOM      2  C   LIG d   1       6.628  -2.116  -4.475  0.00  0.00     0.266 C 
ATOM      3  O   LIG d   1       5.954  -1.680  -5.384  0.00  0.00    -0.269 OA
ATOM      4  H   LIG d   1       7.087  -1.907  -2.523  0.00  0.00     0.155 HD
ENDROOT
BRANCH   2   5
ATOM      5  C   LIG d   1       7.595  -3.244  -4.728  0.00  0.00     0.057 C 
ATOM      6  H   LIG d   1       8.107  -3.498  -3.800  0.00  0.00     0.095 H 
ATOM      7  N   LIG d   1       8.581  -2.826  -5.731  0.00  0.00     0.242 N 
ATOM      8  C   LIG d   1       9.572  -3.890  -5.928  0.00  0.00    -0.031 C 
ATOM      9  H   LIG d   1       8.112  -2.638  -6.605  0.00  0.00     0.204 HD
ATOM     10  C   LIG d   1       8.882  -5.137  -6.486  0.00  0.00    -0.012 C 
ATOM     11  H   LIG d   1      10.042  -4.132  -4.975  0.00  0.00     0.081 H 
ATOM     12  H   LIG d   1      10.334  -3.552  -6.632  0.00  0.00     0.081 H 
ATOM     13  C   LIG d   1       7.815  -5.609  -5.495  0.00  0.00    -0.043 C 
ATOM     14  H   LIG d   1       9.620  -5.927  -6.630  0.00  0.00     0.032 H 
ATOM     15  H   LIG d   1       8.414  -4.898  -7.440  0.00  0.00     0.032 H 
ATOM     16  C   LIG d   1       6.829  -4.466  -5.239  0.00  0.00    -0.001 C 
ATOM     17  H   LIG d   1       8.290  -5.898  -4.557  0.00  0.00     0.027 H 
ATOM     18  H   LIG d   1       7.282  -6.464  -5.913  0.00  0.00     0.027 H 
ATOM     19  H   LIG d   1       6.098  -4.776  -4.492  0.00  0.00     0.033 H 
ATOM     20  H   LIG d   1       6.316  -4.213  -6.167  0.00  0.00     0.033 H 
BRANCH   7  21
ATOM     21  C   LIG d   1       9.260  -1.607  -5.271  0.00  0.00    -0.042 C 
ATOM     22  H   LIG d   1      10.334  -1.708  -5.430  0.00  0.00     0.078 H 
ATOM     23  H   LIG d   1       8.888  -0.750  -5.832  0.00  0.00     0.078 H 
ATOM     24  H   LIG d   1       9.062  -1.461  -4.209  0.00  0.00     0.078 H 
ENDBRANCH   7  21
ENDBRANCH   2   5
BRANCH   1  25
ATOM     25  C   LIG d   1       5.566  -0.594  -2.987  0.00  0.00     0.039 A 
ATOM     26  C   LIG d   1       5.907   0.745  -3.139  0.00  0.00    -0.029 A 
ATOM     27  C   LIG d   1       4.967   1.727  -2.896  0.00  0.00    -0.057 A 
ATOM     28  C   LIG d   1       3.689   1.380  -2.496  0.00  0.00    -0.061 A 
ATOM     29  H   LIG d   1       5.230   2.767  -3.018  0.00  0.00     0.062 H 
ATOM     30  C   LIG d   1       3.348   0.049  -2.339  0.00  0.00    -0.057 A 
ATOM     31  H   LIG d   1       2.957   2.150  -2.307  0.00  0.00     0.062 H 
ATOM     32  C   LIG d   1       4.283  -0.938  -2.581  0.00  0.00    -0.029 A 
ATOM     33  H   LIG d   1       2.350  -0.218  -2.026  0.00  0.00     0.062 H 
BRANCH  26  34
ATOM     34  C   LIG d   1       7.299   1.122  -3.574  0.00  0.00    -0.038 C 
ATOM     35  H   LIG d   1       7.286   1.410  -4.625  0.00  0.00     0.028 H 
ATOM     36  H   LIG d   1       7.652   1.961  -2.973  0.00  0.00     0.028 H 
ATOM     37  H   LIG d   1       7.966   0.272  -3.438  0.00  0.00     0.028 H 
ENDBRANCH  26  34
BRANCH  32  38
ATOM     38  C   LIG d   1       3.910  -2.388  -2.408  0.00  0.00    -0.038 C 
ATOM     39  H   LIG d   1       4.072  -2.684  -1.372  0.00  0.00     0.028 H 
ATOM     40  H   LIG d   1       2.861  -2.526  -2.666  0.00  0.00     0.028 H 
ATOM     41  H   LIG d   1       4.529  -3.003  -3.062  0.00  0.00     0.028 H 
ENDBRANCH  32  38
ENDBRANCH   1  25
TORSDOF 5
ENDMDL
