MODEL 1
REMARK VINA RESULT:      -6.6      0.000      0.000
REMARK  11 active torsions:
REMARK  status: ('A' for Active; 'I' for Inactive)
REMARK    1  A    between atoms: C_1  and  C_2 
REMARK    2  A    between atoms: C_2  and  C_4 
REMARK    3  A    between atoms: C_8  and  C_44 
REMARK    4  A    between atoms: C_17  and  C_43 
REMARK    5  A    between atoms: C_18  and  C_21 
REMARK    6  A    between atoms: C_26  and  C_42 
REMARK    7  A    between atoms: C_29  and  C_30 
REMARK    8  A    between atoms: C_39  and  C_40 
REMARK    9  A    between atoms: C_39  and  C_41 
REMARK   10  A    between atoms: C_44  and  O_46 
REMARK   11  A    between atoms: O_46  and  C_47 
ROOT
ATOM      1  C   LIG d   1      11.911   7.728  -1.353  0.00  0.00    -0.016 C 
ATOM      2  H   LIG d   1      12.603   6.925  -1.122  0.00  0.00     0.035 H 
ATOM      3  C   LIG d   1      12.655   9.087  -1.444  0.00  0.00    -0.045 C 
ATOM      4  C   LIG d   1      12.400   9.618  -2.882  0.00  0.00    -0.036 C 
ATOM      5  C   LIG d   1      12.232   8.307  -3.673  0.00  0.00     0.071 C 
ATOM      6  C   LIG d   1      11.282   7.524  -2.731  0.00  0.00    -0.015 C 
ATOM      7  H   LIG d   1      10.303   8.015  -2.721  0.00  0.00     0.032 H 
ATOM      8  C   LIG d   1      11.149   6.108  -3.238  0.00  0.00    -0.031 C 
ATOM      9  H   LIG d   1      12.145   5.649  -3.269  0.00  0.00     0.031 H 
ATOM     10  C   LIG d   1      10.292   5.252  -2.307  0.00  0.00    -0.049 C 
ATOM     11  C   LIG d   1      10.203   3.822  -2.855  0.00  0.00    -0.049 C 
ATOM     12  C   LIG d   1       9.611   3.854  -4.261  0.00  0.00    -0.029 C 
ATOM     13  H   LIG d   1       8.616   4.344  -4.165  0.00  0.00     0.031 H 
ATOM     14  C   LIG d   1      10.467   4.700  -5.189  0.00  0.00    -0.023 C 
ATOM     15  C   LIG d   1      10.535   6.138  -4.645  0.00  0.00    -0.023 C 
ATOM     16  C   LIG d   1      11.325   7.030  -5.594  0.00  0.00    -0.046 C 
ATOM     17  C   LIG d   1      11.556   8.437  -5.019  0.00  0.00    -0.036 C 
ATOM     18  C   LIG d   1       9.876   4.711  -6.600  0.00  0.00    -0.046 C 
ATOM     19  C   LIG d   1       9.735   3.268  -7.106  0.00  0.00    -0.048 C 
ATOM     20  C   LIG d   1       8.759   2.525  -6.196  0.00  0.00    -0.023 C 
ATOM     21  H   LIG d   1       7.834   3.149  -6.152  0.00  0.00     0.032 H 
ATOM     22  C   LIG d   1       9.291   2.449  -4.768  0.00  0.00    -0.021 C 
ATOM     23  C   LIG d   1       8.137   1.917  -3.884  0.00  0.00    -0.018 C 
ATOM     24  C   LIG d   1       7.715   0.572  -4.398  0.00  0.00    -0.003 C 
ATOM     25  C   LIG d   1       7.146  -0.310  -3.546  0.00  0.00    -0.048 C 
ATOM     26  C   LIG d   1       7.892   0.211  -5.738  0.00  0.00     0.165 C 
ATOM     27  O   LIG d   1       7.649  -0.930  -6.074  0.00  0.00    -0.292 OA
ATOM     28  C   LIG d   1       8.359   1.183  -6.783  0.00  0.00     0.031 C 
ATOM     29  H   LIG d   1      12.247   9.783  -0.711  0.00  0.00     0.027 H 
ATOM     30  H   LIG d   1      13.719   8.945  -1.273  0.00  0.00     0.027 H 
ATOM     31  H   LIG d   1      11.489  10.209  -2.924  0.00  0.00     0.028 H 
ATOM     32  H   LIG d   1      13.257  10.177  -3.248  0.00  0.00     0.028 H 
ATOM     33  H   LIG d   1      10.774   5.206  -1.323  0.00  0.00     0.027 H 
ATOM     34  H   LIG d   1       9.299   5.668  -2.188  0.00  0.00     0.027 H 
ATOM     35  H   LIG d   1      11.193   3.376  -2.846  0.00  0.00     0.027 H 
ATOM     36  H   LIG d   1       9.548   3.242  -2.198  0.00  0.00     0.027 H 
ATOM     37  H   LIG d   1      12.278   6.587  -5.857  0.00  0.00     0.027 H 
ATOM     38  H   LIG d   1      10.742   7.138  -6.520  0.00  0.00     0.027 H 
ATOM     39  H   LIG d   1      10.610   8.968  -4.916  0.00  0.00     0.028 H 
ATOM     40  H   LIG d   1      12.201   9.004  -5.699  0.00  0.00     0.028 H 
ATOM     41  H   LIG d   1       8.892   5.172  -6.611  0.00  0.00     0.027 H 
ATOM     42  H   LIG d   1      10.543   5.253  -7.273  0.00  0.00     0.027 H 
ATOM     43  H   LIG d   1       9.332   3.308  -8.122  0.00  0.00     0.027 H 
ATOM     44  H   LIG d   1      10.706   2.792  -7.127  0.00  0.00     0.027 H 
ATOM     45  H   LIG d   1       8.486   1.822  -2.862  0.00  0.00     0.032 H 
ATOM     46  H   LIG d   1       7.302   2.609  -3.941  0.00  0.00     0.032 H 
ATOM     47  H   LIG d   1       7.162  -0.119  -2.483  0.00  0.00     0.063 H 
ENDROOT
BRANCH  25  48
ATOM     48  C   LIG d   1       6.508  -1.528  -4.065  0.00  0.00    -0.025 A 
ATOM     49  C   LIG d   1       5.172  -1.498  -4.481  0.00  0.00    -0.053 A 
ATOM     50  C   LIG d   1       4.582  -2.643  -4.971  0.00  0.00    -0.043 A 
ATOM     51  H   LIG d   1       4.605  -0.581  -4.420  0.00  0.00     0.062 H 
ATOM     52  C   LIG d   1       5.304  -3.823  -5.044  0.00  0.00     0.041 A 
ATOM     53  H   LIG d   1       3.552  -2.621  -5.296  0.00  0.00     0.063 H 
ATOM     54  C   LIG d   1       6.626  -3.860  -4.630  0.00  0.00    -0.043 A 
ATOM     55 CL   LIG d   1       4.551  -5.261  -5.658  0.00  0.00    -0.084 Cl
ATOM     56  C   LIG d   1       7.232  -2.723  -4.142  0.00  0.00    -0.053 A 
ATOM     57  H   LIG d   1       7.184  -4.784  -4.689  0.00  0.00     0.063 H 
ATOM     58  H   LIG d   1       8.263  -2.753  -3.820  0.00  0.00     0.062 H 
ENDBRANCH  25  48
BRANCH  22  59
ATOM     59  C   LIG d   1      10.470   1.496  -4.627  0.00  0.00    -0.059 C 
ATOM     60  H   LIG d   1      11.043   1.487  -5.555  0.00  0.00     0.024 H 
ATOM     61  H   LIG d   1      11.110   1.828  -3.809  0.00  0.00     0.024 H 
ATOM     62  H   LIG d   1      10.103   0.492  -4.417  0.00  0.00     0.024 H 
ENDBRANCH  22  59
BRANCH  28  63
ATOM     63  C   LIG d   1       7.177   1.410  -7.748  0.00  0.00    -0.052 C 
ATOM     64  H   LIG d   1       6.966   0.487  -8.289  0.00  0.00     0.024 H 
ATOM     65  H   LIG d   1       6.296   1.708  -7.180  0.00  0.00     0.024 H 
ATOM     66  H   LIG d   1       7.433   2.197  -8.458  0.00  0.00     0.024 H 
ENDBRANCH  28  63
BRANCH  28  67
ATOM     67  C   LIG d   1       9.492   0.545  -7.588  0.00  0.00    -0.052 C 
ATOM     68  H   LIG d   1       9.084  -0.225  -8.243  0.00  0.00     0.024 H 
ATOM     69  H   LIG d   1       9.986   1.308  -8.189  0.00  0.00     0.024 H 
ATOM     70  H   LIG d   1      10.215   0.096  -6.906  0.00  0.00     0.024 H 
ENDBRANCH  28  67
BRANCH  14  71
ATOM     71  C   LIG d   1      11.901   4.159  -5.273  0.00  0.00    -0.059 C 
ATOM     72  H   LIG d   1      12.036   3.630  -6.216  0.00  0.00     0.024 H 
ATOM     73  H   LIG d   1      12.606   4.988  -5.217  0.00  0.00     0.024 H 
ATOM     74  H   LIG d   1      12.080   3.474  -4.444  0.00  0.00     0.024 H 
ENDBRANCH  14  71
BRANCH  15  75
ATOM     75  C   LIG d   1       9.115   6.712  -4.569  0.00  0.00    -0.059 C 
ATOM     76  H   LIG d   1       9.164   7.773  -4.324  0.00  0.00     0.024 H 
ATOM     77  H   LIG d   1       8.620   6.586  -5.533  0.00  0.00     0.024 H 
ATOM     78  H   LIG d   1       8.551   6.187  -3.799  0.00  0.00     0.024 H 
ENDBRANCH  15  75
BRANCH   1  79
ATOM     79  C   LIG d   1      10.835   7.819  -0.298  0.00  0.00    -0.076 C 
ATOM     80  C   LIG d   1      11.035   7.300   0.888  0.00  0.00    -0.099 C 
ATOM     81  H   LIG d   1      11.970   6.806   1.111  0.00  0.00     0.053 H 
ATOM     82  H   LIG d   1      10.266   7.364   1.643  0.00  0.00     0.053 H 
BRANCH  79  83
ATOM     83  C   LIG d   1       9.531   8.506  -0.608  0.00  0.00    -0.044 C 
ATOM     84  H   LIG d   1       9.621   9.049  -1.550  0.00  0.00     0.027 H 
ATOM     85  H   LIG d   1       8.739   7.762  -0.692  0.00  0.00     0.027 H 
ATOM     86  H   LIG d   1       9.288   9.206   0.191  0.00  0.00     0.027 H 
ENDBRANCH  79  83
ENDBRANCH   1  79
BRANCH   5  87
ATOM     87  C   LIG d   1      13.578   7.644  -3.807  0.00  0.00     0.313 C 
ATOM     88  O   LIG d   1      14.473   8.208  -4.392  0.00  0.00    -0.250 OA
BRANCH  87  89
ATOM     89  O   LIG d   1      13.783   6.427  -3.279  0.00  0.00    -0.468 OA
BRANCH  89  90
ATOM     90  C   LIG d   1      15.061   6.183  -2.687  0.00  0.00     0.082 C 
ATOM     91  H   LIG d   1      15.152   6.763  -1.769  0.00  0.00     0.066 H 
ATOM     92  H   LIG d   1      15.157   5.122  -2.457  0.00  0.00     0.066 H 
ATOM     93  H   LIG d   1      15.845   6.478  -3.383  0.00  0.00     0.066 H 
ENDBRANCH  89  90
ENDBRANCH  87  89
ENDBRANCH   5  87
TORSDOF 11
ENDMDL
MODEL 2
REMARK VINA RESULT:      -6.0      3.460      9.672
REMARK  11 active torsions:
REMARK  status: ('A' for Active; 'I' for Inactive)
REMARK    1  A    between atoms: C_1  and  C_2 
REMARK    2  A    between atoms: C_2  and  C_4 
REMARK    3  A    between atoms: C_8  and  C_44 
REMARK    4  A    between atoms: C_17  and  C_43 
REMARK    5  A    between atoms: C_18  and  C_21 
REMARK    6  A    between atoms: C_26  and  C_42 
REMARK    7  A    between atoms: C_29  and  C_30 
REMARK    8  A    between atoms: C_39  and  C_40 
REMARK    9  A    between atoms: C_39  and  C_41 
REMARK   10  A    between atoms: C_44  and  O_46 
REMARK   11  A    between atoms: O_46  and  C_47 
ROOT
ATOM      1  C   LIG d   1       6.967  -1.021  -5.459  0.00  0.00    -0.016 C 
ATOM      2  H   LIG d   1       6.223  -0.267  -5.694  0.00  0.00     0.035 H 
ATOM      3  C   LIG d   1       6.869  -2.217  -6.444  0.00  0.00    -0.045 C 
ATOM      4  C   LIG d   1       8.253  -2.309  -7.144  0.00  0.00    -0.036 C 
ATOM      5  C   LIG d   1       8.718  -0.841  -7.110  0.00  0.00     0.071 C 
ATOM      6  C   LIG d   1       8.379  -0.467  -5.643  0.00  0.00    -0.015 C 
ATOM      7  H   LIG d   1       9.041  -1.024  -4.971  0.00  0.00     0.032 H 
ATOM      8  C   LIG d   1       8.580   1.018  -5.460  0.00  0.00    -0.031 C 
ATOM      9  H   LIG d   1       7.931   1.552  -6.165  0.00  0.00     0.031 H 
ATOM     10  C   LIG d   1       8.181   1.472  -4.055  0.00  0.00    -0.049 C 
ATOM     11  C   LIG d   1       8.385   2.986  -3.925  0.00  0.00    -0.049 C 
ATOM     12  C   LIG d   1       9.844   3.329  -4.213  0.00  0.00    -0.029 C 
ATOM     13  H   LIG d   1      10.447   2.745  -3.481  0.00  0.00     0.031 H 
ATOM     14  C   LIG d   1      10.239   2.883  -5.611  0.00  0.00    -0.023 C 
ATOM     15  C   LIG d   1      10.051   1.360  -5.729  0.00  0.00    -0.023 C 
ATOM     16  C   LIG d   1      10.511   0.870  -7.097  0.00  0.00    -0.046 C 
ATOM     17  C   LIG d   1      10.198  -0.618  -7.321  0.00  0.00    -0.036 C 
ATOM     18  C   LIG d   1      11.697   3.247  -5.897  0.00  0.00    -0.046 C 
ATOM     19  C   LIG d   1      11.895   4.756  -5.698  0.00  0.00    -0.048 C 
ATOM     20  C   LIG d   1      11.606   5.099  -4.238  0.00  0.00    -0.023 C 
ATOM     21  H   LIG d   1      12.235   4.411  -3.624  0.00  0.00     0.032 H 
ATOM     22  C   LIG d   1      10.156   4.787  -3.880  0.00  0.00    -0.021 C 
ATOM     23  C   LIG d   1      10.032   4.921  -2.344  0.00  0.00    -0.018 C 
ATOM     24  C   LIG d   1      10.420   6.315  -1.947  0.00  0.00    -0.003 C 
ATOM     25  C   LIG d   1       9.910   6.844  -0.812  0.00  0.00    -0.048 C 
ATOM     26  C   LIG d   1      11.300   7.079  -2.721  0.00  0.00     0.165 C 
ATOM     27  O   LIG d   1      11.484   8.241  -2.424  0.00  0.00    -0.292 OA
ATOM     28  C   LIG d   1      12.039   6.515  -3.900  0.00  0.00     0.031 C 
ATOM     29  H   LIG d   1       6.667  -3.136  -5.893  0.00  0.00     0.027 H 
ATOM     30  H   LIG d   1       6.083  -2.039  -7.175  0.00  0.00     0.027 H 
ATOM     31  H   LIG d   1       8.935  -2.938  -6.578  0.00  0.00     0.028 H 
ATOM     32  H   LIG d   1       8.150  -2.652  -8.169  0.00  0.00     0.028 H 
ATOM     33  H   LIG d   1       7.116   1.261  -3.904  0.00  0.00     0.027 H 
ATOM     34  H   LIG d   1       8.751   0.953  -3.294  0.00  0.00     0.027 H 
ATOM     35  H   LIG d   1       7.712   3.496  -4.608  0.00  0.00     0.027 H 
ATOM     36  H   LIG d   1       8.138   3.280  -2.901  0.00  0.00     0.027 H 
ATOM     37  H   LIG d   1      10.073   1.456  -7.896  0.00  0.00     0.027 H 
ATOM     38  H   LIG d   1      11.602   0.996  -7.151  0.00  0.00     0.027 H 
ATOM     39  H   LIG d   1      10.774  -1.237  -6.634  0.00  0.00     0.028 H 
ATOM     40  H   LIG d   1      10.467  -0.892  -8.347  0.00  0.00     0.028 H 
ATOM     41  H   LIG d   1      12.372   2.724  -5.223  0.00  0.00     0.027 H 
ATOM     42  H   LIG d   1      11.942   2.995  -6.930  0.00  0.00     0.027 H 
ATOM     43  H   LIG d   1      12.938   4.989  -5.930  0.00  0.00     0.027 H 
ATOM     44  H   LIG d   1      11.251   5.301  -6.374  0.00  0.00     0.027 H 
ATOM     45  H   LIG d   1       9.005   4.734  -2.051  0.00  0.00     0.032 H 
ATOM     46  H   LIG d   1      10.700   4.207  -1.872  0.00  0.00     0.032 H 
ATOM     47  H   LIG d   1       9.101   6.343  -0.300  0.00  0.00     0.063 H 
ENDROOT
BRANCH  25  48
ATOM     48  C   LIG d   1      10.454   8.099  -0.276  0.00  0.00    -0.025 A 
ATOM     49  C   LIG d   1      11.647   8.092   0.456  0.00  0.00    -0.053 A 
ATOM     50  C   LIG d   1      12.153   9.275   0.951  0.00  0.00    -0.043 A 
ATOM     51  H   LIG d   1      12.171   7.164   0.630  0.00  0.00     0.062 H 
ATOM     52  C   LIG d   1      11.480  10.466   0.735  0.00  0.00     0.041 A 
ATOM     53  H   LIG d   1      13.077   9.272   1.513  0.00  0.00     0.063 H 
ATOM     54  C   LIG d   1      10.295  10.479   0.016  0.00  0.00    -0.043 A 
ATOM     55 CL   LIG d   1      12.122  11.949   1.368  0.00  0.00    -0.084 Cl
ATOM     56  C   LIG d   1       9.779   9.307  -0.491  0.00  0.00    -0.053 A 
ATOM     57  H   LIG d   1       9.775  11.412  -0.149  0.00  0.00     0.063 H 
ATOM     58  H   LIG d   1       8.856   9.318  -1.052  0.00  0.00     0.062 H 
ENDBRANCH  25  48
BRANCH  22  59
ATOM     59  C   LIG d   1       9.168   5.754  -4.519  0.00  0.00    -0.059 C 
ATOM     60  H   LIG d   1       8.973   5.448  -5.547  0.00  0.00     0.024 H 
ATOM     61  H   LIG d   1       8.235   5.746  -3.955  0.00  0.00     0.024 H 
ATOM     62  H   LIG d   1       9.588   6.759  -4.513  0.00  0.00     0.024 H 
ENDBRANCH  22  59
BRANCH  28  63
ATOM     63  C   LIG d   1      13.535   6.485  -3.523  0.00  0.00    -0.052 C 
ATOM     64  H   LIG d   1      13.639   6.573  -2.441  0.00  0.00     0.024 H 
ATOM     65  H   LIG d   1      13.975   5.544  -3.855  0.00  0.00     0.024 H 
ATOM     66  H   LIG d   1      14.048   7.315  -4.007  0.00  0.00     0.024 H 
ENDBRANCH  28  63
BRANCH  28  67
ATOM     67  C   LIG d   1      11.884   7.464  -5.089  0.00  0.00    -0.052 C 
ATOM     68  H   LIG d   1      12.273   6.986  -5.988  0.00  0.00     0.024 H 
ATOM     69  H   LIG d   1      10.830   7.701  -5.230  0.00  0.00     0.024 H 
ATOM     70  H   LIG d   1      12.441   8.381  -4.896  0.00  0.00     0.024 H 
ENDBRANCH  28  67
BRANCH  14  71
ATOM     71  C   LIG d   1       9.359   3.550  -6.678  0.00  0.00    -0.059 C 
ATOM     72  H   LIG d   1       8.594   4.155  -6.193  0.00  0.00     0.024 H 
ATOM     73  H   LIG d   1       9.977   4.185  -7.312  0.00  0.00     0.024 H 
ATOM     74  H   LIG d   1       8.883   2.782  -7.288  0.00  0.00     0.024 H 
ENDBRANCH  14  71
BRANCH  15  75
ATOM     75  C   LIG d   1      10.936   0.665  -4.685  0.00  0.00    -0.059 C 
ATOM     76  H   LIG d   1      10.417   0.637  -3.728  0.00  0.00     0.024 H 
ATOM     77  H   LIG d   1      11.150  -0.353  -5.012  0.00  0.00     0.024 H 
ATOM     78  H   LIG d   1      11.870   1.215  -4.576  0.00  0.00     0.024 H 
ENDBRANCH  15  75
BRANCH   1  79
ATOM     79  C   LIG d   1       6.785  -1.523  -4.047  0.00  0.00    -0.076 C 
ATOM     80  C   LIG d   1       7.668  -2.335  -3.522  0.00  0.00    -0.099 C 
ATOM     81  H   LIG d   1       8.527  -2.646  -4.100  0.00  0.00     0.053 H 
ATOM     82  H   LIG d   1       7.538  -2.695  -2.512  0.00  0.00     0.053 H 
BRANCH  79  83
ATOM     83  C   LIG d   1       5.587  -1.090  -3.242  0.00  0.00    -0.044 C 
ATOM     84  H   LIG d   1       5.577  -1.623  -2.290  0.00  0.00     0.027 H 
ATOM     85  H   LIG d   1       5.642  -0.018  -3.057  0.00  0.00     0.027 H 
ATOM     86  H   LIG d   1       4.675  -1.318  -3.795  0.00  0.00     0.027 H 
ENDBRANCH  79  83
ENDBRANCH   1  79
BRANCH   5  87
ATOM     87  C   LIG d   1       7.906  -0.051  -8.103  0.00  0.00     0.313 C 
ATOM     88  O   LIG d   1       7.956  -0.326  -9.278  0.00  0.00    -0.250 OA
BRANCH  87  89
ATOM     89  O   LIG d   1       7.128   0.959  -7.682  0.00  0.00    -0.468 OA
BRANCH  89  90
ATOM     90  C   LIG d   1       6.543   1.790  -8.687  0.00  0.00     0.082 C 
ATOM     91  H   LIG d   1       7.330   2.313  -9.229  0.00  0.00     0.066 H 
ATOM     92  H   LIG d   1       5.973   1.172  -9.382  0.00  0.00     0.066 H 
ATOM     93  H   LIG d   1       5.880   2.515  -8.217  0.00  0.00     0.066 H 
ENDBRANCH  89  90
ENDBRANCH  87  89
ENDBRANCH   5  87
TORSDOF 11
ENDMDL
MODEL 3
REMARK VINA RESULT:      -5.8      7.435     13.924
REMARK  11 active torsions:
REMARK  status: ('A' for Active; 'I' for Inactive)
REMARK    1  A    between atoms: C_1  and  C_2 
REMARK    2  A    between atoms: C_2  and  C_4 
REMARK    3  A    between atoms: C_8  and  C_44 
REMARK    4  A    between atoms: C_17  and  C_43 
REMARK    5  A    between atoms: C_18  and  C_21 
REMARK    6  A    between atoms: C_26  and  C_42 
REMARK    7  A    between atoms: C_29  and  C_30 
REMARK    8  A    between atoms: C_39  and  C_40 
REMARK    9  A    between atoms: C_39  and  C_41 
REMARK   10  A    between atoms: C_44  and  O_46 
REMARK   11  A    between atoms: O_46  and  C_47 
ROOT
ATOM      1  C   LIG d   1       3.046  -5.978 -14.898  0.00  0.00    -0.016 C 
ATOM      2  H   LIG d   1       2.068  -6.028 -14.431  0.00  0.00     0.035 H 
ATOM      3  C   LIG d   1       2.937  -6.198 -16.431  0.00  0.00    -0.045 C 
ATOM      4  C   LIG d   1       3.513  -4.913 -17.089  0.00  0.00    -0.036 C 
ATOM      5  C   LIG d   1       3.197  -3.848 -16.022  0.00  0.00     0.071 C 
ATOM      6  C   LIG d   1       3.655  -4.586 -14.737  0.00  0.00    -0.015 C 
ATOM      7  H   LIG d   1       4.744  -4.699 -14.758  0.00  0.00     0.032 H 
ATOM      8  C   LIG d   1       3.239  -3.774 -13.534  0.00  0.00    -0.031 C 
ATOM      9  H   LIG d   1       2.149  -3.648 -13.552  0.00  0.00     0.031 H 
ATOM     10  C   LIG d   1       3.583  -4.485 -12.225  0.00  0.00    -0.049 C 
ATOM     11  C   LIG d   1       3.126  -3.631 -11.037  0.00  0.00    -0.049 C 
ATOM     12  C   LIG d   1       3.800  -2.264 -11.105  0.00  0.00    -0.029 C 
ATOM     13  H   LIG d   1       4.896  -2.461 -11.101  0.00  0.00     0.031 H 
ATOM     14  C   LIG d   1       3.453  -1.554 -12.403  0.00  0.00    -0.023 C 
ATOM     15  C   LIG d   1       3.933  -2.406 -13.591  0.00  0.00    -0.023 C 
ATOM     16  C   LIG d   1       3.666  -1.685 -14.907  0.00  0.00    -0.046 C 
ATOM     17  C   LIG d   1       3.984  -2.561 -16.129  0.00  0.00    -0.036 C 
ATOM     18  C   LIG d   1       4.118  -0.177 -12.454  0.00  0.00    -0.046 C 
ATOM     19  C   LIG d   1       3.698   0.639 -11.223  0.00  0.00    -0.048 C 
ATOM     20  C   LIG d   1       4.199  -0.076  -9.969  0.00  0.00    -0.023 C 
ATOM     21  H   LIG d   1       5.291  -0.252 -10.124  0.00  0.00     0.032 H 
ATOM     22  C   LIG d   1       3.559  -1.454  -9.832  0.00  0.00    -0.021 C 
ATOM     23  C   LIG d   1       4.309  -2.190  -8.697  0.00  0.00    -0.018 C 
ATOM     24  C   LIG d   1       4.186  -1.386  -7.436  0.00  0.00    -0.003 C 
ATOM     25  C   LIG d   1       4.264  -2.016  -6.242  0.00  0.00    -0.048 C 
ATOM     26  C   LIG d   1       3.995  -0.001  -7.466  0.00  0.00     0.165 C 
ATOM     27  O   LIG d   1       3.777   0.584  -6.424  0.00  0.00    -0.292 OA
ATOM     28  C   LIG d   1       4.062   0.799  -8.735  0.00  0.00     0.031 C 
ATOM     29  H   LIG d   1       3.528  -7.065 -16.725  0.00  0.00     0.027 H 
ATOM     30  H   LIG d   1       1.897  -6.340 -16.718  0.00  0.00     0.027 H 
ATOM     31  H   LIG d   1       4.586  -4.999 -17.237  0.00  0.00     0.028 H 
ATOM     32  H   LIG d   1       2.998  -4.686 -18.018  0.00  0.00     0.028 H 
ATOM     33  H   LIG d   1       3.040  -5.437 -12.186  0.00  0.00     0.027 H 
ATOM     34  H   LIG d   1       4.645  -4.688 -12.152  0.00  0.00     0.027 H 
ATOM     35  H   LIG d   1       2.043  -3.546 -11.056  0.00  0.00     0.027 H 
ATOM     36  H   LIG d   1       3.424  -4.138 -10.114  0.00  0.00     0.027 H 
ATOM     37  H   LIG d   1       2.643  -1.336 -14.969  0.00  0.00     0.027 H 
ATOM     38  H   LIG d   1       4.322  -0.803 -14.947  0.00  0.00     0.027 H 
ATOM     39  H   LIG d   1       5.051  -2.775 -16.179  0.00  0.00     0.028 H 
ATOM     40  H   LIG d   1       3.691  -2.029 -17.041  0.00  0.00     0.028 H 
ATOM     41  H   LIG d   1       5.202  -0.264 -12.451  0.00  0.00     0.027 H 
ATOM     42  H   LIG d   1       3.795   0.353 -13.351  0.00  0.00     0.027 H 
ATOM     43  H   LIG d   1       4.170   1.622 -11.298  0.00  0.00     0.027 H 
ATOM     44  H   LIG d   1       2.624   0.760 -11.214  0.00  0.00     0.027 H 
ATOM     45  H   LIG d   1       3.863  -3.167  -8.549  0.00  0.00     0.032 H 
ATOM     46  H   LIG d   1       5.356  -2.284  -8.969  0.00  0.00     0.032 H 
ATOM     47  H   LIG d   1       4.234  -3.095  -6.199  0.00  0.00     0.063 H 
ENDROOT
BRANCH  25  48
ATOM     48  C   LIG d   1       4.389  -1.234  -5.004  0.00  0.00    -0.025 A 
ATOM     49  C   LIG d   1       5.622  -0.676  -4.647  0.00  0.00    -0.053 A 
ATOM     50  C   LIG d   1       5.730   0.060  -3.487  0.00  0.00    -0.043 A 
ATOM     51  H   LIG d   1       6.486  -0.820  -5.279  0.00  0.00     0.062 H 
ATOM     52  C   LIG d   1       4.626   0.240  -2.671  0.00  0.00     0.041 A 
ATOM     53  H   LIG d   1       6.681   0.495  -3.212  0.00  0.00     0.063 H 
ATOM     54  C   LIG d   1       3.403  -0.313  -3.016  0.00  0.00    -0.043 A 
ATOM     55 CL   LIG d   1       4.774   1.164  -1.209  0.00  0.00    -0.084 Cl
ATOM     56  C   LIG d   1       3.278  -1.047  -4.175  0.00  0.00    -0.053 A 
ATOM     57  H   LIG d   1       2.546  -0.169  -2.374  0.00  0.00     0.063 H 
ATOM     58  H   LIG d   1       2.324  -1.478  -4.443  0.00  0.00     0.062 H 
ENDBRANCH  25  48
BRANCH  22  59
ATOM     59  C   LIG d   1       2.085  -1.386  -9.456  0.00  0.00    -0.059 C 
ATOM     60  H   LIG d   1       1.891  -0.461  -8.912  0.00  0.00     0.024 H 
ATOM     61  H   LIG d   1       1.477  -1.409 -10.361  0.00  0.00     0.024 H 
ATOM     62  H   LIG d   1       1.831  -2.238  -8.827  0.00  0.00     0.024 H 
ENDBRANCH  22  59
BRANCH  28  63
ATOM     63  C   LIG d   1       5.314   1.696  -8.638  0.00  0.00    -0.052 C 
ATOM     64  H   LIG d   1       5.471   1.989  -7.600  0.00  0.00     0.024 H 
ATOM     65  H   LIG d   1       6.184   1.145  -8.996  0.00  0.00     0.024 H 
ATOM     66  H   LIG d   1       5.171   2.586  -9.250  0.00  0.00     0.024 H 
ENDBRANCH  28  63
BRANCH  28  67
ATOM     67  C   LIG d   1       2.844   1.719  -8.813  0.00  0.00    -0.052 C 
ATOM     68  H   LIG d   1       2.152   1.342  -9.566  0.00  0.00     0.024 H 
ATOM     69  H   LIG d   1       2.346   1.745  -7.844  0.00  0.00     0.024 H 
ATOM     70  H   LIG d   1       3.164   2.725  -9.085  0.00  0.00     0.024 H 
ENDBRANCH  28  67
BRANCH  14  71
ATOM     71  C   LIG d   1       1.936  -1.360 -12.544  0.00  0.00    -0.059 C 
ATOM     72  H   LIG d   1       1.614  -0.536 -11.908  0.00  0.00     0.024 H 
ATOM     73  H   LIG d   1       1.694  -1.134 -13.583  0.00  0.00     0.024 H 
ATOM     74  H   LIG d   1       1.423  -2.274 -12.242  0.00  0.00     0.024 H 
ENDBRANCH  14  71
BRANCH  15  75
ATOM     75  C   LIG d   1       5.451  -2.599 -13.487  0.00  0.00    -0.059 C 
ATOM     76  H   LIG d   1       5.959  -1.770 -13.980  0.00  0.00     0.024 H 
ATOM     77  H   LIG d   1       5.742  -2.630 -12.437  0.00  0.00     0.024 H 
ATOM     78  H   LIG d   1       5.732  -3.535 -13.970  0.00  0.00     0.024 H 
ENDBRANCH  15  75
BRANCH   1  79
ATOM     79  C   LIG d   1       3.967  -7.021 -14.311  0.00  0.00    -0.076 C 
ATOM     80  C   LIG d   1       5.257  -6.948 -14.523  0.00  0.00    -0.099 C 
ATOM     81  H   LIG d   1       5.663  -6.143 -15.119  0.00  0.00     0.053 H 
ATOM     82  H   LIG d   1       5.917  -7.693 -14.104  0.00  0.00     0.053 H 
BRANCH  79  83
ATOM     83  C   LIG d   1       3.402  -8.144 -13.481  0.00  0.00    -0.044 C 
ATOM     84  H   LIG d   1       3.999  -9.044 -13.633  0.00  0.00     0.027 H 
ATOM     85  H   LIG d   1       3.427  -7.865 -12.427  0.00  0.00     0.027 H 
ATOM     86  H   LIG d   1       2.372  -8.336 -13.781  0.00  0.00     0.027 H 
ENDBRANCH  79  83
ENDBRANCH   1  79
BRANCH   5  87
ATOM     87  C   LIG d   1       1.716  -3.577 -16.029  0.00  0.00     0.313 C 
ATOM     88  O   LIG d   1       1.188  -3.133 -17.021  0.00  0.00    -0.250 OA
BRANCH  87  89
ATOM     89  O   LIG d   1       0.982  -3.828 -14.933  0.00  0.00    -0.468 OA
BRANCH  89  90
ATOM     90  C   LIG d   1      -0.325  -3.254 -14.881  0.00  0.00     0.082 C 
ATOM     91  H   LIG d   1      -0.484  -2.633 -15.762  0.00  0.00     0.066 H 
ATOM     92  H   LIG d   1      -1.071  -4.050 -14.860  0.00  0.00     0.066 H 
ATOM     93  H   LIG d   1      -0.419  -2.644 -13.984  0.00  0.00     0.066 H 
ENDBRANCH  89  90
ENDBRANCH  87  89
ENDBRANCH   5  87
TORSDOF 11
ENDMDL
MODEL 4
REMARK VINA RESULT:      -5.7      6.140     10.779
REMARK  11 active torsions:
REMARK  status: ('A' for Active; 'I' for Inactive)
REMARK    1  A    between atoms: C_1  and  C_2 
REMARK    2  A    between atoms: C_2  and  C_4 
REMARK    3  A    between atoms: C_8  and  C_44 
REMARK    4  A    between atoms: C_17  and  C_43 
REMARK    5  A    between atoms: C_18  and  C_21 
REMARK    6  A    between atoms: C_26  and  C_42 
REMARK    7  A    between atoms: C_29  and  C_30 
REMARK    8  A    between atoms: C_39  and  C_40 
REMARK    9  A    between atoms: C_39  and  C_41 
REMARK   10  A    between atoms: C_44  and  O_46 
REMARK   11  A    between atoms: O_46  and  C_47 
ROOT
ATOM      1  C   LIG d   1       7.157   0.657  -5.065  0.00  0.00    -0.016 C 
ATOM      2  H   LIG d   1       6.562   1.529  -5.314  0.00  0.00     0.035 H 
ATOM      3  C   LIG d   1       7.231   0.462  -3.526  0.00  0.00    -0.045 C 
ATOM      4  C   LIG d   1       6.625  -0.940  -3.243  0.00  0.00    -0.036 C 
ATOM      5  C   LIG d   1       5.627  -1.090  -4.407  0.00  0.00     0.071 C 
ATOM      6  C   LIG d   1       6.502  -0.617  -5.597  0.00  0.00    -0.015 C 
ATOM      7  H   LIG d   1       7.298  -1.349  -5.768  0.00  0.00     0.032 H 
ATOM      8  C   LIG d   1       5.631  -0.498  -6.824  0.00  0.00    -0.031 C 
ATOM      9  H   LIG d   1       4.824   0.215  -6.618  0.00  0.00     0.031 H 
ATOM     10  C   LIG d   1       6.413   0.047  -8.020  0.00  0.00    -0.049 C 
ATOM     11  C   LIG d   1       5.483   0.166  -9.234  0.00  0.00    -0.049 C 
ATOM     12  C   LIG d   1       4.887  -1.202  -9.553  0.00  0.00    -0.029 C 
ATOM     13  H   LIG d   1       5.751  -1.879  -9.734  0.00  0.00     0.031 H 
ATOM     14  C   LIG d   1       4.105  -1.741  -8.367  0.00  0.00    -0.023 C 
ATOM     15  C   LIG d   1       5.048  -1.878  -7.159  0.00  0.00    -0.023 C 
ATOM     16  C   LIG d   1       4.310  -2.488  -5.973  0.00  0.00    -0.046 C 
ATOM     17  C   LIG d   1       5.164  -2.500  -4.695  0.00  0.00    -0.036 C 
ATOM     18  C   LIG d   1       3.496  -3.104  -8.702  0.00  0.00    -0.046 C 
ATOM     19  C   LIG d   1       2.620  -2.977  -9.957  0.00  0.00    -0.048 C 
ATOM     20  C   LIG d   1       3.505  -2.559 -11.130  0.00  0.00    -0.023 C 
ATOM     21  H   LIG d   1       4.350  -3.289 -11.161  0.00  0.00     0.032 H 
ATOM     22  C   LIG d   1       4.133  -1.191 -10.882  0.00  0.00    -0.021 C 
ATOM     23  C   LIG d   1       5.195  -0.974 -11.986  0.00  0.00    -0.018 C 
ATOM     24  C   LIG d   1       4.523  -1.049 -13.325  0.00  0.00    -0.003 C 
ATOM     25  C   LIG d   1       5.067  -0.390 -14.373  0.00  0.00    -0.048 C 
ATOM     26  C   LIG d   1       3.348  -1.784 -13.515  0.00  0.00     0.165 C 
ATOM     27  O   LIG d   1       2.777  -1.711 -14.584  0.00  0.00    -0.292 OA
ATOM     28  C   LIG d   1       2.770  -2.675 -12.454  0.00  0.00     0.031 C 
ATOM     29  H   LIG d   1       8.270   0.494  -3.198  0.00  0.00     0.027 H 
ATOM     30  H   LIG d   1       6.656   1.235  -3.021  0.00  0.00     0.027 H 
ATOM     31  H   LIG d   1       7.389  -1.712  -3.294  0.00  0.00     0.028 H 
ATOM     32  H   LIG d   1       6.105  -0.955  -2.290  0.00  0.00     0.028 H 
ATOM     33  H   LIG d   1       6.779   1.051  -7.776  0.00  0.00     0.027 H 
ATOM     34  H   LIG d   1       7.260  -0.584  -8.261  0.00  0.00     0.027 H 
ATOM     35  H   LIG d   1       4.711   0.900  -9.020  0.00  0.00     0.027 H 
ATOM     36  H   LIG d   1       6.074   0.513 -10.087  0.00  0.00     0.027 H 
ATOM     37  H   LIG d   1       3.376  -1.974  -5.778  0.00  0.00     0.027 H 
ATOM     38  H   LIG d   1       4.070  -3.531  -6.225  0.00  0.00     0.027 H 
ATOM     39  H   LIG d   1       6.022  -3.161  -4.815  0.00  0.00     0.028 H 
ATOM     40  H   LIG d   1       4.558  -2.864  -3.858  0.00  0.00     0.028 H 
ATOM     41  H   LIG d   1       4.269  -3.842  -8.901  0.00  0.00     0.027 H 
ATOM     42  H   LIG d   1       2.871  -3.441  -7.873  0.00  0.00     0.027 H 
ATOM     43  H   LIG d   1       2.183  -3.959 -10.159  0.00  0.00     0.027 H 
ATOM     44  H   LIG d   1       1.827  -2.264  -9.778  0.00  0.00     0.027 H 
ATOM     45  H   LIG d   1       5.645   0.004 -11.860  0.00  0.00     0.032 H 
ATOM     46  H   LIG d   1       5.946  -1.754 -11.910  0.00  0.00     0.032 H 
ATOM     47  H   LIG d   1       5.865   0.319 -14.209  0.00  0.00     0.063 H 
ENDROOT
BRANCH  25  48
ATOM     48  C   LIG d   1       4.573  -0.639 -15.735  0.00  0.00    -0.025 A 
ATOM     49  C   LIG d   1       4.930  -1.813 -16.408  0.00  0.00    -0.053 A 
ATOM     50  C   LIG d   1       4.459  -2.041 -17.683  0.00  0.00    -0.043 A 
ATOM     51  H   LIG d   1       5.572  -2.538 -15.931  0.00  0.00     0.062 H 
ATOM     52  C   LIG d   1       3.642  -1.109 -18.301  0.00  0.00     0.041 A 
ATOM     53  H   LIG d   1       4.731  -2.949 -18.203  0.00  0.00     0.063 H 
ATOM     54  C   LIG d   1       3.288   0.058 -17.642  0.00  0.00    -0.043 A 
ATOM     55 CL   LIG d   1       3.058  -1.403 -19.909  0.00  0.00    -0.084 Cl
ATOM     56  C   LIG d   1       3.746   0.298 -16.365  0.00  0.00    -0.053 A 
ATOM     57  H   LIG d   1       2.650   0.780 -18.130  0.00  0.00     0.063 H 
ATOM     58  H   LIG d   1       3.470   1.207 -15.852  0.00  0.00     0.062 H 
ENDBRANCH  25  48
BRANCH  22  59
ATOM     59  C   LIG d   1       3.124  -0.053 -10.969  0.00  0.00    -0.059 C 
ATOM     60  H   LIG d   1       2.679  -0.037 -11.964  0.00  0.00     0.024 H 
ATOM     61  H   LIG d   1       2.342  -0.204 -10.224  0.00  0.00     0.024 H 
ATOM     62  H   LIG d   1       3.627   0.894 -10.781  0.00  0.00     0.024 H 
ENDBRANCH  22  59
BRANCH  28  63
ATOM     63  C   LIG d   1       2.909  -4.127 -12.957  0.00  0.00    -0.052 C 
ATOM     64  H   LIG d   1       3.271  -4.121 -13.986  0.00  0.00     0.024 H 
ATOM     65  H   LIG d   1       3.617  -4.665 -12.327  0.00  0.00     0.024 H 
ATOM     66  H   LIG d   1       1.939  -4.621 -12.916  0.00  0.00     0.024 H 
ENDBRANCH  28  63
BRANCH  28  67
ATOM     67  C   LIG d   1       1.277  -2.380 -12.312  0.00  0.00    -0.052 C 
ATOM     68  H   LIG d   1       0.874  -2.071 -13.276  0.00  0.00     0.024 H 
ATOM     69  H   LIG d   1       0.759  -3.277 -11.974  0.00  0.00     0.024 H 
ATOM     70  H   LIG d   1       1.131  -1.581 -11.585  0.00  0.00     0.024 H 
ENDBRANCH  28  67
BRANCH  14  71
ATOM     71  C   LIG d   1       2.966  -0.790  -7.971  0.00  0.00    -0.059 C 
ATOM     72  H   LIG d   1       2.809  -0.839  -6.894  0.00  0.00     0.024 H 
ATOM     73  H   LIG d   1       3.228   0.228  -8.255  0.00  0.00     0.024 H 
ATOM     74  H   LIG d   1       2.050  -1.087  -8.484  0.00  0.00     0.024 H 
ENDBRANCH  14  71
BRANCH  15  75
ATOM     75  C   LIG d   1       6.187  -2.840  -7.519  0.00  0.00    -0.059 C 
ATOM     76  H   LIG d   1       6.833  -2.980  -6.653  0.00  0.00     0.024 H 
ATOM     77  H   LIG d   1       5.769  -3.802  -7.819  0.00  0.00     0.024 H 
ATOM     78  H   LIG d   1       6.767  -2.424  -8.342  0.00  0.00     0.024 H 
ENDBRANCH  15  75
BRANCH   1  79
ATOM     79  C   LIG d   1       8.555   0.793  -5.617  0.00  0.00    -0.076 C 
ATOM     80  C   LIG d   1       9.008   1.972  -5.968  0.00  0.00    -0.099 C 
ATOM     81  H   LIG d   1       8.380   2.845  -5.861  0.00  0.00     0.053 H 
ATOM     82  H   LIG d   1      10.007   2.070  -6.363  0.00  0.00     0.053 H 
BRANCH  79  83
ATOM     83  C   LIG d   1       9.429  -0.424  -5.766  0.00  0.00    -0.044 C 
ATOM     84  H   LIG d   1       9.671  -0.821  -4.779  0.00  0.00     0.027 H 
ATOM     85  H   LIG d   1       8.900  -1.183  -6.343  0.00  0.00     0.027 H 
ATOM     86  H   LIG d   1      10.349  -0.151  -6.284  0.00  0.00     0.027 H 
ENDBRANCH  79  83
ENDBRANCH   1  79
BRANCH   5  87
ATOM     87  C   LIG d   1       4.455  -0.177  -4.161  0.00  0.00     0.313 C 
ATOM     88  O   LIG d   1       4.051   0.539  -5.047  0.00  0.00    -0.250 OA
BRANCH  87  89
ATOM     89  O   LIG d   1       3.859  -0.158  -2.958  0.00  0.00    -0.468 OA
BRANCH  89  90
ATOM     90  C   LIG d   1       3.663   1.121  -2.351  0.00  0.00     0.082 C 
ATOM     91  H   LIG d   1       3.052   1.009  -1.456  0.00  0.00     0.066 H 
ATOM     92  H   LIG d   1       4.630   1.546  -2.079  0.00  0.00     0.066 H 
ATOM     93  H   LIG d   1       3.161   1.784  -3.054  0.00  0.00     0.066 H 
ENDBRANCH  89  90
ENDBRANCH  87  89
ENDBRANCH   5  87
TORSDOF 11
ENDMDL
MODEL 5
REMARK VINA RESULT:      -5.6      3.414      9.812
REMARK  11 active torsions:
REMARK  status: ('A' for Active; 'I' for Inactive)
REMARK    1  A    between atoms: C_1  and  C_2 
REMARK    2  A    between atoms: C_2  and  C_4 
REMARK    3  A    between atoms: C_8  and  C_44 
REMARK    4  A    between atoms: C_17  and  C_43 
REMARK    5  A    between atoms: C_18  and  C_21 
REMARK    6  A    between atoms: C_26  and  C_42 
REMARK    7  A    between atoms: C_29  and  C_30 
REMARK    8  A    between atoms: C_39  and  C_40 
REMARK    9  A    between atoms: C_39  and  C_41 
REMARK   10  A    between atoms: C_44  and  O_46 
REMARK   11  A    between atoms: O_46  and  C_47 
ROOT
ATOM      1  C   LIG d   1       5.166  -1.184  -4.923  0.00  0.00    -0.016 C 
ATOM      2  H   LIG d   1       4.646  -0.233  -4.978  0.00  0.00     0.035 H 
ATOM      3  C   LIG d   1       4.472  -2.245  -5.819  0.00  0.00    -0.045 C 
ATOM      4  C   LIG d   1       5.544  -2.701  -6.848  0.00  0.00    -0.036 C 
ATOM      5  C   LIG d   1       6.416  -1.438  -6.971  0.00  0.00     0.071 C 
ATOM      6  C   LIG d   1       6.585  -1.059  -5.477  0.00  0.00    -0.015 C 
ATOM      7  H   LIG d   1       7.198  -1.820  -4.983  0.00  0.00     0.032 H 
ATOM      8  C   LIG d   1       7.256   0.290  -5.389  0.00  0.00    -0.031 C 
ATOM      9  H   LIG d   1       6.639   1.027  -5.917  0.00  0.00     0.031 H 
ATOM     10  C   LIG d   1       7.378   0.767  -3.941  0.00  0.00    -0.049 C 
ATOM     11  C   LIG d   1       8.048   2.146  -3.906  0.00  0.00    -0.049 C 
ATOM     12  C   LIG d   1       9.421   2.060  -4.567  0.00  0.00    -0.029 C 
ATOM     13  H   LIG d   1       9.988   1.288  -3.999  0.00  0.00     0.031 H 
ATOM     14  C   LIG d   1       9.300   1.592  -6.008  0.00  0.00    -0.023 C 
ATOM     15  C   LIG d   1       8.645   0.200  -6.035  0.00  0.00    -0.023 C 
ATOM     16  C   LIG d   1       8.578  -0.330  -7.462  0.00  0.00    -0.046 C 
ATOM     17  C   LIG d   1       7.792  -1.648  -7.561  0.00  0.00    -0.036 C 
ATOM     18  C   LIG d   1      10.679   1.527  -6.667  0.00  0.00    -0.046 C 
ATOM     19  C   LIG d   1      11.359   2.900  -6.565  0.00  0.00    -0.048 C 
ATOM     20  C   LIG d   1      11.562   3.235  -5.089  0.00  0.00    -0.023 C 
ATOM     21  H   LIG d   1      12.092   2.361  -4.639  0.00  0.00     0.032 H 
ATOM     22  C   LIG d   1      10.225   3.343  -4.363  0.00  0.00    -0.021 C 
ATOM     23  C   LIG d   1      10.538   3.427  -2.850  0.00  0.00    -0.018 C 
ATOM     24  C   LIG d   1      11.410   4.622  -2.601  0.00  0.00    -0.003 C 
ATOM     25  C   LIG d   1      11.382   5.217  -1.388  0.00  0.00    -0.048 C 
ATOM     26  C   LIG d   1      12.250   5.135  -3.595  0.00  0.00     0.165 C 
ATOM     27  O   LIG d   1      12.840   6.175  -3.384  0.00  0.00    -0.292 OA
ATOM     28  C   LIG d   1      12.467   4.442  -4.909  0.00  0.00     0.031 C 
ATOM     29  H   LIG d   1       4.153  -3.091  -5.211  0.00  0.00     0.027 H 
ATOM     30  H   LIG d   1       3.617  -1.807  -6.328  0.00  0.00     0.027 H 
ATOM     31  H   LIG d   1       6.127  -3.532  -6.460  0.00  0.00     0.028 H 
ATOM     32  H   LIG d   1       5.088  -2.945  -7.803  0.00  0.00     0.028 H 
ATOM     33  H   LIG d   1       6.373   0.869  -3.516  0.00  0.00     0.027 H 
ATOM     34  H   LIG d   1       7.941   0.064  -3.339  0.00  0.00     0.027 H 
ATOM     35  H   LIG d   1       7.407   2.865  -4.406  0.00  0.00     0.027 H 
ATOM     36  H   LIG d   1       8.166   2.444  -2.860  0.00  0.00     0.027 H 
ATOM     37  H   LIG d   1       8.147   0.399  -8.137  0.00  0.00     0.027 H 
ATOM     38  H   LIG d   1       9.606  -0.528  -7.798  0.00  0.00     0.027 H 
ATOM     39  H   LIG d   1       8.312  -2.444  -7.029  0.00  0.00     0.028 H 
ATOM     40  H   LIG d   1       7.699  -1.934  -8.614  0.00  0.00     0.028 H 
ATOM     41  H   LIG d   1      11.314   0.795  -6.177  0.00  0.00     0.027 H 
ATOM     42  H   LIG d   1      10.568   1.269  -7.722  0.00  0.00     0.027 H 
ATOM     43  H   LIG d   1      12.330   2.828  -7.062  0.00  0.00     0.027 H 
ATOM     44  H   LIG d   1      10.756   3.644  -7.067  0.00  0.00     0.027 H 
ATOM     45  H   LIG d   1       9.610   3.534  -2.299  0.00  0.00     0.032 H 
ATOM     46  H   LIG d   1      11.061   2.525  -2.548  0.00  0.00     0.032 H 
ATOM     47  H   LIG d   1      10.619   4.949  -0.673  0.00  0.00     0.063 H 
ENDROOT
BRANCH  25  48
ATOM     48  C   LIG d   1      12.391   6.228  -1.041  0.00  0.00    -0.025 A 
ATOM     49  C   LIG d   1      13.705   5.840  -0.756  0.00  0.00    -0.053 A 
ATOM     50  C   LIG d   1      14.647   6.795  -0.437  0.00  0.00    -0.043 A 
ATOM     51  H   LIG d   1      13.982   4.797  -0.789  0.00  0.00     0.062 H 
ATOM     52  C   LIG d   1      14.294   8.133  -0.388  0.00  0.00     0.041 A 
ATOM     53  H   LIG d   1      15.664   6.497  -0.221  0.00  0.00     0.063 H 
ATOM     54  C   LIG d   1      12.993   8.524  -0.664  0.00  0.00    -0.043 A 
ATOM     55 CL   LIG d   1      15.485   9.327   0.021  0.00  0.00    -0.084 Cl
ATOM     56  C   LIG d   1      12.042   7.582  -0.990  0.00  0.00    -0.053 A 
ATOM     57  H   LIG d   1      12.724   9.569  -0.624  0.00  0.00     0.063 H 
ATOM     58  H   LIG d   1      11.028   7.888  -1.205  0.00  0.00     0.062 H 
ENDBRANCH  25  48
BRANCH  22  59
ATOM     59  C   LIG d   1       9.441   4.589  -4.751  0.00  0.00    -0.059 C 
ATOM     60  H   LIG d   1       8.738   4.343  -5.548  0.00  0.00     0.024 H 
ATOM     61  H   LIG d   1       8.892   4.958  -3.885  0.00  0.00     0.024 H 
ATOM     62  H   LIG d   1      10.129   5.358  -5.099  0.00  0.00     0.024 H 
ENDBRANCH  22  59
BRANCH  28  63
ATOM     63  C   LIG d   1      13.931   3.955  -4.928  0.00  0.00    -0.052 C 
ATOM     64  H   LIG d   1      14.436   4.357  -5.806  0.00  0.00     0.024 H 
ATOM     65  H   LIG d   1      14.439   4.297  -4.027  0.00  0.00     0.024 H 
ATOM     66  H   LIG d   1      13.951   2.865  -4.964  0.00  0.00     0.024 H 
ENDBRANCH  28  63
BRANCH  28  67
ATOM     67  C   LIG d   1      12.306   5.456  -6.042  0.00  0.00    -0.052 C 
ATOM     68  H   LIG d   1      12.264   4.931  -6.996  0.00  0.00     0.024 H 
ATOM     69  H   LIG d   1      11.385   6.020  -5.898  0.00  0.00     0.024 H 
ATOM     70  H   LIG d   1      13.155   6.140  -6.041  0.00  0.00     0.024 H 
ENDBRANCH  28  67
BRANCH  14  71
ATOM     71  C   LIG d   1       8.418   2.543  -6.831  0.00  0.00    -0.059 C 
ATOM     72  H   LIG d   1       7.404   2.534  -6.433  0.00  0.00     0.024 H 
ATOM     73  H   LIG d   1       8.822   3.554  -6.773  0.00  0.00     0.024 H 
ATOM     74  H   LIG d   1       8.403   2.216  -7.871  0.00  0.00     0.024 H 
ENDBRANCH  14  71
BRANCH  15  75
ATOM     75  C   LIG d   1       9.517  -0.778  -5.236  0.00  0.00    -0.059 C 
ATOM     76  H   LIG d   1       9.760  -1.640  -5.857  0.00  0.00     0.024 H 
ATOM     77  H   LIG d   1      10.437  -0.279  -4.932  0.00  0.00     0.024 H 
ATOM     78  H   LIG d   1       8.974  -1.110  -4.351  0.00  0.00     0.024 H 
ENDBRANCH  15  75
BRANCH   1  79
ATOM     79  C   LIG d   1       5.206  -1.684  -3.499  0.00  0.00    -0.076 C 
ATOM     80  C   LIG d   1       6.255  -2.335  -3.063  0.00  0.00    -0.099 C 
ATOM     81  H   LIG d   1       7.092  -2.514  -3.722  0.00  0.00     0.053 H 
ATOM     82  H   LIG d   1       6.284  -2.693  -2.045  0.00  0.00     0.053 H 
BRANCH  79  83
ATOM     83  C   LIG d   1       4.038  -1.435  -2.580  0.00  0.00    -0.044 C 
ATOM     84  H   LIG d   1       4.040  -2.178  -1.781  0.00  0.00     0.027 H 
ATOM     85  H   LIG d   1       4.122  -0.437  -2.149  0.00  0.00     0.027 H 
ATOM     86  H   LIG d   1       3.108  -1.510  -3.144  0.00  0.00     0.027 H 
ENDBRANCH  79  83
ENDBRANCH   1  79
BRANCH   5  87
ATOM     87  C   LIG d   1       5.652  -0.394  -7.743  0.00  0.00     0.313 C 
ATOM     88  O   LIG d   1       5.385   0.665  -7.225  0.00  0.00    -0.250 OA
BRANCH  87  89
ATOM     89  O   LIG d   1       5.267  -0.640  -9.005  0.00  0.00    -0.468 OA
BRANCH  89  90
ATOM     90  C   LIG d   1       5.518   0.383  -9.971  0.00  0.00     0.082 C 
ATOM     91  H   LIG d   1       5.991  -0.055 -10.849  0.00  0.00     0.066 H 
ATOM     92  H   LIG d   1       4.575   0.847 -10.261  0.00  0.00     0.066 H 
ATOM     93  H   LIG d   1       6.176   1.136  -9.540  0.00  0.00     0.066 H 
ENDBRANCH  89  90
ENDBRANCH  87  89
ENDBRANCH   5  87
TORSDOF 11
ENDMDL
MODEL 6
REMARK VINA RESULT:      -5.5      9.562     12.274
REMARK  11 active torsions:
REMARK  status: ('A' for Active; 'I' for Inactive)
REMARK    1  A    between atoms: C_1  and  C_2 
REMARK    2  A    between atoms: C_2  and  C_4 
REMARK    3  A    between atoms: C_8  and  C_44 
REMARK    4  A    between atoms: C_17  and  C_43 
REMARK    5  A    between atoms: C_18  and  C_21 
REMARK    6  A    between atoms: C_26  and  C_42 
REMARK    7  A    between atoms: C_29  and  C_30 
REMARK    8  A    between atoms: C_39  and  C_40 
REMARK    9  A    between atoms: C_39  and  C_41 
REMARK   10  A    between atoms: C_44  and  O_46 
REMARK   11  A    between atoms: O_46  and  C_47 
ROOT
ATOM      1  C   LIG d   1       1.655  -2.434 -10.738  0.00  0.00    -0.016 C 
ATOM      2  H   LIG d   1       1.251  -2.197  -9.759  0.00  0.00     0.035 H 
ATOM      3  C   LIG d   1       1.551  -1.210 -11.688  0.00  0.00    -0.045 C 
ATOM      4  C   LIG d   1       3.007  -0.882 -12.121  0.00  0.00    -0.036 C 
ATOM      5  C   LIG d   1       3.812  -1.367 -10.902  0.00  0.00     0.071 C 
ATOM      6  C   LIG d   1       3.148  -2.745 -10.649  0.00  0.00    -0.015 C 
ATOM      7  H   LIG d   1       3.394  -3.417 -11.478  0.00  0.00     0.032 H 
ATOM      8  C   LIG d   1       3.671  -3.307  -9.349  0.00  0.00    -0.031 C 
ATOM      9  H   LIG d   1       3.441  -2.602  -8.541  0.00  0.00     0.031 H 
ATOM     10  C   LIG d   1       2.993  -4.630  -8.993  0.00  0.00    -0.049 C 
ATOM     11  C   LIG d   1       3.543  -5.150  -7.659  0.00  0.00    -0.049 C 
ATOM     12  C   LIG d   1       5.054  -5.327  -7.769  0.00  0.00    -0.029 C 
ATOM     13  H   LIG d   1       5.221  -6.035  -8.612  0.00  0.00     0.031 H 
ATOM     14  C   LIG d   1       5.730  -4.011  -8.117  0.00  0.00    -0.023 C 
ATOM     15  C   LIG d   1       5.188  -3.505  -9.465  0.00  0.00    -0.023 C 
ATOM     16  C   LIG d   1       5.901  -2.223  -9.879  0.00  0.00    -0.046 C 
ATOM     17  C   LIG d   1       5.288  -1.594 -11.140  0.00  0.00    -0.036 C 
ATOM     18  C   LIG d   1       7.246  -4.195  -8.206  0.00  0.00    -0.046 C 
ATOM     19  C   LIG d   1       7.768  -4.776  -6.884  0.00  0.00    -0.048 C 
ATOM     20  C   LIG d   1       7.143  -6.154  -6.676  0.00  0.00    -0.023 C 
ATOM     21  H   LIG d   1       7.342  -6.733  -7.609  0.00  0.00     0.032 H 
ATOM     22  C   LIG d   1       5.626  -6.052  -6.551  0.00  0.00    -0.021 C 
ATOM     23  C   LIG d   1       5.071  -7.496  -6.601  0.00  0.00    -0.018 C 
ATOM     24  C   LIG d   1       5.675  -8.286  -5.478  0.00  0.00    -0.003 C 
ATOM     25  C   LIG d   1       4.998  -9.344  -4.978  0.00  0.00    -0.048 C 
ATOM     26  C   LIG d   1       6.922  -7.954  -4.937  0.00  0.00     0.165 C 
ATOM     27  O   LIG d   1       7.308  -8.546  -3.950  0.00  0.00    -0.292 OA
ATOM     28  C   LIG d   1       7.812  -6.904  -5.538  0.00  0.00     0.031 C 
ATOM     29  H   LIG d   1       0.950  -1.467 -12.560  0.00  0.00     0.027 H 
ATOM     30  H   LIG d   1       1.109  -0.365 -11.165  0.00  0.00     0.027 H 
ATOM     31  H   LIG d   1       3.284  -1.442 -13.010  0.00  0.00     0.028 H 
ATOM     32  H   LIG d   1       3.139   0.187 -12.265  0.00  0.00     0.028 H 
ATOM     33  H   LIG d   1       1.917  -4.455  -8.868  0.00  0.00     0.027 H 
ATOM     34  H   LIG d   1       3.137  -5.372  -9.770  0.00  0.00     0.027 H 
ATOM     35  H   LIG d   1       3.277  -4.454  -6.870  0.00  0.00     0.027 H 
ATOM     36  H   LIG d   1       3.078  -6.118  -7.449  0.00  0.00     0.027 H 
ATOM     37  H   LIG d   1       5.907  -1.495  -9.078  0.00  0.00     0.027 H 
ATOM     38  H   LIG d   1       6.947  -2.477 -10.106  0.00  0.00     0.027 H 
ATOM     39  H   LIG d   1       5.434  -2.244 -12.002  0.00  0.00     0.028 H 
ATOM     40  H   LIG d   1       5.778  -0.634 -11.339  0.00  0.00     0.028 H 
ATOM     41  H   LIG d   1       7.512  -4.879  -9.007  0.00  0.00     0.027 H 
ATOM     42  H   LIG d   1       7.723  -3.228  -8.375  0.00  0.00     0.027 H 
ATOM     43  H   LIG d   1       8.854  -4.875  -6.970  0.00  0.00     0.027 H 
ATOM     44  H   LIG d   1       7.536  -4.102  -6.072  0.00  0.00     0.027 H 
ATOM     45  H   LIG d   1       3.993  -7.468  -6.487  0.00  0.00     0.032 H 
ATOM     46  H   LIG d   1       5.344  -7.945  -7.551  0.00  0.00     0.032 H 
ATOM     47  H   LIG d   1       3.968  -9.506  -5.258  0.00  0.00     0.063 H 
ENDROOT
BRANCH  25  48
ATOM     48  C   LIG d   1       5.664 -10.272  -4.053  0.00  0.00    -0.025 A 
ATOM     49  C   LIG d   1       5.395 -10.210  -2.681  0.00  0.00    -0.053 A 
ATOM     50  C   LIG d   1       6.019 -11.087  -1.821  0.00  0.00    -0.043 A 
ATOM     51  H   LIG d   1       4.699  -9.480  -2.297  0.00  0.00     0.062 H 
ATOM     52  C   LIG d   1       6.918 -12.021  -2.309  0.00  0.00     0.041 A 
ATOM     53  H   LIG d   1       5.810 -11.044  -0.761  0.00  0.00     0.063 H 
ATOM     54  C   LIG d   1       7.193 -12.085  -3.666  0.00  0.00    -0.043 A 
ATOM     55 CL   LIG d   1       7.704 -13.118  -1.217  0.00  0.00    -0.084 Cl
ATOM     56  C   LIG d   1       6.572 -11.219  -4.539  0.00  0.00    -0.053 A 
ATOM     57  H   LIG d   1       7.895 -12.816  -4.040  0.00  0.00     0.063 H 
ATOM     58  H   LIG d   1       6.787 -11.269  -5.597  0.00  0.00     0.062 H 
ENDBRANCH  25  48
BRANCH  22  59
ATOM     59  C   LIG d   1       5.181  -5.422  -5.238  0.00  0.00    -0.059 C 
ATOM     60  H   LIG d   1       5.628  -5.966  -4.405  0.00  0.00     0.024 H 
ATOM     61  H   LIG d   1       5.504  -4.381  -5.206  0.00  0.00     0.024 H 
ATOM     62  H   LIG d   1       4.096  -5.469  -5.162  0.00  0.00     0.024 H 
ENDBRANCH  22  59
BRANCH  28  63
ATOM     63  C   LIG d   1       9.051  -7.631  -6.101  0.00  0.00    -0.052 C 
ATOM     64  H   LIG d   1       9.783  -6.895  -6.435  0.00  0.00     0.024 H 
ATOM     65  H   LIG d   1       9.492  -8.254  -5.323  0.00  0.00     0.024 H 
ATOM     66  H   LIG d   1       8.754  -8.256  -6.942  0.00  0.00     0.024 H 
ENDBRANCH  28  63
BRANCH  28  67
ATOM     67  C   LIG d   1       8.293  -5.965  -4.432  0.00  0.00    -0.052 C 
ATOM     68  H   LIG d   1       7.869  -4.973  -4.587  0.00  0.00     0.024 H 
ATOM     69  H   LIG d   1       7.973  -6.348  -3.463  0.00  0.00     0.024 H 
ATOM     70  H   LIG d   1       9.381  -5.902  -4.456  0.00  0.00     0.024 H 
ENDBRANCH  28  67
BRANCH  14  71
ATOM     71  C   LIG d   1       5.437  -2.937  -7.059  0.00  0.00    -0.059 C 
ATOM     72  H   LIG d   1       6.044  -3.125  -6.173  0.00  0.00     0.024 H 
ATOM     73  H   LIG d   1       5.677  -1.954  -7.463  0.00  0.00     0.024 H 
ATOM     74  H   LIG d   1       4.381  -2.971  -6.789  0.00  0.00     0.024 H 
ENDBRANCH  14  71
BRANCH  15  75
ATOM     75  C   LIG d   1       5.485  -4.551 -10.548  0.00  0.00    -0.059 C 
ATOM     76  H   LIG d   1       6.460  -4.349 -10.992  0.00  0.00     0.024 H 
ATOM     77  H   LIG d   1       5.489  -5.545 -10.101  0.00  0.00     0.024 H 
ATOM     78  H   LIG d   1       4.718  -4.502 -11.320  0.00  0.00     0.024 H 
ENDBRANCH  15  75
BRANCH   1  79
ATOM     79  C   LIG d   1       0.915  -3.601 -11.348  0.00  0.00    -0.076 C 
ATOM     80  C   LIG d   1       1.294  -4.083 -12.505  0.00  0.00    -0.099 C 
ATOM     81  H   LIG d   1       2.136  -3.646 -13.024  0.00  0.00     0.053 H 
ATOM     82  H   LIG d   1       0.766  -4.917 -12.943  0.00  0.00     0.053 H 
BRANCH  79  83
ATOM     83  C   LIG d   1      -0.258  -4.210 -10.626  0.00  0.00    -0.044 C 
ATOM     84  H   LIG d   1      -0.321  -3.795  -9.619  0.00  0.00     0.027 H 
ATOM     85  H   LIG d   1      -1.176  -3.986 -11.170  0.00  0.00     0.027 H 
ATOM     86  H   LIG d   1      -0.128  -5.291 -10.565  0.00  0.00     0.027 H 
ENDBRANCH  79  83
ENDBRANCH   1  79
BRANCH   5  87
ATOM     87  C   LIG d   1       3.591  -0.408  -9.761  0.00  0.00     0.313 C 
ATOM     88  O   LIG d   1       3.935   0.746  -9.867  0.00  0.00    -0.250 OA
BRANCH  87  89
ATOM     89  O   LIG d   1       3.014  -0.836  -8.627  0.00  0.00    -0.468 OA
BRANCH  89  90
ATOM     90  C   LIG d   1       2.844   0.125  -7.583  0.00  0.00     0.082 C 
ATOM     91  H   LIG d   1       3.614   0.891  -7.666  0.00  0.00     0.066 H 
ATOM     92  H   LIG d   1       1.861   0.588  -7.671  0.00  0.00     0.066 H 
ATOM     93  H   LIG d   1       2.927  -0.371  -6.616  0.00  0.00     0.066 H 
ENDBRANCH  89  90
ENDBRANCH  87  89
ENDBRANCH   5  87
TORSDOF 11
ENDMDL
MODEL 7
REMARK VINA RESULT:      -5.4      7.898     12.601
REMARK  11 active torsions:
REMARK  status: ('A' for Active; 'I' for Inactive)
REMARK    1  A    between atoms: C_1  and  C_2 
REMARK    2  A    between atoms: C_2  and  C_4 
REMARK    3  A    between atoms: C_8  and  C_44 
REMARK    4  A    between atoms: C_17  and  C_43 
REMARK    5  A    between atoms: C_18  and  C_21 
REMARK    6  A    between atoms: C_26  and  C_42 
REMARK    7  A    between atoms: C_29  and  C_30 
REMARK    8  A    between atoms: C_39  and  C_40 
REMARK    9  A    between atoms: C_39  and  C_41 
REMARK   10  A    between atoms: C_44  and  O_46 
REMARK   11  A    between atoms: O_46  and  C_47 
ROOT
ATOM      1  C   LIG d   1       5.476  -0.725  -7.823  0.00  0.00    -0.016 C 
ATOM      2  H   LIG d   1       6.025  -1.631  -8.059  0.00  0.00     0.035 H 
ATOM      3  C   LIG d   1       6.417   0.509  -7.838  0.00  0.00    -0.045 C 
ATOM      4  C   LIG d   1       5.840   1.473  -8.912  0.00  0.00    -0.036 C 
ATOM      5  C   LIG d   1       5.168   0.487  -9.886  0.00  0.00     0.071 C 
ATOM      6  C   LIG d   1       4.420  -0.436  -8.889  0.00  0.00    -0.015 C 
ATOM      7  H   LIG d   1       3.616   0.133  -8.410  0.00  0.00     0.032 H 
ATOM      8  C   LIG d   1       3.848  -1.610  -9.647  0.00  0.00    -0.031 C 
ATOM      9  H   LIG d   1       4.668  -2.144 -10.143  0.00  0.00     0.031 H 
ATOM     10  C   LIG d   1       3.168  -2.609  -8.711  0.00  0.00    -0.049 C 
ATOM     11  C   LIG d   1       2.621  -3.788  -9.523  0.00  0.00    -0.049 C 
ATOM     12  C   LIG d   1       1.639  -3.271 -10.571  0.00  0.00    -0.029 C 
ATOM     13  H   LIG d   1       0.847  -2.728 -10.008  0.00  0.00     0.031 H 
ATOM     14  C   LIG d   1       2.317  -2.282 -11.505  0.00  0.00    -0.023 C 
ATOM     15  C   LIG d   1       2.845  -1.092 -10.687  0.00  0.00    -0.023 C 
ATOM     16  C   LIG d   1       3.465  -0.046 -11.606  0.00  0.00    -0.046 C 
ATOM     17  C   LIG d   1       4.147   1.089 -10.825  0.00  0.00    -0.036 C 
ATOM     18  C   LIG d   1       1.330  -1.784 -12.563  0.00  0.00    -0.046 C 
ATOM     19  C   LIG d   1       0.745  -2.984 -13.322  0.00  0.00    -0.048 C 
ATOM     20  C   LIG d   1      -0.029  -3.855 -12.336  0.00  0.00    -0.023 C 
ATOM     21  H   LIG d   1      -0.745  -3.177 -11.812  0.00  0.00     0.032 H 
ATOM     22  C   LIG d   1       0.895  -4.415 -11.258  0.00  0.00    -0.021 C 
ATOM     23  C   LIG d   1      -0.008  -5.060 -10.180  0.00  0.00    -0.018 C 
ATOM     24  C   LIG d   1      -0.837  -6.133 -10.821  0.00  0.00    -0.003 C 
ATOM     25  C   LIG d   1      -1.278  -7.164 -10.067  0.00  0.00    -0.048 C 
ATOM     26  C   LIG d   1      -1.164  -6.092 -12.181  0.00  0.00     0.165 C 
ATOM     27  O   LIG d   1      -1.729  -7.045 -12.677  0.00  0.00    -0.292 OA
ATOM     28  C   LIG d   1      -0.858  -4.907 -13.051  0.00  0.00     0.031 C 
ATOM     29  H   LIG d   1       6.410   0.992  -6.860  0.00  0.00     0.027 H 
ATOM     30  H   LIG d   1       7.428   0.208  -8.099  0.00  0.00     0.027 H 
ATOM     31  H   LIG d   1       5.104   2.144  -8.479  0.00  0.00     0.028 H 
ATOM     32  H   LIG d   1       6.635   2.020  -9.411  0.00  0.00     0.028 H 
ATOM     33  H   LIG d   1       3.913  -3.000  -8.008  0.00  0.00     0.027 H 
ATOM     34  H   LIG d   1       2.369  -2.143  -8.147  0.00  0.00     0.027 H 
ATOM     35  H   LIG d   1       3.450  -4.321  -9.979  0.00  0.00     0.027 H 
ATOM     36  H   LIG d   1       2.099  -4.465  -8.840  0.00  0.00     0.027 H 
ATOM     37  H   LIG d   1       4.175  -0.490 -12.292  0.00  0.00     0.027 H 
ATOM     38  H   LIG d   1       2.657   0.398 -12.205  0.00  0.00     0.027 H 
ATOM     39  H   LIG d   1       3.411   1.663 -10.263  0.00  0.00     0.028 H 
ATOM     40  H   LIG d   1       4.650   1.761 -11.530  0.00  0.00     0.028 H 
ATOM     41  H   LIG d   1       0.509  -1.237 -12.107  0.00  0.00     0.027 H 
ATOM     42  H   LIG d   1       1.850  -1.140 -13.274  0.00  0.00     0.027 H 
ATOM     43  H   LIG d   1       0.063  -2.595 -14.083  0.00  0.00     0.027 H 
ATOM     44  H   LIG d   1       1.542  -3.533 -13.806  0.00  0.00     0.027 H 
ATOM     45  H   LIG d   1       0.615  -5.496  -9.407  0.00  0.00     0.032 H 
ATOM     46  H   LIG d   1      -0.658  -4.297  -9.762  0.00  0.00     0.032 H 
ATOM     47  H   LIG d   1      -0.893  -7.305  -9.068  0.00  0.00     0.063 H 
ENDROOT
BRANCH  25  48
ATOM     48  C   LIG d   1      -2.283  -8.093 -10.605  0.00  0.00    -0.025 A 
ATOM     49  C   LIG d   1      -3.628  -7.713 -10.668  0.00  0.00    -0.053 A 
ATOM     50  C   LIG d   1      -4.563  -8.587 -11.179  0.00  0.00    -0.043 A 
ATOM     51  H   LIG d   1      -3.933  -6.737 -10.320  0.00  0.00     0.062 H 
ATOM     52  C   LIG d   1      -4.176  -9.842 -11.619  0.00  0.00     0.041 A 
ATOM     53  H   LIG d   1      -5.602  -8.294 -11.232  0.00  0.00     0.063 H 
ATOM     54  C   LIG d   1      -2.846 -10.226 -11.556  0.00  0.00    -0.043 A 
ATOM     55 CL   LIG d   1      -5.362 -10.938 -12.256  0.00  0.00    -0.084 Cl
ATOM     56  C   LIG d   1      -1.899  -9.362 -11.053  0.00  0.00    -0.053 A 
ATOM     57  H   LIG d   1      -2.551 -11.207 -11.901  0.00  0.00     0.063 H 
ATOM     58  H   LIG d   1      -0.862  -9.662 -11.003  0.00  0.00     0.062 H 
ENDBRANCH  25  48
BRANCH  22  59
ATOM     59  C   LIG d   1       1.838  -5.488 -11.787  0.00  0.00    -0.059 C 
ATOM     60  H   LIG d   1       2.864  -5.121 -11.748  0.00  0.00     0.024 H 
ATOM     61  H   LIG d   1       1.749  -6.384 -11.172  0.00  0.00     0.024 H 
ATOM     62  H   LIG d   1       1.576  -5.726 -12.817  0.00  0.00     0.024 H 
ENDBRANCH  22  59
BRANCH  28  63
ATOM     63  C   LIG d   1      -2.209  -4.273 -13.442  0.00  0.00    -0.052 C 
ATOM     64  H   LIG d   1      -2.507  -3.553 -12.679  0.00  0.00     0.024 H 
ATOM     65  H   LIG d   1      -2.109  -3.765 -14.401  0.00  0.00     0.024 H 
ATOM     66  H   LIG d   1      -2.967  -5.052 -13.522  0.00  0.00     0.024 H 
ENDBRANCH  28  63
BRANCH  28  67
ATOM     67  C   LIG d   1      -0.189  -5.392 -14.338  0.00  0.00    -0.052 C 
ATOM     68  H   LIG d   1       0.715  -5.947 -14.090  0.00  0.00     0.024 H 
ATOM     69  H   LIG d   1      -0.876  -6.040 -14.883  0.00  0.00     0.024 H 
ATOM     70  H   LIG d   1       0.070  -4.534 -14.958  0.00  0.00     0.024 H 
ENDBRANCH  28  67
BRANCH  14  71
ATOM     71  C   LIG d   1       3.510  -2.926 -12.227  0.00  0.00    -0.059 C 
ATOM     72  H   LIG d   1       3.147  -3.563 -13.033  0.00  0.00     0.024 H 
ATOM     73  H   LIG d   1       4.148  -2.144 -12.640  0.00  0.00     0.024 H 
ATOM     74  H   LIG d   1       4.082  -3.526 -11.519  0.00  0.00     0.024 H 
ENDBRANCH  14  71
BRANCH  15  75
ATOM     75  C   LIG d   1       1.669  -0.416  -9.970  0.00  0.00    -0.059 C 
ATOM     76  H   LIG d   1       1.951  -0.190  -8.941  0.00  0.00     0.024 H 
ATOM     77  H   LIG d   1       1.412   0.508 -10.487  0.00  0.00     0.024 H 
ATOM     78  H   LIG d   1       0.809  -1.086  -9.972  0.00  0.00     0.024 H 
ENDBRANCH  15  75
BRANCH   1  79
ATOM     79  C   LIG d   1       4.826  -0.840  -6.465  0.00  0.00    -0.076 C 
ATOM     80  C   LIG d   1       5.373  -1.588  -5.539  0.00  0.00    -0.099 C 
ATOM     81  H   LIG d   1       6.288  -2.123  -5.747  0.00  0.00     0.053 H 
ATOM     82  H   LIG d   1       4.908  -1.671  -4.568  0.00  0.00     0.053 H 
BRANCH  79  83
ATOM     83  C   LIG d   1       3.549  -0.095  -6.175  0.00  0.00    -0.044 C 
ATOM     84  H   LIG d   1       3.282  -0.227  -5.125  0.00  0.00     0.027 H 
ATOM     85  H   LIG d   1       3.692   0.965  -6.383  0.00  0.00     0.027 H 
ATOM     86  H   LIG d   1       2.749  -0.484  -6.804  0.00  0.00     0.027 H 
ENDBRANCH  79  83
ENDBRANCH   1  79
BRANCH   5  87
ATOM     87  C   LIG d   1       6.239  -0.246 -10.651  0.00  0.00     0.313 C 
ATOM     88  O   LIG d   1       7.050   0.373 -11.297  0.00  0.00    -0.250 OA
BRANCH  87  89
ATOM     89  O   LIG d   1       6.290  -1.587 -10.616  0.00  0.00    -0.468 OA
BRANCH  89  90
ATOM     90  C   LIG d   1       7.587  -2.186 -10.577  0.00  0.00     0.082 C 
ATOM     91  H   LIG d   1       8.331  -1.426 -10.343  0.00  0.00     0.066 H 
ATOM     92  H   LIG d   1       7.606  -2.961  -9.809  0.00  0.00     0.066 H 
ATOM     93  H   LIG d   1       7.811  -2.630 -11.546  0.00  0.00     0.066 H 
ENDBRANCH  89  90
ENDBRANCH  87  89
ENDBRANCH   5  87
TORSDOF 11
ENDMDL
MODEL 8
REMARK VINA RESULT:      -5.4      4.207      9.911
REMARK  11 active torsions:
REMARK  status: ('A' for Active; 'I' for Inactive)
REMARK    1  A    between atoms: C_1  and  C_2 
REMARK    2  A    between atoms: C_2  and  C_4 
REMARK    3  A    between atoms: C_8  and  C_44 
REMARK    4  A    between atoms: C_17  and  C_43 
REMARK    5  A    between atoms: C_18  and  C_21 
REMARK    6  A    between atoms: C_26  and  C_42 
REMARK    7  A    between atoms: C_29  and  C_30 
REMARK    8  A    between atoms: C_39  and  C_40 
REMARK    9  A    between atoms: C_39  and  C_41 
REMARK   10  A    between atoms: C_44  and  O_46 
REMARK   11  A    between atoms: O_46  and  C_47 
ROOT
ATOM      1  C   LIG d   1      10.462   0.921  -8.837  0.00  0.00    -0.016 C 
ATOM      2  H   LIG d   1      11.440   1.361  -8.998  0.00  0.00     0.035 H 
ATOM      3  C   LIG d   1      10.518  -0.621  -9.003  0.00  0.00    -0.045 C 
ATOM      4  C   LIG d   1      10.053  -1.214  -7.644  0.00  0.00    -0.036 C 
ATOM      5  C   LIG d   1      10.490  -0.115  -6.659  0.00  0.00     0.071 C 
ATOM      6  C   LIG d   1       9.991   1.151  -7.402  0.00  0.00    -0.015 C 
ATOM      7  H   LIG d   1       8.896   1.152  -7.411  0.00  0.00     0.032 H 
ATOM      8  C   LIG d   1      10.507   2.374  -6.682  0.00  0.00    -0.031 C 
ATOM      9  H   LIG d   1      11.603   2.334  -6.658  0.00  0.00     0.031 H 
ATOM     10  C   LIG d   1      10.124   3.662  -7.411  0.00  0.00    -0.049 C 
ATOM     11  C   LIG d   1      10.685   4.871  -6.653  0.00  0.00    -0.049 C 
ATOM     12  C   LIG d   1      10.143   4.872  -5.227  0.00  0.00    -0.029 C 
ATOM     13  H   LIG d   1       9.034   4.896  -5.320  0.00  0.00     0.031 H 
ATOM     14  C   LIG d   1      10.528   3.595  -4.500  0.00  0.00    -0.023 C 
ATOM     15  C   LIG d   1       9.946   2.387  -5.254  0.00  0.00    -0.023 C 
ATOM     16  C   LIG d   1      10.252   1.094  -4.508  0.00  0.00    -0.046 C 
ATOM     17  C   LIG d   1       9.827  -0.153  -5.300  0.00  0.00    -0.036 C 
ATOM     18  C   LIG d   1       9.996   3.613  -3.065  0.00  0.00    -0.046 C 
ATOM     19  C   LIG d   1      10.517   4.865  -2.344  0.00  0.00    -0.048 C 
ATOM     20  C   LIG d   1       9.977   6.101  -3.059  0.00  0.00    -0.023 C 
ATOM     21  H   LIG d   1       8.870   5.967  -3.125  0.00  0.00     0.032 H 
ATOM     22  C   LIG d   1      10.486   6.169  -4.495  0.00  0.00    -0.021 C 
ATOM     23  C   LIG d   1       9.693   7.293  -5.203  0.00  0.00    -0.018 C 
ATOM     24  C   LIG d   1       9.918   8.581  -4.466  0.00  0.00    -0.003 C 
ATOM     25  C   LIG d   1       9.805   9.751  -5.134  0.00  0.00    -0.048 C 
ATOM     26  C   LIG d   1      10.239   8.600  -3.105  0.00  0.00     0.165 C 
ATOM     27  O   LIG d   1      10.533   9.658  -2.587  0.00  0.00    -0.292 OA
ATOM     28  C   LIG d   1      10.222   7.364  -2.252  0.00  0.00     0.031 C 
ATOM     29  H   LIG d   1       9.841  -0.934  -9.799  0.00  0.00     0.027 H 
ATOM     30  H   LIG d   1      11.533  -0.939  -9.231  0.00  0.00     0.027 H 
ATOM     31  H   LIG d   1       8.973  -1.340  -7.623  0.00  0.00     0.028 H 
ATOM     32  H   LIG d   1      10.568  -2.147  -7.429  0.00  0.00     0.028 H 
ATOM     33  H   LIG d   1      10.576   3.651  -8.410  0.00  0.00     0.027 H 
ATOM     34  H   LIG d   1       9.050   3.754  -7.515  0.00  0.00     0.027 H 
ATOM     35  H   LIG d   1      11.770   4.828  -6.669  0.00  0.00     0.027 H 
ATOM     36  H   LIG d   1      10.360   5.780  -7.166  0.00  0.00     0.027 H 
ATOM     37  H   LIG d   1      11.302   1.020  -4.254  0.00  0.00     0.027 H 
ATOM     38  H   LIG d   1       9.682   1.104  -3.568  0.00  0.00     0.027 H 
ATOM     39  H   LIG d   1       8.744  -0.186  -5.410  0.00  0.00     0.028 H 
ATOM     40  H   LIG d   1      10.150  -1.051  -4.761  0.00  0.00     0.028 H 
ATOM     41  H   LIG d   1       8.910   3.640  -3.050  0.00  0.00     0.027 H 
ATOM     42  H   LIG d   1      10.349   2.729  -2.532  0.00  0.00     0.027 H 
ATOM     43  H   LIG d   1      10.139   4.839  -1.318  0.00  0.00     0.027 H 
ATOM     44  H   LIG d   1      11.598   4.851  -2.324  0.00  0.00     0.027 H 
ATOM     45  H   LIG d   1      10.048   7.393  -6.223  0.00  0.00     0.032 H 
ATOM     46  H   LIG d   1       8.637   7.044  -5.187  0.00  0.00     0.032 H 
ATOM     47  H   LIG d   1       9.734   9.752  -6.212  0.00  0.00     0.063 H 
ENDROOT
BRANCH  25  48
ATOM     48  C   LIG d   1       9.781  11.021  -4.395  0.00  0.00    -0.025 A 
ATOM     49  C   LIG d   1       8.608  11.440  -3.758  0.00  0.00    -0.053 A 
ATOM     50  C   LIG d   1       8.594  12.630  -3.062  0.00  0.00    -0.043 A 
ATOM     51  H   LIG d   1       7.716  10.833  -3.808  0.00  0.00     0.062 H 
ATOM     52  C   LIG d   1       9.733  13.415  -3.002  0.00  0.00     0.041 A 
ATOM     53  H   LIG d   1       7.690  12.953  -2.566  0.00  0.00     0.063 H 
ATOM     54  C   LIG d   1      10.897  13.008  -3.635  0.00  0.00    -0.043 A 
ATOM     55 CL   LIG d   1       9.705  14.915  -2.128  0.00  0.00    -0.084 Cl
ATOM     56  C   LIG d   1      10.929  11.819  -4.329  0.00  0.00    -0.053 A 
ATOM     57  H   LIG d   1      11.783  13.625  -3.584  0.00  0.00     0.063 H 
ATOM     58  H   LIG d   1      11.837  11.503  -4.822  0.00  0.00     0.062 H 
ENDBRANCH  25  48
BRANCH  22  59
ATOM     59  C   LIG d   1      11.968   6.511  -4.581  0.00  0.00    -0.059 C 
ATOM     60  H   LIG d   1      12.516   5.944  -3.829  0.00  0.00     0.024 H 
ATOM     61  H   LIG d   1      12.342   6.256  -5.573  0.00  0.00     0.024 H 
ATOM     62  H   LIG d   1      12.105   7.577  -4.404  0.00  0.00     0.024 H 
ENDBRANCH  22  59
BRANCH  28  63
ATOM     63  C   LIG d   1       9.063   7.527  -1.246  0.00  0.00    -0.052 C 
ATOM     64  H   LIG d   1       8.111   7.430  -1.769  0.00  0.00     0.024 H 
ATOM     65  H   LIG d   1       9.136   6.755  -0.479  0.00  0.00     0.024 H 
ATOM     66  H   LIG d   1       9.123   8.509  -0.778  0.00  0.00     0.024 H 
ENDBRANCH  28  63
BRANCH  28  67
ATOM     67  C   LIG d   1      11.520   7.293  -1.448  0.00  0.00    -0.052 C 
ATOM     68  H   LIG d   1      11.522   8.076  -0.691  0.00  0.00     0.024 H 
ATOM     69  H   LIG d   1      11.595   6.319  -0.963  0.00  0.00     0.024 H 
ATOM     70  H   LIG d   1      12.370   7.432  -2.117  0.00  0.00     0.024 H 
ENDBRANCH  28  67
BRANCH  14  71
ATOM     71  C   LIG d   1      12.054   3.424  -4.444  0.00  0.00    -0.059 C 
ATOM     72  H   LIG d   1      12.306   2.637  -3.733  0.00  0.00     0.024 H 
ATOM     73  H   LIG d   1      12.425   3.154  -5.432  0.00  0.00     0.024 H 
ATOM     74  H   LIG d   1      12.513   4.361  -4.126  0.00  0.00     0.024 H 
ENDBRANCH  14  71
BRANCH  15  75
ATOM     75  C   LIG d   1       8.418   2.521  -5.308  0.00  0.00    -0.059 C 
ATOM     76  H   LIG d   1       7.965   1.530  -5.286  0.00  0.00     0.024 H 
ATOM     77  H   LIG d   1       8.073   3.095  -4.448  0.00  0.00     0.024 H 
ATOM     78  H   LIG d   1       8.130   3.032  -6.226  0.00  0.00     0.024 H 
ENDBRANCH  15  75
BRANCH   1  79
ATOM     79  C   LIG d   1       9.459   1.491  -9.811  0.00  0.00    -0.076 C 
ATOM     80  C   LIG d   1       9.870   2.051 -10.922  0.00  0.00    -0.099 C 
ATOM     81  H   LIG d   1      10.927   2.106 -11.140  0.00  0.00     0.053 H 
ATOM     82  H   LIG d   1       9.154   2.459 -11.619  0.00  0.00     0.053 H 
BRANCH  79  83
ATOM     83  C   LIG d   1       7.985   1.415  -9.507  0.00  0.00    -0.044 C 
ATOM     84  H   LIG d   1       7.525   0.645 -10.128  0.00  0.00     0.027 H 
ATOM     85  H   LIG d   1       7.844   1.166  -8.455  0.00  0.00     0.027 H 
ATOM     86  H   LIG d   1       7.519   2.378  -9.718  0.00  0.00     0.027 H 
ENDBRANCH  79  83
ENDBRANCH   1  79
BRANCH   5  87
ATOM     87  C   LIG d   1      11.990  -0.148  -6.528  0.00  0.00     0.313 C 
ATOM     88  O   LIG d   1      12.537  -1.134  -6.094  0.00  0.00    -0.250 OA
BRANCH  87  89
ATOM     89  O   LIG d   1      12.719   0.919  -6.893  0.00  0.00    -0.468 OA
BRANCH  89  90
ATOM     90  C   LIG d   1      14.078   0.958  -6.450  0.00  0.00     0.082 C 
ATOM     91  H   LIG d   1      14.105   1.159  -5.380  0.00  0.00     0.066 H 
ATOM     92  H   LIG d   1      14.553  -0.003  -6.651  0.00  0.00     0.066 H 
ATOM     93  H   LIG d   1      14.610   1.746  -6.982  0.00  0.00     0.066 H 
ENDBRANCH  89  90
ENDBRANCH  87  89
ENDBRANCH   5  87
TORSDOF 11
ENDMDL
MODEL 9
REMARK VINA RESULT:      -5.3      9.934     18.207
REMARK  11 active torsions:
REMARK  status: ('A' for Active; 'I' for Inactive)
REMARK    1  A    between atoms: C_1  and  C_2 
REMARK    2  A    between atoms: C_2  and  C_4 
REMARK    3  A    between atoms: C_8  and  C_44 
REMARK    4  A    between atoms: C_17  and  C_43 
REMARK    5  A    between atoms: C_18  and  C_21 
REMARK    6  A    between atoms: C_26  and  C_42 
REMARK    7  A    between atoms: C_29  and  C_30 
REMARK    8  A    between atoms: C_39  and  C_40 
REMARK    9  A    between atoms: C_39  and  C_41 
REMARK   10  A    between atoms: C_44  and  O_46 
REMARK   11  A    between atoms: O_46  and  C_47 
ROOT
ATOM      1  C   LIG d   1      -4.617  -8.514 -13.076  0.00  0.00    -0.016 C 
ATOM      2  H   LIG d   1      -4.205  -8.162 -14.016  0.00  0.00     0.035 H 
ATOM      3  C   LIG d   1      -5.265  -9.914 -13.248  0.00  0.00    -0.045 C 
ATOM      4  C   LIG d   1      -4.506 -10.858 -12.275  0.00  0.00    -0.036 C 
ATOM      5  C   LIG d   1      -3.116 -10.197 -12.220  0.00  0.00     0.071 C 
ATOM      6  C   LIG d   1      -3.513  -8.710 -12.038  0.00  0.00    -0.015 C 
ATOM      7  H   LIG d   1      -3.965  -8.579 -11.049  0.00  0.00     0.032 H 
ATOM      8  C   LIG d   1      -2.275  -7.855 -12.162  0.00  0.00    -0.031 C 
ATOM      9  H   LIG d   1      -1.824  -8.028 -13.147  0.00  0.00     0.031 H 
ATOM     10  C   LIG d   1      -2.605  -6.365 -12.078  0.00  0.00    -0.049 C 
ATOM     11  C   LIG d   1      -1.320  -5.542 -12.228  0.00  0.00    -0.049 C 
ATOM     12  C   LIG d   1      -0.332  -5.940 -11.136  0.00  0.00    -0.029 C 
ATOM     13  H   LIG d   1      -0.853  -5.760 -10.169  0.00  0.00     0.031 H 
ATOM     14  C   LIG d   1       0.002  -7.420 -11.223  0.00  0.00    -0.023 C 
ATOM     15  C   LIG d   1      -1.288  -8.242 -11.052  0.00  0.00    -0.023 C 
ATOM     16  C   LIG d   1      -0.976  -9.733 -11.059  0.00  0.00    -0.046 C 
ATOM     17  C   LIG d   1      -2.247 -10.597 -11.049  0.00  0.00    -0.036 C 
ATOM     18  C   LIG d   1       1.007  -7.807 -10.136  0.00  0.00    -0.046 C 
ATOM     19  C   LIG d   1       2.259  -6.927 -10.263  0.00  0.00    -0.048 C 
ATOM     20  C   LIG d   1       1.859  -5.472 -10.032  0.00  0.00    -0.023 C 
ATOM     21  H   LIG d   1       1.308  -5.448  -9.062  0.00  0.00     0.032 H 
ATOM     22  C   LIG d   1       0.872  -5.001 -11.096  0.00  0.00    -0.021 C 
ATOM     23  C   LIG d   1       0.337  -3.623 -10.637  0.00  0.00    -0.018 C 
ATOM     24  C   LIG d   1       1.494  -2.680 -10.488  0.00  0.00    -0.003 C 
ATOM     25  C   LIG d   1       1.284  -1.352 -10.628  0.00  0.00    -0.048 C 
ATOM     26  C   LIG d   1       2.784  -3.142 -10.206  0.00  0.00     0.165 C 
ATOM     27  O   LIG d   1       3.705  -2.351 -10.219  0.00  0.00    -0.292 OA
ATOM     28  C   LIG d   1       3.075  -4.577  -9.873  0.00  0.00     0.031 C 
ATOM     29  H   LIG d   1      -6.320  -9.870 -12.980  0.00  0.00     0.027 H 
ATOM     30  H   LIG d   1      -5.154 -10.256 -14.275  0.00  0.00     0.027 H 
ATOM     31  H   LIG d   1      -4.968 -10.858 -11.292  0.00  0.00     0.028 H 
ATOM     32  H   LIG d   1      -4.435 -11.863 -12.683  0.00  0.00     0.028 H 
ATOM     33  H   LIG d   1      -3.272  -6.103 -12.908  0.00  0.00     0.027 H 
ATOM     34  H   LIG d   1      -3.098  -6.120 -11.145  0.00  0.00     0.027 H 
ATOM     35  H   LIG d   1      -0.909  -5.702 -13.220  0.00  0.00     0.027 H 
ATOM     36  H   LIG d   1      -1.576  -4.483 -12.118  0.00  0.00     0.027 H 
ATOM     37  H   LIG d   1      -0.360 -10.007 -11.907  0.00  0.00     0.027 H 
ATOM     38  H   LIG d   1      -0.407  -9.963 -10.147  0.00  0.00     0.027 H 
ATOM     39  H   LIG d   1      -2.791 -10.467 -10.114  0.00  0.00     0.028 H 
ATOM     40  H   LIG d   1      -1.967 -11.652 -11.145  0.00  0.00     0.028 H 
ATOM     41  H   LIG d   1       0.588  -7.661  -9.144  0.00  0.00     0.027 H 
ATOM     42  H   LIG d   1       1.299  -8.851 -10.262  0.00  0.00     0.027 H 
ATOM     43  H   LIG d   1       2.966  -7.241  -9.490  0.00  0.00     0.027 H 
ATOM     44  H   LIG d   1       2.710  -7.071 -11.236  0.00  0.00     0.027 H 
ATOM     45  H   LIG d   1      -0.350  -3.240 -11.384  0.00  0.00     0.032 H 
ATOM     46  H   LIG d   1      -0.164  -3.741  -9.681  0.00  0.00     0.032 H 
ATOM     47  H   LIG d   1       0.342  -0.993 -11.016  0.00  0.00     0.063 H 
ENDROOT
BRANCH  25  48
ATOM     48  C   LIG d   1       2.336  -0.397 -10.252  0.00  0.00    -0.025 A 
ATOM     49  C   LIG d   1       2.478   0.003  -8.918  0.00  0.00    -0.053 A 
ATOM     50  C   LIG d   1       3.470   0.895  -8.573  0.00  0.00    -0.043 A 
ATOM     51  H   LIG d   1       1.814  -0.387  -8.161  0.00  0.00     0.062 H 
ATOM     52  C   LIG d   1       4.318   1.403  -9.543  0.00  0.00     0.041 A 
ATOM     53  H   LIG d   1       3.584   1.202  -7.543  0.00  0.00     0.063 H 
ATOM     54  C   LIG d   1       4.180   1.015 -10.866  0.00  0.00    -0.043 A 
ATOM     55 CL   LIG d   1       5.561   2.531  -9.099  0.00  0.00    -0.084 Cl
ATOM     56  C   LIG d   1       3.197   0.120 -11.226  0.00  0.00    -0.053 A 
ATOM     57  H   LIG d   1       4.846   1.415 -11.617  0.00  0.00     0.063 H 
ATOM     58  H   LIG d   1       3.090  -0.182 -12.258  0.00  0.00     0.062 H 
ENDBRANCH  25  48
BRANCH  22  59
ATOM     59  C   LIG d   1       1.517  -4.823 -12.464  0.00  0.00    -0.059 C 
ATOM     60  H   LIG d   1       2.543  -5.191 -12.433  0.00  0.00     0.024 H 
ATOM     61  H   LIG d   1       0.952  -5.386 -13.208  0.00  0.00     0.024 H 
ATOM     62  H   LIG d   1       1.518  -3.767 -12.731  0.00  0.00     0.024 H 
ENDBRANCH  22  59
BRANCH  28  63
ATOM     63  C   LIG d   1       3.513  -4.616  -8.394  0.00  0.00    -0.052 C 
ATOM     64  H   LIG d   1       3.205  -3.695  -7.899  0.00  0.00     0.024 H 
ATOM     65  H   LIG d   1       3.046  -5.468  -7.899  0.00  0.00     0.024 H 
ATOM     66  H   LIG d   1       4.597  -4.714  -8.338  0.00  0.00     0.024 H 
ENDBRANCH  28  63
BRANCH  28  67
ATOM     67  C   LIG d   1       4.258  -5.055 -10.715  0.00  0.00    -0.052 C 
ATOM     68  H   LIG d   1       4.289  -6.145 -10.711  0.00  0.00     0.024 H 
ATOM     69  H   LIG d   1       4.144  -4.699 -11.738  0.00  0.00     0.024 H 
ATOM     70  H   LIG d   1       5.185  -4.665 -10.295  0.00  0.00     0.024 H 
ENDBRANCH  28  67
BRANCH  14  71
ATOM     71  C   LIG d   1       0.609  -7.776 -12.588  0.00  0.00    -0.059 C 
ATOM     72  H   LIG d   1       0.165  -7.147 -13.358  0.00  0.00     0.024 H 
ATOM     73  H   LIG d   1       1.686  -7.611 -12.560  0.00  0.00     0.024 H 
ATOM     74  H   LIG d   1       0.408  -8.824 -12.813  0.00  0.00     0.024 H 
ENDBRANCH  14  71
BRANCH  15  75
ATOM     75  C   LIG d   1      -1.908  -7.922  -9.685  0.00  0.00    -0.059 C 
ATOM     76  H   LIG d   1      -1.971  -8.834  -9.091  0.00  0.00     0.024 H 
ATOM     77  H   LIG d   1      -1.284  -7.193  -9.166  0.00  0.00     0.024 H 
ATOM     78  H   LIG d   1      -2.907  -7.510  -9.827  0.00  0.00     0.024 H 
ENDBRANCH  15  75
BRANCH   1  79
ATOM     79  C   LIG d   1      -5.654  -7.547 -12.557  0.00  0.00    -0.076 C 
ATOM     80  C   LIG d   1      -6.134  -7.689 -11.347  0.00  0.00    -0.099 C 
ATOM     81  H   LIG d   1      -5.789  -8.499 -10.720  0.00  0.00     0.053 H 
ATOM     82  H   LIG d   1      -6.876  -6.999 -10.975  0.00  0.00     0.053 H 
BRANCH  79  83
ATOM     83  C   LIG d   1      -6.137  -6.419 -13.431  0.00  0.00    -0.044 C 
ATOM     84  H   LIG d   1      -5.281  -5.928 -13.896  0.00  0.00     0.027 H 
ATOM     85  H   LIG d   1      -6.794  -6.815 -14.205  0.00  0.00     0.027 H 
ATOM     86  H   LIG d   1      -6.684  -5.697 -12.825  0.00  0.00     0.027 H 
ENDBRANCH  79  83
ENDBRANCH   1  79
BRANCH   5  87
ATOM     87  C   LIG d   1      -2.408 -10.445 -13.526  0.00  0.00     0.313 C 
ATOM     88  O   LIG d   1      -2.165 -11.575 -13.877  0.00  0.00    -0.250 OA
BRANCH  87  89
ATOM     89  O   LIG d   1      -2.047  -9.409 -14.300  0.00  0.00    -0.468 OA
BRANCH  89  90
ATOM     90  C   LIG d   1      -2.168  -9.582 -15.714  0.00  0.00     0.082 C 
ATOM     91  H   LIG d   1      -2.313  -8.611 -16.187  0.00  0.00     0.066 H 
ATOM     92  H   LIG d   1      -1.259 -10.042 -16.103  0.00  0.00     0.066 H 
ATOM     93  H   LIG d   1      -3.021 -10.223 -15.929  0.00  0.00     0.066 H 
ENDBRANCH  89  90
ENDBRANCH  87  89
ENDBRANCH   5  87
TORSDOF 11
ENDMDL
