MODEL 1
REMARK VINA RESULT:      -6.3      0.000      0.000
REMARK  11 active torsions:
REMARK  status: ('A' for Active; 'I' for Inactive)
REMARK    1  A    between atoms: C_1  and  C_2 
REMARK    2  A    between atoms: C_6  and  O_23 
REMARK    3  A    between atoms: C_12  and  C_13 
REMARK    4  A    between atoms: C_16  and  O_21 
REMARK    5  A    between atoms: C_17  and  O_19 
REMARK    6  A    between atoms: O_19  and  C_20 
REMARK    7  A    between atoms: O_21  and  C_22 
REMARK    8  A    between atoms: O_23  and  C_24 
REMARK    9  A    between atoms: C_24  and  C_26 
REMARK   10  A    between atoms: C_29  and  O_32 
REMARK   11  A    between atoms: O_32  and  C_33 
ROOT
ATOM      1  C   LIG d   1       9.897   6.310  -3.400  0.00  0.00    -0.025 A 
ATOM      2  C   LIG d   1       9.910   4.932  -3.740  0.00  0.00     0.021 A 
ATOM      3  C   LIG d   1       9.514   4.516  -5.020  0.00  0.00    -0.047 A 
ATOM      4  C   LIG d   1       9.528   3.191  -5.340  0.00  0.00    -0.018 A 
ATOM      5  C   LIG d   1       9.935   2.243  -4.403  0.00  0.00     0.136 A 
ATOM      6  C   LIG d   1      10.330   2.634  -3.135  0.00  0.00     0.024 A 
ATOM      7  C   LIG d   1      10.322   3.979  -2.790  0.00  0.00     0.143 A 
ATOM      8  O   LIG d   1      10.703   4.360  -1.551  0.00  0.00    -0.422 OA
ATOM      9  C   LIG d   1      10.709   5.655  -1.193  0.00  0.00     0.345 A 
ATOM     10  O   LIG d   1      11.060   5.972  -0.071  0.00  0.00    -0.244 OA
ATOM     11  C   LIG d   1      10.289   6.686  -2.144  0.00  0.00     0.070 A 
ATOM     12  H   LIG d   1       9.197   5.246  -5.750  0.00  0.00     0.063 H 
ATOM     13  H   LIG d   1       9.223   2.875  -6.327  0.00  0.00     0.065 H 
ATOM     14  H   LIG d   1      10.644   1.894  -2.415  0.00  0.00     0.069 H 
ENDROOT
BRANCH  11  15
ATOM     15  C   LIG d   1      10.288   8.115  -1.753  0.00  0.00    -0.007 A 
ATOM     16  C   LIG d   1      11.389   8.920  -2.044  0.00  0.00    -0.008 A 
ATOM     17  C   LIG d   1      11.384  10.253  -1.679  0.00  0.00     0.162 A 
ATOM     18  H   LIG d   1      12.244   8.503  -2.555  0.00  0.00     0.066 H 
ATOM     19  C   LIG d   1      10.280  10.790  -1.019  0.00  0.00     0.162 A 
ATOM     20  C   LIG d   1       9.185   9.989  -0.730  0.00  0.00    -0.016 A 
ATOM     21  C   LIG d   1       9.183   8.659  -1.098  0.00  0.00    -0.050 A 
ATOM     22  H   LIG d   1       8.331  10.409  -0.219  0.00  0.00     0.066 H 
ATOM     23  H   LIG d   1       8.328   8.039  -0.876  0.00  0.00     0.062 H 
BRANCH  17  24
ATOM     24  O   LIG d   1      12.456  11.041  -1.961  0.00  0.00    -0.491 OA
BRANCH  24  25
ATOM     25  C   LIG d   1      13.604  10.897  -1.123  0.00  0.00     0.079 C 
ATOM     26  H   LIG d   1      13.287  10.767  -0.089  0.00  0.00     0.066 H 
ATOM     27  H   LIG d   1      14.178  10.025  -1.440  0.00  0.00     0.066 H 
ATOM     28  H   LIG d   1      14.226  11.789  -1.203  0.00  0.00     0.066 H 
ENDBRANCH  24  25
ENDBRANCH  17  24
BRANCH  19  29
ATOM     29  O   LIG d   1      10.275  12.102  -0.660  0.00  0.00    -0.491 OA
BRANCH  29  30
ATOM     30  C   LIG d   1      10.528  12.398   0.714  0.00  0.00     0.079 C 
ATOM     31  H   LIG d   1      10.742  11.474   1.252  0.00  0.00     0.066 H 
ATOM     32  H   LIG d   1      11.383  13.069   0.791  0.00  0.00     0.066 H 
ATOM     33  H   LIG d   1       9.650  12.877   1.150  0.00  0.00     0.066 H 
ENDBRANCH  29  30
ENDBRANCH  19  29
ENDBRANCH  11  15
BRANCH   1  34
ATOM     34  C   LIG d   1       9.458   7.343  -4.407  0.00  0.00    -0.038 C 
ATOM     35  H   LIG d   1       9.760   7.028  -5.406  0.00  0.00     0.028 H 
ATOM     36  H   LIG d   1       8.374   7.446  -4.372  0.00  0.00     0.028 H 
ATOM     37  H   LIG d   1       9.922   8.301  -4.171  0.00  0.00     0.028 H 
ENDBRANCH   1  34
BRANCH   5  38
ATOM     38  O   LIG d   1       9.944   0.928  -4.737  0.00  0.00    -0.422 OA
BRANCH  38  39
ATOM     39  C   LIG d   1       8.812   0.423  -5.267  0.00  0.00     0.344 C 
ATOM     40  O   LIG d   1       8.719   0.272  -6.469  0.00  0.00    -0.244 OA
BRANCH  39  41
ATOM     41  C   LIG d   1       7.686   0.056  -4.387  0.00  0.00     0.060 A 
ATOM     42  C   LIG d   1       7.394  -1.290  -4.148  0.00  0.00    -0.044 A 
ATOM     43  C   LIG d   1       6.343  -1.629  -3.326  0.00  0.00    -0.019 A 
ATOM     44  H   LIG d   1       7.994  -2.063  -4.606  0.00  0.00     0.063 H 
ATOM     45  C   LIG d   1       5.572  -0.634  -2.736  0.00  0.00     0.120 A 
ATOM     46  H   LIG d   1       6.116  -2.669  -3.141  0.00  0.00     0.065 H 
ATOM     47  C   LIG d   1       5.858   0.705  -2.971  0.00  0.00    -0.019 A 
ATOM     48  C   LIG d   1       6.912   1.052  -3.787  0.00  0.00    -0.044 A 
ATOM     49  H   LIG d   1       5.257   1.475  -2.511  0.00  0.00     0.065 H 
ATOM     50  H   LIG d   1       7.137   2.094  -3.966  0.00  0.00     0.063 H 
BRANCH  45  51
ATOM     51  O   LIG d   1       4.536  -0.973  -1.927  0.00  0.00    -0.495 OA
BRANCH  51  52
ATOM     52  C   LIG d   1       3.745  -2.097  -2.322  0.00  0.00     0.079 C 
ATOM     53  H   LIG d   1       3.769  -2.195  -3.407  0.00  0.00     0.066 H 
ATOM     54  H   LIG d   1       4.149  -3.002  -1.867  0.00  0.00     0.066 H 
ATOM     55  H   LIG d   1       2.717  -1.951  -1.992  0.00  0.00     0.066 H 
ENDBRANCH  51  52
ENDBRANCH  45  51
ENDBRANCH  39  41
ENDBRANCH  38  39
ENDBRANCH   5  38
TORSDOF 11
ENDMDL
MODEL 2
REMARK VINA RESULT:      -6.1      8.368     11.909
REMARK  11 active torsions:
REMARK  status: ('A' for Active; 'I' for Inactive)
REMARK    1  A    between atoms: C_1  and  C_2 
REMARK    2  A    between atoms: C_6  and  O_23 
REMARK    3  A    between atoms: C_12  and  C_13 
REMARK    4  A    between atoms: C_16  and  O_21 
REMARK    5  A    between atoms: C_17  and  O_19 
REMARK    6  A    between atoms: O_19  and  C_20 
REMARK    7  A    between atoms: O_21  and  C_22 
REMARK    8  A    between atoms: O_23  and  C_24 
REMARK    9  A    between atoms: C_24  and  C_26 
REMARK   10  A    between atoms: C_29  and  O_32 
REMARK   11  A    between atoms: O_32  and  C_33 
ROOT
ATOM      1  C   LIG d   1       6.848  -4.283  -4.928  0.00  0.00    -0.025 A 
ATOM      2  C   LIG d   1       7.458  -5.522  -5.259  0.00  0.00     0.021 A 
ATOM      3  C   LIG d   1       8.838  -5.699  -5.082  0.00  0.00    -0.047 A 
ATOM      4  C   LIG d   1       9.418  -6.890  -5.401  0.00  0.00    -0.018 A 
ATOM      5  C   LIG d   1       8.648  -7.937  -5.904  0.00  0.00     0.136 A 
ATOM      6  C   LIG d   1       7.285  -7.782  -6.086  0.00  0.00     0.024 A 
ATOM      7  C   LIG d   1       6.676  -6.576  -5.766  0.00  0.00     0.143 A 
ATOM      8  O   LIG d   1       5.346  -6.423  -5.948  0.00  0.00    -0.422 OA
ATOM      9  C   LIG d   1       4.731  -5.268  -5.643  0.00  0.00     0.345 A 
ATOM     10  O   LIG d   1       3.530  -5.157  -5.813  0.00  0.00    -0.244 OA
ATOM     11  C   LIG d   1       5.499  -4.140  -5.112  0.00  0.00     0.070 A 
ATOM     12  H   LIG d   1       9.440  -4.891  -4.693  0.00  0.00     0.063 H 
ATOM     13  H   LIG d   1      10.481  -7.023  -5.263  0.00  0.00     0.065 H 
ATOM     14  H   LIG d   1       6.696  -8.598  -6.476  0.00  0.00     0.069 H 
ENDROOT
BRANCH  11  15
ATOM     15  C   LIG d   1       4.828  -2.862  -4.779  0.00  0.00    -0.007 A 
ATOM     16  C   LIG d   1       4.675  -1.877  -5.754  0.00  0.00    -0.008 A 
ATOM     17  C   LIG d   1       4.046  -0.687  -5.440  0.00  0.00     0.162 A 
ATOM     18  H   LIG d   1       5.047  -2.044  -6.755  0.00  0.00     0.066 H 
ATOM     19  C   LIG d   1       3.567  -0.473  -4.149  0.00  0.00     0.162 A 
ATOM     20  C   LIG d   1       3.719  -1.453  -3.179  0.00  0.00    -0.016 A 
ATOM     21  C   LIG d   1       4.341  -2.645  -3.490  0.00  0.00    -0.050 A 
ATOM     22  H   LIG d   1       3.346  -1.283  -2.180  0.00  0.00     0.066 H 
ATOM     23  H   LIG d   1       4.453  -3.407  -2.735  0.00  0.00     0.062 H 
BRANCH  17  24
ATOM     24  O   LIG d   1       3.896   0.276  -6.389  0.00  0.00    -0.491 OA
BRANCH  24  25
ATOM     25  C   LIG d   1       2.895   0.053  -7.384  0.00  0.00     0.079 C 
ATOM     26  H   LIG d   1       2.455  -0.934  -7.244  0.00  0.00     0.066 H 
ATOM     27  H   LIG d   1       2.119   0.813  -7.294  0.00  0.00     0.066 H 
ATOM     28  H   LIG d   1       3.348   0.112  -8.373  0.00  0.00     0.066 H 
ENDBRANCH  24  25
ENDBRANCH  17  24
BRANCH  19  29
ATOM     29  O   LIG d   1       2.949   0.698  -3.839  0.00  0.00    -0.491 OA
BRANCH  29  30
ATOM     30  C   LIG d   1       3.556   1.505  -2.830  0.00  0.00     0.079 C 
ATOM     31  H   LIG d   1       4.614   1.638  -3.059  0.00  0.00     0.066 H 
ATOM     32  H   LIG d   1       3.067   2.478  -2.798  0.00  0.00     0.066 H 
ATOM     33  H   LIG d   1       3.454   1.015  -1.861  0.00  0.00     0.066 H 
ENDBRANCH  29  30
ENDBRANCH  19  29
ENDBRANCH  11  15
BRANCH   1  34
ATOM     34  C   LIG d   1       7.672  -3.145  -4.384  0.00  0.00    -0.038 C 
ATOM     35  H   LIG d   1       8.653  -3.146  -4.861  0.00  0.00     0.028 H 
ATOM     36  H   LIG d   1       7.169  -2.201  -4.591  0.00  0.00     0.028 H 
ATOM     37  H   LIG d   1       7.792  -3.265  -3.307  0.00  0.00     0.028 H 
ENDBRANCH   1  34
BRANCH   5  38
ATOM     38  O   LIG d   1       9.240  -9.118  -6.218  0.00  0.00    -0.422 OA
BRANCH  38  39
ATOM     39  C   LIG d   1       9.676  -9.875  -5.192  0.00  0.00     0.344 C 
ATOM     40  O   LIG d   1      10.792 -10.355  -5.221  0.00  0.00    -0.244 OA
BRANCH  39  41
ATOM     41  C   LIG d   1       8.797 -10.123  -4.033  0.00  0.00     0.060 A 
ATOM     42  C   LIG d   1       7.729 -11.018  -4.142  0.00  0.00    -0.044 A 
ATOM     43  C   LIG d   1       6.911 -11.247  -3.058  0.00  0.00    -0.019 A 
ATOM     44  H   LIG d   1       7.545 -11.530  -5.076  0.00  0.00     0.063 H 
ATOM     45  C   LIG d   1       7.147 -10.589  -1.856  0.00  0.00     0.120 A 
ATOM     46  H   LIG d   1       6.085 -11.938  -3.142  0.00  0.00     0.065 H 
ATOM     47  C   LIG d   1       8.208  -9.698  -1.744  0.00  0.00    -0.019 A 
ATOM     48  C   LIG d   1       9.034  -9.468  -2.822  0.00  0.00    -0.044 A 
ATOM     49  H   LIG d   1       8.388  -9.188  -0.809  0.00  0.00     0.065 H 
ATOM     50  H   LIG d   1       9.861  -8.779  -2.732  0.00  0.00     0.063 H 
BRANCH  45  51
ATOM     51  O   LIG d   1       6.338 -10.817  -0.791  0.00  0.00    -0.495 OA
BRANCH  51  52
ATOM     52  C   LIG d   1       6.118 -12.181  -0.424  0.00  0.00     0.079 C 
ATOM     53  H   LIG d   1       6.102 -12.267   0.662  0.00  0.00     0.066 H 
ATOM     54  H   LIG d   1       5.163 -12.515  -0.829  0.00  0.00     0.066 H 
ATOM     55  H   LIG d   1       6.920 -12.799  -0.827  0.00  0.00     0.066 H 
ENDBRANCH  51  52
ENDBRANCH  45  51
ENDBRANCH  39  41
ENDBRANCH  38  39
ENDBRANCH   5  38
TORSDOF 11
ENDMDL
MODEL 3
REMARK VINA RESULT:      -6.0      1.382      1.894
REMARK  11 active torsions:
REMARK  status: ('A' for Active; 'I' for Inactive)
REMARK    1  A    between atoms: C_1  and  C_2 
REMARK    2  A    between atoms: C_6  and  O_23 
REMARK    3  A    between atoms: C_12  and  C_13 
REMARK    4  A    between atoms: C_16  and  O_21 
REMARK    5  A    between atoms: C_17  and  O_19 
REMARK    6  A    between atoms: O_19  and  C_20 
REMARK    7  A    between atoms: O_21  and  C_22 
REMARK    8  A    between atoms: O_23  and  C_24 
REMARK    9  A    between atoms: C_24  and  C_26 
REMARK   10  A    between atoms: C_29  and  O_32 
REMARK   11  A    between atoms: O_32  and  C_33 
ROOT
ATOM      1  C   LIG d   1      10.314   6.005  -2.178  0.00  0.00    -0.025 A 
ATOM      2  C   LIG d   1      10.072   4.886  -3.017  0.00  0.00     0.021 A 
ATOM      3  C   LIG d   1      10.213   3.584  -2.515  0.00  0.00    -0.047 A 
ATOM      4  C   LIG d   1       9.979   2.513  -3.325  0.00  0.00    -0.018 A 
ATOM      5  C   LIG d   1       9.600   2.702  -4.653  0.00  0.00     0.136 A 
ATOM      6  C   LIG d   1       9.456   3.980  -5.167  0.00  0.00     0.024 A 
ATOM      7  C   LIG d   1       9.690   5.083  -4.356  0.00  0.00     0.143 A 
ATOM      8  O   LIG d   1       9.553   6.329  -4.859  0.00  0.00    -0.422 OA
ATOM      9  C   LIG d   1       9.768   7.414  -4.096  0.00  0.00     0.345 A 
ATOM     10  O   LIG d   1       9.635   8.527  -4.572  0.00  0.00    -0.244 OA
ATOM     11  C   LIG d   1      10.169   7.264  -2.695  0.00  0.00     0.070 A 
ATOM     12  H   LIG d   1      10.507   3.430  -1.487  0.00  0.00     0.063 H 
ATOM     13  H   LIG d   1      10.089   1.511  -2.935  0.00  0.00     0.065 H 
ATOM     14  H   LIG d   1       9.161   4.118  -6.196  0.00  0.00     0.069 H 
ENDROOT
BRANCH  11  15
ATOM     15  C   LIG d   1      10.413   8.456  -1.850  0.00  0.00    -0.007 A 
ATOM     16  C   LIG d   1      11.674   9.051  -1.828  0.00  0.00    -0.008 A 
ATOM     17  C   LIG d   1      11.898  10.164  -1.040  0.00  0.00     0.162 A 
ATOM     18  H   LIG d   1      12.476   8.643  -2.427  0.00  0.00     0.066 H 
ATOM     19  C   LIG d   1      10.864  10.689  -0.268  0.00  0.00     0.162 A 
ATOM     20  C   LIG d   1       9.609  10.097  -0.289  0.00  0.00    -0.016 A 
ATOM     21  C   LIG d   1       9.380   8.989  -1.079  0.00  0.00    -0.050 A 
ATOM     22  H   LIG d   1       8.810  10.507   0.310  0.00  0.00     0.066 H 
ATOM     23  H   LIG d   1       8.402   8.533  -1.098  0.00  0.00     0.062 H 
BRANCH  17  24
ATOM     24  O   LIG d   1      13.127  10.746  -1.016  0.00  0.00    -0.491 OA
BRANCH  24  25
ATOM     25  C   LIG d   1      14.240   9.924  -1.370  0.00  0.00     0.079 C 
ATOM     26  H   LIG d   1      15.060  10.103  -0.676  0.00  0.00     0.066 H 
ATOM     27  H   LIG d   1      13.946   8.875  -1.323  0.00  0.00     0.066 H 
ATOM     28  H   LIG d   1      14.562  10.166  -2.383  0.00  0.00     0.066 H 
ENDBRANCH  24  25
ENDBRANCH  17  24
BRANCH  19  29
ATOM     29  O   LIG d   1      11.084  11.784   0.508  0.00  0.00    -0.491 OA
BRANCH  29  30
ATOM     30  C   LIG d   1      10.543  13.024   0.048  0.00  0.00     0.079 C 
ATOM     31  H   LIG d   1      10.944  13.840   0.651  0.00  0.00     0.066 H 
ATOM     32  H   LIG d   1      10.817  13.175  -0.995  0.00  0.00     0.066 H 
ATOM     33  H   LIG d   1       9.457  13.004   0.141  0.00  0.00     0.066 H 
ENDBRANCH  29  30
ENDBRANCH  19  29
ENDBRANCH  11  15
BRANCH   1  34
ATOM     34  C   LIG d   1      10.726   5.810  -0.741  0.00  0.00    -0.038 C 
ATOM     35  H   LIG d   1      11.755   5.454  -0.702  0.00  0.00     0.028 H 
ATOM     36  H   LIG d   1      10.649   6.758  -0.209  0.00  0.00     0.028 H 
ATOM     37  H   LIG d   1      10.070   5.076  -0.271  0.00  0.00     0.028 H 
ENDBRANCH   1  34
BRANCH   5  38
ATOM     38  O   LIG d   1       9.371   1.626  -5.448  0.00  0.00    -0.422 OA
BRANCH  38  39
ATOM     39  C   LIG d   1       8.085   1.332  -5.724  0.00  0.00     0.344 C 
ATOM     40  O   LIG d   1       7.590   1.697  -6.772  0.00  0.00    -0.244 OA
BRANCH  39  41
ATOM     41  C   LIG d   1       7.279   0.567  -4.754  0.00  0.00     0.060 A 
ATOM     42  C   LIG d   1       7.260  -0.830  -4.805  0.00  0.00    -0.044 A 
ATOM     43  C   LIG d   1       6.507  -1.540  -3.897  0.00  0.00    -0.019 A 
ATOM     44  H   LIG d   1       7.837  -1.351  -5.555  0.00  0.00     0.063 H 
ATOM     45  C   LIG d   1       5.765  -0.869  -2.931  0.00  0.00     0.120 A 
ATOM     46  H   LIG d   1       6.491  -2.619  -3.937  0.00  0.00     0.065 H 
ATOM     47  C   LIG d   1       5.781   0.519  -2.877  0.00  0.00    -0.019 A 
ATOM     48  C   LIG d   1       6.537   1.237  -3.778  0.00  0.00    -0.044 A 
ATOM     49  H   LIG d   1       5.203   1.037  -2.125  0.00  0.00     0.065 H 
ATOM     50  H   LIG d   1       6.552   2.316  -3.732  0.00  0.00     0.063 H 
BRANCH  45  51
ATOM     51  O   LIG d   1       5.024  -1.573  -2.039  0.00  0.00    -0.495 OA
BRANCH  51  52
ATOM     52  C   LIG d   1       3.749  -2.044  -2.484  0.00  0.00     0.079 C 
ATOM     53  H   LIG d   1       3.883  -2.950  -3.075  0.00  0.00     0.066 H 
ATOM     54  H   LIG d   1       3.122  -2.264  -1.620  0.00  0.00     0.066 H 
ATOM     55  H   LIG d   1       3.272  -1.278  -3.095  0.00  0.00     0.066 H 
ENDBRANCH  51  52
ENDBRANCH  45  51
ENDBRANCH  39  41
ENDBRANCH  38  39
ENDBRANCH   5  38
TORSDOF 11
ENDMDL
MODEL 4
REMARK VINA RESULT:      -5.7      6.512     11.342
REMARK  11 active torsions:
REMARK  status: ('A' for Active; 'I' for Inactive)
REMARK    1  A    between atoms: C_1  and  C_2 
REMARK    2  A    between atoms: C_6  and  O_23 
REMARK    3  A    between atoms: C_12  and  C_13 
REMARK    4  A    between atoms: C_16  and  O_21 
REMARK    5  A    between atoms: C_17  and  O_19 
REMARK    6  A    between atoms: O_19  and  C_20 
REMARK    7  A    between atoms: O_21  and  C_22 
REMARK    8  A    between atoms: O_23  and  C_24 
REMARK    9  A    between atoms: C_24  and  C_26 
REMARK   10  A    between atoms: C_29  and  O_32 
REMARK   11  A    between atoms: O_32  and  C_33 
ROOT
ATOM      1  C   LIG d   1       7.074  -4.020  -4.960  0.00  0.00    -0.025 A 
ATOM      2  C   LIG d   1       6.641  -5.360  -5.137  0.00  0.00     0.021 A 
ATOM      3  C   LIG d   1       7.531  -6.424  -4.927  0.00  0.00    -0.047 A 
ATOM      4  C   LIG d   1       7.109  -7.709  -5.098  0.00  0.00    -0.018 A 
ATOM      5  C   LIG d   1       5.796  -7.975  -5.483  0.00  0.00     0.136 A 
ATOM      6  C   LIG d   1       4.903  -6.939  -5.696  0.00  0.00     0.024 A 
ATOM      7  C   LIG d   1       5.314  -5.623  -5.526  0.00  0.00     0.143 A 
ATOM      8  O   LIG d   1       4.444  -4.612  -5.738  0.00  0.00    -0.422 OA
ATOM      9  C   LIG d   1       4.814  -3.331  -5.576  0.00  0.00     0.345 A 
ATOM     10  O   LIG d   1       4.009  -2.438  -5.770  0.00  0.00    -0.244 OA
ATOM     11  C   LIG d   1       6.184  -3.003  -5.173  0.00  0.00     0.070 A 
ATOM     12  H   LIG d   1       8.550  -6.225  -4.629  0.00  0.00     0.063 H 
ATOM     13  H   LIG d   1       7.797  -8.526  -4.935  0.00  0.00     0.065 H 
ATOM     14  H   LIG d   1       3.888  -7.153  -5.994  0.00  0.00     0.069 H 
ENDROOT
BRANCH  11  15
ATOM     15  C   LIG d   1       6.599  -1.592  -4.998  0.00  0.00    -0.007 A 
ATOM     16  C   LIG d   1       6.188  -0.876  -3.874  0.00  0.00    -0.008 A 
ATOM     17  C   LIG d   1       6.579   0.440  -3.714  0.00  0.00     0.162 A 
ATOM     18  H   LIG d   1       5.565  -1.350  -3.129  0.00  0.00     0.066 H 
ATOM     19  C   LIG d   1       7.382   1.049  -4.675  0.00  0.00     0.162 A 
ATOM     20  C   LIG d   1       7.791   0.338  -5.794  0.00  0.00    -0.016 A 
ATOM     21  C   LIG d   1       7.408  -0.978  -5.955  0.00  0.00    -0.050 A 
ATOM     22  H   LIG d   1       8.414   0.813  -6.536  0.00  0.00     0.066 H 
ATOM     23  H   LIG d   1       7.731  -1.532  -6.823  0.00  0.00     0.062 H 
BRANCH  17  24
ATOM     24  O   LIG d   1       6.179   1.141  -2.619  0.00  0.00    -0.491 OA
BRANCH  24  25
ATOM     25  C   LIG d   1       4.817   0.990  -2.215  0.00  0.00     0.079 C 
ATOM     26  H   LIG d   1       4.434   1.946  -1.860  0.00  0.00     0.066 H 
ATOM     27  H   LIG d   1       4.222   0.652  -3.063  0.00  0.00     0.066 H 
ATOM     28  H   LIG d   1       4.756   0.254  -1.413  0.00  0.00     0.066 H 
ENDBRANCH  24  25
ENDBRANCH  17  24
BRANCH  19  29
ATOM     29  O   LIG d   1       7.766   2.345  -4.518  0.00  0.00    -0.491 OA
BRANCH  29  30
ATOM     30  C   LIG d   1       9.039   2.574  -3.912  0.00  0.00     0.079 C 
ATOM     31  H   LIG d   1       9.182   3.644  -3.760  0.00  0.00     0.066 H 
ATOM     32  H   LIG d   1       9.083   2.062  -2.951  0.00  0.00     0.066 H 
ATOM     33  H   LIG d   1       9.826   2.192  -4.563  0.00  0.00     0.066 H 
ENDBRANCH  29  30
ENDBRANCH  19  29
ENDBRANCH  11  15
BRANCH   1  34
ATOM     34  C   LIG d   1       8.492  -3.723  -4.544  0.00  0.00    -0.038 C 
ATOM     35  H   LIG d   1       9.168  -4.428  -5.028  0.00  0.00     0.028 H 
ATOM     36  H   LIG d   1       8.752  -2.708  -4.842  0.00  0.00     0.028 H 
ATOM     37  H   LIG d   1       8.581  -3.818  -3.461  0.00  0.00     0.028 H 
ENDBRANCH   1  34
BRANCH   5  38
ATOM     38  O   LIG d   1       5.391  -9.259  -5.651  0.00  0.00    -0.422 OA
BRANCH  38  39
ATOM     39  C   LIG d   1       4.818  -9.863  -4.591  0.00  0.00     0.344 C 
ATOM     40  O   LIG d   1       3.616  -9.789  -4.426  0.00  0.00    -0.244 OA
BRANCH  39  41
ATOM     41  C   LIG d   1       5.649 -10.614  -3.632  0.00  0.00     0.060 A 
ATOM     42  C   LIG d   1       6.614 -11.514  -4.095  0.00  0.00    -0.044 A 
ATOM     43  C   LIG d   1       7.388 -12.213  -3.196  0.00  0.00    -0.019 A 
ATOM     44  H   LIG d   1       6.752 -11.660  -5.156  0.00  0.00     0.063 H 
ATOM     45  C   LIG d   1       7.211 -12.025  -1.830  0.00  0.00     0.120 A 
ATOM     46  H   LIG d   1       8.133 -12.909  -3.553  0.00  0.00     0.065 H 
ATOM     47  C   LIG d   1       6.253 -11.132  -1.366  0.00  0.00    -0.019 A 
ATOM     48  C   LIG d   1       5.479 -10.424  -2.258  0.00  0.00    -0.044 A 
ATOM     49  H   LIG d   1       6.118 -10.988  -0.304  0.00  0.00     0.065 H 
ATOM     50  H   LIG d   1       4.737  -9.727  -1.896  0.00  0.00     0.063 H 
BRANCH  45  51
ATOM     51  O   LIG d   1       7.976 -12.716  -0.948  0.00  0.00    -0.495 OA
BRANCH  51  52
ATOM     52  C   LIG d   1       7.755 -14.126  -0.864  0.00  0.00     0.079 C 
ATOM     53  H   LIG d   1       8.712 -14.641  -0.788  0.00  0.00     0.066 H 
ATOM     54  H   LIG d   1       7.153 -14.347   0.019  0.00  0.00     0.066 H 
ATOM     55  H   LIG d   1       7.228 -14.465  -1.756  0.00  0.00     0.066 H 
ENDBRANCH  51  52
ENDBRANCH  45  51
ENDBRANCH  39  41
ENDBRANCH  38  39
ENDBRANCH   5  38
TORSDOF 11
ENDMDL
MODEL 5
REMARK VINA RESULT:      -5.7      9.032     13.055
REMARK  11 active torsions:
REMARK  status: ('A' for Active; 'I' for Inactive)
REMARK    1  A    between atoms: C_1  and  C_2 
REMARK    2  A    between atoms: C_6  and  O_23 
REMARK    3  A    between atoms: C_12  and  C_13 
REMARK    4  A    between atoms: C_16  and  O_21 
REMARK    5  A    between atoms: C_17  and  O_19 
REMARK    6  A    between atoms: O_19  and  C_20 
REMARK    7  A    between atoms: O_21  and  C_22 
REMARK    8  A    between atoms: O_23  and  C_24 
REMARK    9  A    between atoms: C_24  and  C_26 
REMARK   10  A    between atoms: C_29  and  O_32 
REMARK   11  A    between atoms: O_32  and  C_33 
ROOT
ATOM      1  C   LIG d   1       3.234  -1.950  -8.720  0.00  0.00    -0.025 A 
ATOM      2  C   LIG d   1       2.415  -2.089  -9.870  0.00  0.00     0.021 A 
ATOM      3  C   LIG d   1       2.223  -3.351 -10.452  0.00  0.00    -0.047 A 
ATOM      4  C   LIG d   1       1.436  -3.478 -11.557  0.00  0.00    -0.018 A 
ATOM      5  C   LIG d   1       0.818  -2.360 -12.116  0.00  0.00     0.136 A 
ATOM      6  C   LIG d   1       0.996  -1.107 -11.557  0.00  0.00     0.024 A 
ATOM      7  C   LIG d   1       1.795  -0.958 -10.431  0.00  0.00     0.143 A 
ATOM      8  O   LIG d   1       1.971   0.266  -9.887  0.00  0.00    -0.422 OA
ATOM      9  C   LIG d   1       2.735   0.439  -8.795  0.00  0.00     0.345 A 
ATOM     10  O   LIG d   1       2.875   1.552  -8.323  0.00  0.00    -0.244 OA
ATOM     11  C   LIG d   1       3.404  -0.707  -8.174  0.00  0.00     0.070 A 
ATOM     12  H   LIG d   1       2.699  -4.221 -10.024  0.00  0.00     0.063 H 
ATOM     13  H   LIG d   1       1.289  -4.452 -12.003  0.00  0.00     0.065 H 
ATOM     14  H   LIG d   1       0.514  -0.246 -11.995  0.00  0.00     0.069 H 
ENDROOT
BRANCH  11  15
ATOM     15  C   LIG d   1       4.251  -0.522  -6.973  0.00  0.00    -0.007 A 
ATOM     16  C   LIG d   1       3.672  -0.505  -5.704  0.00  0.00    -0.008 A 
ATOM     17  C   LIG d   1       4.466  -0.335  -4.586  0.00  0.00     0.162 A 
ATOM     18  H   LIG d   1       2.604  -0.627  -5.595  0.00  0.00     0.066 H 
ATOM     19  C   LIG d   1       5.843  -0.178  -4.728  0.00  0.00     0.162 A 
ATOM     20  C   LIG d   1       6.420  -0.195  -5.989  0.00  0.00    -0.016 A 
ATOM     21  C   LIG d   1       5.631  -0.371  -7.108  0.00  0.00    -0.050 A 
ATOM     22  H   LIG d   1       7.487  -0.074  -6.095  0.00  0.00     0.066 H 
ATOM     23  H   LIG d   1       6.082  -0.389  -8.089  0.00  0.00     0.062 H 
BRANCH  17  24
ATOM     24  O   LIG d   1       3.905  -0.318  -3.348  0.00  0.00    -0.491 OA
BRANCH  24  25
ATOM     25  C   LIG d   1       3.484  -1.573  -2.810  0.00  0.00     0.079 C 
ATOM     26  H   LIG d   1       2.779  -1.404  -1.997  0.00  0.00     0.066 H 
ATOM     27  H   LIG d   1       3.001  -2.159  -3.593  0.00  0.00     0.066 H 
ATOM     28  H   LIG d   1       4.351  -2.115  -2.433  0.00  0.00     0.066 H 
ENDBRANCH  24  25
ENDBRANCH  17  24
BRANCH  19  29
ATOM     29  O   LIG d   1       6.625  -0.010  -3.627  0.00  0.00    -0.491 OA
BRANCH  29  30
ATOM     30  C   LIG d   1       7.531   1.094  -3.638  0.00  0.00     0.079 C 
ATOM     31  H   LIG d   1       8.330   0.901  -4.356  0.00  0.00     0.066 H 
ATOM     32  H   LIG d   1       6.998   2.000  -3.924  0.00  0.00     0.066 H 
ATOM     33  H   LIG d   1       7.960   1.222  -2.644  0.00  0.00     0.066 H 
ENDBRANCH  29  30
ENDBRANCH  19  29
ENDBRANCH  11  15
BRANCH   1  34
ATOM     34  C   LIG d   1       3.907  -3.153  -8.109  0.00  0.00    -0.038 C 
ATOM     35  H   LIG d   1       3.784  -4.012  -8.768  0.00  0.00     0.028 H 
ATOM     36  H   LIG d   1       4.968  -2.947  -7.974  0.00  0.00     0.028 H 
ATOM     37  H   LIG d   1       3.453  -3.371  -7.141  0.00  0.00     0.028 H 
ENDBRANCH   1  34
BRANCH   5  38
ATOM     38  O   LIG d   1       0.037  -2.503 -13.218  0.00  0.00    -0.422 OA
BRANCH  38  39
ATOM     39  C   LIG d   1      -1.245  -2.864 -13.015  0.00  0.00     0.344 C 
ATOM     40  O   LIG d   1      -1.518  -4.022 -12.764  0.00  0.00    -0.244 OA
BRANCH  39  41
ATOM     41  C   LIG d   1      -2.318  -1.855 -13.099  0.00  0.00     0.060 A 
ATOM     42  C   LIG d   1      -3.655  -2.239 -12.957  0.00  0.00    -0.044 A 
ATOM     43  C   LIG d   1      -4.653  -1.294 -13.036  0.00  0.00    -0.019 A 
ATOM     44  H   LIG d   1      -3.904  -3.277 -12.786  0.00  0.00     0.063 H 
ATOM     45  C   LIG d   1      -4.333   0.041 -13.256  0.00  0.00     0.120 A 
ATOM     46  H   LIG d   1      -5.686  -1.591 -12.927  0.00  0.00     0.065 H 
ATOM     47  C   LIG d   1      -3.005   0.427 -13.398  0.00  0.00    -0.019 A 
ATOM     48  C   LIG d   1      -2.000  -0.511 -13.315  0.00  0.00    -0.044 A 
ATOM     49  H   LIG d   1      -2.760   1.465 -13.569  0.00  0.00     0.065 H 
ATOM     50  H   LIG d   1      -0.968  -0.209 -13.421  0.00  0.00     0.063 H 
BRANCH  45  51
ATOM     51  O   LIG d   1      -5.320   0.968 -13.333  0.00  0.00    -0.495 OA
BRANCH  51  52
ATOM     52  C   LIG d   1      -5.094   2.213 -12.667  0.00  0.00     0.079 C 
ATOM     53  H   LIG d   1      -6.033   2.760 -12.590  0.00  0.00     0.066 H 
ATOM     54  H   LIG d   1      -4.702   2.023 -11.667  0.00  0.00     0.066 H 
ATOM     55  H   LIG d   1      -4.374   2.803 -13.234  0.00  0.00     0.066 H 
ENDBRANCH  51  52
ENDBRANCH  45  51
ENDBRANCH  39  41
ENDBRANCH  38  39
ENDBRANCH   5  38
TORSDOF 11
ENDMDL
MODEL 6
REMARK VINA RESULT:      -5.7      4.685      6.573
REMARK  11 active torsions:
REMARK  status: ('A' for Active; 'I' for Inactive)
REMARK    1  A    between atoms: C_1  and  C_2 
REMARK    2  A    between atoms: C_6  and  O_23 
REMARK    3  A    between atoms: C_12  and  C_13 
REMARK    4  A    between atoms: C_16  and  O_21 
REMARK    5  A    between atoms: C_17  and  O_19 
REMARK    6  A    between atoms: O_19  and  C_20 
REMARK    7  A    between atoms: O_21  and  C_22 
REMARK    8  A    between atoms: O_23  and  C_24 
REMARK    9  A    between atoms: C_24  and  C_26 
REMARK   10  A    between atoms: C_29  and  O_32 
REMARK   11  A    between atoms: O_32  and  C_33 
ROOT
ATOM      1  C   LIG d   1       9.929   4.937  -6.668  0.00  0.00    -0.025 A 
ATOM      2  C   LIG d   1       9.443   3.877  -5.860  0.00  0.00     0.021 A 
ATOM      3  C   LIG d   1       9.626   3.908  -4.469  0.00  0.00    -0.047 A 
ATOM      4  C   LIG d   1       9.157   2.886  -3.698  0.00  0.00    -0.018 A 
ATOM      5  C   LIG d   1       8.497   1.807  -4.282  0.00  0.00     0.136 A 
ATOM      6  C   LIG d   1       8.307   1.758  -5.652  0.00  0.00     0.024 A 
ATOM      7  C   LIG d   1       8.777   2.789  -6.454  0.00  0.00     0.143 A 
ATOM      8  O   LIG d   1       8.596   2.739  -7.792  0.00  0.00    -0.422 OA
ATOM      9  C   LIG d   1       9.036   3.726  -8.591  0.00  0.00     0.345 A 
ATOM     10  O   LIG d   1       8.856   3.658  -9.794  0.00  0.00    -0.244 OA
ATOM     11  C   LIG d   1       9.736   4.880  -8.022  0.00  0.00     0.070 A 
ATOM     12  H   LIG d   1      10.137   4.741  -4.010  0.00  0.00     0.063 H 
ATOM     13  H   LIG d   1       9.300   2.913  -2.627  0.00  0.00     0.065 H 
ATOM     14  H   LIG d   1       7.794   0.919  -6.097  0.00  0.00     0.069 H 
ENDROOT
BRANCH  11  15
ATOM     15  C   LIG d   1      10.229   5.968  -8.898  0.00  0.00    -0.007 A 
ATOM     16  C   LIG d   1      11.461   5.846  -9.538  0.00  0.00    -0.008 A 
ATOM     17  C   LIG d   1      11.917   6.864 -10.356  0.00  0.00     0.162 A 
ATOM     18  H   LIG d   1      12.060   4.958  -9.396  0.00  0.00     0.066 H 
ATOM     19  C   LIG d   1      11.145   8.009 -10.538  0.00  0.00     0.162 A 
ATOM     20  C   LIG d   1       9.918   8.130  -9.901  0.00  0.00    -0.016 A 
ATOM     21  C   LIG d   1       9.457   7.114  -9.088  0.00  0.00    -0.050 A 
ATOM     22  H   LIG d   1       9.322   9.019 -10.045  0.00  0.00     0.066 H 
ATOM     23  H   LIG d   1       8.501   7.209  -8.597  0.00  0.00     0.062 H 
BRANCH  17  24
ATOM     24  O   LIG d   1      13.119   6.748 -10.982  0.00  0.00    -0.491 OA
BRANCH  24  25
ATOM     25  C   LIG d   1      13.496   5.442 -11.424  0.00  0.00     0.079 C 
ATOM     26  H   LIG d   1      13.263   4.714 -10.648  0.00  0.00     0.066 H 
ATOM     27  H   LIG d   1      12.947   5.194 -12.332  0.00  0.00     0.066 H 
ATOM     28  H   LIG d   1      14.566   5.424 -11.630  0.00  0.00     0.066 H 
ENDBRANCH  24  25
ENDBRANCH  17  24
BRANCH  19  29
ATOM     29  O   LIG d   1      11.593   9.010 -11.343  0.00  0.00    -0.491 OA
BRANCH  29  30
ATOM     30  C   LIG d   1      10.828   9.290 -12.516  0.00  0.00     0.079 C 
ATOM     31  H   LIG d   1      10.279   8.396 -12.813  0.00  0.00     0.066 H 
ATOM     32  H   LIG d   1      10.124  10.095 -12.308  0.00  0.00     0.066 H 
ATOM     33  H   LIG d   1      11.497   9.590 -13.323  0.00  0.00     0.066 H 
ENDBRANCH  29  30
ENDBRANCH  19  29
ENDBRANCH  11  15
BRANCH   1  34
ATOM     34  C   LIG d   1      10.645   6.109  -6.045  0.00  0.00    -0.038 C 
ATOM     35  H   LIG d   1      11.286   5.755  -5.238  0.00  0.00     0.028 H 
ATOM     36  H   LIG d   1      11.252   6.606  -6.800  0.00  0.00     0.028 H 
ATOM     37  H   LIG d   1       9.913   6.812  -5.646  0.00  0.00     0.028 H 
ENDBRANCH   1  34
BRANCH   5  38
ATOM     38  O   LIG d   1       8.037   0.796  -3.501  0.00  0.00    -0.422 OA
BRANCH  38  39
ATOM     39  C   LIG d   1       6.700   0.662  -3.400  0.00  0.00     0.344 C 
ATOM     40  O   LIG d   1       6.016   1.613  -3.074  0.00  0.00    -0.244 OA
BRANCH  39  41
ATOM     41  C   LIG d   1       6.066  -0.639  -3.683  0.00  0.00     0.060 A 
ATOM     42  C   LIG d   1       6.510  -1.416  -4.758  0.00  0.00    -0.044 A 
ATOM     43  C   LIG d   1       5.916  -2.630  -5.019  0.00  0.00    -0.019 A 
ATOM     44  H   LIG d   1       7.319  -1.064  -5.381  0.00  0.00     0.063 H 
ATOM     45  C   LIG d   1       4.876  -3.084  -4.217  0.00  0.00     0.120 A 
ATOM     46  H   LIG d   1       6.259  -3.231  -5.849  0.00  0.00     0.065 H 
ATOM     47  C   LIG d   1       4.431  -2.315  -3.148  0.00  0.00    -0.019 A 
ATOM     48  C   LIG d   1       5.023  -1.102  -2.876  0.00  0.00    -0.044 A 
ATOM     49  H   LIG d   1       3.622  -2.671  -2.527  0.00  0.00     0.065 H 
ATOM     50  H   LIG d   1       4.680  -0.507  -2.043  0.00  0.00     0.063 H 
BRANCH  45  51
ATOM     51  O   LIG d   1       4.293  -4.281  -4.479  0.00  0.00    -0.495 OA
BRANCH  51  52
ATOM     52  C   LIG d   1       4.679  -4.940  -5.687  0.00  0.00     0.079 C 
ATOM     53  H   LIG d   1       3.918  -4.777  -6.449  0.00  0.00     0.066 H 
ATOM     54  H   LIG d   1       5.631  -4.536  -6.033  0.00  0.00     0.066 H 
ATOM     55  H   LIG d   1       4.785  -6.008  -5.500  0.00  0.00     0.066 H 
ENDBRANCH  51  52
ENDBRANCH  45  51
ENDBRANCH  39  41
ENDBRANCH  38  39
ENDBRANCH   5  38
TORSDOF 11
ENDMDL
MODEL 7
REMARK VINA RESULT:      -5.6      6.585     11.453
REMARK  11 active torsions:
REMARK  status: ('A' for Active; 'I' for Inactive)
REMARK    1  A    between atoms: C_1  and  C_2 
REMARK    2  A    between atoms: C_6  and  O_23 
REMARK    3  A    between atoms: C_12  and  C_13 
REMARK    4  A    between atoms: C_16  and  O_21 
REMARK    5  A    between atoms: C_17  and  O_19 
REMARK    6  A    between atoms: O_19  and  C_20 
REMARK    7  A    between atoms: O_21  and  C_22 
REMARK    8  A    between atoms: O_23  and  C_24 
REMARK    9  A    between atoms: C_24  and  C_26 
REMARK   10  A    between atoms: C_29  and  O_32 
REMARK   11  A    between atoms: O_32  and  C_33 
ROOT
ATOM      1  C   LIG d   1       5.862  -4.169  -5.498  0.00  0.00    -0.025 A 
ATOM      2  C   LIG d   1       5.842  -5.577  -5.674  0.00  0.00     0.021 A 
ATOM      3  C   LIG d   1       4.723  -6.202  -6.243  0.00  0.00    -0.047 A 
ATOM      4  C   LIG d   1       4.709  -7.555  -6.410  0.00  0.00    -0.018 A 
ATOM      5  C   LIG d   1       5.802  -8.325  -6.017  0.00  0.00     0.136 A 
ATOM      6  C   LIG d   1       6.916  -7.727  -5.453  0.00  0.00     0.024 A 
ATOM      7  C   LIG d   1       6.948  -6.350  -5.276  0.00  0.00     0.143 A 
ATOM      8  O   LIG d   1       8.033  -5.767  -4.721  0.00  0.00    -0.422 OA
ATOM      9  C   LIG d   1       8.094  -4.437  -4.543  0.00  0.00     0.345 A 
ATOM     10  O   LIG d   1       9.085  -3.936  -4.044  0.00  0.00    -0.244 OA
ATOM     11  C   LIG d   1       6.968  -3.588  -4.940  0.00  0.00     0.070 A 
ATOM     12  H   LIG d   1       3.872  -5.611  -6.550  0.00  0.00     0.063 H 
ATOM     13  H   LIG d   1       3.845  -8.032  -6.849  0.00  0.00     0.065 H 
ATOM     14  H   LIG d   1       7.758  -8.331  -5.152  0.00  0.00     0.069 H 
ENDROOT
BRANCH  11  15
ATOM     15  C   LIG d   1       7.026  -2.121  -4.740  0.00  0.00    -0.007 A 
ATOM     16  C   LIG d   1       6.374  -1.536  -3.656  0.00  0.00    -0.008 A 
ATOM     17  C   LIG d   1       6.431  -0.168  -3.472  0.00  0.00     0.162 A 
ATOM     18  H   LIG d   1       5.824  -2.153  -2.958  0.00  0.00     0.066 H 
ATOM     19  C   LIG d   1       7.139   0.626  -4.372  0.00  0.00     0.162 A 
ATOM     20  C   LIG d   1       7.788   0.045  -5.451  0.00  0.00    -0.016 A 
ATOM     21  C   LIG d   1       7.739  -1.322  -5.635  0.00  0.00    -0.050 A 
ATOM     22  H   LIG d   1       8.337   0.663  -6.146  0.00  0.00     0.066 H 
ATOM     23  H   LIG d   1       8.248  -1.772  -6.473  0.00  0.00     0.062 H 
BRANCH  17  24
ATOM     24  O   LIG d   1       5.796   0.405  -2.415  0.00  0.00    -0.491 OA
BRANCH  24  25
ATOM     25  C   LIG d   1       4.370   0.482  -2.480  0.00  0.00     0.079 C 
ATOM     26  H   LIG d   1       3.947   0.223  -1.510  0.00  0.00     0.066 H 
ATOM     27  H   LIG d   1       4.073   1.497  -2.746  0.00  0.00     0.066 H 
ATOM     28  H   LIG d   1       4.003  -0.213  -3.235  0.00  0.00     0.066 H 
ENDBRANCH  24  25
ENDBRANCH  17  24
BRANCH  19  29
ATOM     29  O   LIG d   1       7.196   1.973  -4.191  0.00  0.00    -0.491 OA
BRANCH  29  30
ATOM     30  C   LIG d   1       8.416   2.624  -4.546  0.00  0.00     0.079 C 
ATOM     31  H   LIG d   1       9.122   2.549  -3.718  0.00  0.00     0.066 H 
ATOM     32  H   LIG d   1       8.841   2.146  -5.429  0.00  0.00     0.066 H 
ATOM     33  H   LIG d   1       8.219   3.675  -4.760  0.00  0.00     0.066 H 
ENDBRANCH  29  30
ENDBRANCH  19  29
ENDBRANCH  11  15
BRANCH   1  34
ATOM     34  C   LIG d   1       4.685  -3.328  -5.920  0.00  0.00    -0.038 C 
ATOM     35  H   LIG d   1       4.034  -3.913  -6.570  0.00  0.00     0.028 H 
ATOM     36  H   LIG d   1       4.129  -3.013  -5.037  0.00  0.00     0.028 H 
ATOM     37  H   LIG d   1       5.040  -2.448  -6.458  0.00  0.00     0.028 H 
ENDBRANCH   1  34
BRANCH   5  38
ATOM     38  O   LIG d   1       5.773  -9.671  -6.188  0.00  0.00    -0.422 OA
BRANCH  38  39
ATOM     39  C   LIG d   1       5.067 -10.387  -5.291  0.00  0.00     0.344 C 
ATOM     40  O   LIG d   1       3.914 -10.689  -5.527  0.00  0.00    -0.244 OA
BRANCH  39  41
ATOM     41  C   LIG d   1       5.694 -10.804  -4.022  0.00  0.00     0.060 A 
ATOM     42  C   LIG d   1       5.201 -10.323  -2.805  0.00  0.00    -0.044 A 
ATOM     43  C   LIG d   1       5.789 -10.714  -1.624  0.00  0.00    -0.019 A 
ATOM     44  H   LIG d   1       4.359  -9.645  -2.793  0.00  0.00     0.063 H 
ATOM     45  C   LIG d   1       6.871 -11.586  -1.639  0.00  0.00     0.120 A 
ATOM     46  H   LIG d   1       5.409 -10.342  -0.683  0.00  0.00     0.065 H 
ATOM     47  C   LIG d   1       7.365 -12.066  -2.846  0.00  0.00    -0.019 A 
ATOM     48  C   LIG d   1       6.779 -11.684  -4.033  0.00  0.00    -0.044 A 
ATOM     49  H   LIG d   1       8.206 -12.744  -2.855  0.00  0.00     0.065 H 
ATOM     50  H   LIG d   1       7.160 -12.062  -4.971  0.00  0.00     0.063 H 
BRANCH  45  51
ATOM     51  O   LIG d   1       7.448 -11.969  -0.472  0.00  0.00    -0.495 OA
BRANCH  51  52
ATOM     52  C   LIG d   1       8.874 -12.068  -0.455  0.00  0.00     0.079 C 
ATOM     53  H   LIG d   1       9.168 -12.987   0.050  0.00  0.00     0.066 H 
ATOM     54  H   LIG d   1       9.249 -12.080  -1.478  0.00  0.00     0.066 H 
ATOM     55  H   LIG d   1       9.291 -11.211   0.075  0.00  0.00     0.066 H 
ENDBRANCH  51  52
ENDBRANCH  45  51
ENDBRANCH  39  41
ENDBRANCH  38  39
ENDBRANCH   5  38
TORSDOF 11
ENDMDL
MODEL 8
REMARK VINA RESULT:      -5.6      7.486     12.289
REMARK  11 active torsions:
REMARK  status: ('A' for Active; 'I' for Inactive)
REMARK    1  A    between atoms: C_1  and  C_2 
REMARK    2  A    between atoms: C_6  and  O_23 
REMARK    3  A    between atoms: C_12  and  C_13 
REMARK    4  A    between atoms: C_16  and  O_21 
REMARK    5  A    between atoms: C_17  and  O_19 
REMARK    6  A    between atoms: O_19  and  C_20 
REMARK    7  A    between atoms: O_21  and  C_22 
REMARK    8  A    between atoms: O_23  and  C_24 
REMARK    9  A    between atoms: C_24  and  C_26 
REMARK   10  A    between atoms: C_29  and  O_32 
REMARK   11  A    between atoms: O_32  and  C_33 
ROOT
ATOM      1  C   LIG d   1       4.400  -2.905  -8.024  0.00  0.00    -0.025 A 
ATOM      2  C   LIG d   1       3.875  -3.955  -8.823  0.00  0.00     0.021 A 
ATOM      3  C   LIG d   1       3.657  -3.757 -10.194  0.00  0.00    -0.047 A 
ATOM      4  C   LIG d   1       3.153  -4.768 -10.956  0.00  0.00    -0.018 A 
ATOM      5  C   LIG d   1       2.851  -6.002 -10.382  0.00  0.00     0.136 A 
ATOM      6  C   LIG d   1       3.059  -6.216  -9.030  0.00  0.00     0.024 A 
ATOM      7  C   LIG d   1       3.572  -5.198  -8.238  0.00  0.00     0.143 A 
ATOM      8  O   LIG d   1       3.771  -5.406  -6.918  0.00  0.00    -0.422 OA
ATOM      9  C   LIG d   1       4.271  -4.440  -6.129  0.00  0.00     0.345 A 
ATOM     10  O   LIG d   1       4.444  -4.655  -4.943  0.00  0.00    -0.244 OA
ATOM     11  C   LIG d   1       4.602  -3.127  -6.689  0.00  0.00     0.070 A 
ATOM     12  H   LIG d   1       3.888  -2.803 -10.646  0.00  0.00     0.063 H 
ATOM     13  H   LIG d   1       2.986  -4.612 -12.012  0.00  0.00     0.065 H 
ATOM     14  H   LIG d   1       2.823  -7.174  -8.593  0.00  0.00     0.069 H 
ENDROOT
BRANCH  11  15
ATOM     15  C   LIG d   1       5.148  -2.056  -5.823  0.00  0.00    -0.007 A 
ATOM     16  C   LIG d   1       4.290  -1.133  -5.228  0.00  0.00    -0.008 A 
ATOM     17  C   LIG d   1       4.803  -0.136  -4.419  0.00  0.00     0.162 A 
ATOM     18  H   LIG d   1       3.224  -1.197  -5.397  0.00  0.00     0.066 H 
ATOM     19  C   LIG d   1       6.176  -0.054  -4.202  0.00  0.00     0.162 A 
ATOM     20  C   LIG d   1       7.031  -0.972  -4.795  0.00  0.00    -0.016 A 
ATOM     21  C   LIG d   1       6.522  -1.973  -5.598  0.00  0.00    -0.050 A 
ATOM     22  H   LIG d   1       8.094  -0.906  -4.624  0.00  0.00     0.066 H 
ATOM     23  H   LIG d   1       7.188  -2.689  -6.054  0.00  0.00     0.062 H 
BRANCH  17  24
ATOM     24  O   LIG d   1       3.968   0.766  -3.837  0.00  0.00    -0.491 OA
BRANCH  24  25
ATOM     25  C   LIG d   1       3.268   0.339  -2.667  0.00  0.00     0.079 C 
ATOM     26  H   LIG d   1       3.984   0.070  -1.891  0.00  0.00     0.066 H 
ATOM     27  H   LIG d   1       2.631   1.148  -2.309  0.00  0.00     0.066 H 
ATOM     28  H   LIG d   1       2.652  -0.528  -2.909  0.00  0.00     0.066 H 
ENDBRANCH  24  25
ENDBRANCH  17  24
BRANCH  19  29
ATOM     29  O   LIG d   1       6.681   0.927  -3.407  0.00  0.00    -0.491 OA
BRANCH  29  30
ATOM     30  C   LIG d   1       7.839   1.615  -3.882  0.00  0.00     0.079 C 
ATOM     31  H   LIG d   1       8.338   2.106  -3.046  0.00  0.00     0.066 H 
ATOM     32  H   LIG d   1       8.522   0.903  -4.345  0.00  0.00     0.066 H 
ATOM     33  H   LIG d   1       7.541   2.364  -4.617  0.00  0.00     0.066 H 
ENDBRANCH  29  30
ENDBRANCH  19  29
ENDBRANCH  11  15
BRANCH   1  34
ATOM     34  C   LIG d   1       4.729  -1.568  -8.636  0.00  0.00    -0.038 C 
ATOM     35  H   LIG d   1       5.526  -1.092  -8.065  0.00  0.00     0.028 H 
ATOM     36  H   LIG d   1       5.055  -1.710  -9.666  0.00  0.00     0.028 H 
ATOM     37  H   LIG d   1       3.842  -0.933  -8.620  0.00  0.00     0.028 H 
ENDBRANCH   1  34
BRANCH   5  38
ATOM     38  O   LIG d   1       2.349  -6.999 -11.154  0.00  0.00    -0.422 OA
BRANCH  38  39
ATOM     39  C   LIG d   1       1.195  -6.748 -11.803  0.00  0.00     0.344 C 
ATOM     40  O   LIG d   1       1.162  -6.777 -13.017  0.00  0.00    -0.244 OA
BRANCH  39  41
ATOM     41  C   LIG d   1      -0.028  -6.438 -11.039  0.00  0.00     0.060 A 
ATOM     42  C   LIG d   1      -0.687  -5.220 -11.235  0.00  0.00    -0.044 A 
ATOM     43  C   LIG d   1      -1.829  -4.934 -10.521  0.00  0.00    -0.019 A 
ATOM     44  H   LIG d   1      -0.301  -4.505 -11.947  0.00  0.00     0.063 H 
ATOM     45  C   LIG d   1      -2.327  -5.855  -9.606  0.00  0.00     0.120 A 
ATOM     46  H   LIG d   1      -2.338  -3.994 -10.671  0.00  0.00     0.065 H 
ATOM     47  C   LIG d   1      -1.675  -7.066  -9.408  0.00  0.00    -0.019 A 
ATOM     48  C   LIG d   1      -0.535  -7.362 -10.122  0.00  0.00    -0.044 A 
ATOM     49  H   LIG d   1      -2.064  -7.779  -8.695  0.00  0.00     0.065 H 
ATOM     50  H   LIG d   1      -0.032  -8.306  -9.971  0.00  0.00     0.063 H 
BRANCH  45  51
ATOM     51  O   LIG d   1      -3.452  -5.569  -8.903  0.00  0.00    -0.495 OA
BRANCH  51  52
ATOM     52  C   LIG d   1      -4.323  -4.576  -9.451  0.00  0.00     0.079 C 
ATOM     53  H   LIG d   1      -3.877  -3.590  -9.322  0.00  0.00     0.066 H 
ATOM     54  H   LIG d   1      -4.473  -4.771 -10.513  0.00  0.00     0.066 H 
ATOM     55  H   LIG d   1      -5.283  -4.612  -8.936  0.00  0.00     0.066 H 
ENDBRANCH  51  52
ENDBRANCH  45  51
ENDBRANCH  39  41
ENDBRANCH  38  39
ENDBRANCH   5  38
TORSDOF 11
ENDMDL
MODEL 9
REMARK VINA RESULT:      -5.6      9.363     12.223
REMARK  11 active torsions:
REMARK  status: ('A' for Active; 'I' for Inactive)
REMARK    1  A    between atoms: C_1  and  C_2 
REMARK    2  A    between atoms: C_6  and  O_23 
REMARK    3  A    between atoms: C_12  and  C_13 
REMARK    4  A    between atoms: C_16  and  O_21 
REMARK    5  A    between atoms: C_17  and  O_19 
REMARK    6  A    between atoms: O_19  and  C_20 
REMARK    7  A    between atoms: O_21  and  C_22 
REMARK    8  A    between atoms: O_23  and  C_24 
REMARK    9  A    between atoms: C_24  and  C_26 
REMARK   10  A    between atoms: C_29  and  O_32 
REMARK   11  A    between atoms: O_32  and  C_33 
ROOT
ATOM      1  C   LIG d   1       4.546  -4.288  -7.561  0.00  0.00    -0.025 A 
ATOM      2  C   LIG d   1       4.765  -5.605  -7.081  0.00  0.00     0.021 A 
ATOM      3  C   LIG d   1       4.178  -6.700  -7.732  0.00  0.00    -0.047 A 
ATOM      4  C   LIG d   1       4.392  -7.964  -7.266  0.00  0.00    -0.018 A 
ATOM      5  C   LIG d   1       5.191  -8.177  -6.144  0.00  0.00     0.136 A 
ATOM      6  C   LIG d   1       5.778  -7.109  -5.488  0.00  0.00     0.024 A 
ATOM      7  C   LIG d   1       5.572  -5.815  -5.948  0.00  0.00     0.143 A 
ATOM      8  O   LIG d   1       6.142  -4.772  -5.305  0.00  0.00    -0.422 OA
ATOM      9  C   LIG d   1       5.964  -3.510  -5.731  0.00  0.00     0.345 A 
ATOM     10  O   LIG d   1       6.492  -2.589  -5.135  0.00  0.00    -0.244 OA
ATOM     11  C   LIG d   1       5.132  -3.239  -6.905  0.00  0.00     0.070 A 
ATOM     12  H   LIG d   1       3.557  -6.543  -8.602  0.00  0.00     0.063 H 
ATOM     13  H   LIG d   1       3.938  -8.805  -7.770  0.00  0.00     0.065 H 
ATOM     14  H   LIG d   1       6.396  -7.282  -4.620  0.00  0.00     0.069 H 
ENDROOT
BRANCH  11  15
ATOM     15  C   LIG d   1       4.927  -1.849  -7.377  0.00  0.00    -0.007 A 
ATOM     16  C   LIG d   1       3.990  -1.029  -6.749  0.00  0.00    -0.008 A 
ATOM     17  C   LIG d   1       3.803   0.267  -7.190  0.00  0.00     0.162 A 
ATOM     18  H   LIG d   1       3.412  -1.406  -5.917  0.00  0.00     0.066 H 
ATOM     19  C   LIG d   1       4.548   0.751  -8.263  0.00  0.00     0.162 A 
ATOM     20  C   LIG d   1       5.480  -0.064  -8.888  0.00  0.00    -0.016 A 
ATOM     21  C   LIG d   1       5.674  -1.357  -8.446  0.00  0.00    -0.050 A 
ATOM     22  H   LIG d   1       6.056   0.315  -9.719  0.00  0.00     0.066 H 
ATOM     23  H   LIG d   1       6.403  -1.989  -8.931  0.00  0.00     0.062 H 
BRANCH  17  24
ATOM     24  O   LIG d   1       2.890   1.070  -6.580  0.00  0.00    -0.491 OA
BRANCH  24  25
ATOM     25  C   LIG d   1       2.471   0.692  -5.267  0.00  0.00     0.079 C 
ATOM     26  H   LIG d   1       1.599   1.279  -4.980  0.00  0.00     0.066 H 
ATOM     27  H   LIG d   1       2.214  -0.368  -5.259  0.00  0.00     0.066 H 
ATOM     28  H   LIG d   1       3.281   0.874  -4.561  0.00  0.00     0.066 H 
ENDBRANCH  24  25
ENDBRANCH  17  24
BRANCH  19  29
ATOM     29  O   LIG d   1       4.364   2.027  -8.698  0.00  0.00    -0.491 OA
BRANCH  29  30
ATOM     30  C   LIG d   1       3.763   2.194  -9.983  0.00  0.00     0.079 C 
ATOM     31  H   LIG d   1       3.008   1.421 -10.134  0.00  0.00     0.066 H 
ATOM     32  H   LIG d   1       3.295   3.175 -10.042  0.00  0.00     0.066 H 
ATOM     33  H   LIG d   1       4.528   2.108 -10.756  0.00  0.00     0.066 H 
ENDBRANCH  29  30
ENDBRANCH  19  29
ENDBRANCH  11  15
BRANCH   1  34
ATOM     34  C   LIG d   1       3.683  -4.048  -8.773  0.00  0.00    -0.038 C 
ATOM     35  H   LIG d   1       4.064  -4.631  -9.612  0.00  0.00     0.028 H 
ATOM     36  H   LIG d   1       2.659  -4.350  -8.556  0.00  0.00     0.028 H 
ATOM     37  H   LIG d   1       3.703  -2.988  -9.030  0.00  0.00     0.028 H 
ENDBRANCH   1  34
BRANCH   5  38
ATOM     38  O   LIG d   1       5.393  -9.440  -5.692  0.00  0.00    -0.422 OA
BRANCH  38  39
ATOM     39  C   LIG d   1       4.896  -9.742  -4.477  0.00  0.00     0.344 C 
ATOM     40  O   LIG d   1       3.693  -9.749  -4.297  0.00  0.00    -0.244 OA
BRANCH  39  41
ATOM     41  C   LIG d   1       5.810 -10.064  -3.364  0.00  0.00     0.060 A 
ATOM     42  C   LIG d   1       7.142  -9.641  -3.407  0.00  0.00    -0.044 A 
ATOM     43  C   LIG d   1       7.991  -9.943  -2.367  0.00  0.00    -0.019 A 
ATOM     44  H   LIG d   1       7.503  -9.078  -4.256  0.00  0.00     0.063 H 
ATOM     45  C   LIG d   1       7.527 -10.667  -1.275  0.00  0.00     0.120 A 
ATOM     46  H   LIG d   1       9.021  -9.617  -2.400  0.00  0.00     0.065 H 
ATOM     47  C   LIG d   1       6.204 -11.089  -1.229  0.00  0.00    -0.019 A 
ATOM     48  C   LIG d   1       5.345 -10.786  -2.263  0.00  0.00    -0.044 A 
ATOM     49  H   LIG d   1       5.846 -11.652  -0.379  0.00  0.00     0.065 H 
ATOM     50  H   LIG d   1       4.316 -11.111  -2.223  0.00  0.00     0.063 H 
BRANCH  45  51
ATOM     51  O   LIG d   1       8.368 -10.963  -0.253  0.00  0.00    -0.495 OA
BRANCH  51  52
ATOM     52  C   LIG d   1       9.689 -10.420  -0.322  0.00  0.00     0.079 C 
ATOM     53  H   LIG d   1       9.703  -9.585  -1.022  0.00  0.00     0.066 H 
ATOM     54  H   LIG d   1       9.991 -10.072   0.666  0.00  0.00     0.066 H 
ATOM     55  H   LIG d   1      10.380 -11.192  -0.662  0.00  0.00     0.066 H 
ENDBRANCH  51  52
ENDBRANCH  45  51
ENDBRANCH  39  41
ENDBRANCH  38  39
ENDBRANCH   5  38
TORSDOF 11
ENDMDL
MODEL 10
REMARK VINA RESULT:      -5.5      4.051     10.240
REMARK  11 active torsions:
REMARK  status: ('A' for Active; 'I' for Inactive)
REMARK    1  A    between atoms: C_1  and  C_2 
REMARK    2  A    between atoms: C_6  and  O_23 
REMARK    3  A    between atoms: C_12  and  C_13 
REMARK    4  A    between atoms: C_16  and  O_21 
REMARK    5  A    between atoms: C_17  and  O_19 
REMARK    6  A    between atoms: O_19  and  C_20 
REMARK    7  A    between atoms: O_21  and  C_22 
REMARK    8  A    between atoms: O_23  and  C_24 
REMARK    9  A    between atoms: C_24  and  C_26 
REMARK   10  A    between atoms: C_29  and  O_32 
REMARK   11  A    between atoms: O_32  and  C_33 
ROOT
ATOM      1  C   LIG d   1       7.713   1.403  -6.947  0.00  0.00    -0.025 A 
ATOM      2  C   LIG d   1       8.780   1.846  -6.122  0.00  0.00     0.021 A 
ATOM      3  C   LIG d   1       8.921   1.343  -4.820  0.00  0.00    -0.047 A 
ATOM      4  C   LIG d   1       9.948   1.772  -4.033  0.00  0.00    -0.018 A 
ATOM      5  C   LIG d   1      10.860   2.710  -4.512  0.00  0.00     0.136 A 
ATOM      6  C   LIG d   1      10.737   3.218  -5.794  0.00  0.00     0.024 A 
ATOM      7  C   LIG d   1       9.698   2.793  -6.611  0.00  0.00     0.143 A 
ATOM      8  O   LIG d   1       9.576   3.292  -7.860  0.00  0.00    -0.422 OA
ATOM      9  C   LIG d   1       8.583   2.895  -8.674  0.00  0.00     0.345 A 
ATOM     10  O   LIG d   1       8.497   3.358  -9.797  0.00  0.00    -0.244 OA
ATOM     11  C   LIG d   1       7.600   1.912  -8.212  0.00  0.00     0.070 A 
ATOM     12  H   LIG d   1       8.217   0.616  -4.442  0.00  0.00     0.063 H 
ATOM     13  H   LIG d   1      10.054   1.383  -3.030  0.00  0.00     0.065 H 
ATOM     14  H   LIG d   1      11.448   3.944  -6.157  0.00  0.00     0.069 H 
ENDROOT
BRANCH  11  15
ATOM     15  C   LIG d   1       6.500   1.474  -9.103  0.00  0.00    -0.007 A 
ATOM     16  C   LIG d   1       6.666   0.359  -9.923  0.00  0.00    -0.008 A 
ATOM     17  C   LIG d   1       5.637  -0.048 -10.752  0.00  0.00     0.162 A 
ATOM     18  H   LIG d   1       7.598  -0.188  -9.911  0.00  0.00     0.066 H 
ATOM     19  C   LIG d   1       4.436   0.657 -10.766  0.00  0.00     0.162 A 
ATOM     20  C   LIG d   1       4.269   1.767  -9.950  0.00  0.00    -0.016 A 
ATOM     21  C   LIG d   1       5.292   2.173  -9.117  0.00  0.00    -0.050 A 
ATOM     22  H   LIG d   1       3.337   2.310  -9.963  0.00  0.00     0.066 H 
ATOM     23  H   LIG d   1       5.160   3.033  -8.479  0.00  0.00     0.062 H 
BRANCH  17  24
ATOM     24  O   LIG d   1       5.796  -1.135 -11.553  0.00  0.00    -0.491 OA
BRANCH  24  25
ATOM     25  C   LIG d   1       5.713  -2.418 -10.929  0.00  0.00     0.079 C 
ATOM     26  H   LIG d   1       6.660  -2.943 -11.048  0.00  0.00     0.066 H 
ATOM     27  H   LIG d   1       5.499  -2.292  -9.867  0.00  0.00     0.066 H 
ATOM     28  H   LIG d   1       4.915  -2.997 -11.394  0.00  0.00     0.066 H 
ENDBRANCH  24  25
ENDBRANCH  17  24
BRANCH  19  29
ATOM     29  O   LIG d   1       3.422   0.258 -11.581  0.00  0.00    -0.491 OA
BRANCH  29  30
ATOM     30  C   LIG d   1       2.368  -0.497 -10.982  0.00  0.00     0.079 C 
ATOM     31  H   LIG d   1       2.751  -1.466 -10.662  0.00  0.00     0.066 H 
ATOM     32  H   LIG d   1       1.979   0.042 -10.119  0.00  0.00     0.066 H 
ATOM     33  H   LIG d   1       1.569  -0.645 -11.709  0.00  0.00     0.066 H 
ENDBRANCH  29  30
ENDBRANCH  19  29
ENDBRANCH  11  15
BRANCH   1  34
ATOM     34  C   LIG d   1       6.721   0.390  -6.437  0.00  0.00    -0.038 C 
ATOM     35  H   LIG d   1       6.874   0.236  -5.369  0.00  0.00     0.028 H 
ATOM     36  H   LIG d   1       5.708   0.754  -6.610  0.00  0.00     0.028 H 
ATOM     37  H   LIG d   1       6.862  -0.555  -6.964  0.00  0.00     0.028 H 
ENDBRANCH   1  34
BRANCH   5  38
ATOM     38  O   LIG d   1      11.877   3.128  -3.715  0.00  0.00    -0.422 OA
BRANCH  38  39
ATOM     39  C   LIG d   1      12.124   4.453  -3.683  0.00  0.00     0.344 C 
ATOM     40  O   LIG d   1      13.090   4.906  -4.266  0.00  0.00    -0.244 OA
BRANCH  39  41
ATOM     41  C   LIG d   1      11.221   5.353  -2.942  0.00  0.00     0.060 A 
ATOM     42  C   LIG d   1      11.137   5.270  -1.548  0.00  0.00    -0.044 A 
ATOM     43  C   LIG d   1      10.294   6.112  -0.860  0.00  0.00    -0.019 A 
ATOM     44  H   LIG d   1      11.734   4.545  -1.013  0.00  0.00     0.063 H 
ATOM     45  C   LIG d   1       9.526   7.045  -1.548  0.00  0.00     0.120 A 
ATOM     46  H   LIG d   1      10.228   6.048   0.217  0.00  0.00     0.065 H 
ATOM     47  C   LIG d   1       9.606   7.131  -2.932  0.00  0.00    -0.019 A 
ATOM     48  C   LIG d   1      10.452   6.296  -3.629  0.00  0.00    -0.044 A 
ATOM     49  H   LIG d   1       9.009   7.857  -3.464  0.00  0.00     0.065 H 
ATOM     50  H   LIG d   1      10.517   6.367  -4.705  0.00  0.00     0.063 H 
BRANCH  45  51
ATOM     51  O   LIG d   1       8.696   7.873  -0.865  0.00  0.00    -0.495 OA
BRANCH  51  52
ATOM     52  C   LIG d   1       9.019   9.266  -0.873  0.00  0.00     0.079 C 
ATOM     53  H   LIG d   1       9.908   9.436  -0.266  0.00  0.00     0.066 H 
ATOM     54  H   LIG d   1       9.210   9.588  -1.896  0.00  0.00     0.066 H 
ATOM     55  H   LIG d   1       8.184   9.834  -0.463  0.00  0.00     0.066 H 
ENDBRANCH  51  52
ENDBRANCH  45  51
ENDBRANCH  39  41
ENDBRANCH  38  39
ENDBRANCH   5  38
TORSDOF 11
ENDMDL
