MODEL 1
REMARK VINA RESULT:      -6.3      0.000      0.000
REMARK  19 active torsions:
REMARK  status: ('A' for Active; 'I' for Inactive)
REMARK    1  A    between atoms: C_1  and  C_2 
REMARK    2  A    between atoms: C_2  and  C_4 
REMARK    3  A    between atoms: C_2  and  N_10 
REMARK    4  A    between atoms: C_4  and  C_5 
REMARK    5  A    between atoms: C_5  and  C_6 
REMARK    6  A    between atoms: C_6  and  C_7 
REMARK    7  A    between atoms: C_7  and  C_8 
REMARK    8  A    between atoms: C_7  and  C_9 
REMARK       I    between atoms: N_10  and  C_11 
REMARK    9  A    between atoms: C_11  and  C_13 
REMARK   10  A    between atoms: C_13  and  C_15 
REMARK   11  A    between atoms: C_13  and  N_18 
REMARK   12  A    between atoms: C_15  and  C_16 
REMARK   13  A    between atoms: C_15  and  C_17 
REMARK       I    between atoms: N_18  and  C_19 
REMARK   14  A    between atoms: C_19  and  C_21 
REMARK   15  A    between atoms: C_21  and  N_22 
REMARK   16  A    between atoms: C_27  and  O_35 
REMARK   17  A    between atoms: C_28  and  O_33 
REMARK   18  A    between atoms: O_33  and  C_34 
REMARK   19  A    between atoms: O_35  and  C_36 
ROOT
ATOM      1  C   LIG d   1       5.598   0.075  -3.887  0.00  0.00     0.102 C 
ATOM      2  H   LIG d   1       6.043  -0.631  -3.185  0.00  0.00     0.060 H 
ENDROOT
BRANCH   1   3
ATOM      3  C   LIG d   1       4.763  -0.674  -4.892  0.00  0.00     0.234 C 
ATOM      4  N   LIG d   1       4.629  -0.199  -6.146  0.00  0.00    -0.311 N 
ATOM      5  H   LIG d   1       5.013   0.660  -6.382  0.00  0.00     0.149 HD
ATOM      6  O   LIG d   1       4.210  -1.705  -4.573  0.00  0.00    -0.274 OA
BRANCH   4   7
ATOM      7  C   LIG d   1       3.903  -0.978  -7.152  0.00  0.00     0.020 C 
ATOM      8  H   LIG d   1       3.547  -1.906  -6.705  0.00  0.00     0.050 H 
BRANCH   7   9
ATOM      9  C   LIG d   1       4.837  -1.299  -8.320  0.00  0.00    -0.047 C 
ATOM     10  H   LIG d   1       5.585  -2.024  -7.998  0.00  0.00     0.025 H 
ATOM     11  H   LIG d   1       4.259  -1.715  -9.145  0.00  0.00     0.025 H 
ATOM     12  H   LIG d   1       5.335  -0.386  -8.650  0.00  0.00     0.025 H 
ENDBRANCH   7   9
BRANCH   7  13
ATOM     13  C   LIG d   1       2.710  -0.166  -7.662  0.00  0.00    -0.035 C 
ATOM     14  H   LIG d   1       2.419  -0.529  -8.647  0.00  0.00     0.028 H 
ATOM     15  H   LIG d   1       1.874  -0.276  -6.970  0.00  0.00     0.028 H 
BRANCH  13  16
ATOM     16  C   LIG d   1       3.102   1.310  -7.756  0.00  0.00    -0.051 C 
ATOM     17  H   LIG d   1       2.674   1.855  -6.916  0.00  0.00     0.027 H 
ATOM     18  H   LIG d   1       4.188   1.399  -7.733  0.00  0.00     0.027 H 
BRANCH  16  19
ATOM     19  C   LIG d   1       2.570   1.895  -9.067  0.00  0.00    -0.051 C 
ATOM     20  H   LIG d   1       1.911   1.171  -9.546  0.00  0.00     0.027 H 
ATOM     21  H   LIG d   1       2.016   2.809  -8.858  0.00  0.00     0.027 H 
BRANCH  19  22
ATOM     22  C   LIG d   1       3.743   2.211  -9.997  0.00  0.00    -0.047 C 
ATOM     23  H   LIG d   1       3.549   3.145 -10.523  0.00  0.00     0.029 H 
BRANCH  22  24
ATOM     24  C   LIG d   1       5.026   2.346  -9.173  0.00  0.00    -0.063 C 
ATOM     25  H   LIG d   1       5.679   1.497  -9.375  0.00  0.00     0.023 H 
ATOM     26  H   LIG d   1       5.537   3.270  -9.445  0.00  0.00     0.023 H 
ATOM     27  H   LIG d   1       4.775   2.367  -8.112  0.00  0.00     0.023 H 
ENDBRANCH  22  24
BRANCH  22  28
ATOM     28  C   LIG d   1       3.908   1.078 -11.013  0.00  0.00    -0.063 C 
ATOM     29  H   LIG d   1       3.826   1.482 -12.023  0.00  0.00     0.023 H 
ATOM     30  H   LIG d   1       4.886   0.615 -10.886  0.00  0.00     0.023 H 
ATOM     31  H   LIG d   1       3.128   0.333 -10.856  0.00  0.00     0.023 H 
ENDBRANCH  22  28
ENDBRANCH  19  22
ENDBRANCH  16  19
ENDBRANCH  13  16
ENDBRANCH   7  13
ENDBRANCH   4   7
ENDBRANCH   1   3
BRANCH   1  32
ATOM     32  C   LIG d   1       4.715   1.064  -3.124  0.00  0.00    -0.020 C 
ATOM     33  H   LIG d   1       5.109   2.073  -3.247  0.00  0.00     0.032 H 
BRANCH  32  34
ATOM     34  C   LIG d   1       3.288   1.005  -3.676  0.00  0.00    -0.060 C 
ATOM     35  H   LIG d   1       2.957   2.011  -3.933  0.00  0.00     0.023 H 
ATOM     36  H   LIG d   1       3.269   0.378  -4.566  0.00  0.00     0.023 H 
ATOM     37  H   LIG d   1       2.624   0.586  -2.921  0.00  0.00     0.023 H 
ENDBRANCH  32  34
BRANCH  32  38
ATOM     38  C   LIG d   1       4.702   0.697  -1.639  0.00  0.00    -0.060 C 
ATOM     39  H   LIG d   1       4.949  -0.358  -1.524  0.00  0.00     0.023 H 
ATOM     40  H   LIG d   1       5.438   1.303  -1.109  0.00  0.00     0.023 H 
ATOM     41  H   LIG d   1       3.711   0.885  -1.227  0.00  0.00     0.023 H 
ENDBRANCH  32  38
ENDBRANCH   1  32
BRANCH   1  42
ATOM     42  N   LIG d   1       6.661   0.805  -4.583  0.00  0.00    -0.302 N 
ATOM     43  C   LIG d   1       7.868   0.233  -4.760  0.00  0.00     0.234 C 
ATOM     44  O   LIG d   1       8.075  -0.888  -4.344  0.00  0.00    -0.274 OA
ATOM     45  H   LIG d   1       6.495   1.701  -4.916  0.00  0.00     0.149 HD
BRANCH  43  46
ATOM     46  C   LIG d   1       8.960   0.984  -5.476  0.00  0.00     0.104 C 
ATOM     47  H   LIG d   1       9.871   0.383  -5.482  0.00  0.00     0.059 H 
ATOM     48  H   LIG d   1       8.652   1.185  -6.501  0.00  0.00     0.059 H 
BRANCH  46  49
ATOM     49  N   LIG d   1       9.216   2.250  -4.785  0.00  0.00    -0.290 N 
ATOM     50  C   LIG d   1       9.222   3.407  -5.486  0.00  0.00     0.262 A 
ATOM     51  C   LIG d   1       9.479   4.648  -4.742  0.00  0.00     0.069 A 
ATOM     52  O   LIG d   1       9.019   3.421  -6.686  0.00  0.00    -0.267 OA
ATOM     53  C   LIG d   1       9.711   4.552  -3.352  0.00  0.00     0.082 A 
ATOM     54  C   LIG d   1       9.501   5.891  -5.374  0.00  0.00    -0.002 A 
ATOM     55  N   LIG d   1       9.683   3.329  -2.762  0.00  0.00    -0.237 NA
ATOM     56  C   LIG d   1       9.963   5.710  -2.616  0.00  0.00     0.010 A 
ATOM     57  C   LIG d   1       9.449   2.250  -3.446  0.00  0.00     0.100 A 
ATOM     58  H   LIG d   1       9.439   1.305  -2.923  0.00  0.00     0.103 H 
ATOM     59  C   LIG d   1       9.984   6.935  -3.254  0.00  0.00     0.164 A 
ATOM     60  H   LIG d   1      10.142   5.649  -1.553  0.00  0.00     0.068 H 
ATOM     61  C   LIG d   1       9.752   7.027  -4.631  0.00  0.00     0.162 A 
ATOM     62  H   LIG d   1       9.324   5.966  -6.436  0.00  0.00     0.066 H 
BRANCH  59  63
ATOM     63  O   LIG d   1      10.229   8.062  -2.537  0.00  0.00    -0.491 OA
BRANCH  63  64
ATOM     64  C   LIG d   1       9.695   8.118  -1.213  0.00  0.00     0.079 C 
ATOM     65  H   LIG d   1       8.981   7.306  -1.074  0.00  0.00     0.066 H 
ATOM     66  H   LIG d   1      10.505   8.017  -0.490  0.00  0.00     0.066 H 
ATOM     67  H   LIG d   1       9.193   9.074  -1.064  0.00  0.00     0.066 H 
ENDBRANCH  63  64
ENDBRANCH  59  63
BRANCH  61  68
ATOM     68  O   LIG d   1       9.776   8.243  -5.240  0.00  0.00    -0.491 OA
BRANCH  68  69
ATOM     69  C   LIG d   1       9.285   8.305  -6.582  0.00  0.00     0.079 C 
ATOM     70  H   LIG d   1       9.403   9.318  -6.965  0.00  0.00     0.066 H 
ATOM     71  H   LIG d   1       9.848   7.612  -7.207  0.00  0.00     0.066 H 
ATOM     72  H   LIG d   1       8.230   8.032  -6.596  0.00  0.00     0.066 H 
ENDBRANCH  68  69
ENDBRANCH  61  68
ENDBRANCH  46  49
ENDBRANCH  43  46
ENDBRANCH   1  42
TORSDOF 19
ENDMDL
MODEL 2
REMARK VINA RESULT:      -6.3      2.215      4.779
REMARK  19 active torsions:
REMARK  status: ('A' for Active; 'I' for Inactive)
REMARK    1  A    between atoms: C_1  and  C_2 
REMARK    2  A    between atoms: C_2  and  C_4 
REMARK    3  A    between atoms: C_2  and  N_10 
REMARK    4  A    between atoms: C_4  and  C_5 
REMARK    5  A    between atoms: C_5  and  C_6 
REMARK    6  A    between atoms: C_6  and  C_7 
REMARK    7  A    between atoms: C_7  and  C_8 
REMARK    8  A    between atoms: C_7  and  C_9 
REMARK       I    between atoms: N_10  and  C_11 
REMARK    9  A    between atoms: C_11  and  C_13 
REMARK   10  A    between atoms: C_13  and  C_15 
REMARK   11  A    between atoms: C_13  and  N_18 
REMARK   12  A    between atoms: C_15  and  C_16 
REMARK   13  A    between atoms: C_15  and  C_17 
REMARK       I    between atoms: N_18  and  C_19 
REMARK   14  A    between atoms: C_19  and  C_21 
REMARK   15  A    between atoms: C_21  and  N_22 
REMARK   16  A    between atoms: C_27  and  O_35 
REMARK   17  A    between atoms: C_28  and  O_33 
REMARK   18  A    between atoms: O_33  and  C_34 
REMARK   19  A    between atoms: O_35  and  C_36 
ROOT
ATOM      1  C   LIG d   1       7.225   1.210  -7.195  0.00  0.00     0.102 C 
ATOM      2  H   LIG d   1       6.476   1.809  -6.676  0.00  0.00     0.060 H 
ENDROOT
BRANCH   1   3
ATOM      3  C   LIG d   1       6.996  -0.249  -6.897  0.00  0.00     0.234 C 
ATOM      4  N   LIG d   1       6.368  -0.614  -5.761  0.00  0.00    -0.311 N 
ATOM      5  H   LIG d   1       6.126   0.056  -5.104  0.00  0.00     0.149 HD
ATOM      6  O   LIG d   1       7.376  -1.094  -7.678  0.00  0.00    -0.274 OA
BRANCH   4   7
ATOM      7  C   LIG d   1       6.053  -2.024  -5.519  0.00  0.00     0.020 C 
ATOM      8  H   LIG d   1       6.783  -2.653  -6.030  0.00  0.00     0.050 H 
BRANCH   7   9
ATOM      9  C   LIG d   1       4.653  -2.333  -6.053  0.00  0.00    -0.047 C 
ATOM     10  H   LIG d   1       4.189  -3.100  -5.434  0.00  0.00     0.025 H 
ATOM     11  H   LIG d   1       4.046  -1.428  -6.026  0.00  0.00     0.025 H 
ATOM     12  H   LIG d   1       4.726  -2.691  -7.081  0.00  0.00     0.025 H 
ENDBRANCH   7   9
BRANCH   7  13
ATOM     13  C   LIG d   1       6.099  -2.307  -4.016  0.00  0.00    -0.035 C 
ATOM     14  H   LIG d   1       6.810  -3.108  -3.819  0.00  0.00     0.028 H 
ATOM     15  H   LIG d   1       6.411  -1.405  -3.487  0.00  0.00     0.028 H 
BRANCH  13  16
ATOM     16  C   LIG d   1       4.709  -2.726  -3.534  0.00  0.00    -0.051 C 
ATOM     17  H   LIG d   1       3.994  -2.618  -4.349  0.00  0.00     0.027 H 
ATOM     18  H   LIG d   1       4.736  -3.765  -3.209  0.00  0.00     0.027 H 
BRANCH  16  19
ATOM     19  C   LIG d   1       4.286  -1.835  -2.364  0.00  0.00    -0.051 C 
ATOM     20  H   LIG d   1       3.335  -2.187  -1.965  0.00  0.00     0.027 H 
ATOM     21  H   LIG d   1       5.046  -1.875  -1.584  0.00  0.00     0.027 H 
BRANCH  19  22
ATOM     22  C   LIG d   1       4.131  -0.393  -2.852  0.00  0.00    -0.047 C 
ATOM     23  H   LIG d   1       4.809  -0.216  -3.685  0.00  0.00     0.029 H 
BRANCH  22  24
ATOM     24  C   LIG d   1       2.689  -0.161  -3.310  0.00  0.00    -0.063 C 
ATOM     25  H   LIG d   1       2.691   0.380  -4.256  0.00  0.00     0.023 H 
ATOM     26  H   LIG d   1       2.191  -1.122  -3.441  0.00  0.00     0.023 H 
ATOM     27  H   LIG d   1       2.159   0.424  -2.558  0.00  0.00     0.023 H 
ENDBRANCH  22  24
BRANCH  22  28
ATOM     28  C   LIG d   1       4.464   0.570  -1.710  0.00  0.00    -0.063 C 
ATOM     29  H   LIG d   1       4.098   0.158  -0.770  0.00  0.00     0.023 H 
ATOM     30  H   LIG d   1       5.544   0.705  -1.652  0.00  0.00     0.023 H 
ATOM     31  H   LIG d   1       3.986   1.532  -1.895  0.00  0.00     0.023 H 
ENDBRANCH  22  28
ENDBRANCH  19  22
ENDBRANCH  16  19
ENDBRANCH  13  16
ENDBRANCH   7  13
ENDBRANCH   4   7
ENDBRANCH   1   3
BRANCH   1  32
ATOM     32  C   LIG d   1       7.112   1.447  -8.702  0.00  0.00    -0.020 C 
ATOM     33  H   LIG d   1       7.396   0.539  -9.235  0.00  0.00     0.032 H 
BRANCH  32  34
ATOM     34  C   LIG d   1       5.668   1.812  -9.054  0.00  0.00    -0.060 C 
ATOM     35  H   LIG d   1       5.448   1.484 -10.071  0.00  0.00     0.023 H 
ATOM     36  H   LIG d   1       4.989   1.321  -8.359  0.00  0.00     0.023 H 
ATOM     37  H   LIG d   1       5.540   2.893  -8.987  0.00  0.00     0.023 H 
ENDBRANCH  32  34
BRANCH  32  38
ATOM     38  C   LIG d   1       8.042   2.591  -9.111  0.00  0.00    -0.060 C 
ATOM     39  H   LIG d   1       7.576   3.544  -8.860  0.00  0.00     0.023 H 
ATOM     40  H   LIG d   1       8.988   2.498  -8.578  0.00  0.00     0.023 H 
ATOM     41  H   LIG d   1       8.222   2.546 -10.184  0.00  0.00     0.023 H 
ENDBRANCH  32  38
ENDBRANCH   1  32
BRANCH   1  42
ATOM     42  N   LIG d   1       8.562   1.598  -6.738  0.00  0.00    -0.302 N 
ATOM     43  C   LIG d   1       8.737   2.066  -5.486  0.00  0.00     0.234 C 
ATOM     44  O   LIG d   1       7.788   2.166  -4.738  0.00  0.00    -0.274 OA
ATOM     45  H   LIG d   1       9.320   1.518  -7.337  0.00  0.00     0.149 HD
BRANCH  43  46
ATOM     46  C   LIG d   1      10.112   2.465  -5.017  0.00  0.00     0.104 C 
ATOM     47  H   LIG d   1      10.481   1.727  -4.304  0.00  0.00     0.059 H 
ATOM     48  H   LIG d   1      10.788   2.514  -5.870  0.00  0.00     0.059 H 
BRANCH  46  49
ATOM     49  N   LIG d   1      10.046   3.778  -4.370  0.00  0.00    -0.290 N 
ATOM     50  C   LIG d   1      10.332   3.892  -3.053  0.00  0.00     0.262 A 
ATOM     51  C   LIG d   1      10.254   5.232  -2.457  0.00  0.00     0.069 A 
ATOM     52  O   LIG d   1      10.646   2.922  -2.388  0.00  0.00    -0.267 OA
ATOM     53  C   LIG d   1       9.878   6.308  -3.291  0.00  0.00     0.082 A 
ATOM     54  C   LIG d   1      10.535   5.454  -1.108  0.00  0.00    -0.002 A 
ATOM     55  N   LIG d   1       9.610   6.065  -4.599  0.00  0.00    -0.237 NA
ATOM     56  C   LIG d   1       9.789   7.594  -2.755  0.00  0.00     0.010 A 
ATOM     57  C   LIG d   1       9.691   4.869  -5.099  0.00  0.00     0.100 A 
ATOM     58  H   LIG d   1       9.467   4.736  -6.147  0.00  0.00     0.103 H 
ATOM     59  C   LIG d   1      10.069   7.799  -1.418  0.00  0.00     0.164 A 
ATOM     60  H   LIG d   1       9.502   8.424  -3.383  0.00  0.00     0.068 H 
ATOM     61  C   LIG d   1      10.442   6.731  -0.595  0.00  0.00     0.162 A 
ATOM     62  H   LIG d   1      10.823   4.632  -0.470  0.00  0.00     0.066 H 
BRANCH  59  63
ATOM     63  O   LIG d   1       9.982   9.050  -0.898  0.00  0.00    -0.491 OA
BRANCH  63  64
ATOM     64  C   LIG d   1       8.671   9.594  -0.731  0.00  0.00     0.079 C 
ATOM     65  H   LIG d   1       8.746  10.648  -0.462  0.00  0.00     0.066 H 
ATOM     66  H   LIG d   1       8.116   9.496  -1.664  0.00  0.00     0.066 H 
ATOM     67  H   LIG d   1       8.151   9.053   0.059  0.00  0.00     0.066 H 
ENDBRANCH  63  64
ENDBRANCH  59  63
BRANCH  61  68
ATOM     68  O   LIG d   1      10.715   6.954   0.718  0.00  0.00    -0.491 OA
BRANCH  68  69
ATOM     69  C   LIG d   1      11.002   5.809   1.525  0.00  0.00     0.079 C 
ATOM     70  H   LIG d   1      11.295   6.132   2.523  0.00  0.00     0.066 H 
ATOM     71  H   LIG d   1      10.114   5.181   1.592  0.00  0.00     0.066 H 
ATOM     72  H   LIG d   1      11.815   5.241   1.072  0.00  0.00     0.066 H 
ENDBRANCH  68  69
ENDBRANCH  61  68
ENDBRANCH  46  49
ENDBRANCH  43  46
ENDBRANCH   1  42
TORSDOF 19
ENDMDL
MODEL 3
REMARK VINA RESULT:      -6.2      2.595      3.994
REMARK  19 active torsions:
REMARK  status: ('A' for Active; 'I' for Inactive)
REMARK    1  A    between atoms: C_1  and  C_2 
REMARK    2  A    between atoms: C_2  and  C_4 
REMARK    3  A    between atoms: C_2  and  N_10 
REMARK    4  A    between atoms: C_4  and  C_5 
REMARK    5  A    between atoms: C_5  and  C_6 
REMARK    6  A    between atoms: C_6  and  C_7 
REMARK    7  A    between atoms: C_7  and  C_8 
REMARK    8  A    between atoms: C_7  and  C_9 
REMARK       I    between atoms: N_10  and  C_11 
REMARK    9  A    between atoms: C_11  and  C_13 
REMARK   10  A    between atoms: C_13  and  C_15 
REMARK   11  A    between atoms: C_13  and  N_18 
REMARK   12  A    between atoms: C_15  and  C_16 
REMARK   13  A    between atoms: C_15  and  C_17 
REMARK       I    between atoms: N_18  and  C_19 
REMARK   14  A    between atoms: C_19  and  C_21 
REMARK   15  A    between atoms: C_21  and  N_22 
REMARK   16  A    between atoms: C_27  and  O_35 
REMARK   17  A    between atoms: C_28  and  O_33 
REMARK   18  A    between atoms: O_33  and  C_34 
REMARK   19  A    between atoms: O_35  and  C_36 
ROOT
ATOM      1  C   LIG d   1       4.608  -0.300  -3.881  0.00  0.00     0.102 C 
ATOM      2  H   LIG d   1       5.035  -1.283  -4.079  0.00  0.00     0.060 H 
ENDROOT
BRANCH   1   3
ATOM      3  C   LIG d   1       3.553   0.006  -4.913  0.00  0.00     0.234 C 
ATOM      4  N   LIG d   1       3.879   0.036  -6.221  0.00  0.00    -0.311 N 
ATOM      5  H   LIG d   1       4.803  -0.071  -6.493  0.00  0.00     0.149 HD
ATOM      6  O   LIG d   1       2.412   0.225  -4.567  0.00  0.00    -0.274 OA
BRANCH   4   7
ATOM      7  C   LIG d   1       2.835   0.231  -7.231  0.00  0.00     0.020 C 
ATOM      8  H   LIG d   1       1.865   0.310  -6.741  0.00  0.00     0.050 H 
BRANCH   7   9
ATOM      9  C   LIG d   1       2.826  -0.960  -8.191  0.00  0.00    -0.047 C 
ATOM     10  H   LIG d   1       3.291  -1.819  -7.708  0.00  0.00     0.025 H 
ATOM     11  H   LIG d   1       1.798  -1.204  -8.458  0.00  0.00     0.025 H 
ATOM     12  H   LIG d   1       3.385  -0.704  -9.093  0.00  0.00     0.025 H 
ENDBRANCH   7   9
BRANCH   7  13
ATOM     13  C   LIG d   1       3.118   1.515  -8.014  0.00  0.00    -0.035 C 
ATOM     14  H   LIG d   1       2.540   2.335  -7.588  0.00  0.00     0.028 H 
ATOM     15  H   LIG d   1       4.182   1.750  -7.954  0.00  0.00     0.028 H 
BRANCH  13  16
ATOM     16  C   LIG d   1       2.722   1.316  -9.478  0.00  0.00    -0.051 C 
ATOM     17  H   LIG d   1       2.582   0.253  -9.676  0.00  0.00     0.027 H 
ATOM     18  H   LIG d   1       1.792   1.848  -9.678  0.00  0.00     0.027 H 
BRANCH  16  19
ATOM     19  C   LIG d   1       3.828   1.862 -10.384  0.00  0.00    -0.051 C 
ATOM     20  H   LIG d   1       3.429   2.668 -10.999  0.00  0.00     0.027 H 
ATOM     21  H   LIG d   1       4.645   2.242  -9.771  0.00  0.00     0.027 H 
BRANCH  19  22
ATOM     22  C   LIG d   1       4.347   0.740 -11.286  0.00  0.00    -0.047 C 
ATOM     23  H   LIG d   1       4.692   1.163 -12.229  0.00  0.00     0.029 H 
BRANCH  22  24
ATOM     24  C   LIG d   1       5.508   0.023 -10.593  0.00  0.00    -0.063 C 
ATOM     25  H   LIG d   1       5.119  -0.609  -9.795  0.00  0.00     0.023 H 
ATOM     26  H   LIG d   1       6.040  -0.592 -11.319  0.00  0.00     0.023 H 
ATOM     27  H   LIG d   1       6.191   0.762 -10.172  0.00  0.00     0.023 H 
ENDBRANCH  22  24
BRANCH  22  28
ATOM     28  C   LIG d   1       3.220  -0.259 -11.557  0.00  0.00    -0.063 C 
ATOM     29  H   LIG d   1       3.376  -1.154 -10.954  0.00  0.00     0.023 H 
ATOM     30  H   LIG d   1       2.264   0.193 -11.296  0.00  0.00     0.023 H 
ATOM     31  H   LIG d   1       3.219  -0.528 -12.614  0.00  0.00     0.023 H 
ENDBRANCH  22  28
ENDBRANCH  19  22
ENDBRANCH  16  19
ENDBRANCH  13  16
ENDBRANCH   7  13
ENDBRANCH   4   7
ENDBRANCH   1   3
BRANCH   1  32
ATOM     32  C   LIG d   1       3.976  -0.290  -2.488  0.00  0.00    -0.020 C 
ATOM     33  H   LIG d   1       2.891  -0.238  -2.580  0.00  0.00     0.032 H 
BRANCH  32  34
ATOM     34  C   LIG d   1       4.362  -1.571  -1.743  0.00  0.00    -0.060 C 
ATOM     35  H   LIG d   1       3.862  -2.423  -2.205  0.00  0.00     0.023 H 
ATOM     36  H   LIG d   1       5.441  -1.710  -1.795  0.00  0.00     0.023 H 
ATOM     37  H   LIG d   1       4.055  -1.491  -0.701  0.00  0.00     0.023 H 
ENDBRANCH  32  34
BRANCH  32  38
ATOM     38  C   LIG d   1       4.481   0.925  -1.707  0.00  0.00    -0.060 C 
ATOM     39  H   LIG d   1       4.920   0.595  -0.766  0.00  0.00     0.023 H 
ATOM     40  H   LIG d   1       5.233   1.449  -2.296  0.00  0.00     0.023 H 
ATOM     41  H   LIG d   1       3.647   1.596  -1.502  0.00  0.00     0.023 H 
ENDBRANCH  32  38
ENDBRANCH   1  32
BRANCH   1  42
ATOM     42  N   LIG d   1       5.664   0.713  -3.947  0.00  0.00    -0.302 N 
ATOM     43  C   LIG d   1       6.959   0.342  -3.895  0.00  0.00     0.234 C 
ATOM     44  O   LIG d   1       7.249  -0.831  -3.795  0.00  0.00    -0.274 OA
ATOM     45  H   LIG d   1       5.431   1.651  -4.026  0.00  0.00     0.149 HD
BRANCH  43  46
ATOM     46  C   LIG d   1       8.044   1.385  -3.962  0.00  0.00     0.104 C 
ATOM     47  H   LIG d   1       7.743   2.261  -3.386  0.00  0.00     0.059 H 
ATOM     48  H   LIG d   1       8.965   0.977  -3.548  0.00  0.00     0.059 H 
BRANCH  46  49
ATOM     49  N   LIG d   1       8.264   1.771  -5.358  0.00  0.00    -0.290 N 
ATOM     50  C   LIG d   1       8.961   2.895  -5.641  0.00  0.00     0.262 A 
ATOM     51  C   LIG d   1       9.156   3.233  -7.058  0.00  0.00     0.069 A 
ATOM     52  O   LIG d   1       9.413   3.599  -4.756  0.00  0.00    -0.267 OA
ATOM     53  C   LIG d   1       8.597   2.370  -8.027  0.00  0.00     0.082 A 
ATOM     54  C   LIG d   1       9.864   4.368  -7.452  0.00  0.00    -0.002 A 
ATOM     55  N   LIG d   1       7.913   1.272  -7.617  0.00  0.00    -0.237 NA
ATOM     56  C   LIG d   1       8.759   2.664  -9.382  0.00  0.00     0.010 A 
ATOM     57  C   LIG d   1       7.761   0.998  -6.357  0.00  0.00     0.100 A 
ATOM     58  H   LIG d   1       7.207   0.110  -6.089  0.00  0.00     0.103 H 
ATOM     59  C   LIG d   1       9.462   3.792  -9.758  0.00  0.00     0.164 A 
ATOM     60  H   LIG d   1       8.336   2.013 -10.132  0.00  0.00     0.068 H 
ATOM     61  C   LIG d   1      10.014   4.643  -8.795  0.00  0.00     0.162 A 
ATOM     62  H   LIG d   1      10.292   5.027  -6.712  0.00  0.00     0.066 H 
BRANCH  59  63
ATOM     63  O   LIG d   1       9.618   4.077 -11.077  0.00  0.00    -0.491 OA
BRANCH  63  64
ATOM     64  C   LIG d   1      10.495   3.231 -11.825  0.00  0.00     0.079 C 
ATOM     65  H   LIG d   1      10.532   3.571 -12.860  0.00  0.00     0.066 H 
ATOM     66  H   LIG d   1      11.494   3.271 -11.393  0.00  0.00     0.066 H 
ATOM     67  H   LIG d   1      10.125   2.206 -11.791  0.00  0.00     0.066 H 
ENDBRANCH  63  64
ENDBRANCH  59  63
BRANCH  61  68
ATOM     68  O   LIG d   1      10.704   5.749  -9.186  0.00  0.00    -0.491 OA
BRANCH  68  69
ATOM     69  C   LIG d   1      10.573   6.916  -8.372  0.00  0.00     0.079 C 
ATOM     70  H   LIG d   1       9.832   7.584  -8.811  0.00  0.00     0.066 H 
ATOM     71  H   LIG d   1      10.253   6.627  -7.371  0.00  0.00     0.066 H 
ATOM     72  H   LIG d   1      11.534   7.427  -8.313  0.00  0.00     0.066 H 
ENDBRANCH  68  69
ENDBRANCH  61  68
ENDBRANCH  46  49
ENDBRANCH  43  46
ENDBRANCH   1  42
TORSDOF 19
ENDMDL
MODEL 4
REMARK VINA RESULT:      -6.2      5.430     11.210
REMARK  19 active torsions:
REMARK  status: ('A' for Active; 'I' for Inactive)
REMARK    1  A    between atoms: C_1  and  C_2 
REMARK    2  A    between atoms: C_2  and  C_4 
REMARK    3  A    between atoms: C_2  and  N_10 
REMARK    4  A    between atoms: C_4  and  C_5 
REMARK    5  A    between atoms: C_5  and  C_6 
REMARK    6  A    between atoms: C_6  and  C_7 
REMARK    7  A    between atoms: C_7  and  C_8 
REMARK    8  A    between atoms: C_7  and  C_9 
REMARK       I    between atoms: N_10  and  C_11 
REMARK    9  A    between atoms: C_11  and  C_13 
REMARK   10  A    between atoms: C_13  and  C_15 
REMARK   11  A    between atoms: C_13  and  N_18 
REMARK   12  A    between atoms: C_15  and  C_16 
REMARK   13  A    between atoms: C_15  and  C_17 
REMARK       I    between atoms: N_18  and  C_19 
REMARK   14  A    between atoms: C_19  and  C_21 
REMARK   15  A    between atoms: C_21  and  N_22 
REMARK   16  A    between atoms: C_27  and  O_35 
REMARK   17  A    between atoms: C_28  and  O_33 
REMARK   18  A    between atoms: O_33  and  C_34 
REMARK   19  A    between atoms: O_35  and  C_36 
ROOT
ATOM      1  C   LIG d   1       3.692  -0.871  -8.446  0.00  0.00     0.102 C 
ATOM      2  H   LIG d   1       4.640  -0.839  -8.983  0.00  0.00     0.060 H 
ENDROOT
BRANCH   1   3
ATOM      3  C   LIG d   1       3.936  -0.617  -6.981  0.00  0.00     0.234 C 
ATOM      4  N   LIG d   1       4.589  -1.533  -6.238  0.00  0.00    -0.311 N 
ATOM      5  H   LIG d   1       4.840  -2.384  -6.628  0.00  0.00     0.149 HD
ATOM      6  O   LIG d   1       3.546   0.411  -6.471  0.00  0.00    -0.274 OA
BRANCH   4   7
ATOM      7  C   LIG d   1       4.917  -1.243  -4.840  0.00  0.00     0.020 C 
ATOM      8  H   LIG d   1       4.489  -0.281  -4.558  0.00  0.00     0.050 H 
BRANCH   7   9
ATOM      9  C   LIG d   1       6.437  -1.193  -4.674  0.00  0.00    -0.047 C 
ATOM     10  H   LIG d   1       6.868  -2.147  -4.976  0.00  0.00     0.025 H 
ATOM     11  H   LIG d   1       6.845  -0.396  -5.295  0.00  0.00     0.025 H 
ATOM     12  H   LIG d   1       6.683  -0.999  -3.628  0.00  0.00     0.025 H 
ENDBRANCH   7   9
BRANCH   7  13
ATOM     13  C   LIG d   1       4.342  -2.341  -3.943  0.00  0.00    -0.035 C 
ATOM     14  H   LIG d   1       3.526  -2.843  -4.461  0.00  0.00     0.028 H 
ATOM     15  H   LIG d   1       5.125  -3.064  -3.708  0.00  0.00     0.028 H 
BRANCH  13  16
ATOM     16  C   LIG d   1       3.818  -1.718  -2.648  0.00  0.00    -0.051 C 
ATOM     17  H   LIG d   1       3.282  -2.471  -2.072  0.00  0.00     0.027 H 
ATOM     18  H   LIG d   1       4.656  -1.341  -2.062  0.00  0.00     0.027 H 
BRANCH  16  19
ATOM     19  C   LIG d   1       2.871  -0.564  -2.985  0.00  0.00    -0.051 C 
ATOM     20  H   LIG d   1       2.869  -0.399  -4.062  0.00  0.00     0.027 H 
ATOM     21  H   LIG d   1       1.864  -0.813  -2.653  0.00  0.00     0.027 H 
BRANCH  19  22
ATOM     22  C   LIG d   1       3.343   0.707  -2.276  0.00  0.00    -0.047 C 
ATOM     23  H   LIG d   1       2.596   1.015  -1.546  0.00  0.00     0.029 H 
BRANCH  22  24
ATOM     24  C   LIG d   1       4.668   0.430  -1.562  0.00  0.00    -0.063 C 
ATOM     25  H   LIG d   1       5.452   1.051  -1.997  0.00  0.00     0.023 H 
ATOM     26  H   LIG d   1       4.566   0.663  -0.502  0.00  0.00     0.023 H 
ATOM     27  H   LIG d   1       4.932  -0.621  -1.680  0.00  0.00     0.023 H 
ENDBRANCH  22  24
BRANCH  22  28
ATOM     28  C   LIG d   1       3.542   1.821  -3.305  0.00  0.00    -0.063 C 
ATOM     29  H   LIG d   1       2.989   2.707  -2.993  0.00  0.00     0.023 H 
ATOM     30  H   LIG d   1       4.602   2.063  -3.378  0.00  0.00     0.023 H 
ATOM     31  H   LIG d   1       3.177   1.489  -4.277  0.00  0.00     0.023 H 
ENDBRANCH  22  28
ENDBRANCH  19  22
ENDBRANCH  16  19
ENDBRANCH  13  16
ENDBRANCH   7  13
ENDBRANCH   4   7
ENDBRANCH   1   3
BRANCH   1  32
ATOM     32  C   LIG d   1       2.754   0.203  -9.001  0.00  0.00    -0.020 C 
ATOM     33  H   LIG d   1       2.318   0.766  -8.176  0.00  0.00     0.032 H 
BRANCH  32  34
ATOM     34  C   LIG d   1       3.544   1.153  -9.903  0.00  0.00    -0.060 C 
ATOM     35  H   LIG d   1       2.999   1.306 -10.835  0.00  0.00     0.023 H 
ATOM     36  H   LIG d   1       3.676   2.109  -9.398  0.00  0.00     0.023 H 
ATOM     37  H   LIG d   1       4.520   0.719 -10.122  0.00  0.00     0.023 H 
ENDBRANCH  32  34
BRANCH  32  38
ATOM     38  C   LIG d   1       1.640  -0.461  -9.811  0.00  0.00    -0.060 C 
ATOM     39  H   LIG d   1       2.047  -0.836 -10.750  0.00  0.00     0.023 H 
ATOM     40  H   LIG d   1       1.220  -1.290  -9.241  0.00  0.00     0.023 H 
ATOM     41  H   LIG d   1       0.858   0.269 -10.020  0.00  0.00     0.023 H 
ENDBRANCH  32  38
ENDBRANCH   1  32
BRANCH   1  42
ATOM     42  N   LIG d   1       3.079  -2.191  -8.617  0.00  0.00    -0.302 N 
ATOM     43  C   LIG d   1       3.845  -3.254  -8.934  0.00  0.00     0.234 C 
ATOM     44  O   LIG d   1       5.042  -3.118  -9.077  0.00  0.00    -0.274 OA
ATOM     45  H   LIG d   1       2.122  -2.299  -8.503  0.00  0.00     0.149 HD
BRANCH  43  46
ATOM     46  C   LIG d   1       3.214  -4.611  -9.110  0.00  0.00     0.104 C 
ATOM     47  H   LIG d   1       2.130  -4.520  -9.039  0.00  0.00     0.059 H 
ATOM     48  H   LIG d   1       3.481  -5.012 -10.087  0.00  0.00     0.059 H 
BRANCH  46  49
ATOM     49  N   LIG d   1       3.698  -5.513  -8.062  0.00  0.00    -0.290 N 
ATOM     50  C   LIG d   1       3.917  -6.817  -8.349  0.00  0.00     0.262 A 
ATOM     51  C   LIG d   1       4.407  -7.676  -7.262  0.00  0.00     0.069 A 
ATOM     52  O   LIG d   1       3.720  -7.261  -9.465  0.00  0.00    -0.267 OA
ATOM     53  C   LIG d   1       4.607  -7.090  -5.992  0.00  0.00     0.082 A 
ATOM     54  C   LIG d   1       4.667  -9.032  -7.459  0.00  0.00    -0.002 A 
ATOM     55  N   LIG d   1       4.346  -5.768  -5.828  0.00  0.00    -0.237 NA
ATOM     56  C   LIG d   1       5.065  -7.879  -4.937  0.00  0.00     0.010 A 
ATOM     57  C   LIG d   1       3.918  -5.033  -6.810  0.00  0.00     0.100 A 
ATOM     58  H   LIG d   1       3.728  -3.987  -6.621  0.00  0.00     0.103 H 
ATOM     59  C   LIG d   1       5.318  -9.221  -5.145  0.00  0.00     0.164 A 
ATOM     60  H   LIG d   1       5.222  -7.442  -3.962  0.00  0.00     0.068 H 
ATOM     61  C   LIG d   1       5.120  -9.797  -6.404  0.00  0.00     0.162 A 
ATOM     62  H   LIG d   1       4.515  -9.482  -8.429  0.00  0.00     0.066 H 
BRANCH  59  63
ATOM     63  O   LIG d   1       5.765  -9.988  -4.116  0.00  0.00    -0.491 OA
BRANCH  63  64
ATOM     64  C   LIG d   1       4.796 -10.412  -3.155  0.00  0.00     0.079 C 
ATOM     65  H   LIG d   1       3.837  -9.943  -3.375  0.00  0.00     0.066 H 
ATOM     66  H   LIG d   1       4.690 -11.496  -3.201  0.00  0.00     0.066 H 
ATOM     67  H   LIG d   1       5.123 -10.121  -2.157  0.00  0.00     0.066 H 
ENDBRANCH  63  64
ENDBRANCH  59  63
BRANCH  61  68
ATOM     68  O   LIG d   1       5.376 -11.121  -6.588  0.00  0.00    -0.491 OA
BRANCH  68  69
ATOM     69  C   LIG d   1       4.248 -11.997  -6.648  0.00  0.00     0.079 C 
ATOM     70  H   LIG d   1       3.345 -11.444  -6.393  0.00  0.00     0.066 H 
ATOM     71  H   LIG d   1       4.155 -12.400  -7.657  0.00  0.00     0.066 H 
ATOM     72  H   LIG d   1       4.386 -12.815  -5.941  0.00  0.00     0.066 H 
ENDBRANCH  68  69
ENDBRANCH  61  68
ENDBRANCH  46  49
ENDBRANCH  43  46
ENDBRANCH   1  42
TORSDOF 19
ENDMDL
MODEL 5
REMARK VINA RESULT:      -6.2      1.897      4.221
REMARK  19 active torsions:
REMARK  status: ('A' for Active; 'I' for Inactive)
REMARK    1  A    between atoms: C_1  and  C_2 
REMARK    2  A    between atoms: C_2  and  C_4 
REMARK    3  A    between atoms: C_2  and  N_10 
REMARK    4  A    between atoms: C_4  and  C_5 
REMARK    5  A    between atoms: C_5  and  C_6 
REMARK    6  A    between atoms: C_6  and  C_7 
REMARK    7  A    between atoms: C_7  and  C_8 
REMARK    8  A    between atoms: C_7  and  C_9 
REMARK       I    between atoms: N_10  and  C_11 
REMARK    9  A    between atoms: C_11  and  C_13 
REMARK   10  A    between atoms: C_13  and  C_15 
REMARK   11  A    between atoms: C_13  and  N_18 
REMARK   12  A    between atoms: C_15  and  C_16 
REMARK   13  A    between atoms: C_15  and  C_17 
REMARK       I    between atoms: N_18  and  C_19 
REMARK   14  A    between atoms: C_19  and  C_21 
REMARK   15  A    between atoms: C_21  and  N_22 
REMARK   16  A    between atoms: C_27  and  O_35 
REMARK   17  A    between atoms: C_28  and  O_33 
REMARK   18  A    between atoms: O_33  and  C_34 
REMARK   19  A    between atoms: O_35  and  C_36 
ROOT
ATOM      1  C   LIG d   1       3.851   0.207  -7.029  0.00  0.00     0.102 C 
ATOM      2  H   LIG d   1       3.700   1.158  -7.538  0.00  0.00     0.060 H 
ENDROOT
BRANCH   1   3
ATOM      3  C   LIG d   1       3.179   0.246  -5.681  0.00  0.00     0.234 C 
ATOM      4  N   LIG d   1       3.922   0.346  -4.561  0.00  0.00    -0.311 N 
ATOM      5  H   LIG d   1       4.890   0.321  -4.617  0.00  0.00     0.149 HD
ATOM      6  O   LIG d   1       1.971   0.190  -5.604  0.00  0.00    -0.274 OA
BRANCH   4   7
ATOM      7  C   LIG d   1       3.267   0.488  -3.258  0.00  0.00     0.020 C 
ATOM      8  H   LIG d   1       2.386   1.121  -3.360  0.00  0.00     0.050 H 
BRANCH   7   9
ATOM      9  C   LIG d   1       4.241   1.128  -2.266  0.00  0.00    -0.047 C 
ATOM     10  H   LIG d   1       4.501   0.404  -1.493  0.00  0.00     0.025 H 
ATOM     11  H   LIG d   1       5.144   1.438  -2.791  0.00  0.00     0.025 H 
ATOM     12  H   LIG d   1       3.772   1.998  -1.805  0.00  0.00     0.025 H 
ENDBRANCH   7   9
BRANCH   7  13
ATOM     13  C   LIG d   1       2.849  -0.891  -2.744  0.00  0.00    -0.035 C 
ATOM     14  H   LIG d   1       2.175  -0.773  -1.896  0.00  0.00     0.028 H 
ATOM     15  H   LIG d   1       2.341  -1.436  -3.541  0.00  0.00     0.028 H 
BRANCH  13  16
ATOM     16  C   LIG d   1       4.091  -1.668  -2.305  0.00  0.00    -0.051 C 
ATOM     17  H   LIG d   1       4.952  -1.001  -2.292  0.00  0.00     0.027 H 
ATOM     18  H   LIG d   1       3.931  -2.075  -1.307  0.00  0.00     0.027 H 
BRANCH  16  19
ATOM     19  C   LIG d   1       4.348  -2.813  -3.287  0.00  0.00    -0.051 C 
ATOM     20  H   LIG d   1       4.555  -3.728  -2.733  0.00  0.00     0.027 H 
ATOM     21  H   LIG d   1       3.469  -2.959  -3.914  0.00  0.00     0.027 H 
BRANCH  19  22
ATOM     22  C   LIG d   1       5.551  -2.468  -4.168  0.00  0.00    -0.047 C 
ATOM     23  H   LIG d   1       5.263  -1.712  -4.898  0.00  0.00     0.029 H 
BRANCH  22  24
ATOM     24  C   LIG d   1       6.685  -1.926  -3.294  0.00  0.00    -0.063 C 
ATOM     25  H   LIG d   1       7.509  -2.639  -3.285  0.00  0.00     0.023 H 
ATOM     26  H   LIG d   1       7.031  -0.974  -3.696  0.00  0.00     0.023 H 
ATOM     27  H   LIG d   1       6.320  -1.780  -2.276  0.00  0.00     0.023 H 
ENDBRANCH  22  24
BRANCH  22  28
ATOM     28  C   LIG d   1       6.028  -3.726  -4.897  0.00  0.00    -0.063 C 
ATOM     29  H   LIG d   1       7.099  -3.853  -4.740  0.00  0.00     0.023 H 
ATOM     30  H   LIG d   1       5.498  -4.594  -4.507  0.00  0.00     0.023 H 
ATOM     31  H   LIG d   1       5.827  -3.625  -5.964  0.00  0.00     0.023 H 
ENDBRANCH  22  28
ENDBRANCH  19  22
ENDBRANCH  16  19
ENDBRANCH  13  16
ENDBRANCH   7  13
ENDBRANCH   4   7
ENDBRANCH   1   3
BRANCH   1  32
ATOM     32  C   LIG d   1       3.246  -0.922  -7.867  0.00  0.00    -0.020 C 
ATOM     33  H   LIG d   1       2.257  -1.171  -7.482  0.00  0.00     0.032 H 
BRANCH  32  34
ATOM     34  C   LIG d   1       3.124  -0.466  -9.323  0.00  0.00    -0.060 C 
ATOM     35  H   LIG d   1       4.119  -0.299  -9.735  0.00  0.00     0.023 H 
ATOM     36  H   LIG d   1       2.615  -1.235  -9.903  0.00  0.00     0.023 H 
ATOM     37  H   LIG d   1       2.552   0.461  -9.367  0.00  0.00     0.023 H 
ENDBRANCH  32  34
BRANCH  32  38
ATOM     38  C   LIG d   1       4.149  -2.154  -7.792  0.00  0.00    -0.060 C 
ATOM     39  H   LIG d   1       4.194  -2.509  -6.762  0.00  0.00     0.023 H 
ATOM     40  H   LIG d   1       3.745  -2.940  -8.430  0.00  0.00     0.023 H 
ATOM     41  H   LIG d   1       5.151  -1.892  -8.129  0.00  0.00     0.023 H 
ENDBRANCH  32  38
ENDBRANCH   1  32
BRANCH   1  42
ATOM     42  N   LIG d   1       5.286  -0.031  -6.853  0.00  0.00    -0.302 N 
ATOM     43  C   LIG d   1       6.182   0.748  -7.491  0.00  0.00     0.234 C 
ATOM     44  O   LIG d   1       5.799   1.646  -8.211  0.00  0.00    -0.274 OA
ATOM     45  H   LIG d   1       5.591  -0.750  -6.277  0.00  0.00     0.149 HD
BRANCH  43  46
ATOM     46  C   LIG d   1       7.657   0.503  -7.310  0.00  0.00     0.104 C 
ATOM     47  H   LIG d   1       7.819  -0.530  -7.000  0.00  0.00     0.059 H 
ATOM     48  H   LIG d   1       8.174   0.684  -8.251  0.00  0.00     0.059 H 
BRANCH  46  49
ATOM     49  N   LIG d   1       8.179   1.408  -6.283  0.00  0.00    -0.290 N 
ATOM     50  C   LIG d   1       8.831   2.535  -6.650  0.00  0.00     0.262 A 
ATOM     51  C   LIG d   1       9.330   3.409  -5.580  0.00  0.00     0.069 A 
ATOM     52  O   LIG d   1       8.995   2.816  -7.823  0.00  0.00    -0.267 OA
ATOM     53  C   LIG d   1       9.105   3.013  -4.242  0.00  0.00     0.082 A 
ATOM     54  C   LIG d   1      10.010   4.595  -5.856  0.00  0.00    -0.002 A 
ATOM     55  N   LIG d   1       8.440   1.854  -4.001  0.00  0.00    -0.237 NA
ATOM     56  C   LIG d   1       9.570   3.817  -3.201  0.00  0.00     0.010 A 
ATOM     57  C   LIG d   1       8.008   1.105  -4.969  0.00  0.00     0.100 A 
ATOM     58  H   LIG d   1       7.485   0.194  -4.716  0.00  0.00     0.103 H 
ATOM     59  C   LIG d   1      10.243   4.989  -3.489  0.00  0.00     0.164 A 
ATOM     60  H   LIG d   1       9.405   3.525  -2.175  0.00  0.00     0.068 H 
ATOM     61  C   LIG d   1      10.462   5.378  -4.815  0.00  0.00     0.162 A 
ATOM     62  H   LIG d   1      10.182   4.899  -6.878  0.00  0.00     0.066 H 
BRANCH  59  63
ATOM     63  O   LIG d   1      10.695   5.771  -2.475  0.00  0.00    -0.491 OA
BRANCH  63  64
ATOM     64  C   LIG d   1       9.748   6.645  -1.858  0.00  0.00     0.079 C 
ATOM     65  H   LIG d   1       9.409   7.384  -2.584  0.00  0.00     0.066 H 
ATOM     66  H   LIG d   1       8.897   6.066  -1.503  0.00  0.00     0.066 H 
ATOM     67  H   LIG d   1      10.218   7.153  -1.015  0.00  0.00     0.066 H 
ENDBRANCH  63  64
ENDBRANCH  59  63
BRANCH  61  68
ATOM     68  O   LIG d   1      11.126   6.536  -5.078  0.00  0.00    -0.491 OA
BRANCH  68  69
ATOM     69  C   LIG d   1      10.409   7.547  -5.789  0.00  0.00     0.079 C 
ATOM     70  H   LIG d   1       9.477   7.131  -6.170  0.00  0.00     0.066 H 
ATOM     71  H   LIG d   1      10.190   8.377  -5.118  0.00  0.00     0.066 H 
ATOM     72  H   LIG d   1      11.015   7.904  -6.622  0.00  0.00     0.066 H 
ENDBRANCH  68  69
ENDBRANCH  61  68
ENDBRANCH  46  49
ENDBRANCH  43  46
ENDBRANCH   1  42
TORSDOF 19
ENDMDL
MODEL 6
REMARK VINA RESULT:      -6.2      5.234     11.778
REMARK  19 active torsions:
REMARK  status: ('A' for Active; 'I' for Inactive)
REMARK    1  A    between atoms: C_1  and  C_2 
REMARK    2  A    between atoms: C_2  and  C_4 
REMARK    3  A    between atoms: C_2  and  N_10 
REMARK    4  A    between atoms: C_4  and  C_5 
REMARK    5  A    between atoms: C_5  and  C_6 
REMARK    6  A    between atoms: C_6  and  C_7 
REMARK    7  A    between atoms: C_7  and  C_8 
REMARK    8  A    between atoms: C_7  and  C_9 
REMARK       I    between atoms: N_10  and  C_11 
REMARK    9  A    between atoms: C_11  and  C_13 
REMARK   10  A    between atoms: C_13  and  C_15 
REMARK   11  A    between atoms: C_13  and  N_18 
REMARK   12  A    between atoms: C_15  and  C_16 
REMARK   13  A    between atoms: C_15  and  C_17 
REMARK       I    between atoms: N_18  and  C_19 
REMARK   14  A    between atoms: C_19  and  C_21 
REMARK   15  A    between atoms: C_21  and  N_22 
REMARK   16  A    between atoms: C_27  and  O_35 
REMARK   17  A    between atoms: C_28  and  O_33 
REMARK   18  A    between atoms: O_33  and  C_34 
REMARK   19  A    between atoms: O_35  and  C_36 
ROOT
ATOM      1  C   LIG d   1       4.064  -0.715  -8.004  0.00  0.00     0.102 C 
ATOM      2  H   LIG d   1       4.780  -0.216  -8.657  0.00  0.00     0.060 H 
ENDROOT
BRANCH   1   3
ATOM      3  C   LIG d   1       4.612  -0.761  -6.601  0.00  0.00     0.234 C 
ATOM      4  N   LIG d   1       4.354  -1.824  -5.812  0.00  0.00    -0.311 N 
ATOM      5  H   LIG d   1       3.760  -2.525  -6.122  0.00  0.00     0.149 HD
ATOM      6  O   LIG d   1       5.284   0.156  -6.182  0.00  0.00    -0.274 OA
BRANCH   4   7
ATOM      7  C   LIG d   1       4.970  -1.918  -4.486  0.00  0.00     0.020 C 
ATOM      8  H   LIG d   1       5.354  -0.941  -4.193  0.00  0.00     0.050 H 
BRANCH   7   9
ATOM      9  C   LIG d   1       6.121  -2.925  -4.529  0.00  0.00    -0.047 C 
ATOM     10  H   LIG d   1       7.017  -2.437  -4.912  0.00  0.00     0.025 H 
ATOM     11  H   LIG d   1       6.313  -3.302  -3.524  0.00  0.00     0.025 H 
ATOM     12  H   LIG d   1       5.853  -3.756  -5.183  0.00  0.00     0.025 H 
ENDBRANCH   7   9
BRANCH   7  13
ATOM     13  C   LIG d   1       3.925  -2.382  -3.470  0.00  0.00    -0.035 C 
ATOM     14  H   LIG d   1       3.094  -2.853  -3.994  0.00  0.00     0.028 H 
ATOM     15  H   LIG d   1       4.378  -3.100  -2.785  0.00  0.00     0.028 H 
BRANCH  13  16
ATOM     16  C   LIG d   1       3.412  -1.176  -2.680  0.00  0.00    -0.051 C 
ATOM     17  H   LIG d   1       3.137  -0.379  -3.370  0.00  0.00     0.027 H 
ATOM     18  H   LIG d   1       2.541  -1.469  -2.095  0.00  0.00     0.027 H 
BRANCH  16  19
ATOM     19  C   LIG d   1       4.513  -0.679  -1.740  0.00  0.00    -0.051 C 
ATOM     20  H   LIG d   1       4.237  -0.897  -0.709  0.00  0.00     0.027 H 
ATOM     21  H   LIG d   1       5.450  -1.181  -1.980  0.00  0.00     0.027 H 
BRANCH  19  22
ATOM     22  C   LIG d   1       4.686   0.832  -1.912  0.00  0.00    -0.047 C 
ATOM     23  H   LIG d   1       4.887   1.288  -0.944  0.00  0.00     0.029 H 
BRANCH  22  24
ATOM     24  C   LIG d   1       5.857   1.107  -2.858  0.00  0.00    -0.063 C 
ATOM     25  H   LIG d   1       5.520   1.008  -3.891  0.00  0.00     0.023 H 
ATOM     26  H   LIG d   1       6.229   2.118  -2.692  0.00  0.00     0.023 H 
ATOM     27  H   LIG d   1       6.655   0.389  -2.666  0.00  0.00     0.023 H 
ENDBRANCH  22  24
BRANCH  22  28
ATOM     28  C   LIG d   1       3.405   1.428  -2.500  0.00  0.00    -0.063 C 
ATOM     29  H   LIG d   1       2.611   0.681  -2.472  0.00  0.00     0.023 H 
ATOM     30  H   LIG d   1       3.107   2.297  -1.915  0.00  0.00     0.023 H 
ATOM     31  H   LIG d   1       3.584   1.728  -3.533  0.00  0.00     0.023 H 
ENDBRANCH  22  28
ENDBRANCH  19  22
ENDBRANCH  16  19
ENDBRANCH  13  16
ENDBRANCH   7  13
ENDBRANCH   4   7
ENDBRANCH   1   3
BRANCH   1  32
ATOM     32  C   LIG d   1       2.743   0.057  -8.010  0.00  0.00    -0.020 C 
ATOM     33  H   LIG d   1       2.266  -0.030  -7.034  0.00  0.00     0.032 H 
BRANCH  32  34
ATOM     34  C   LIG d   1       3.015   1.532  -8.314  0.00  0.00    -0.060 C 
ATOM     35  H   LIG d   1       2.172   2.133  -7.973  0.00  0.00     0.023 H 
ATOM     36  H   LIG d   1       3.920   1.848  -7.797  0.00  0.00     0.023 H 
ATOM     37  H   LIG d   1       3.144   1.663  -9.388  0.00  0.00     0.023 H 
ENDBRANCH  32  34
BRANCH  32  38
ATOM     38  C   LIG d   1       1.819  -0.523  -9.083  0.00  0.00    -0.060 C 
ATOM     39  H   LIG d   1       2.286  -1.401  -9.530  0.00  0.00     0.023 H 
ATOM     40  H   LIG d   1       0.869  -0.808  -8.630  0.00  0.00     0.023 H 
ATOM     41  H   LIG d   1       1.643   0.227  -9.854  0.00  0.00     0.023 H 
ENDBRANCH  32  38
ENDBRANCH   1  32
BRANCH   1  42
ATOM     42  N   LIG d   1       3.835  -2.080  -8.484  0.00  0.00    -0.302 N 
ATOM     43  C   LIG d   1       4.650  -2.612  -9.417  0.00  0.00     0.234 C 
ATOM     44  O   LIG d   1       5.574  -1.960  -9.858  0.00  0.00    -0.274 OA
ATOM     45  H   LIG d   1       3.097  -2.600  -8.131  0.00  0.00     0.149 HD
BRANCH  43  46
ATOM     46  C   LIG d   1       4.415  -4.016  -9.910  0.00  0.00     0.104 C 
ATOM     47  H   LIG d   1       5.156  -4.263 -10.671  0.00  0.00     0.059 H 
ATOM     48  H   LIG d   1       4.503  -4.713  -9.078  0.00  0.00     0.059 H 
BRANCH  46  49
ATOM     49  N   LIG d   1       3.072  -4.111 -10.488  0.00  0.00    -0.290 N 
ATOM     50  C   LIG d   1       2.190  -5.008  -9.992  0.00  0.00     0.262 A 
ATOM     51  C   LIG d   1       0.856  -5.058 -10.605  0.00  0.00     0.069 A 
ATOM     52  O   LIG d   1       2.488  -5.744  -9.068  0.00  0.00    -0.267 OA
ATOM     53  C   LIG d   1       0.585  -4.177 -11.676  0.00  0.00     0.082 A 
ATOM     54  C   LIG d   1      -0.125  -5.945 -10.161  0.00  0.00    -0.002 A 
ATOM     55  N   LIG d   1       1.557  -3.324 -12.089  0.00  0.00    -0.237 NA
ATOM     56  C   LIG d   1      -0.670  -4.202 -12.285  0.00  0.00     0.010 A 
ATOM     57  C   LIG d   1       2.726  -3.300 -11.523  0.00  0.00     0.100 A 
ATOM     58  H   LIG d   1       3.459  -2.600 -11.894  0.00  0.00     0.103 H 
ATOM     59  C   LIG d   1      -1.631  -5.086 -11.835  0.00  0.00     0.164 A 
ATOM     60  H   LIG d   1      -0.888  -3.533 -13.104  0.00  0.00     0.068 H 
ATOM     61  C   LIG d   1      -1.360  -5.956 -10.774  0.00  0.00     0.162 A 
ATOM     62  H   LIG d   1       0.081  -6.619  -9.342  0.00  0.00     0.066 H 
BRANCH  59  63
ATOM     63  O   LIG d   1      -2.853  -5.109 -12.429  0.00  0.00    -0.491 OA
BRANCH  63  64
ATOM     64  C   LIG d   1      -3.610  -3.897 -12.405  0.00  0.00     0.079 C 
ATOM     65  H   LIG d   1      -3.266  -3.271 -11.581  0.00  0.00     0.066 H 
ATOM     66  H   LIG d   1      -3.475  -3.366 -13.346  0.00  0.00     0.066 H 
ATOM     67  H   LIG d   1      -4.666  -4.131 -12.268  0.00  0.00     0.066 H 
ENDBRANCH  63  64
ENDBRANCH  59  63
BRANCH  61  68
ATOM     68  O   LIG d   1      -2.321  -6.819 -10.346  0.00  0.00    -0.491 OA
BRANCH  68  69
ATOM     69  C   LIG d   1      -3.042  -6.452  -9.167  0.00  0.00     0.079 C 
ATOM     70  H   LIG d   1      -3.911  -7.100  -9.057  0.00  0.00     0.066 H 
ATOM     71  H   LIG d   1      -2.395  -6.561  -8.297  0.00  0.00     0.066 H 
ATOM     72  H   LIG d   1      -3.369  -5.416  -9.249  0.00  0.00     0.066 H 
ENDBRANCH  68  69
ENDBRANCH  61  68
ENDBRANCH  46  49
ENDBRANCH  43  46
ENDBRANCH   1  42
TORSDOF 19
ENDMDL
MODEL 7
REMARK VINA RESULT:      -6.0      4.894      9.084
REMARK  19 active torsions:
REMARK  status: ('A' for Active; 'I' for Inactive)
REMARK    1  A    between atoms: C_1  and  C_2 
REMARK    2  A    between atoms: C_2  and  C_4 
REMARK    3  A    between atoms: C_2  and  N_10 
REMARK    4  A    between atoms: C_4  and  C_5 
REMARK    5  A    between atoms: C_5  and  C_6 
REMARK    6  A    between atoms: C_6  and  C_7 
REMARK    7  A    between atoms: C_7  and  C_8 
REMARK    8  A    between atoms: C_7  and  C_9 
REMARK       I    between atoms: N_10  and  C_11 
REMARK    9  A    between atoms: C_11  and  C_13 
REMARK   10  A    between atoms: C_13  and  C_15 
REMARK   11  A    between atoms: C_13  and  N_18 
REMARK   12  A    between atoms: C_15  and  C_16 
REMARK   13  A    between atoms: C_15  and  C_17 
REMARK       I    between atoms: N_18  and  C_19 
REMARK   14  A    between atoms: C_19  and  C_21 
REMARK   15  A    between atoms: C_21  and  N_22 
REMARK   16  A    between atoms: C_27  and  O_35 
REMARK   17  A    between atoms: C_28  and  O_33 
REMARK   18  A    between atoms: O_33  and  C_34 
REMARK   19  A    between atoms: O_35  and  C_36 
ROOT
ATOM      1  C   LIG d   1       4.042  -0.137  -3.904  0.00  0.00     0.102 C 
ATOM      2  H   LIG d   1       3.364  -0.604  -3.190  0.00  0.00     0.060 H 
ENDROOT
BRANCH   1   3
ATOM      3  C   LIG d   1       3.248   0.459  -5.037  0.00  0.00     0.234 C 
ATOM      4  N   LIG d   1       3.452   0.034  -6.300  0.00  0.00    -0.311 N 
ATOM      5  H   LIG d   1       4.157  -0.604  -6.489  0.00  0.00     0.149 HD
ATOM      6  O   LIG d   1       2.424   1.320  -4.812  0.00  0.00    -0.274 OA
BRANCH   4   7
ATOM      7  C   LIG d   1       2.609   0.538  -7.387  0.00  0.00     0.020 C 
ATOM      8  H   LIG d   1       1.665   0.898  -6.979  0.00  0.00     0.050 H 
BRANCH   7   9
ATOM      9  C   LIG d   1       2.336  -0.590  -8.385  0.00  0.00    -0.047 C 
ATOM     10  H   LIG d   1       1.488  -1.182  -8.041  0.00  0.00     0.025 H 
ATOM     11  H   LIG d   1       2.111  -0.164  -9.362  0.00  0.00     0.025 H 
ATOM     12  H   LIG d   1       3.217  -1.229  -8.461  0.00  0.00     0.025 H 
ENDBRANCH   7   9
BRANCH   7  13
ATOM     13  C   LIG d   1       3.328   1.685  -8.100  0.00  0.00    -0.035 C 
ATOM     14  H   LIG d   1       2.602   2.282  -8.651  0.00  0.00     0.028 H 
ATOM     15  H   LIG d   1       3.830   2.312  -7.362  0.00  0.00     0.028 H 
BRANCH  13  16
ATOM     16  C   LIG d   1       4.362   1.113  -9.071  0.00  0.00    -0.051 C 
ATOM     17  H   LIG d   1       5.351   1.490  -8.814  0.00  0.00     0.027 H 
ATOM     18  H   LIG d   1       4.358   0.025  -9.006  0.00  0.00     0.027 H 
BRANCH  16  19
ATOM     19  C   LIG d   1       4.010   1.539 -10.498  0.00  0.00    -0.051 C 
ATOM     20  H   LIG d   1       2.942   1.743 -10.563  0.00  0.00     0.027 H 
ATOM     21  H   LIG d   1       4.569   2.438 -10.757  0.00  0.00     0.027 H 
BRANCH  19  22
ATOM     22  C   LIG d   1       4.374   0.415 -11.470  0.00  0.00    -0.047 C 
ATOM     23  H   LIG d   1       4.771   0.843 -12.390  0.00  0.00     0.029 H 
BRANCH  22  24
ATOM     24  C   LIG d   1       5.431  -0.489 -10.831  0.00  0.00    -0.063 C 
ATOM     25  H   LIG d   1       5.076  -0.831  -9.859  0.00  0.00     0.023 H 
ATOM     26  H   LIG d   1       5.610  -1.350 -11.475  0.00  0.00     0.023 H 
ATOM     27  H   LIG d   1       6.358   0.070 -10.704  0.00  0.00     0.023 H 
ENDBRANCH  22  24
BRANCH  22  28
ATOM     28  C   LIG d   1       3.125  -0.409 -11.789  0.00  0.00    -0.063 C 
ATOM     29  H   LIG d   1       2.958  -1.137 -10.996  0.00  0.00     0.023 H 
ATOM     30  H   LIG d   1       2.262   0.253 -11.860  0.00  0.00     0.023 H 
ATOM     31  H   LIG d   1       3.264  -0.929 -12.737  0.00  0.00     0.023 H 
ENDBRANCH  22  28
ENDBRANCH  19  22
ENDBRANCH  16  19
ENDBRANCH  13  16
ENDBRANCH   7  13
ENDBRANCH   4   7
ENDBRANCH   1   3
BRANCH   1  32
ATOM     32  C   LIG d   1       4.840   0.965  -3.205  0.00  0.00    -0.020 C 
ATOM     33  H   LIG d   1       4.549   1.936  -3.607  0.00  0.00     0.032 H 
BRANCH  32  34
ATOM     34  C   LIG d   1       4.550   0.930  -1.702  0.00  0.00    -0.060 C 
ATOM     35  H   LIG d   1       3.568   0.490  -1.533  0.00  0.00     0.023 H 
ATOM     36  H   LIG d   1       5.309   0.332  -1.200  0.00  0.00     0.023 H 
ATOM     37  H   LIG d   1       4.566   1.945  -1.306  0.00  0.00     0.023 H 
ENDBRANCH  32  34
BRANCH  32  38
ATOM     38  C   LIG d   1       6.335   0.742  -3.441  0.00  0.00    -0.060 C 
ATOM     39  H   LIG d   1       6.901   1.547  -2.972  0.00  0.00     0.023 H 
ATOM     40  H   LIG d   1       6.633  -0.212  -3.008  0.00  0.00     0.023 H 
ATOM     41  H   LIG d   1       6.536   0.734  -4.512  0.00  0.00     0.023 H 
ENDBRANCH  32  38
ENDBRANCH   1  32
BRANCH   1  42
ATOM     42  N   LIG d   1       4.964  -1.147  -4.432  0.00  0.00    -0.302 N 
ATOM     43  C   LIG d   1       4.774  -2.450  -4.143  0.00  0.00     0.234 C 
ATOM     44  O   LIG d   1       3.840  -2.786  -3.446  0.00  0.00    -0.274 OA
ATOM     45  H   LIG d   1       5.710  -0.877  -4.989  0.00  0.00     0.149 HD
BRANCH  43  46
ATOM     46  C   LIG d   1       5.721  -3.488  -4.686  0.00  0.00     0.104 C 
ATOM     47  H   LIG d   1       6.642  -3.004  -5.014  0.00  0.00     0.059 H 
ATOM     48  H   LIG d   1       5.950  -4.214  -3.907  0.00  0.00     0.059 H 
BRANCH  46  49
ATOM     49  N   LIG d   1       5.098  -4.170  -5.823  0.00  0.00    -0.290 N 
ATOM     50  C   LIG d   1       5.011  -3.541  -7.017  0.00  0.00     0.262 A 
ATOM     51  C   LIG d   1       4.380  -4.273  -8.124  0.00  0.00     0.069 A 
ATOM     52  O   LIG d   1       5.442  -2.413  -7.171  0.00  0.00    -0.267 OA
ATOM     53  C   LIG d   1       3.900  -5.576  -7.868  0.00  0.00     0.082 A 
ATOM     54  C   LIG d   1       4.248  -3.712  -9.394  0.00  0.00    -0.002 A 
ATOM     55  N   LIG d   1       4.042  -6.098  -6.623  0.00  0.00    -0.237 NA
ATOM     56  C   LIG d   1       3.291  -6.297  -8.896  0.00  0.00     0.010 A 
ATOM     57  C   LIG d   1       4.607  -5.428  -5.666  0.00  0.00     0.100 A 
ATOM     58  H   LIG d   1       4.693  -5.895  -4.696  0.00  0.00     0.103 H 
ATOM     59  C   LIG d   1       3.165  -5.730 -10.149  0.00  0.00     0.164 A 
ATOM     60  H   LIG d   1       2.919  -7.295  -8.712  0.00  0.00     0.068 H 
ATOM     61  C   LIG d   1       3.643  -4.439 -10.399  0.00  0.00     0.162 A 
ATOM     62  H   LIG d   1       4.615  -2.716  -9.591  0.00  0.00     0.066 H 
BRANCH  59  63
ATOM     63  O   LIG d   1       2.572  -6.433 -11.149  0.00  0.00    -0.491 OA
BRANCH  63  64
ATOM     64  C   LIG d   1       1.205  -6.805 -10.958  0.00  0.00     0.079 C 
ATOM     65  H   LIG d   1       1.054  -7.112  -9.923  0.00  0.00     0.066 H 
ATOM     66  H   LIG d   1       0.563  -5.955 -11.183  0.00  0.00     0.066 H 
ATOM     67  H   LIG d   1       0.959  -7.633 -11.622  0.00  0.00     0.066 H 
ENDBRANCH  63  64
ENDBRANCH  59  63
BRANCH  61  68
ATOM     68  O   LIG d   1       3.511  -3.898 -11.640  0.00  0.00    -0.491 OA
BRANCH  68  69
ATOM     69  C   LIG d   1       4.693  -3.814 -12.440  0.00  0.00     0.079 C 
ATOM     70  H   LIG d   1       4.792  -4.720 -13.037  0.00  0.00     0.066 H 
ATOM     71  H   LIG d   1       4.624  -2.949 -13.099  0.00  0.00     0.066 H 
ATOM     72  H   LIG d   1       5.563  -3.708 -11.792  0.00  0.00     0.066 H 
ENDBRANCH  68  69
ENDBRANCH  61  68
ENDBRANCH  46  49
ENDBRANCH  43  46
ENDBRANCH   1  42
TORSDOF 19
ENDMDL
MODEL 8
REMARK VINA RESULT:      -5.9      2.147      4.377
REMARK  19 active torsions:
REMARK  status: ('A' for Active; 'I' for Inactive)
REMARK    1  A    between atoms: C_1  and  C_2 
REMARK    2  A    between atoms: C_2  and  C_4 
REMARK    3  A    between atoms: C_2  and  N_10 
REMARK    4  A    between atoms: C_4  and  C_5 
REMARK    5  A    between atoms: C_5  and  C_6 
REMARK    6  A    between atoms: C_6  and  C_7 
REMARK    7  A    between atoms: C_7  and  C_8 
REMARK    8  A    between atoms: C_7  and  C_9 
REMARK       I    between atoms: N_10  and  C_11 
REMARK    9  A    between atoms: C_11  and  C_13 
REMARK   10  A    between atoms: C_13  and  C_15 
REMARK   11  A    between atoms: C_13  and  N_18 
REMARK   12  A    between atoms: C_15  and  C_16 
REMARK   13  A    between atoms: C_15  and  C_17 
REMARK       I    between atoms: N_18  and  C_19 
REMARK   14  A    between atoms: C_19  and  C_21 
REMARK   15  A    between atoms: C_21  and  N_22 
REMARK   16  A    between atoms: C_27  and  O_35 
REMARK   17  A    between atoms: C_28  and  O_33 
REMARK   18  A    between atoms: O_33  and  C_34 
REMARK   19  A    between atoms: O_35  and  C_36 
ROOT
ATOM      1  C   LIG d   1       7.230   0.397  -5.510  0.00  0.00     0.102 C 
ATOM      2  H   LIG d   1       6.388   1.037  -5.244  0.00  0.00     0.060 H 
ENDROOT
BRANCH   1   3
ATOM      3  C   LIG d   1       7.067  -0.946  -4.848  0.00  0.00     0.234 C 
ATOM      4  N   LIG d   1       5.838  -1.477  -4.692  0.00  0.00    -0.311 N 
ATOM      5  H   LIG d   1       5.054  -0.964  -4.942  0.00  0.00     0.149 HD
ATOM      6  O   LIG d   1       8.042  -1.551  -4.456  0.00  0.00    -0.274 OA
BRANCH   4   7
ATOM      7  C   LIG d   1       5.686  -2.827  -4.143  0.00  0.00     0.020 C 
ATOM      8  H   LIG d   1       6.501  -3.031  -3.449  0.00  0.00     0.050 H 
BRANCH   7   9
ATOM      9  C   LIG d   1       5.720  -3.847  -5.283  0.00  0.00    -0.047 C 
ATOM     10  H   LIG d   1       4.715  -4.230  -5.458  0.00  0.00     0.025 H 
ATOM     11  H   LIG d   1       6.090  -3.367  -6.189  0.00  0.00     0.025 H 
ATOM     12  H   LIG d   1       6.382  -4.672  -5.014  0.00  0.00     0.025 H 
ENDBRANCH   7   9
BRANCH   7  13
ATOM     13  C   LIG d   1       4.349  -2.930  -3.407  0.00  0.00    -0.035 C 
ATOM     14  H   LIG d   1       3.532  -2.837  -4.122  0.00  0.00     0.028 H 
ATOM     15  H   LIG d   1       4.285  -3.897  -2.906  0.00  0.00     0.028 H 
BRANCH  13  16
ATOM     16  C   LIG d   1       4.251  -1.810  -2.369  0.00  0.00    -0.051 C 
ATOM     17  H   LIG d   1       4.227  -2.242  -1.369  0.00  0.00     0.027 H 
ATOM     18  H   LIG d   1       5.116  -1.154  -2.462  0.00  0.00     0.027 H 
BRANCH  16  19
ATOM     19  C   LIG d   1       2.971  -1.006  -2.608  0.00  0.00    -0.051 C 
ATOM     20  H   LIG d   1       2.592  -1.215  -3.608  0.00  0.00     0.027 H 
ATOM     21  H   LIG d   1       2.223  -1.287  -1.868  0.00  0.00     0.027 H 
BRANCH  19  22
ATOM     22  C   LIG d   1       3.278   0.488  -2.482  0.00  0.00    -0.047 C 
ATOM     23  H   LIG d   1       2.496   0.972  -1.898  0.00  0.00     0.029 H 
BRANCH  22  24
ATOM     24  C   LIG d   1       4.626   0.675  -1.782  0.00  0.00    -0.063 C 
ATOM     25  H   LIG d   1       4.462   1.050  -0.772  0.00  0.00     0.023 H 
ATOM     26  H   LIG d   1       5.147  -0.282  -1.735  0.00  0.00     0.023 H 
ATOM     27  H   LIG d   1       5.229   1.391  -2.341  0.00  0.00     0.023 H 
ENDBRANCH  22  24
BRANCH  22  28
ATOM     28  C   LIG d   1       3.336   1.116  -3.876  0.00  0.00    -0.063 C 
ATOM     29  H   LIG d   1       3.599   0.352  -4.608  0.00  0.00     0.023 H 
ATOM     30  H   LIG d   1       2.363   1.538  -4.126  0.00  0.00     0.023 H 
ATOM     31  H   LIG d   1       4.089   1.904  -3.889  0.00  0.00     0.023 H 
ENDBRANCH  22  28
ENDBRANCH  19  22
ENDBRANCH  16  19
ENDBRANCH  13  16
ENDBRANCH   7  13
ENDBRANCH   4   7
ENDBRANCH   1   3
BRANCH   1  32
ATOM     32  C   LIG d   1       7.273   0.216  -7.028  0.00  0.00    -0.020 C 
ATOM     33  H   LIG d   1       7.801  -0.707  -7.270  0.00  0.00     0.032 H 
BRANCH  32  34
ATOM     34  C   LIG d   1       5.846   0.144  -7.575  0.00  0.00    -0.060 C 
ATOM     35  H   LIG d   1       5.877   0.068  -8.662  0.00  0.00     0.023 H 
ATOM     36  H   LIG d   1       5.343  -0.731  -7.164  0.00  0.00     0.023 H 
ATOM     37  H   LIG d   1       5.302   1.044  -7.290  0.00  0.00     0.023 H 
ENDBRANCH  32  34
BRANCH  32  38
ATOM     38  C   LIG d   1       8.003   1.402  -7.663  0.00  0.00    -0.060 C 
ATOM     39  H   LIG d   1       8.472   1.083  -8.594  0.00  0.00     0.023 H 
ATOM     40  H   LIG d   1       7.290   2.199  -7.870  0.00  0.00     0.023 H 
ATOM     41  H   LIG d   1       8.768   1.766  -6.978  0.00  0.00     0.023 H 
ENDBRANCH  32  38
ENDBRANCH   1  32
BRANCH   1  42
ATOM     42  N   LIG d   1       8.477   1.018  -5.055  0.00  0.00    -0.302 N 
ATOM     43  C   LIG d   1       8.463   1.877  -4.016  0.00  0.00     0.234 C 
ATOM     44  O   LIG d   1       7.418   2.135  -3.457  0.00  0.00    -0.274 OA
ATOM     45  H   LIG d   1       9.312   0.811  -5.503  0.00  0.00     0.149 HD
BRANCH  43  46
ATOM     46  C   LIG d   1       9.745   2.515  -3.549  0.00  0.00     0.104 C 
ATOM     47  H   LIG d   1       9.801   2.465  -2.461  0.00  0.00     0.059 H 
ATOM     48  H   LIG d   1      10.593   1.984  -3.980  0.00  0.00     0.059 H 
BRANCH  46  49
ATOM     49  N   LIG d   1       9.777   3.916  -3.977  0.00  0.00    -0.290 N 
ATOM     50  C   LIG d   1       9.987   4.891  -3.063  0.00  0.00     0.262 A 
ATOM     51  C   LIG d   1      10.014   6.278  -3.547  0.00  0.00     0.069 A 
ATOM     52  O   LIG d   1      10.151   4.629  -1.885  0.00  0.00    -0.267 OA
ATOM     53  C   LIG d   1       9.811   6.503  -4.926  0.00  0.00     0.082 A 
ATOM     54  C   LIG d   1      10.228   7.353  -2.684  0.00  0.00    -0.002 A 
ATOM     55  N   LIG d   1       9.605   5.439  -5.744  0.00  0.00    -0.237 NA
ATOM     56  C   LIG d   1       9.825   7.808  -5.418  0.00  0.00     0.010 A 
ATOM     57  C   LIG d   1       9.591   4.224  -5.287  0.00  0.00     0.100 A 
ATOM     58  H   LIG d   1       9.423   3.417  -5.985  0.00  0.00     0.103 H 
ATOM     59  C   LIG d   1      10.037   8.864  -4.552  0.00  0.00     0.164 A 
ATOM     60  H   LIG d   1       9.670   7.993  -6.471  0.00  0.00     0.068 H 
ATOM     61  C   LIG d   1      10.239   8.637  -3.187  0.00  0.00     0.162 A 
ATOM     62  H   LIG d   1      10.384   7.182  -1.629  0.00  0.00     0.066 H 
BRANCH  59  63
ATOM     63  O   LIG d   1      10.050  10.134  -5.033  0.00  0.00    -0.491 OA
BRANCH  63  64
ATOM     64  C   LIG d   1       9.820  10.301  -6.433  0.00  0.00     0.079 C 
ATOM     65  H   LIG d   1       9.813   9.325  -6.919  0.00  0.00     0.066 H 
ATOM     66  H   LIG d   1       8.859  10.791  -6.587  0.00  0.00     0.066 H 
ATOM     67  H   LIG d   1      10.613  10.915  -6.861  0.00  0.00     0.066 H 
ENDBRANCH  63  64
ENDBRANCH  59  63
BRANCH  61  68
ATOM     68  O   LIG d   1      10.447   9.690  -2.351  0.00  0.00    -0.491 OA
BRANCH  68  69
ATOM     69  C   LIG d   1       9.358  10.073  -1.508  0.00  0.00     0.079 C 
ATOM     70  H   LIG d   1       9.445   9.563  -0.549  0.00  0.00     0.066 H 
ATOM     71  H   LIG d   1       9.384  11.151  -1.349  0.00  0.00     0.066 H 
ATOM     72  H   LIG d   1       8.417   9.798  -1.983  0.00  0.00     0.066 H 
ENDBRANCH  68  69
ENDBRANCH  61  68
ENDBRANCH  46  49
ENDBRANCH  43  46
ENDBRANCH   1  42
TORSDOF 19
ENDMDL
MODEL 9
REMARK VINA RESULT:      -5.9      4.827     10.971
REMARK  19 active torsions:
REMARK  status: ('A' for Active; 'I' for Inactive)
REMARK    1  A    between atoms: C_1  and  C_2 
REMARK    2  A    between atoms: C_2  and  C_4 
REMARK    3  A    between atoms: C_2  and  N_10 
REMARK    4  A    between atoms: C_4  and  C_5 
REMARK    5  A    between atoms: C_5  and  C_6 
REMARK    6  A    between atoms: C_6  and  C_7 
REMARK    7  A    between atoms: C_7  and  C_8 
REMARK    8  A    between atoms: C_7  and  C_9 
REMARK       I    between atoms: N_10  and  C_11 
REMARK    9  A    between atoms: C_11  and  C_13 
REMARK   10  A    between atoms: C_13  and  C_15 
REMARK   11  A    between atoms: C_13  and  N_18 
REMARK   12  A    between atoms: C_15  and  C_16 
REMARK   13  A    between atoms: C_15  and  C_17 
REMARK       I    between atoms: N_18  and  C_19 
REMARK   14  A    between atoms: C_19  and  C_21 
REMARK   15  A    between atoms: C_21  and  N_22 
REMARK   16  A    between atoms: C_27  and  O_35 
REMARK   17  A    between atoms: C_28  and  O_33 
REMARK   18  A    between atoms: O_33  and  C_34 
REMARK   19  A    between atoms: O_35  and  C_36 
ROOT
ATOM      1  C   LIG d   1       4.741   0.655  -8.420  0.00  0.00     0.102 C 
ATOM      2  H   LIG d   1       5.023   1.638  -8.798  0.00  0.00     0.060 H 
ENDROOT
BRANCH   1   3
ATOM      3  C   LIG d   1       5.795   0.163  -7.463  0.00  0.00     0.234 C 
ATOM      4  N   LIG d   1       5.531   0.103  -6.142  0.00  0.00    -0.311 N 
ATOM      5  H   LIG d   1       4.689   0.440  -5.801  0.00  0.00     0.149 HD
ATOM      6  O   LIG d   1       6.881  -0.178  -7.880  0.00  0.00    -0.274 OA
BRANCH   4   7
ATOM      7  C   LIG d   1       6.517  -0.471  -5.224  0.00  0.00     0.020 C 
ATOM      8  H   LIG d   1       7.509  -0.414  -5.672  0.00  0.00     0.050 H 
BRANCH   7   9
ATOM      9  C   LIG d   1       6.165  -1.935  -4.949  0.00  0.00    -0.047 C 
ATOM     10  H   LIG d   1       5.087  -2.071  -5.030  0.00  0.00     0.025 H 
ATOM     11  H   LIG d   1       6.669  -2.572  -5.675  0.00  0.00     0.025 H 
ATOM     12  H   LIG d   1       6.490  -2.204  -3.943  0.00  0.00     0.025 H 
ENDBRANCH   7   9
BRANCH   7  13
ATOM     13  C   LIG d   1       6.505   0.311  -3.909  0.00  0.00    -0.035 C 
ATOM     14  H   LIG d   1       6.884  -0.321  -3.106  0.00  0.00     0.028 H 
ATOM     15  H   LIG d   1       7.138   1.194  -4.007  0.00  0.00     0.028 H 
BRANCH  13  16
ATOM     16  C   LIG d   1       5.073   0.743  -3.587  0.00  0.00    -0.051 C 
ATOM     17  H   LIG d   1       5.020   1.830  -3.549  0.00  0.00     0.027 H 
ATOM     18  H   LIG d   1       4.400   0.372  -4.359  0.00  0.00     0.027 H 
BRANCH  16  19
ATOM     19  C   LIG d   1       4.660   0.165  -2.231  0.00  0.00    -0.051 C 
ATOM     20  H   LIG d   1       5.470  -0.449  -1.836  0.00  0.00     0.027 H 
ATOM     21  H   LIG d   1       4.450   0.980  -1.538  0.00  0.00     0.027 H 
BRANCH  19  22
ATOM     22  C   LIG d   1       3.406  -0.694  -2.403  0.00  0.00    -0.047 C 
ATOM     23  H   LIG d   1       2.694  -0.462  -1.612  0.00  0.00     0.029 H 
BRANCH  22  24
ATOM     24  C   LIG d   1       2.770  -0.400  -3.764  0.00  0.00    -0.063 C 
ATOM     25  H   LIG d   1       2.888   0.658  -3.998  0.00  0.00     0.023 H 
ATOM     26  H   LIG d   1       3.260  -1.000  -4.531  0.00  0.00     0.023 H 
ATOM     27  H   LIG d   1       1.709  -0.649  -3.730  0.00  0.00     0.023 H 
ENDBRANCH  22  24
BRANCH  22  28
ATOM     28  C   LIG d   1       3.788  -2.174  -2.328  0.00  0.00    -0.063 C 
ATOM     29  H   LIG d   1       2.937  -2.750  -1.965  0.00  0.00     0.023 H 
ATOM     30  H   LIG d   1       4.068  -2.528  -3.320  0.00  0.00     0.023 H 
ATOM     31  H   LIG d   1       4.629  -2.299  -1.646  0.00  0.00     0.023 H 
ENDBRANCH  22  28
ENDBRANCH  19  22
ENDBRANCH  16  19
ENDBRANCH  13  16
ENDBRANCH   7  13
ENDBRANCH   4   7
ENDBRANCH   1   3
BRANCH   1  32
ATOM     32  C   LIG d   1       3.398   0.755  -7.694  0.00  0.00    -0.020 C 
ATOM     33  H   LIG d   1       3.564   0.718  -6.617  0.00  0.00     0.032 H 
BRANCH  32  34
ATOM     34  C   LIG d   1       2.717   2.076  -8.058  0.00  0.00    -0.060 C 
ATOM     35  H   LIG d   1       2.737   2.744  -7.197  0.00  0.00     0.023 H 
ATOM     36  H   LIG d   1       3.245   2.539  -8.891  0.00  0.00     0.023 H 
ATOM     37  H   LIG d   1       1.683   1.884  -8.344  0.00  0.00     0.023 H 
ENDBRANCH  32  34
BRANCH  32  38
ATOM     38  C   LIG d   1       2.503  -0.413  -8.112  0.00  0.00    -0.060 C 
ATOM     39  H   LIG d   1       2.207  -0.979  -7.229  0.00  0.00     0.023 H 
ATOM     40  H   LIG d   1       1.615  -0.029  -8.613  0.00  0.00     0.023 H 
ATOM     41  H   LIG d   1       3.051  -1.064  -8.793  0.00  0.00     0.023 H 
ENDBRANCH  32  38
ENDBRANCH   1  32
BRANCH   1  42
ATOM     42  N   LIG d   1       4.623  -0.282  -9.540  0.00  0.00    -0.302 N 
ATOM     43  C   LIG d   1       4.455   0.183 -10.794  0.00  0.00     0.234 C 
ATOM     44  O   LIG d   1       4.402   1.379 -10.995  0.00  0.00    -0.274 OA
ATOM     45  H   LIG d   1       4.664  -1.237  -9.379  0.00  0.00     0.149 HD
BRANCH  43  46
ATOM     46  C   LIG d   1       4.333  -0.781 -11.945  0.00  0.00     0.104 C 
ATOM     47  H   LIG d   1       4.118  -0.229 -12.861  0.00  0.00     0.059 H 
ATOM     48  H   LIG d   1       5.268  -1.327 -12.062  0.00  0.00     0.059 H 
BRANCH  46  49
ATOM     49  N   LIG d   1       3.245  -1.725 -11.678  0.00  0.00    -0.290 N 
ATOM     50  C   LIG d   1       3.523  -2.934 -11.138  0.00  0.00     0.262 A 
ATOM     51  C   LIG d   1       2.393  -3.839 -10.887  0.00  0.00     0.069 A 
ATOM     52  O   LIG d   1       4.664  -3.257 -10.867  0.00  0.00    -0.267 OA
ATOM     53  C   LIG d   1       1.098  -3.395 -11.233  0.00  0.00     0.082 A 
ATOM     54  C   LIG d   1       2.577  -5.104 -10.329  0.00  0.00    -0.002 A 
ATOM     55  N   LIG d   1       0.948  -2.159 -11.774  0.00  0.00    -0.237 NA
ATOM     56  C   LIG d   1       0.004  -4.232 -11.013  0.00  0.00     0.010 A 
ATOM     57  C   LIG d   1       1.965  -1.379 -11.981  0.00  0.00     0.100 A 
ATOM     58  H   LIG d   1       1.785  -0.407 -12.414  0.00  0.00     0.103 H 
ATOM     59  C   LIG d   1       0.199  -5.483 -10.460  0.00  0.00     0.164 A 
ATOM     60  H   LIG d   1      -0.992  -3.904 -11.273  0.00  0.00     0.068 H 
ATOM     61  C   LIG d   1       1.484  -5.919 -10.118  0.00  0.00     0.162 A 
ATOM     62  H   LIG d   1       3.566  -5.445 -10.064  0.00  0.00     0.066 H 
BRANCH  59  63
ATOM     63  O   LIG d   1      -0.867  -6.297 -10.246  0.00  0.00    -0.491 OA
BRANCH  63  64
ATOM     64  C   LIG d   1      -1.948  -5.763  -9.478  0.00  0.00     0.079 C 
ATOM     65  H   LIG d   1      -2.802  -5.582 -10.130  0.00  0.00     0.066 H 
ATOM     66  H   LIG d   1      -2.227  -6.475  -8.702  0.00  0.00     0.066 H 
ATOM     67  H   LIG d   1      -1.637  -4.826  -9.017  0.00  0.00     0.066 H 
ENDBRANCH  63  64
ENDBRANCH  59  63
BRANCH  61  68
ATOM     68  O   LIG d   1       1.655  -7.154  -9.574  0.00  0.00    -0.491 OA
BRANCH  68  69
ATOM     69  C   LIG d   1       2.934  -7.769  -9.751  0.00  0.00     0.079 C 
ATOM     70  H   LIG d   1       2.836  -8.622 -10.421  0.00  0.00     0.066 H 
ATOM     71  H   LIG d   1       3.627  -7.046 -10.181  0.00  0.00     0.066 H 
ATOM     72  H   LIG d   1       3.312  -8.105  -8.786  0.00  0.00     0.066 H 
ENDBRANCH  68  69
ENDBRANCH  61  68
ENDBRANCH  46  49
ENDBRANCH  43  46
ENDBRANCH   1  42
TORSDOF 19
ENDMDL
MODEL 10
REMARK VINA RESULT:      -5.7      4.399      8.790
REMARK  19 active torsions:
REMARK  status: ('A' for Active; 'I' for Inactive)
REMARK    1  A    between atoms: C_1  and  C_2 
REMARK    2  A    between atoms: C_2  and  C_4 
REMARK    3  A    between atoms: C_2  and  N_10 
REMARK    4  A    between atoms: C_4  and  C_5 
REMARK    5  A    between atoms: C_5  and  C_6 
REMARK    6  A    between atoms: C_6  and  C_7 
REMARK    7  A    between atoms: C_7  and  C_8 
REMARK    8  A    between atoms: C_7  and  C_9 
REMARK       I    between atoms: N_10  and  C_11 
REMARK    9  A    between atoms: C_11  and  C_13 
REMARK   10  A    between atoms: C_13  and  C_15 
REMARK   11  A    between atoms: C_13  and  N_18 
REMARK   12  A    between atoms: C_15  and  C_16 
REMARK   13  A    between atoms: C_15  and  C_17 
REMARK       I    between atoms: N_18  and  C_19 
REMARK   14  A    between atoms: C_19  and  C_21 
REMARK   15  A    between atoms: C_21  and  N_22 
REMARK   16  A    between atoms: C_27  and  O_35 
REMARK   17  A    between atoms: C_28  and  O_33 
REMARK   18  A    between atoms: O_33  and  C_34 
REMARK   19  A    between atoms: O_35  and  C_36 
ROOT
ATOM      1  C   LIG d   1       4.557  -0.679  -7.514  0.00  0.00     0.102 C 
ATOM      2  H   LIG d   1       4.739  -0.956  -8.553  0.00  0.00     0.060 H 
ENDROOT
BRANCH   1   3
ATOM      3  C   LIG d   1       5.760   0.045  -6.969  0.00  0.00     0.234 C 
ATOM      4  N   LIG d   1       6.318  -0.354  -5.808  0.00  0.00    -0.311 N 
ATOM      5  H   LIG d   1       5.904  -1.060  -5.289  0.00  0.00     0.149 HD
ATOM      6  O   LIG d   1       6.228   0.985  -7.574  0.00  0.00    -0.274 OA
BRANCH   4   7
ATOM      7  C   LIG d   1       7.547   0.283  -5.329  0.00  0.00     0.020 C 
ATOM      8  H   LIG d   1       7.773   1.151  -5.949  0.00  0.00     0.050 H 
BRANCH   7   9
ATOM      9  C   LIG d   1       8.703  -0.716  -5.412  0.00  0.00    -0.047 C 
ATOM     10  H   LIG d   1       9.607  -0.201  -5.736  0.00  0.00     0.025 H 
ATOM     11  H   LIG d   1       8.870  -1.161  -4.431  0.00  0.00     0.025 H 
ATOM     12  H   LIG d   1       8.456  -1.500  -6.129  0.00  0.00     0.025 H 
ENDBRANCH   7   9
BRANCH   7  13
ATOM     13  C   LIG d   1       7.360   0.727  -3.877  0.00  0.00    -0.035 C 
ATOM     14  H   LIG d   1       7.924   0.065  -3.220  0.00  0.00     0.028 H 
ATOM     15  H   LIG d   1       7.721   1.749  -3.761  0.00  0.00     0.028 H 
BRANCH  13  16
ATOM     16  C   LIG d   1       5.876   0.664  -3.513  0.00  0.00    -0.051 C 
ATOM     17  H   LIG d   1       5.577   1.600  -3.041  0.00  0.00     0.027 H 
ATOM     18  H   LIG d   1       5.287   0.508  -4.417  0.00  0.00     0.027 H 
BRANCH  16  19
ATOM     19  C   LIG d   1       5.638  -0.495  -2.542  0.00  0.00    -0.051 C 
ATOM     20  H   LIG d   1       5.802  -1.440  -3.058  0.00  0.00     0.027 H 
ATOM     21  H   LIG d   1       6.328  -0.413  -1.703  0.00  0.00     0.027 H 
BRANCH  19  22
ATOM     22  C   LIG d   1       4.198  -0.439  -2.026  0.00  0.00    -0.047 C 
ATOM     23  H   LIG d   1       4.193  -0.584  -0.946  0.00  0.00     0.029 H 
BRANCH  22  24
ATOM     24  C   LIG d   1       3.589   0.924  -2.360  0.00  0.00    -0.063 C 
ATOM     25  H   LIG d   1       3.986   1.677  -1.678  0.00  0.00     0.023 H 
ATOM     26  H   LIG d   1       3.842   1.194  -3.386  0.00  0.00     0.023 H 
ATOM     27  H   LIG d   1       2.505   0.874  -2.254  0.00  0.00     0.023 H 
ENDBRANCH  22  24
BRANCH  22  28
ATOM     28  C   LIG d   1       3.375  -1.543  -2.692  0.00  0.00    -0.063 C 
ATOM     29  H   LIG d   1       3.789  -1.761  -3.677  0.00  0.00     0.023 H 
ATOM     30  H   LIG d   1       3.407  -2.442  -2.078  0.00  0.00     0.023 H 
ATOM     31  H   LIG d   1       2.342  -1.211  -2.799  0.00  0.00     0.023 H 
ENDBRANCH  22  28
ENDBRANCH  19  22
ENDBRANCH  16  19
ENDBRANCH  13  16
ENDBRANCH   7  13
ENDBRANCH   4   7
ENDBRANCH   1   3
BRANCH   1  32
ATOM     32  C   LIG d   1       3.333   0.236  -7.437  0.00  0.00    -0.020 C 
ATOM     33  H   LIG d   1       3.619   1.250  -7.716  0.00  0.00     0.032 H 
BRANCH  32  34
ATOM     34  C   LIG d   1       2.256  -0.271  -8.399  0.00  0.00    -0.060 C 
ATOM     35  H   LIG d   1       1.787   0.577  -8.897  0.00  0.00     0.023 H 
ATOM     36  H   LIG d   1       2.710  -0.924  -9.142  0.00  0.00     0.023 H 
ATOM     37  H   LIG d   1       1.502  -0.825  -7.839  0.00  0.00     0.023 H 
ENDBRANCH  32  34
BRANCH  32  38
ATOM     38  C   LIG d   1       2.784   0.234  -6.009  0.00  0.00    -0.060 C 
ATOM     39  H   LIG d   1       3.612   0.275  -5.302  0.00  0.00     0.023 H 
ATOM     40  H   LIG d   1       2.141   1.103  -5.866  0.00  0.00     0.023 H 
ATOM     41  H   LIG d   1       2.208  -0.676  -5.842  0.00  0.00     0.023 H 
ENDBRANCH  32  38
ENDBRANCH   1  32
BRANCH   1  42
ATOM     42  N   LIG d   1       4.314  -1.888  -6.722  0.00  0.00    -0.302 N 
ATOM     43  C   LIG d   1       4.538  -3.103  -7.261  0.00  0.00     0.234 C 
ATOM     44  O   LIG d   1       4.941  -3.196  -8.402  0.00  0.00    -0.274 OA
ATOM     45  H   LIG d   1       3.992  -1.813  -5.811  0.00  0.00     0.149 HD
BRANCH  43  46
ATOM     46  C   LIG d   1       4.288  -4.346  -6.447  0.00  0.00     0.104 C 
ATOM     47  H   LIG d   1       3.739  -4.083  -5.542  0.00  0.00     0.059 H 
ATOM     48  H   LIG d   1       3.704  -5.054  -7.034  0.00  0.00     0.059 H 
BRANCH  46  49
ATOM     49  N   LIG d   1       5.570  -4.954  -6.081  0.00  0.00    -0.290 N 
ATOM     50  C   LIG d   1       6.406  -4.303  -5.239  0.00  0.00     0.262 A 
ATOM     51  C   LIG d   1       7.675  -4.961  -4.902  0.00  0.00     0.069 A 
ATOM     52  O   LIG d   1       6.115  -3.215  -4.776  0.00  0.00    -0.267 OA
ATOM     53  C   LIG d   1       7.943  -6.221  -5.482  0.00  0.00     0.082 A 
ATOM     54  C   LIG d   1       8.601  -4.373  -4.040  0.00  0.00    -0.002 A 
ATOM     55  N   LIG d   1       7.025  -6.771  -6.318  0.00  0.00    -0.237 NA
ATOM     56  C   LIG d   1       9.142  -6.871  -5.188  0.00  0.00     0.010 A 
ATOM     57  C   LIG d   1       5.910  -6.166  -6.594  0.00  0.00     0.100 A 
ATOM     58  H   LIG d   1       5.217  -6.652  -7.265  0.00  0.00     0.103 H 
ATOM     59  C   LIG d   1      10.051  -6.277  -4.333  0.00  0.00     0.164 A 
ATOM     60  H   LIG d   1       9.359  -7.834  -5.626  0.00  0.00     0.068 H 
ATOM     61  C   LIG d   1       9.781  -5.030  -3.759  0.00  0.00     0.162 A 
ATOM     62  H   LIG d   1       8.396  -3.411  -3.596  0.00  0.00     0.066 H 
BRANCH  59  63
ATOM     63  O   LIG d   1      11.217  -6.911  -4.047  0.00  0.00    -0.491 OA
BRANCH  63  64
ATOM     64  C   LIG d   1      12.105  -7.161  -5.139  0.00  0.00     0.079 C 
ATOM     65  H   LIG d   1      12.861  -7.885  -4.834  0.00  0.00     0.066 H 
ATOM     66  H   LIG d   1      11.541  -7.558  -5.982  0.00  0.00     0.066 H 
ATOM     67  H   LIG d   1      12.591  -6.230  -5.432  0.00  0.00     0.066 H 
ENDBRANCH  63  64
ENDBRANCH  59  63
BRANCH  61  68
ATOM     68  O   LIG d   1      10.688  -4.463  -2.920  0.00  0.00    -0.491 OA
BRANCH  68  69
ATOM     69  C   LIG d   1      11.613  -3.536  -3.495  0.00  0.00     0.079 C 
ATOM     70  H   LIG d   1      11.136  -2.562  -3.593  0.00  0.00     0.066 H 
ATOM     71  H   LIG d   1      12.488  -3.450  -2.851  0.00  0.00     0.066 H 
ATOM     72  H   LIG d   1      11.919  -3.893  -4.478  0.00  0.00     0.066 H 
ENDBRANCH  68  69
ENDBRANCH  61  68
ENDBRANCH  46  49
ENDBRANCH  43  46
ENDBRANCH   1  42
TORSDOF 19
ENDMDL
