MODEL 1
REMARK VINA RESULT:      -5.4      0.000      0.000
REMARK  8 active torsions:
REMARK  status: ('A' for Active; 'I' for Inactive)
REMARK    1  A    between atoms: C_1  and  C_2 
REMARK    2  A    between atoms: C_2  and  O_3 
REMARK    3  A    between atoms: O_3  and  C_4 
REMARK    4  A    between atoms: C_4  and  C_6 
REMARK    5  A    between atoms: C_6  and  C_7 
REMARK    6  A    between atoms: C_7  and  C_9 
REMARK    7  A    between atoms: C_7  and  N_10 
REMARK       I    between atoms: N_10  and  C_11 
REMARK    8  A    between atoms: C_11  and  C_13 
ROOT
ATOM      1  C   LIG d   1       2.912   0.456  -7.692  0.00  0.00     0.031 C 
ATOM      2  H   LIG d   1       2.226   1.273  -7.469  0.00  0.00     0.050 H 
ENDROOT
BRANCH   1   3
ATOM      3  C   LIG d   1       4.114   0.998  -8.469  0.00  0.00     0.063 C 
ATOM      4  H   LIG d   1       3.963   0.830  -9.535  0.00  0.00     0.040 H 
ATOM      5  H   LIG d   1       4.216   2.067  -8.281  0.00  0.00     0.040 H 
BRANCH   3   6
ATOM      6  C   LIG d   1       5.365   0.288  -8.020  0.00  0.00     0.309 C 
ATOM      7  O   LIG d   1       5.643  -0.795  -8.480  0.00  0.00    -0.251 OA
BRANCH   6   8
ATOM      8  O   LIG d   1       6.171   0.857  -7.110  0.00  0.00    -0.465 OA
BRANCH   8   9
ATOM      9  C   LIG d   1       7.207   0.021  -6.530  0.00  0.00     0.090 C 
ATOM     10  H   LIG d   1       7.106  -0.996  -6.908  0.00  0.00     0.069 H 
ATOM     11  H   LIG d   1       8.186   0.414  -6.804  0.00  0.00     0.069 H 
BRANCH   9  12
ATOM     12  C   LIG d   1       7.066   0.016  -5.008  0.00  0.00    -0.031 C 
ATOM     13  H   LIG d   1       6.578   0.937  -4.685  0.00  0.00     0.026 H 
ATOM     14  H   LIG d   1       6.465  -0.840  -4.701  0.00  0.00     0.026 H 
ATOM     15  H   LIG d   1       8.053  -0.051  -4.551  0.00  0.00     0.026 H 
ENDBRANCH   9  12
ENDBRANCH   8   9
ENDBRANCH   6   8
ENDBRANCH   3   6
ENDBRANCH   1   3
BRANCH   1  16
ATOM     16  C   LIG d   1       2.194  -0.599  -8.534  0.00  0.00    -0.046 C 
ATOM     17  H   LIG d   1       2.356  -0.392  -9.592  0.00  0.00     0.025 H 
ATOM     18  H   LIG d   1       2.586  -1.586  -8.293  0.00  0.00     0.025 H 
ATOM     19  H   LIG d   1       1.125  -0.570  -8.320  0.00  0.00     0.025 H 
ENDBRANCH   1  16
BRANCH   1  20
ATOM     20  N   LIG d   1       3.374  -0.148  -6.440  0.00  0.00    -0.308 N 
ATOM     21  C   LIG d   1       3.110   0.454  -5.264  0.00  0.00     0.244 C 
ATOM     22  O   LIG d   1       2.491   1.499  -5.241  0.00  0.00    -0.270 OA
ATOM     23  H   LIG d   1       3.869  -0.983  -6.458  0.00  0.00     0.149 HD
BRANCH  21  24
ATOM     24  C   LIG d   1       3.576  -0.157  -3.999  0.00  0.00     0.037 A 
ATOM     25  C   LIG d   1       3.598  -1.545  -3.858  0.00  0.00    -0.050 A 
ATOM     26  C   LIG d   1       4.033  -2.109  -2.676  0.00  0.00    -0.061 A 
ATOM     27  H   LIG d   1       3.274  -2.177  -4.672  0.00  0.00     0.062 H 
ATOM     28  C   LIG d   1       4.446  -1.299  -1.632  0.00  0.00    -0.062 A 
ATOM     29  H   LIG d   1       4.050  -3.182  -2.566  0.00  0.00     0.062 H 
ATOM     30  C   LIG d   1       4.427   0.077  -1.766  0.00  0.00    -0.061 A 
ATOM     31  H   LIG d   1       4.790  -1.745  -0.710  0.00  0.00     0.062 H 
ATOM     32  C   LIG d   1       3.995   0.653  -2.942  0.00  0.00    -0.050 A 
ATOM     33  H   LIG d   1       4.752   0.703  -0.948  0.00  0.00     0.062 H 
ATOM     34  H   LIG d   1       3.980   1.727  -3.046  0.00  0.00     0.062 H 
ENDBRANCH  21  24
ENDBRANCH   1  20
TORSDOF 8
ENDMDL
MODEL 2
REMARK VINA RESULT:      -5.2      1.850      3.083
REMARK  8 active torsions:
REMARK  status: ('A' for Active; 'I' for Inactive)
REMARK    1  A    between atoms: C_1  and  C_2 
REMARK    2  A    between atoms: C_2  and  O_3 
REMARK    3  A    between atoms: O_3  and  C_4 
REMARK    4  A    between atoms: C_4  and  C_6 
REMARK    5  A    between atoms: C_6  and  C_7 
REMARK    6  A    between atoms: C_7  and  C_9 
REMARK    7  A    between atoms: C_7  and  N_10 
REMARK       I    between atoms: N_10  and  C_11 
REMARK    8  A    between atoms: C_11  and  C_13 
ROOT
ATOM      1  C   LIG d   1       3.114  -0.268  -7.870  0.00  0.00     0.031 C 
ATOM      2  H   LIG d   1       2.250   0.393  -7.804  0.00  0.00     0.050 H 
ENDROOT
BRANCH   1   3
ATOM      3  C   LIG d   1       4.267   0.466  -8.558  0.00  0.00     0.063 C 
ATOM      4  H   LIG d   1       4.938   0.877  -7.804  0.00  0.00     0.040 H 
ATOM      5  H   LIG d   1       4.815  -0.231  -9.191  0.00  0.00     0.040 H 
BRANCH   3   6
ATOM      6  C   LIG d   1       3.716   1.586  -9.404  0.00  0.00     0.309 C 
ATOM      7  O   LIG d   1       3.114   2.496  -8.883  0.00  0.00    -0.251 OA
BRANCH   6   8
ATOM      8  O   LIG d   1       3.896   1.574 -10.734  0.00  0.00    -0.465 OA
BRANCH   8   9
ATOM      9  C   LIG d   1       4.576   0.422 -11.298  0.00  0.00     0.090 C 
ATOM     10  H   LIG d   1       5.400   0.759 -11.925  0.00  0.00     0.069 H 
ATOM     11  H   LIG d   1       4.964  -0.202 -10.492  0.00  0.00     0.069 H 
BRANCH   9  12
ATOM     12  C   LIG d   1       3.591  -0.389 -12.142  0.00  0.00    -0.031 C 
ATOM     13  H   LIG d   1       3.534   0.038 -13.144  0.00  0.00     0.026 H 
ATOM     14  H   LIG d   1       3.932  -1.422 -12.205  0.00  0.00     0.026 H 
ATOM     15  H   LIG d   1       2.604  -0.359 -11.679  0.00  0.00     0.026 H 
ENDBRANCH   9  12
ENDBRANCH   8   9
ENDBRANCH   6   8
ENDBRANCH   3   6
ENDBRANCH   1   3
BRANCH   1  16
ATOM     16  C   LIG d   1       2.745  -1.511  -8.681  0.00  0.00    -0.046 C 
ATOM     17  H   LIG d   1       2.722  -1.260  -9.741  0.00  0.00     0.025 H 
ATOM     18  H   LIG d   1       3.486  -2.291  -8.509  0.00  0.00     0.025 H 
ATOM     19  H   LIG d   1       1.763  -1.868  -8.372  0.00  0.00     0.025 H 
ENDBRANCH   1  16
BRANCH   1  20
ATOM     20  N   LIG d   1       3.526  -0.668  -6.522  0.00  0.00    -0.308 N 
ATOM     21  C   LIG d   1       3.260   0.133  -5.471  0.00  0.00     0.244 C 
ATOM     22  O   LIG d   1       2.680   1.187  -5.641  0.00  0.00    -0.270 OA
ATOM     23  H   LIG d   1       3.989  -1.509  -6.386  0.00  0.00     0.149 HD
BRANCH  21  24
ATOM     24  C   LIG d   1       3.676  -0.271  -4.110  0.00  0.00     0.037 A 
ATOM     25  C   LIG d   1       4.035   0.697  -3.171  0.00  0.00    -0.050 A 
ATOM     26  C   LIG d   1       4.423   0.314  -1.904  0.00  0.00    -0.061 A 
ATOM     27  H   LIG d   1       4.011   1.745  -3.437  0.00  0.00     0.062 H 
ATOM     28  C   LIG d   1       4.457  -1.027  -1.564  0.00  0.00    -0.062 A 
ATOM     29  H   LIG d   1       4.702   1.062  -1.177  0.00  0.00     0.062 H 
ATOM     30  C   LIG d   1       4.101  -1.991  -2.489  0.00  0.00    -0.061 A 
ATOM     31  H   LIG d   1       4.757  -1.321  -0.568  0.00  0.00     0.062 H 
ATOM     32  C   LIG d   1       3.711  -1.622  -3.760  0.00  0.00    -0.050 A 
ATOM     33  H   LIG d   1       4.128  -3.036  -2.218  0.00  0.00     0.062 H 
ATOM     34  H   LIG d   1       3.434  -2.374  -4.482  0.00  0.00     0.062 H 
ENDBRANCH  21  24
ENDBRANCH   1  20
TORSDOF 8
ENDMDL
MODEL 3
REMARK VINA RESULT:      -5.1      2.124      3.160
REMARK  8 active torsions:
REMARK  status: ('A' for Active; 'I' for Inactive)
REMARK    1  A    between atoms: C_1  and  C_2 
REMARK    2  A    between atoms: C_2  and  O_3 
REMARK    3  A    between atoms: O_3  and  C_4 
REMARK    4  A    between atoms: C_4  and  C_6 
REMARK    5  A    between atoms: C_6  and  C_7 
REMARK    6  A    between atoms: C_7  and  C_9 
REMARK    7  A    between atoms: C_7  and  N_10 
REMARK       I    between atoms: N_10  and  C_11 
REMARK    8  A    between atoms: C_11  and  C_13 
ROOT
ATOM      1  C   LIG d   1       2.957   0.347  -8.488  0.00  0.00     0.031 C 
ATOM      2  H   LIG d   1       3.930   0.084  -8.902  0.00  0.00     0.050 H 
ENDROOT
BRANCH   1   3
ATOM      3  C   LIG d   1       1.852  -0.247  -9.364  0.00  0.00     0.063 C 
ATOM      4  H   LIG d   1       0.891  -0.139  -8.862  0.00  0.00     0.040 H 
ATOM      5  H   LIG d   1       1.824   0.277 -10.319  0.00  0.00     0.040 H 
BRANCH   3   6
ATOM      6  C   LIG d   1       2.132  -1.709  -9.603  0.00  0.00     0.309 C 
ATOM      7  O   LIG d   1       1.275  -2.417 -10.079  0.00  0.00    -0.251 OA
BRANCH   6   8
ATOM      8  O   LIG d   1       3.330  -2.224  -9.289  0.00  0.00    -0.465 OA
BRANCH   8   9
ATOM      9  C   LIG d   1       3.375  -3.636  -8.953  0.00  0.00     0.090 C 
ATOM     10  H   LIG d   1       2.359  -4.016  -8.849  0.00  0.00     0.069 H 
ATOM     11  H   LIG d   1       3.888  -4.182  -9.746  0.00  0.00     0.069 H 
BRANCH   9  12
ATOM     12  C   LIG d   1       4.127  -3.823  -7.635  0.00  0.00    -0.031 C 
ATOM     13  H   LIG d   1       4.737  -4.726  -7.690  0.00  0.00     0.026 H 
ATOM     14  H   LIG d   1       4.770  -2.961  -7.457  0.00  0.00     0.026 H 
ATOM     15  H   LIG d   1       3.412  -3.918  -6.817  0.00  0.00     0.026 H 
ENDBRANCH   9  12
ENDBRANCH   8   9
ENDBRANCH   6   8
ENDBRANCH   3   6
ENDBRANCH   1   3
BRANCH   1  16
ATOM     16  C   LIG d   1       2.813   1.869  -8.449  0.00  0.00    -0.046 C 
ATOM     17  H   LIG d   1       2.216   2.157  -7.584  0.00  0.00     0.025 H 
ATOM     18  H   LIG d   1       3.800   2.326  -8.377  0.00  0.00     0.025 H 
ATOM     19  H   LIG d   1       2.320   2.212  -9.359  0.00  0.00     0.025 H 
ENDBRANCH   1  16
BRANCH   1  20
ATOM     20  N   LIG d   1       2.843  -0.189  -7.129  0.00  0.00    -0.308 N 
ATOM     21  C   LIG d   1       3.940  -0.295  -6.353  0.00  0.00     0.244 C 
ATOM     22  O   LIG d   1       5.023   0.053  -6.780  0.00  0.00    -0.270 OA
ATOM     23  H   LIG d   1       1.979  -0.468  -6.788  0.00  0.00     0.149 HD
BRANCH  21  24
ATOM     24  C   LIG d   1       3.825  -0.837  -4.981  0.00  0.00     0.037 A 
ATOM     25  C   LIG d   1       4.631  -1.903  -4.579  0.00  0.00    -0.050 A 
ATOM     26  C   LIG d   1       4.519  -2.404  -3.298  0.00  0.00    -0.061 A 
ATOM     27  H   LIG d   1       5.341  -2.335  -5.269  0.00  0.00     0.062 H 
ATOM     28  C   LIG d   1       3.608  -1.852  -2.414  0.00  0.00    -0.062 A 
ATOM     29  H   LIG d   1       5.142  -3.228  -2.987  0.00  0.00     0.062 H 
ATOM     30  C   LIG d   1       2.807  -0.795  -2.807  0.00  0.00    -0.061 A 
ATOM     31  H   LIG d   1       3.527  -2.245  -1.411  0.00  0.00     0.062 H 
ATOM     32  C   LIG d   1       2.909  -0.285  -4.084  0.00  0.00    -0.050 A 
ATOM     33  H   LIG d   1       2.099  -0.368  -2.112  0.00  0.00     0.062 H 
ATOM     34  H   LIG d   1       2.283   0.540  -4.390  0.00  0.00     0.062 H 
ENDBRANCH  21  24
ENDBRANCH   1  20
TORSDOF 8
ENDMDL
MODEL 4
REMARK VINA RESULT:      -5.0      1.969      5.131
REMARK  8 active torsions:
REMARK  status: ('A' for Active; 'I' for Inactive)
REMARK    1  A    between atoms: C_1  and  C_2 
REMARK    2  A    between atoms: C_2  and  O_3 
REMARK    3  A    between atoms: O_3  and  C_4 
REMARK    4  A    between atoms: C_4  and  C_6 
REMARK    5  A    between atoms: C_6  and  C_7 
REMARK    6  A    between atoms: C_7  and  C_9 
REMARK    7  A    between atoms: C_7  and  N_10 
REMARK       I    between atoms: N_10  and  C_11 
REMARK    8  A    between atoms: C_11  and  C_13 
ROOT
ATOM      1  C   LIG d   1       4.095  -1.016  -4.009  0.00  0.00     0.031 C 
ATOM      2  H   LIG d   1       4.118  -2.027  -4.415  0.00  0.00     0.050 H 
ENDROOT
BRANCH   1   3
ATOM      3  C   LIG d   1       5.358  -0.771  -3.180  0.00  0.00     0.063 C 
ATOM      4  H   LIG d   1       5.168  -1.038  -2.141  0.00  0.00     0.040 H 
ATOM      5  H   LIG d   1       6.172  -1.383  -3.569  0.00  0.00     0.040 H 
BRANCH   3   6
ATOM      6  C   LIG d   1       5.740   0.684  -3.264  0.00  0.00     0.309 C 
ATOM      7  O   LIG d   1       5.352   1.460  -2.423  0.00  0.00    -0.251 OA
BRANCH   6   8
ATOM      8  O   LIG d   1       6.512   1.119  -4.272  0.00  0.00    -0.465 OA
BRANCH   8   9
ATOM      9  C   LIG d   1       7.944   0.916  -4.143  0.00  0.00     0.090 C 
ATOM     10  H   LIG d   1       8.136   0.172  -3.371  0.00  0.00     0.069 H 
ATOM     11  H   LIG d   1       8.348   0.564  -5.093  0.00  0.00     0.069 H 
BRANCH   9  12
ATOM     12  C   LIG d   1       8.614   2.236  -3.760  0.00  0.00    -0.031 C 
ATOM     13  H   LIG d   1       9.154   2.109  -2.821  0.00  0.00     0.026 H 
ATOM     14  H   LIG d   1       9.311   2.530  -4.544  0.00  0.00     0.026 H 
ATOM     15  H   LIG d   1       7.854   3.008  -3.640  0.00  0.00     0.026 H 
ENDBRANCH   9  12
ENDBRANCH   8   9
ENDBRANCH   6   8
ENDBRANCH   3   6
ENDBRANCH   1   3
BRANCH   1  16
ATOM     16  C   LIG d   1       2.862  -0.852  -3.119  0.00  0.00    -0.046 C 
ATOM     17  H   LIG d   1       3.038  -1.338  -2.160  0.00  0.00     0.025 H 
ATOM     18  H   LIG d   1       2.667   0.208  -2.960  0.00  0.00     0.025 H 
ATOM     19  H   LIG d   1       2.000  -1.312  -3.604  0.00  0.00     0.025 H 
ENDBRANCH   1  16
BRANCH   1  20
ATOM     20  N   LIG d   1       4.038  -0.049  -5.108  0.00  0.00    -0.308 N 
ATOM     21  C   LIG d   1       4.151  -0.471  -6.383  0.00  0.00     0.244 C 
ATOM     22  O   LIG d   1       4.303  -1.653  -6.621  0.00  0.00    -0.270 OA
ATOM     23  H   LIG d   1       3.918   0.894  -4.918  0.00  0.00     0.149 HD
BRANCH  21  24
ATOM     24  C   LIG d   1       4.094   0.505  -7.492  0.00  0.00     0.037 A 
ATOM     25  C   LIG d   1       2.895   1.153  -7.795  0.00  0.00    -0.050 A 
ATOM     26  C   LIG d   1       2.847   2.062  -8.832  0.00  0.00    -0.061 A 
ATOM     27  H   LIG d   1       2.005   0.942  -7.218  0.00  0.00     0.062 H 
ATOM     28  C   LIG d   1       3.985   2.331  -9.571  0.00  0.00    -0.062 A 
ATOM     29  H   LIG d   1       1.921   2.563  -9.066  0.00  0.00     0.062 H 
ATOM     30  C   LIG d   1       5.177   1.693  -9.277  0.00  0.00    -0.061 A 
ATOM     31  H   LIG d   1       3.944   3.047 -10.379  0.00  0.00     0.062 H 
ATOM     32  C   LIG d   1       5.238   0.781  -8.243  0.00  0.00    -0.050 A 
ATOM     33  H   LIG d   1       6.062   1.908  -9.857  0.00  0.00     0.062 H 
ATOM     34  H   LIG d   1       6.168   0.284  -8.014  0.00  0.00     0.062 H 
ENDBRANCH  21  24
ENDBRANCH   1  20
TORSDOF 8
ENDMDL
MODEL 5
REMARK VINA RESULT:      -4.9      1.978      4.870
REMARK  8 active torsions:
REMARK  status: ('A' for Active; 'I' for Inactive)
REMARK    1  A    between atoms: C_1  and  C_2 
REMARK    2  A    between atoms: C_2  and  O_3 
REMARK    3  A    between atoms: O_3  and  C_4 
REMARK    4  A    between atoms: C_4  and  C_6 
REMARK    5  A    between atoms: C_6  and  C_7 
REMARK    6  A    between atoms: C_7  and  C_9 
REMARK    7  A    between atoms: C_7  and  N_10 
REMARK       I    between atoms: N_10  and  C_11 
REMARK    8  A    between atoms: C_11  and  C_13 
ROOT
ATOM      1  C   LIG d   1       3.413  -0.011  -3.022  0.00  0.00     0.031 C 
ATOM      2  H   LIG d   1       2.346  -0.189  -2.892  0.00  0.00     0.050 H 
ENDROOT
BRANCH   1   3
ATOM      3  C   LIG d   1       4.201  -1.187  -2.443  0.00  0.00     0.063 C 
ATOM      4  H   LIG d   1       5.045  -0.811  -1.867  0.00  0.00     0.040 H 
ATOM      5  H   LIG d   1       3.551  -1.775  -1.795  0.00  0.00     0.040 H 
BRANCH   3   6
ATOM      6  C   LIG d   1       4.706  -2.055  -3.567  0.00  0.00     0.309 C 
ATOM      7  O   LIG d   1       4.055  -3.004  -3.937  0.00  0.00    -0.251 OA
BRANCH   6   8
ATOM      8  O   LIG d   1       5.878  -1.775  -4.158  0.00  0.00    -0.465 OA
BRANCH   8   9
ATOM      9  C   LIG d   1       6.912  -1.185  -3.327  0.00  0.00     0.090 C 
ATOM     10  H   LIG d   1       6.541  -1.076  -2.309  0.00  0.00     0.069 H 
ATOM     11  H   LIG d   1       7.790  -1.833  -3.325  0.00  0.00     0.069 H 
BRANCH   9  12
ATOM     12  C   LIG d   1       7.292   0.188  -3.882  0.00  0.00    -0.031 C 
ATOM     13  H   LIG d   1       7.526   0.861  -3.057  0.00  0.00     0.026 H 
ATOM     14  H   LIG d   1       8.162   0.090  -4.531  0.00  0.00     0.026 H 
ATOM     15  H   LIG d   1       6.456   0.593  -4.454  0.00  0.00     0.026 H 
ENDBRANCH   9  12
ENDBRANCH   8   9
ENDBRANCH   6   8
ENDBRANCH   3   6
ENDBRANCH   1   3
BRANCH   1  16
ATOM     16  C   LIG d   1       3.807   1.275  -2.293  0.00  0.00    -0.046 C 
ATOM     17  H   LIG d   1       2.923   1.896  -2.146  0.00  0.00     0.025 H 
ATOM     18  H   LIG d   1       4.241   1.026  -1.325  0.00  0.00     0.025 H 
ATOM     19  H   LIG d   1       4.538   1.821  -2.889  0.00  0.00     0.025 H 
ENDBRANCH   1  16
BRANCH   1  20
ATOM     20  N   LIG d   1       3.715   0.124  -4.449  0.00  0.00    -0.308 N 
ATOM     21  C   LIG d   1       2.713   0.254  -5.341  0.00  0.00     0.244 C 
ATOM     22  O   LIG d   1       1.558   0.257  -4.962  0.00  0.00    -0.270 OA
ATOM     23  H   LIG d   1       4.637   0.120  -4.752  0.00  0.00     0.149 HD
BRANCH  21  24
ATOM     24  C   LIG d   1       3.018   0.389  -6.782  0.00  0.00     0.037 A 
ATOM     25  C   LIG d   1       3.590  -0.675  -7.480  0.00  0.00    -0.050 A 
ATOM     26  C   LIG d   1       3.874  -0.542  -8.824  0.00  0.00    -0.061 A 
ATOM     27  H   LIG d   1       3.811  -1.601  -6.970  0.00  0.00     0.062 H 
ATOM     28  C   LIG d   1       3.592   0.645  -9.479  0.00  0.00    -0.062 A 
ATOM     29  H   LIG d   1       4.316  -1.364  -9.365  0.00  0.00     0.062 H 
ATOM     30  C   LIG d   1       3.025   1.703  -8.792  0.00  0.00    -0.061 A 
ATOM     31  H   LIG d   1       3.811   0.743 -10.532  0.00  0.00     0.062 H 
ATOM     32  C   LIG d   1       2.737   1.583  -7.448  0.00  0.00    -0.050 A 
ATOM     33  H   LIG d   1       2.806   2.626  -9.309  0.00  0.00     0.062 H 
ATOM     34  H   LIG d   1       2.294   2.410  -6.913  0.00  0.00     0.062 H 
ENDBRANCH  21  24
ENDBRANCH   1  20
TORSDOF 8
ENDMDL
MODEL 6
REMARK VINA RESULT:      -4.9      1.987      5.292
REMARK  8 active torsions:
REMARK  status: ('A' for Active; 'I' for Inactive)
REMARK    1  A    between atoms: C_1  and  C_2 
REMARK    2  A    between atoms: C_2  and  O_3 
REMARK    3  A    between atoms: O_3  and  C_4 
REMARK    4  A    between atoms: C_4  and  C_6 
REMARK    5  A    between atoms: C_6  and  C_7 
REMARK    6  A    between atoms: C_7  and  C_9 
REMARK    7  A    between atoms: C_7  and  N_10 
REMARK       I    between atoms: N_10  and  C_11 
REMARK    8  A    between atoms: C_11  and  C_13 
ROOT
ATOM      1  C   LIG d   1       5.357  -1.572  -4.392  0.00  0.00     0.031 C 
ATOM      2  H   LIG d   1       5.869  -2.358  -4.947  0.00  0.00     0.050 H 
ENDROOT
BRANCH   1   3
ATOM      3  C   LIG d   1       6.285  -1.030  -3.303  0.00  0.00     0.063 C 
ATOM      4  H   LIG d   1       5.807  -1.139  -2.330  0.00  0.00     0.040 H 
ATOM      5  H   LIG d   1       7.221  -1.588  -3.312  0.00  0.00     0.040 H 
BRANCH   3   6
ATOM      6  C   LIG d   1       6.568   0.428  -3.563  0.00  0.00     0.309 C 
ATOM      7  O   LIG d   1       7.380   0.745  -4.400  0.00  0.00    -0.251 OA
BRANCH   6   8
ATOM      8  O   LIG d   1       5.917   1.373  -2.867  0.00  0.00    -0.465 OA
BRANCH   8   9
ATOM      9  C   LIG d   1       4.903   0.923  -1.931  0.00  0.00     0.090 C 
ATOM     10  H   LIG d   1       4.950  -0.161  -1.838  0.00  0.00     0.069 H 
ATOM     11  H   LIG d   1       5.081   1.379  -0.956  0.00  0.00     0.069 H 
BRANCH   9  12
ATOM     12  C   LIG d   1       3.521   1.333  -2.441  0.00  0.00    -0.031 C 
ATOM     13  H   LIG d   1       3.629   2.098  -3.211  0.00  0.00     0.026 H 
ATOM     14  H   LIG d   1       3.016   0.463  -2.861  0.00  0.00     0.026 H 
ATOM     15  H   LIG d   1       2.931   1.731  -1.615  0.00  0.00     0.026 H 
ENDBRANCH   9  12
ENDBRANCH   8   9
ENDBRANCH   6   8
ENDBRANCH   3   6
ENDBRANCH   1   3
BRANCH   1  16
ATOM     16  C   LIG d   1       4.093  -2.143  -3.747  0.00  0.00    -0.046 C 
ATOM     17  H   LIG d   1       3.977  -3.187  -4.037  0.00  0.00     0.025 H 
ATOM     18  H   LIG d   1       4.175  -2.074  -2.663  0.00  0.00     0.025 H 
ATOM     19  H   LIG d   1       3.225  -1.575  -4.083  0.00  0.00     0.025 H 
ENDBRANCH   1  16
BRANCH   1  20
ATOM     20  N   LIG d   1       4.993  -0.487  -5.306  0.00  0.00    -0.308 N 
ATOM     21  C   LIG d   1       4.845  -0.737  -6.623  0.00  0.00     0.244 C 
ATOM     22  O   LIG d   1       5.016  -1.861  -7.052  0.00  0.00    -0.270 OA
ATOM     23  H   LIG d   1       4.856   0.410  -4.965  0.00  0.00     0.149 HD
BRANCH  21  24
ATOM     24  C   LIG d   1       4.477   0.358  -7.546  0.00  0.00     0.037 A 
ATOM     25  C   LIG d   1       5.444   0.935  -8.371  0.00  0.00    -0.050 A 
ATOM     26  C   LIG d   1       5.095   1.957  -9.230  0.00  0.00    -0.061 A 
ATOM     27  H   LIG d   1       6.465   0.581  -8.337  0.00  0.00     0.062 H 
ATOM     28  C   LIG d   1       3.788   2.411  -9.273  0.00  0.00    -0.062 A 
ATOM     29  H   LIG d   1       5.842   2.403  -9.868  0.00  0.00     0.062 H 
ATOM     30  C   LIG d   1       2.825   1.844  -8.458  0.00  0.00    -0.061 A 
ATOM     31  H   LIG d   1       3.519   3.208  -9.950  0.00  0.00     0.062 H 
ATOM     32  C   LIG d   1       3.161   0.821  -7.595  0.00  0.00    -0.050 A 
ATOM     33  H   LIG d   1       1.807   2.201  -8.498  0.00  0.00     0.062 H 
ATOM     34  H   LIG d   1       2.409   0.379  -6.960  0.00  0.00     0.062 H 
ENDBRANCH  21  24
ENDBRANCH   1  20
TORSDOF 8
ENDMDL
MODEL 7
REMARK VINA RESULT:      -4.9      2.265      4.167
REMARK  8 active torsions:
REMARK  status: ('A' for Active; 'I' for Inactive)
REMARK    1  A    between atoms: C_1  and  C_2 
REMARK    2  A    between atoms: C_2  and  O_3 
REMARK    3  A    between atoms: O_3  and  C_4 
REMARK    4  A    between atoms: C_4  and  C_6 
REMARK    5  A    between atoms: C_6  and  C_7 
REMARK    6  A    between atoms: C_7  and  C_9 
REMARK    7  A    between atoms: C_7  and  N_10 
REMARK       I    between atoms: N_10  and  C_11 
REMARK    8  A    between atoms: C_11  and  C_13 
ROOT
ATOM      1  C   LIG d   1       2.967   0.376  -8.487  0.00  0.00     0.031 C 
ATOM      2  H   LIG d   1       3.942   0.111  -8.895  0.00  0.00     0.050 H 
ENDROOT
BRANCH   1   3
ATOM      3  C   LIG d   1       1.867  -0.218  -9.368  0.00  0.00     0.063 C 
ATOM      4  H   LIG d   1       0.902  -0.097  -8.877  0.00  0.00     0.040 H 
ATOM      5  H   LIG d   1       1.852   0.297 -10.328  0.00  0.00     0.040 H 
BRANCH   3   6
ATOM      6  C   LIG d   1       2.136  -1.685  -9.589  0.00  0.00     0.309 C 
ATOM      7  O   LIG d   1       3.141  -2.188  -9.143  0.00  0.00    -0.251 OA
BRANCH   6   8
ATOM      8  O   LIG d   1       1.261  -2.432 -10.280  0.00  0.00    -0.465 OA
BRANCH   8   9
ATOM      9  C   LIG d   1       1.523  -2.616 -11.696  0.00  0.00     0.090 C 
ATOM     10  H   LIG d   1       2.511  -2.225 -11.936  0.00  0.00     0.069 H 
ATOM     11  H   LIG d   1       1.485  -3.679 -11.937  0.00  0.00     0.069 H 
BRANCH   9  12
ATOM     12  C   LIG d   1       0.467  -1.870 -12.511  0.00  0.00    -0.031 C 
ATOM     13  H   LIG d   1       0.582  -0.796 -12.359  0.00  0.00     0.026 H 
ATOM     14  H   LIG d   1       0.591  -2.103 -13.568  0.00  0.00     0.026 H 
ATOM     15  H   LIG d   1      -0.528  -2.177 -12.186  0.00  0.00     0.026 H 
ENDBRANCH   9  12
ENDBRANCH   8   9
ENDBRANCH   6   8
ENDBRANCH   3   6
ENDBRANCH   1   3
BRANCH   1  16
ATOM     16  C   LIG d   1       2.826   1.898  -8.452  0.00  0.00    -0.046 C 
ATOM     17  H   LIG d   1       3.792   2.348  -8.223  0.00  0.00     0.025 H 
ATOM     18  H   LIG d   1       2.480   2.254  -9.423  0.00  0.00     0.025 H 
ATOM     19  H   LIG d   1       2.104   2.180  -7.684  0.00  0.00     0.025 H 
ENDBRANCH   1  16
BRANCH   1  20
ATOM     20  N   LIG d   1       2.845  -0.158  -7.128  0.00  0.00    -0.308 N 
ATOM     21  C   LIG d   1       3.940  -0.282  -6.353  0.00  0.00     0.244 C 
ATOM     22  O   LIG d   1       5.029   0.047  -6.780  0.00  0.00    -0.270 OA
ATOM     23  H   LIG d   1       1.976  -0.421  -6.786  0.00  0.00     0.149 HD
BRANCH  21  24
ATOM     24  C   LIG d   1       3.817  -0.821  -4.980  0.00  0.00     0.037 A 
ATOM     25  C   LIG d   1       2.924  -0.242  -4.078  0.00  0.00    -0.050 A 
ATOM     26  C   LIG d   1       2.814  -0.749  -2.799  0.00  0.00    -0.061 A 
ATOM     27  H   LIG d   1       2.319   0.601  -4.379  0.00  0.00     0.062 H 
ATOM     28  C   LIG d   1       3.590  -1.828  -2.411  0.00  0.00    -0.062 A 
ATOM     29  H   LIG d   1       2.124  -0.302  -2.100  0.00  0.00     0.062 H 
ATOM     30  C   LIG d   1       4.477  -2.406  -3.301  0.00  0.00    -0.061 A 
ATOM     31  H   LIG d   1       3.497  -2.224  -1.411  0.00  0.00     0.062 H 
ATOM     32  C   LIG d   1       4.596  -1.909  -4.583  0.00  0.00    -0.050 A 
ATOM     33  H   LIG d   1       5.078  -3.248  -2.993  0.00  0.00     0.062 H 
ATOM     34  H   LIG d   1       5.289  -2.360  -5.276  0.00  0.00     0.062 H 
ENDBRANCH  21  24
ENDBRANCH   1  20
TORSDOF 8
ENDMDL
MODEL 8
REMARK VINA RESULT:      -4.9      2.126      3.265
REMARK  8 active torsions:
REMARK  status: ('A' for Active; 'I' for Inactive)
REMARK    1  A    between atoms: C_1  and  C_2 
REMARK    2  A    between atoms: C_2  and  O_3 
REMARK    3  A    between atoms: O_3  and  C_4 
REMARK    4  A    between atoms: C_4  and  C_6 
REMARK    5  A    between atoms: C_6  and  C_7 
REMARK    6  A    between atoms: C_7  and  C_9 
REMARK    7  A    between atoms: C_7  and  N_10 
REMARK       I    between atoms: N_10  and  C_11 
REMARK    8  A    between atoms: C_11  and  C_13 
ROOT
ATOM      1  C   LIG d   1       4.395  -2.709  -7.297  0.00  0.00     0.031 C 
ATOM      2  H   LIG d   1       3.984  -3.648  -6.928  0.00  0.00     0.050 H 
ENDROOT
BRANCH   1   3
ATOM      3  C   LIG d   1       3.595  -2.247  -8.517  0.00  0.00     0.063 C 
ATOM      4  H   LIG d   1       4.162  -2.456  -9.424  0.00  0.00     0.040 H 
ATOM      5  H   LIG d   1       2.645  -2.780  -8.552  0.00  0.00     0.040 H 
BRANCH   3   6
ATOM      6  C   LIG d   1       3.336  -0.765  -8.418  0.00  0.00     0.309 C 
ATOM      7  O   LIG d   1       2.290  -0.365  -7.963  0.00  0.00    -0.251 OA
BRANCH   6   8
ATOM      8  O   LIG d   1       4.266   0.109  -8.832  0.00  0.00    -0.465 OA
BRANCH   8   9
ATOM      9  C   LIG d   1       3.882   1.033  -9.883  0.00  0.00     0.090 C 
ATOM     10  H   LIG d   1       4.588   0.955 -10.710  0.00  0.00     0.069 H 
ATOM     11  H   LIG d   1       2.881   0.785 -10.236  0.00  0.00     0.069 H 
BRANCH   9  12
ATOM     12  C   LIG d   1       3.893   2.461  -9.337  0.00  0.00    -0.031 C 
ATOM     13  H   LIG d   1       3.615   3.156 -10.130  0.00  0.00     0.026 H 
ATOM     14  H   LIG d   1       3.180   2.541  -8.516  0.00  0.00     0.026 H 
ATOM     15  H   LIG d   1       4.892   2.705  -8.975  0.00  0.00     0.026 H 
ENDBRANCH   9  12
ENDBRANCH   8   9
ENDBRANCH   6   8
ENDBRANCH   3   6
ENDBRANCH   1   3
BRANCH   1  16
ATOM     16  C   LIG d   1       5.858  -2.913  -7.694  0.00  0.00    -0.046 C 
ATOM     17  H   LIG d   1       6.209  -2.044  -8.250  0.00  0.00     0.025 H 
ATOM     18  H   LIG d   1       6.464  -3.038  -6.797  0.00  0.00     0.025 H 
ATOM     19  H   LIG d   1       5.945  -3.802  -8.319  0.00  0.00     0.025 H 
ENDBRANCH   1  16
BRANCH   1  20
ATOM     20  N   LIG d   1       4.310  -1.692  -6.246  0.00  0.00    -0.308 N 
ATOM     21  C   LIG d   1       4.260  -2.065  -4.952  0.00  0.00     0.244 C 
ATOM     22  O   LIG d   1       4.284  -3.244  -4.656  0.00  0.00    -0.270 OA
ATOM     23  H   LIG d   1       4.291  -0.751  -6.481  0.00  0.00     0.149 HD
BRANCH  21  24
ATOM     24  C   LIG d   1       4.174  -1.039  -3.889  0.00  0.00     0.037 A 
ATOM     25  C   LIG d   1       4.648  -1.317  -2.607  0.00  0.00    -0.050 A 
ATOM     26  C   LIG d   1       4.564  -0.356  -1.620  0.00  0.00    -0.061 A 
ATOM     27  H   LIG d   1       5.078  -2.283  -2.386  0.00  0.00     0.062 H 
ATOM     28  C   LIG d   1       4.011   0.882  -1.901  0.00  0.00    -0.062 A 
ATOM     29  H   LIG d   1       4.930  -0.570  -0.627  0.00  0.00     0.062 H 
ATOM     30  C   LIG d   1       3.541   1.163  -3.171  0.00  0.00    -0.061 A 
ATOM     31  H   LIG d   1       3.952   1.632  -1.127  0.00  0.00     0.062 H 
ATOM     32  C   LIG d   1       3.618   0.211  -4.167  0.00  0.00    -0.050 A 
ATOM     33  H   LIG d   1       3.112   2.131  -3.385  0.00  0.00     0.062 H 
ATOM     34  H   LIG d   1       3.251   0.432  -5.157  0.00  0.00     0.062 H 
ENDBRANCH  21  24
ENDBRANCH   1  20
TORSDOF 8
ENDMDL
MODEL 9
REMARK VINA RESULT:      -4.8      2.007      4.853
REMARK  8 active torsions:
REMARK  status: ('A' for Active; 'I' for Inactive)
REMARK    1  A    between atoms: C_1  and  C_2 
REMARK    2  A    between atoms: C_2  and  O_3 
REMARK    3  A    between atoms: O_3  and  C_4 
REMARK    4  A    between atoms: C_4  and  C_6 
REMARK    5  A    between atoms: C_6  and  C_7 
REMARK    6  A    between atoms: C_7  and  C_9 
REMARK    7  A    between atoms: C_7  and  N_10 
REMARK       I    between atoms: N_10  and  C_11 
REMARK    8  A    between atoms: C_11  and  C_13 
ROOT
ATOM      1  C   LIG d   1       3.747  -0.582  -2.920  0.00  0.00     0.031 C 
ATOM      2  H   LIG d   1       3.623   0.181  -2.152  0.00  0.00     0.050 H 
ENDROOT
BRANCH   1   3
ATOM      3  C   LIG d   1       2.587  -0.500  -3.914  0.00  0.00     0.063 C 
ATOM      4  H   LIG d   1       2.423  -1.479  -4.363  0.00  0.00     0.040 H 
ATOM      5  H   LIG d   1       1.684  -0.184  -3.392  0.00  0.00     0.040 H 
BRANCH   3   6
ATOM      6  C   LIG d   1       2.920   0.498  -4.993  0.00  0.00     0.309 C 
ATOM      7  O   LIG d   1       2.635   1.664  -4.845  0.00  0.00    -0.251 OA
BRANCH   6   8
ATOM      8  O   LIG d   1       3.532   0.095  -6.117  0.00  0.00    -0.465 OA
BRANCH   8   9
ATOM      9  C   LIG d   1       3.095   0.700  -7.361  0.00  0.00     0.090 C 
ATOM     10  H   LIG d   1       2.394   1.506  -7.146  0.00  0.00     0.069 H 
ATOM     11  H   LIG d   1       3.958   1.103  -7.892  0.00  0.00     0.069 H 
BRANCH   9  12
ATOM     12  C   LIG d   1       2.408  -0.355  -8.229  0.00  0.00    -0.031 C 
ATOM     13  H   LIG d   1       3.126  -1.132  -8.493  0.00  0.00     0.026 H 
ATOM     14  H   LIG d   1       1.580  -0.797  -7.676  0.00  0.00     0.026 H 
ATOM     15  H   LIG d   1       2.029   0.112  -9.138  0.00  0.00     0.026 H 
ENDBRANCH   9  12
ENDBRANCH   8   9
ENDBRANCH   6   8
ENDBRANCH   3   6
ENDBRANCH   1   3
BRANCH   1  16
ATOM     16  C   LIG d   1       3.762  -1.965  -2.266  0.00  0.00    -0.046 C 
ATOM     17  H   LIG d   1       2.969  -2.578  -2.694  0.00  0.00     0.025 H 
ATOM     18  H   LIG d   1       4.725  -2.442  -2.445  0.00  0.00     0.025 H 
ATOM     19  H   LIG d   1       3.601  -1.862  -1.193  0.00  0.00     0.025 H 
ENDBRANCH   1  16
BRANCH   1  20
ATOM     20  N   LIG d   1       5.011  -0.362  -3.626  0.00  0.00    -0.308 N 
ATOM     21  C   LIG d   1       5.859   0.598  -3.206  0.00  0.00     0.244 C 
ATOM     22  O   LIG d   1       5.575   1.282  -2.243  0.00  0.00    -0.270 OA
ATOM     23  H   LIG d   1       5.239  -0.907  -4.396  0.00  0.00     0.149 HD
BRANCH  21  24
ATOM     24  C   LIG d   1       7.136   0.821  -3.920  0.00  0.00     0.037 A 
ATOM     25  C   LIG d   1       7.711  -0.209  -4.665  0.00  0.00    -0.050 A 
ATOM     26  C   LIG d   1       8.903   0.004  -5.327  0.00  0.00    -0.061 A 
ATOM     27  H   LIG d   1       7.225  -1.173  -4.723  0.00  0.00     0.062 H 
ATOM     28  C   LIG d   1       9.527   1.237  -5.253  0.00  0.00    -0.062 A 
ATOM     29  H   LIG d   1       9.348  -0.792  -5.904  0.00  0.00     0.062 H 
ATOM     30  C   LIG d   1       8.962   2.262  -4.516  0.00  0.00    -0.061 A 
ATOM     31  H   LIG d   1      10.457   1.401  -5.777  0.00  0.00     0.062 H 
ATOM     32  C   LIG d   1       7.771   2.062  -3.848  0.00  0.00    -0.050 A 
ATOM     33  H   LIG d   1       9.453   3.222  -4.462  0.00  0.00     0.062 H 
ATOM     34  H   LIG d   1       7.331   2.862  -3.274  0.00  0.00     0.062 H 
ENDBRANCH  21  24
ENDBRANCH   1  20
TORSDOF 8
ENDMDL
MODEL 10
REMARK VINA RESULT:      -4.7      2.062      4.025
REMARK  8 active torsions:
REMARK  status: ('A' for Active; 'I' for Inactive)
REMARK    1  A    between atoms: C_1  and  C_2 
REMARK    2  A    between atoms: C_2  and  O_3 
REMARK    3  A    between atoms: O_3  and  C_4 
REMARK    4  A    between atoms: C_4  and  C_6 
REMARK    5  A    between atoms: C_6  and  C_7 
REMARK    6  A    between atoms: C_7  and  C_9 
REMARK    7  A    between atoms: C_7  and  N_10 
REMARK       I    between atoms: N_10  and  C_11 
REMARK    8  A    between atoms: C_11  and  C_13 
ROOT
ATOM      1  C   LIG d   1       8.220   1.332  -6.608  0.00  0.00     0.031 C 
ATOM      2  H   LIG d   1       8.878   0.464  -6.629  0.00  0.00     0.050 H 
ENDROOT
BRANCH   1   3
ATOM      3  C   LIG d   1       7.579   1.519  -7.985  0.00  0.00     0.063 C 
ATOM      4  H   LIG d   1       7.346   2.572  -8.137  0.00  0.00     0.040 H 
ATOM      5  H   LIG d   1       8.273   1.186  -8.756  0.00  0.00     0.040 H 
BRANCH   3   6
ATOM      6  C   LIG d   1       6.312   0.707  -8.065  0.00  0.00     0.309 C 
ATOM      7  O   LIG d   1       6.370  -0.484  -8.266  0.00  0.00    -0.251 OA
BRANCH   6   8
ATOM      8  O   LIG d   1       5.120   1.304  -7.912  0.00  0.00    -0.465 OA
BRANCH   8   9
ATOM      9  C   LIG d   1       4.098   0.999  -8.897  0.00  0.00     0.090 C 
ATOM     10  H   LIG d   1       4.561   0.546  -9.772  0.00  0.00     0.069 H 
ATOM     11  H   LIG d   1       3.377   0.303  -8.467  0.00  0.00     0.069 H 
BRANCH   9  12
ATOM     12  C   LIG d   1       3.383   2.287  -9.306  0.00  0.00    -0.031 C 
ATOM     13  H   LIG d   1       4.012   3.144  -9.064  0.00  0.00     0.026 H 
ATOM     14  H   LIG d   1       3.188   2.270 -10.378  0.00  0.00     0.026 H 
ATOM     15  H   LIG d   1       2.439   2.366  -8.766  0.00  0.00     0.026 H 
ENDBRANCH   9  12
ENDBRANCH   8   9
ENDBRANCH   6   8
ENDBRANCH   3   6
ENDBRANCH   1   3
BRANCH   1  16
ATOM     16  C   LIG d   1       9.030   2.579  -6.249  0.00  0.00    -0.046 C 
ATOM     17  H   LIG d   1       9.997   2.280  -5.845  0.00  0.00     0.025 H 
ATOM     18  H   LIG d   1       9.182   3.184  -7.142  0.00  0.00     0.025 H 
ATOM     19  H   LIG d   1       8.491   3.161  -5.502  0.00  0.00     0.025 H 
ENDBRANCH   1  16
BRANCH   1  20
ATOM     20  N   LIG d   1       7.171   1.126  -5.607  0.00  0.00    -0.308 N 
ATOM     21  C   LIG d   1       7.319   0.174  -4.663  0.00  0.00     0.244 C 
ATOM     22  O   LIG d   1       8.321  -0.513  -4.644  0.00  0.00    -0.270 OA
ATOM     23  H   LIG d   1       6.371   1.674  -5.621  0.00  0.00     0.149 HD
BRANCH  21  24
ATOM     24  C   LIG d   1       6.260  -0.034  -3.651  0.00  0.00     0.037 A 
ATOM     25  C   LIG d   1       5.729   1.054  -2.957  0.00  0.00    -0.050 A 
ATOM     26  C   LIG d   1       4.742   0.852  -2.014  0.00  0.00    -0.061 A 
ATOM     27  H   LIG d   1       6.091   2.052  -3.157  0.00  0.00     0.062 H 
ATOM     28  C   LIG d   1       4.279  -0.426  -1.756  0.00  0.00    -0.062 A 
ATOM     29  H   LIG d   1       4.331   1.694  -1.477  0.00  0.00     0.062 H 
ATOM     30  C   LIG d   1       4.801  -1.509  -2.441  0.00  0.00    -0.061 A 
ATOM     31  H   LIG d   1       3.503  -0.578  -1.020  0.00  0.00     0.062 H 
ATOM     32  C   LIG d   1       5.788  -1.321  -3.386  0.00  0.00    -0.050 A 
ATOM     33  H   LIG d   1       4.435  -2.504  -2.236  0.00  0.00     0.062 H 
ATOM     34  H   LIG d   1       6.195  -2.167  -3.920  0.00  0.00     0.062 H 
ENDBRANCH  21  24
ENDBRANCH   1  20
TORSDOF 8
ENDMDL
