MODEL 1
REMARK VINA RESULT:      -5.2      0.000      0.000
REMARK  13 active torsions:
REMARK  status: ('A' for Active; 'I' for Inactive)
REMARK    1  A    between atoms: C_1  and  C_2 
REMARK    2  A    between atoms: C_3  and  C_4 
REMARK    3  A    between atoms: C_7  and  O_12 
REMARK    4  A    between atoms: C_8  and  O_10 
REMARK    5  A    between atoms: O_10  and  C_11 
REMARK    6  A    between atoms: O_12  and  C_13 
REMARK    7  A    between atoms: C_13  and  C_15 
REMARK    8  A    between atoms: C_13  and  C_16 
REMARK    9  A    between atoms: C_16  and  C_18 
REMARK   10  A    between atoms: C_16  and  O_27 
REMARK   11  A    between atoms: C_21  and  O_26 
REMARK   12  A    between atoms: C_22  and  O_24 
REMARK   13  A    between atoms: O_24  and  C_25 
ROOT
ATOM      1  C   LIG d   1       6.440  -3.217  -5.413  0.00  0.00     0.127 C 
ATOM      2  H   LIG d   1       7.068  -2.406  -5.045  0.00  0.00     0.076 H 
ENDROOT
BRANCH   1   3
ATOM      3  O   LIG d   1       6.044  -2.939  -6.758  0.00  0.00    -0.482 OA
BRANCH   3   4
ATOM      4  C   LIG d   1       6.354  -1.710  -7.251  0.00  0.00     0.163 A 
ATOM      5  C   LIG d   1       7.668  -1.407  -7.575  0.00  0.00    -0.016 A 
ATOM      6  C   LIG d   1       7.989  -0.162  -8.075  0.00  0.00    -0.051 A 
ATOM      7  H   LIG d   1       8.443  -2.146  -7.434  0.00  0.00     0.066 H 
ATOM      8  C   LIG d   1       6.989   0.796  -8.257  0.00  0.00    -0.022 A 
ATOM      9  H   LIG d   1       9.013   0.072  -8.326  0.00  0.00     0.062 H 
ATOM     10  C   LIG d   1       5.667   0.490  -7.933  0.00  0.00    -0.009 A 
ATOM     11  C   LIG d   1       5.352  -0.762  -7.436  0.00  0.00     0.162 A 
ATOM     12  H   LIG d   1       4.891   1.228  -8.072  0.00  0.00     0.066 H 
BRANCH   8  13
ATOM     13  C   LIG d   1       7.331   2.129  -8.793  0.00  0.00    -0.059 C 
ATOM     14  C   LIG d   1       8.558   2.610  -8.643  0.00  0.00    -0.086 C 
ATOM     15  H   LIG d   1       9.307   2.027  -8.129  0.00  0.00     0.057 H 
ATOM     16  H   LIG d   1       6.581   2.713  -9.308  0.00  0.00     0.062 H 
BRANCH  14  17
ATOM     17  C   LIG d   1       8.906   3.970  -9.190  0.00  0.00    -0.046 C 
ATOM     18  H   LIG d   1       8.916   3.933 -10.280  0.00  0.00     0.027 H 
ATOM     19  H   LIG d   1       8.164   4.697  -8.859  0.00  0.00     0.027 H 
ATOM     20  H   LIG d   1       9.891   4.266  -8.828  0.00  0.00     0.027 H 
ENDBRANCH  14  17
ENDBRANCH   8  13
BRANCH  11  21
ATOM     21  O   LIG d   1       4.063  -1.064  -7.124  0.00  0.00    -0.491 OA
BRANCH  21  22
ATOM     22  C   LIG d   1       3.327  -0.086  -6.386  0.00  0.00     0.079 C 
ATOM     23  H   LIG d   1       2.260  -0.287  -6.483  0.00  0.00     0.066 H 
ATOM     24  H   LIG d   1       3.612  -0.133  -5.336  0.00  0.00     0.066 H 
ATOM     25  H   LIG d   1       3.548   0.906  -6.779  0.00  0.00     0.066 H 
ENDBRANCH  21  22
ENDBRANCH  11  21
ENDBRANCH   3   4
ENDBRANCH   1   3
BRANCH   1  26
ATOM     26  C   LIG d   1       7.224  -4.530  -5.374  0.00  0.00    -0.025 C 
ATOM     27  H   LIG d   1       7.464  -4.841  -6.391  0.00  0.00     0.027 H 
ATOM     28  H   LIG d   1       8.147  -4.385  -4.812  0.00  0.00     0.027 H 
ATOM     29  H   LIG d   1       6.622  -5.299  -4.892  0.00  0.00     0.027 H 
ENDBRANCH   1  26
BRANCH   1  30
ATOM     30  C   LIG d   1       5.196  -3.339  -4.530  0.00  0.00     0.117 C 
ATOM     31  H   LIG d   1       5.286  -4.222  -3.898  0.00  0.00     0.068 H 
BRANCH  30  32
ATOM     32  C   LIG d   1       5.072  -2.112  -3.665  0.00  0.00    -0.012 A 
ATOM     33  C   LIG d   1       5.948  -1.056  -3.837  0.00  0.00    -0.011 A 
ATOM     34  C   LIG d   1       5.836   0.073  -3.041  0.00  0.00     0.162 A 
ATOM     35  H   LIG d   1       6.719  -1.111  -4.590  0.00  0.00     0.066 H 
ATOM     36  C   LIG d   1       4.840   0.141  -2.071  0.00  0.00     0.159 A 
ATOM     37  C   LIG d   1       3.963  -0.919  -1.908  0.00  0.00    -0.016 A 
ATOM     38  C   LIG d   1       4.084  -2.045  -2.701  0.00  0.00    -0.052 A 
ATOM     39  H   LIG d   1       3.187  -0.868  -1.158  0.00  0.00     0.066 H 
ATOM     40  H   LIG d   1       3.402  -2.872  -2.570  0.00  0.00     0.062 H 
BRANCH  34  41
ATOM     41  O   LIG d   1       6.695   1.113  -3.208  0.00  0.00    -0.491 OA
BRANCH  41  42
ATOM     42  C   LIG d   1       7.664   0.991  -4.252  0.00  0.00     0.079 C 
ATOM     43  H   LIG d   1       7.365   1.610  -5.099  0.00  0.00     0.066 H 
ATOM     44  H   LIG d   1       8.637   1.323  -3.886  0.00  0.00     0.066 H 
ATOM     45  H   LIG d   1       7.731  -0.050  -4.566  0.00  0.00     0.066 H 
ENDBRANCH  41  42
ENDBRANCH  34  41
BRANCH  36  46
ATOM     46  O   LIG d   1       4.725   1.247  -1.288  0.00  0.00    -0.503 OA
ATOM     47  H   LIG d   1       4.957   2.072  -1.735  0.00  0.00     0.292 HD
ENDBRANCH  36  46
ENDBRANCH  30  32
BRANCH  30  48
ATOM     48  O   LIG d   1       4.036  -3.460  -5.356  0.00  0.00    -0.384 OA
ATOM     49  H   LIG d   1       4.233  -3.582  -6.295  0.00  0.00     0.210 HD
ENDBRANCH  30  48
ENDBRANCH   1  30
TORSDOF 13
ENDMDL
MODEL 2
REMARK VINA RESULT:      -5.0      2.301      5.304
REMARK  13 active torsions:
REMARK  status: ('A' for Active; 'I' for Inactive)
REMARK    1  A    between atoms: C_1  and  C_2 
REMARK    2  A    between atoms: C_3  and  C_4 
REMARK    3  A    between atoms: C_7  and  O_12 
REMARK    4  A    between atoms: C_8  and  O_10 
REMARK    5  A    between atoms: O_10  and  C_11 
REMARK    6  A    between atoms: O_12  and  C_13 
REMARK    7  A    between atoms: C_13  and  C_15 
REMARK    8  A    between atoms: C_13  and  C_16 
REMARK    9  A    between atoms: C_16  and  C_18 
REMARK   10  A    between atoms: C_16  and  O_27 
REMARK   11  A    between atoms: C_21  and  O_26 
REMARK   12  A    between atoms: C_22  and  O_24 
REMARK   13  A    between atoms: O_24  and  C_25 
ROOT
ATOM      1  C   LIG d   1       4.372  -0.743  -3.728  0.00  0.00     0.127 C 
ATOM      2  H   LIG d   1       3.748  -1.521  -4.167  0.00  0.00     0.076 H 
ENDROOT
BRANCH   1   3
ATOM      3  O   LIG d   1       4.641   0.261  -4.708  0.00  0.00    -0.482 OA
BRANCH   3   4
ATOM      4  C   LIG d   1       4.217   0.015  -5.977  0.00  0.00     0.163 A 
ATOM      5  C   LIG d   1       2.880   0.185  -6.305  0.00  0.00    -0.016 A 
ATOM      6  C   LIG d   1       2.445  -0.064  -7.590  0.00  0.00    -0.051 A 
ATOM      7  H   LIG d   1       2.178   0.513  -5.552  0.00  0.00     0.066 H 
ATOM      8  C   LIG d   1       3.351  -0.488  -8.563  0.00  0.00    -0.022 A 
ATOM      9  H   LIG d   1       1.403   0.069  -7.842  0.00  0.00     0.062 H 
ATOM     10  C   LIG d   1       4.696  -0.659  -8.234  0.00  0.00    -0.009 A 
ATOM     11  C   LIG d   1       5.127  -0.402  -6.945  0.00  0.00     0.162 A 
ATOM     12  H   LIG d   1       5.400  -0.987  -8.983  0.00  0.00     0.066 H 
BRANCH   8  13
ATOM     13  C   LIG d   1       2.887  -0.755  -9.940  0.00  0.00    -0.059 C 
ATOM     14  C   LIG d   1       1.588  -0.850 -10.195  0.00  0.00    -0.086 C 
ATOM     15  H   LIG d   1       0.871  -0.732  -9.397  0.00  0.00     0.057 H 
ATOM     16  H   LIG d   1       3.604  -0.873 -10.739  0.00  0.00     0.062 H 
BRANCH  14  17
ATOM     17  C   LIG d   1       1.115  -1.122 -11.600  0.00  0.00    -0.046 C 
ATOM     18  H   LIG d   1       0.832  -2.171 -11.692  0.00  0.00     0.027 H 
ATOM     19  H   LIG d   1       0.254  -0.492 -11.823  0.00  0.00     0.027 H 
ATOM     20  H   LIG d   1       1.919  -0.900 -12.303  0.00  0.00     0.027 H 
ENDBRANCH  14  17
ENDBRANCH   8  13
BRANCH  11  21
ATOM     21  O   LIG d   1       6.438  -0.563  -6.621  0.00  0.00    -0.491 OA
BRANCH  21  22
ATOM     22  C   LIG d   1       7.216  -1.411  -7.469  0.00  0.00     0.079 C 
ATOM     23  H   LIG d   1       6.747  -2.393  -7.530  0.00  0.00     0.066 H 
ATOM     24  H   LIG d   1       7.275  -0.973  -8.465  0.00  0.00     0.066 H 
ATOM     25  H   LIG d   1       8.220  -1.512  -7.057  0.00  0.00     0.066 H 
ENDBRANCH  21  22
ENDBRANCH  11  21
ENDBRANCH   3   4
ENDBRANCH   1   3
BRANCH   1  26
ATOM     26  C   LIG d   1       3.645  -0.114  -2.538  0.00  0.00    -0.025 C 
ATOM     27  H   LIG d   1       4.124  -0.429  -1.611  0.00  0.00     0.027 H 
ATOM     28  H   LIG d   1       3.689   0.972  -2.619  0.00  0.00     0.027 H 
ATOM     29  H   LIG d   1       2.604  -0.436  -2.537  0.00  0.00     0.027 H 
ENDBRANCH   1  26
BRANCH   1  30
ATOM     30  C   LIG d   1       5.692  -1.356  -3.252  0.00  0.00     0.117 C 
ATOM     31  H   LIG d   1       5.625  -1.579  -2.187  0.00  0.00     0.068 H 
BRANCH  30  32
ATOM     32  C   LIG d   1       5.958  -2.628  -4.015  0.00  0.00    -0.012 A 
ATOM     33  C   LIG d   1       4.903  -3.349  -4.543  0.00  0.00    -0.011 A 
ATOM     34  C   LIG d   1       5.146  -4.520  -5.244  0.00  0.00     0.162 A 
ATOM     35  H   LIG d   1       3.890  -3.001  -4.410  0.00  0.00     0.066 H 
ATOM     36  C   LIG d   1       6.453  -4.966  -5.415  0.00  0.00     0.159 A 
ATOM     37  C   LIG d   1       7.506  -4.236  -4.887  0.00  0.00    -0.016 A 
ATOM     38  C   LIG d   1       7.256  -3.072  -4.184  0.00  0.00    -0.052 A 
ATOM     39  H   LIG d   1       8.521  -4.578  -5.021  0.00  0.00     0.066 H 
ATOM     40  H   LIG d   1       8.077  -2.506  -3.770  0.00  0.00     0.062 H 
BRANCH  34  41
ATOM     41  O   LIG d   1       4.110  -5.230  -5.765  0.00  0.00    -0.491 OA
BRANCH  41  42
ATOM     42  C   LIG d   1       3.726  -4.926  -7.107  0.00  0.00     0.079 C 
ATOM     43  H   LIG d   1       3.794  -5.827  -7.717  0.00  0.00     0.066 H 
ATOM     44  H   LIG d   1       2.699  -4.558  -7.117  0.00  0.00     0.066 H 
ATOM     45  H   LIG d   1       4.389  -4.162  -7.511  0.00  0.00     0.066 H 
ENDBRANCH  41  42
ENDBRANCH  34  41
BRANCH  36  46
ATOM     46  O   LIG d   1       6.697  -6.114  -6.102  0.00  0.00    -0.503 OA
ATOM     47  H   LIG d   1       7.112  -6.808  -5.573  0.00  0.00     0.292 HD
ENDBRANCH  36  46
ENDBRANCH  30  32
BRANCH  30  48
ATOM     48  O   LIG d   1       6.756  -0.431  -3.481  0.00  0.00    -0.384 OA
ATOM     49  H   LIG d   1       6.470   0.413  -3.855  0.00  0.00     0.210 HD
ENDBRANCH  30  48
ENDBRANCH   1  30
TORSDOF 13
ENDMDL
MODEL 3
REMARK VINA RESULT:      -4.9      3.008      5.473
REMARK  13 active torsions:
REMARK  status: ('A' for Active; 'I' for Inactive)
REMARK    1  A    between atoms: C_1  and  C_2 
REMARK    2  A    between atoms: C_3  and  C_4 
REMARK    3  A    between atoms: C_7  and  O_12 
REMARK    4  A    between atoms: C_8  and  O_10 
REMARK    5  A    between atoms: O_10  and  C_11 
REMARK    6  A    between atoms: O_12  and  C_13 
REMARK    7  A    between atoms: C_13  and  C_15 
REMARK    8  A    between atoms: C_13  and  C_16 
REMARK    9  A    between atoms: C_16  and  C_18 
REMARK   10  A    between atoms: C_16  and  O_27 
REMARK   11  A    between atoms: C_21  and  O_26 
REMARK   12  A    between atoms: C_22  and  O_24 
REMARK   13  A    between atoms: O_24  and  C_25 
ROOT
ATOM      1  C   LIG d   1       3.585  -0.320  -5.263  0.00  0.00     0.127 C 
ATOM      2  H   LIG d   1       3.174  -1.298  -5.514  0.00  0.00     0.076 H 
ENDROOT
BRANCH   1   3
ATOM      3  O   LIG d   1       4.170   0.264  -6.428  0.00  0.00    -0.482 OA
BRANCH   3   4
ATOM      4  C   LIG d   1       3.685  -0.143  -7.632  0.00  0.00     0.163 A 
ATOM      5  C   LIG d   1       3.572  -1.497  -7.910  0.00  0.00    -0.016 A 
ATOM      6  C   LIG d   1       3.082  -1.915  -9.130  0.00  0.00    -0.051 A 
ATOM      7  H   LIG d   1       3.869  -2.226  -7.171  0.00  0.00     0.066 H 
ATOM      8  C   LIG d   1       2.699  -0.974 -10.088  0.00  0.00    -0.022 A 
ATOM      9  H   LIG d   1       2.996  -2.970  -9.345  0.00  0.00     0.062 H 
ATOM     10  C   LIG d   1       2.812   0.388  -9.808  0.00  0.00    -0.009 A 
ATOM     11  C   LIG d   1       3.299   0.801  -8.581  0.00  0.00     0.162 A 
ATOM     12  H   LIG d   1       2.516   1.119 -10.545  0.00  0.00     0.066 H 
BRANCH   8  13
ATOM     13  C   LIG d   1       2.174  -1.420 -11.395  0.00  0.00    -0.059 C 
ATOM     14  C   LIG d   1       0.868  -1.405 -11.625  0.00  0.00    -0.086 C 
ATOM     15  H   LIG d   1       0.187  -1.068 -10.857  0.00  0.00     0.057 H 
ATOM     16  H   LIG d   1       2.854  -1.758 -12.164  0.00  0.00     0.062 H 
BRANCH  14  17
ATOM     17  C   LIG d   1       0.333  -1.859 -12.958  0.00  0.00    -0.046 C 
ATOM     18  H   LIG d   1       0.018  -2.901 -12.889  0.00  0.00     0.027 H 
ATOM     19  H   LIG d   1      -0.519  -1.241 -13.239  0.00  0.00     0.027 H 
ATOM     20  H   LIG d   1       1.114  -1.766 -13.713  0.00  0.00     0.027 H 
ENDBRANCH  14  17
ENDBRANCH   8  13
BRANCH  11  21
ATOM     21  O   LIG d   1       3.405   2.127  -8.303  0.00  0.00    -0.491 OA
BRANCH  21  22
ATOM     22  C   LIG d   1       4.149   2.926  -9.225  0.00  0.00     0.079 C 
ATOM     23  H   LIG d   1       4.087   3.974  -8.930  0.00  0.00     0.066 H 
ATOM     24  H   LIG d   1       5.192   2.609  -9.221  0.00  0.00     0.066 H 
ATOM     25  H   LIG d   1       3.736   2.806 -10.226  0.00  0.00     0.066 H 
ENDBRANCH  21  22
ENDBRANCH  11  21
ENDBRANCH   3   4
ENDBRANCH   1   3
BRANCH   1  26
ATOM     26  C   LIG d   1       2.468   0.587  -4.743  0.00  0.00    -0.025 C 
ATOM     27  H   LIG d   1       2.891   1.539  -4.423  0.00  0.00     0.027 H 
ATOM     28  H   LIG d   1       1.743   0.761  -5.538  0.00  0.00     0.027 H 
ATOM     29  H   LIG d   1       1.973   0.107  -3.900  0.00  0.00     0.027 H 
ENDBRANCH   1  26
BRANCH   1  30
ATOM     30  C   LIG d   1       4.656  -0.480  -4.181  0.00  0.00     0.117 C 
ATOM     31  H   LIG d   1       4.179  -0.528  -3.203  0.00  0.00     0.068 H 
BRANCH  30  32
ATOM     32  C   LIG d   1       5.430  -1.750  -4.425  0.00  0.00    -0.012 A 
ATOM     33  C   LIG d   1       4.768  -2.893  -4.835  0.00  0.00    -0.011 A 
ATOM     34  C   LIG d   1       5.479  -4.061  -5.059  0.00  0.00     0.162 A 
ATOM     35  H   LIG d   1       3.699  -2.875  -4.980  0.00  0.00     0.066 H 
ATOM     36  C   LIG d   1       6.857  -4.081  -4.871  0.00  0.00     0.159 A 
ATOM     37  C   LIG d   1       7.514  -2.930  -4.465  0.00  0.00    -0.016 A 
ATOM     38  C   LIG d   1       6.799  -1.770  -4.238  0.00  0.00    -0.052 A 
ATOM     39  H   LIG d   1       8.585  -2.942  -4.322  0.00  0.00     0.066 H 
ATOM     40  H   LIG d   1       7.312  -0.875  -3.918  0.00  0.00     0.062 H 
BRANCH  34  41
ATOM     41  O   LIG d   1       4.830  -5.186  -5.462  0.00  0.00    -0.491 OA
BRANCH  41  42
ATOM     42  C   LIG d   1       3.954  -5.062  -6.584  0.00  0.00     0.079 C 
ATOM     43  H   LIG d   1       4.290  -4.241  -7.218  0.00  0.00     0.066 H 
ATOM     44  H   LIG d   1       3.963  -5.990  -7.157  0.00  0.00     0.066 H 
ATOM     45  H   LIG d   1       2.942  -4.862  -6.234  0.00  0.00     0.066 H 
ENDBRANCH  41  42
ENDBRANCH  34  41
BRANCH  36  46
ATOM     46  O   LIG d   1       7.559  -5.225  -5.090  0.00  0.00    -0.503 OA
ATOM     47  H   LIG d   1       7.645  -5.789  -4.310  0.00  0.00     0.292 HD
ENDBRANCH  36  46
ENDBRANCH  30  32
BRANCH  30  48
ATOM     48  O   LIG d   1       5.546   0.636  -4.224  0.00  0.00    -0.384 OA
ATOM     49  H   LIG d   1       6.352   0.478  -4.734  0.00  0.00     0.210 HD
ENDBRANCH  30  48
ENDBRANCH   1  30
TORSDOF 13
ENDMDL
MODEL 4
REMARK VINA RESULT:      -4.8      2.407      4.645
REMARK  13 active torsions:
REMARK  status: ('A' for Active; 'I' for Inactive)
REMARK    1  A    between atoms: C_1  and  C_2 
REMARK    2  A    between atoms: C_3  and  C_4 
REMARK    3  A    between atoms: C_7  and  O_12 
REMARK    4  A    between atoms: C_8  and  O_10 
REMARK    5  A    between atoms: O_10  and  C_11 
REMARK    6  A    between atoms: O_12  and  C_13 
REMARK    7  A    between atoms: C_13  and  C_15 
REMARK    8  A    between atoms: C_13  and  C_16 
REMARK    9  A    between atoms: C_16  and  C_18 
REMARK   10  A    between atoms: C_16  and  O_27 
REMARK   11  A    between atoms: C_21  and  O_26 
REMARK   12  A    between atoms: C_22  and  O_24 
REMARK   13  A    between atoms: O_24  and  C_25 
ROOT
ATOM      1  C   LIG d   1       3.854  -0.842  -4.149  0.00  0.00     0.127 C 
ATOM      2  H   LIG d   1       3.688  -1.741  -4.743  0.00  0.00     0.076 H 
ENDROOT
BRANCH   1   3
ATOM      3  O   LIG d   1       3.935   0.292  -5.014  0.00  0.00    -0.482 OA
BRANCH   3   4
ATOM      4  C   LIG d   1       3.843   0.057  -6.350  0.00  0.00     0.163 A 
ATOM      5  C   LIG d   1       2.598  -0.113  -6.939  0.00  0.00    -0.016 A 
ATOM      6  C   LIG d   1       2.499  -0.352  -8.294  0.00  0.00    -0.051 A 
ATOM      7  H   LIG d   1       1.705  -0.058  -6.335  0.00  0.00     0.066 H 
ATOM      8  C   LIG d   1       3.653  -0.423  -9.076  0.00  0.00    -0.022 A 
ATOM      9  H   LIG d   1       1.529  -0.484  -8.749  0.00  0.00     0.062 H 
ATOM     10  C   LIG d   1       4.905  -0.252  -8.484  0.00  0.00    -0.009 A 
ATOM     11  C   LIG d   1       4.998  -0.007  -7.126  0.00  0.00     0.162 A 
ATOM     12  H   LIG d   1       5.801  -0.307  -9.085  0.00  0.00     0.066 H 
BRANCH   8  13
ATOM     13  C   LIG d   1       3.550  -0.680 -10.527  0.00  0.00    -0.059 C 
ATOM     14  C   LIG d   1       4.362  -0.056 -11.370  0.00  0.00    -0.086 C 
ATOM     15  H   LIG d   1       5.098   0.639 -10.996  0.00  0.00     0.057 H 
ATOM     16  H   LIG d   1       2.813  -1.376 -10.902  0.00  0.00     0.062 H 
BRANCH  14  17
ATOM     17  C   LIG d   1       4.256  -0.319 -12.850  0.00  0.00    -0.046 C 
ATOM     18  H   LIG d   1       4.877   0.395 -13.392  0.00  0.00     0.027 H 
ATOM     19  H   LIG d   1       4.595  -1.332 -13.066  0.00  0.00     0.027 H 
ATOM     20  H   LIG d   1       3.218  -0.208 -13.165  0.00  0.00     0.027 H 
ENDBRANCH  14  17
ENDBRANCH   8  13
BRANCH  11  21
ATOM     21  O   LIG d   1       6.216   0.165  -6.547  0.00  0.00    -0.491 OA
BRANCH  21  22
ATOM     22  C   LIG d   1       7.278  -0.673  -7.007  0.00  0.00     0.079 C 
ATOM     23  H   LIG d   1       8.178  -0.074  -7.150  0.00  0.00     0.066 H 
ATOM     24  H   LIG d   1       7.472  -1.451  -6.269  0.00  0.00     0.066 H 
ATOM     25  H   LIG d   1       6.993  -1.133  -7.953  0.00  0.00     0.066 H 
ENDBRANCH  21  22
ENDBRANCH  11  21
ENDBRANCH   3   4
ENDBRANCH   1   3
BRANCH   1  26
ATOM     26  C   LIG d   1       2.694  -0.655  -3.169  0.00  0.00    -0.025 C 
ATOM     27  H   LIG d   1       1.752  -0.855  -3.679  0.00  0.00     0.027 H 
ATOM     28  H   LIG d   1       2.809  -1.348  -2.335  0.00  0.00     0.027 H 
ATOM     29  H   LIG d   1       2.695   0.368  -2.795  0.00  0.00     0.027 H 
ENDBRANCH   1  26
BRANCH   1  30
ATOM     30  C   LIG d   1       5.164  -0.981  -3.368  0.00  0.00     0.117 C 
ATOM     31  H   LIG d   1       4.941  -1.159  -2.316  0.00  0.00     0.068 H 
BRANCH  30  32
ATOM     32  C   LIG d   1       5.955  -2.141  -3.918  0.00  0.00    -0.012 A 
ATOM     33  C   LIG d   1       7.283  -2.296  -3.569  0.00  0.00    -0.011 A 
ATOM     34  C   LIG d   1       8.012  -3.360  -4.075  0.00  0.00     0.162 A 
ATOM     35  H   LIG d   1       7.754  -1.587  -2.904  0.00  0.00     0.066 H 
ATOM     36  C   LIG d   1       7.403  -4.272  -4.932  0.00  0.00     0.159 A 
ATOM     37  C   LIG d   1       6.069  -4.113  -5.273  0.00  0.00    -0.016 A 
ATOM     38  C   LIG d   1       5.350  -3.045  -4.770  0.00  0.00    -0.052 A 
ATOM     39  H   LIG d   1       5.593  -4.821  -5.935  0.00  0.00     0.066 H 
ATOM     40  H   LIG d   1       4.312  -2.921  -5.039  0.00  0.00     0.062 H 
BRANCH  34  41
ATOM     41  O   LIG d   1       9.319  -3.515  -3.734  0.00  0.00    -0.491 OA
BRANCH  41  42
ATOM     42  C   LIG d   1       9.591  -4.136  -2.475  0.00  0.00     0.079 C 
ATOM     43  H   LIG d   1       8.985  -5.037  -2.377  0.00  0.00     0.066 H 
ATOM     44  H   LIG d   1      10.648  -4.401  -2.422  0.00  0.00     0.066 H 
ATOM     45  H   LIG d   1       9.349  -3.445  -1.669  0.00  0.00     0.066 H 
ENDBRANCH  41  42
ENDBRANCH  34  41
BRANCH  36  46
ATOM     46  O   LIG d   1       8.113  -5.319  -5.430  0.00  0.00    -0.503 OA
ATOM     47  H   LIG d   1       7.620  -5.868  -6.055  0.00  0.00     0.292 HD
ENDBRANCH  36  46
ENDBRANCH  30  32
BRANCH  30  48
ATOM     48  O   LIG d   1       5.926   0.220  -3.498  0.00  0.00    -0.384 OA
ATOM     49  H   LIG d   1       6.413   0.466  -2.700  0.00  0.00     0.210 HD
ENDBRANCH  30  48
ENDBRANCH   1  30
TORSDOF 13
ENDMDL
MODEL 5
REMARK VINA RESULT:      -4.7      8.141     11.830
REMARK  13 active torsions:
REMARK  status: ('A' for Active; 'I' for Inactive)
REMARK    1  A    between atoms: C_1  and  C_2 
REMARK    2  A    between atoms: C_3  and  C_4 
REMARK    3  A    between atoms: C_7  and  O_12 
REMARK    4  A    between atoms: C_8  and  O_10 
REMARK    5  A    between atoms: O_10  and  C_11 
REMARK    6  A    between atoms: O_12  and  C_13 
REMARK    7  A    between atoms: C_13  and  C_15 
REMARK    8  A    between atoms: C_13  and  C_16 
REMARK    9  A    between atoms: C_16  and  C_18 
REMARK   10  A    between atoms: C_16  and  O_27 
REMARK   11  A    between atoms: C_21  and  O_26 
REMARK   12  A    between atoms: C_22  and  O_24 
REMARK   13  A    between atoms: O_24  and  C_25 
ROOT
ATOM      1  C   LIG d   1      10.257   9.593  -1.829  0.00  0.00     0.127 C 
ATOM      2  H   LIG d   1      10.710   9.234  -2.753  0.00  0.00     0.076 H 
ENDROOT
BRANCH   1   3
ATOM      3  O   LIG d   1       9.477   8.549  -1.244  0.00  0.00    -0.482 OA
BRANCH   3   4
ATOM      4  C   LIG d   1       9.771   7.275  -1.618  0.00  0.00     0.163 A 
ATOM      5  C   LIG d   1       9.470   6.844  -2.902  0.00  0.00    -0.016 A 
ATOM      6  C   LIG d   1       9.765   5.553  -3.286  0.00  0.00    -0.051 A 
ATOM      7  H   LIG d   1       9.003   7.521  -3.602  0.00  0.00     0.066 H 
ATOM      8  C   LIG d   1      10.367   4.676  -2.383  0.00  0.00    -0.022 A 
ATOM      9  H   LIG d   1       9.529   5.220  -4.286  0.00  0.00     0.062 H 
ATOM     10  C   LIG d   1      10.671   5.109  -1.091  0.00  0.00    -0.009 A 
ATOM     11  C   LIG d   1      10.377   6.407  -0.714  0.00  0.00     0.162 A 
ATOM     12  H   LIG d   1      11.137   4.434  -0.389  0.00  0.00     0.066 H 
BRANCH   8  13
ATOM     13  C   LIG d   1      10.684   3.292  -2.793  0.00  0.00    -0.059 C 
ATOM     14  C   LIG d   1      11.853   3.019  -3.356  0.00  0.00    -0.086 C 
ATOM     15  H   LIG d   1      12.574   3.807  -3.515  0.00  0.00     0.057 H 
ATOM     16  H   LIG d   1       9.964   2.503  -2.633  0.00  0.00     0.062 H 
BRANCH  14  17
ATOM     17  C   LIG d   1      12.176   1.607  -3.773  0.00  0.00    -0.046 C 
ATOM     18  H   LIG d   1      11.401   0.933  -3.407  0.00  0.00     0.027 H 
ATOM     19  H   LIG d   1      12.223   1.551  -4.860  0.00  0.00     0.027 H 
ATOM     20  H   LIG d   1      13.139   1.315  -3.352  0.00  0.00     0.027 H 
ENDBRANCH  14  17
ENDBRANCH   8  13
BRANCH  11  21
ATOM     21  O   LIG d   1      10.676   6.834   0.542  0.00  0.00    -0.491 OA
BRANCH  21  22
ATOM     22  C   LIG d   1      11.019   5.833   1.504  0.00  0.00     0.079 C 
ATOM     23  H   LIG d   1      10.819   4.846   1.087  0.00  0.00     0.066 H 
ATOM     24  H   LIG d   1      12.077   5.915   1.752  0.00  0.00     0.066 H 
ATOM     25  H   LIG d   1      10.422   5.975   2.404  0.00  0.00     0.066 H 
ENDBRANCH  21  22
ENDBRANCH  11  21
ENDBRANCH   3   4
ENDBRANCH   1   3
BRANCH   1  26
ATOM     26  C   LIG d   1      11.355  10.018  -0.853  0.00  0.00    -0.025 C 
ATOM     27  H   LIG d   1      11.423   9.292  -0.043  0.00  0.00     0.027 H 
ATOM     28  H   LIG d   1      12.309  10.066  -1.378  0.00  0.00     0.027 H 
ATOM     29  H   LIG d   1      11.117  10.999  -0.442  0.00  0.00     0.027 H 
ENDBRANCH   1  26
BRANCH   1  30
ATOM     30  C   LIG d   1       9.355  10.791  -2.136  0.00  0.00     0.117 C 
ATOM     31  H   LIG d   1       9.690  11.653  -1.559  0.00  0.00     0.068 H 
BRANCH  30  32
ATOM     32  C   LIG d   1       9.430  11.111  -3.607  0.00  0.00    -0.012 A 
ATOM     33  C   LIG d   1       9.485  10.086  -4.533  0.00  0.00    -0.011 A 
ATOM     34  C   LIG d   1       9.554  10.379  -5.886  0.00  0.00     0.162 A 
ATOM     35  H   LIG d   1       9.475   9.059  -4.204  0.00  0.00     0.066 H 
ATOM     36  C   LIG d   1       9.567  11.705  -6.309  0.00  0.00     0.159 A 
ATOM     37  C   LIG d   1       9.507  12.727  -5.374  0.00  0.00    -0.016 A 
ATOM     38  C   LIG d   1       9.444  12.428  -4.026  0.00  0.00    -0.052 A 
ATOM     39  H   LIG d   1       9.514  13.757  -5.699  0.00  0.00     0.066 H 
ATOM     40  H   LIG d   1       9.400  13.226  -3.299  0.00  0.00     0.062 H 
BRANCH  34  41
ATOM     41  O   LIG d   1       9.609   9.373  -6.799  0.00  0.00    -0.491 OA
BRANCH  41  42
ATOM     42  C   LIG d   1      10.023   8.090  -6.326  0.00  0.00     0.079 C 
ATOM     43  H   LIG d   1      11.109   8.012  -6.392  0.00  0.00     0.066 H 
ATOM     44  H   LIG d   1       9.713   7.968  -5.288  0.00  0.00     0.066 H 
ATOM     45  H   LIG d   1       9.564   7.312  -6.936  0.00  0.00     0.066 H 
ENDBRANCH  41  42
ENDBRANCH  34  41
BRANCH  36  46
ATOM     46  O   LIG d   1       9.635  11.998  -7.635  0.00  0.00    -0.503 OA
ATOM     47  H   LIG d   1       9.593  11.223  -8.211  0.00  0.00     0.292 HD
ENDBRANCH  36  46
ENDBRANCH  30  32
BRANCH  30  48
ATOM     48  O   LIG d   1       8.008  10.476  -1.784  0.00  0.00    -0.384 OA
ATOM     49  H   LIG d   1       7.587  11.130  -1.210  0.00  0.00     0.210 HD
ENDBRANCH  30  48
ENDBRANCH   1  30
TORSDOF 13
ENDMDL
MODEL 6
REMARK VINA RESULT:      -4.7      7.282      9.867
REMARK  13 active torsions:
REMARK  status: ('A' for Active; 'I' for Inactive)
REMARK    1  A    between atoms: C_1  and  C_2 
REMARK    2  A    between atoms: C_3  and  C_4 
REMARK    3  A    between atoms: C_7  and  O_12 
REMARK    4  A    between atoms: C_8  and  O_10 
REMARK    5  A    between atoms: O_10  and  C_11 
REMARK    6  A    between atoms: O_12  and  C_13 
REMARK    7  A    between atoms: C_13  and  C_15 
REMARK    8  A    between atoms: C_13  and  C_16 
REMARK    9  A    between atoms: C_16  and  C_18 
REMARK   10  A    between atoms: C_16  and  O_27 
REMARK   11  A    between atoms: C_21  and  O_26 
REMARK   12  A    between atoms: C_22  and  O_24 
REMARK   13  A    between atoms: O_24  and  C_25 
ROOT
ATOM      1  C   LIG d   1      13.061   5.977  -1.288  0.00  0.00     0.127 C 
ATOM      2  H   LIG d   1      13.042   6.955  -1.768  0.00  0.00     0.076 H 
ENDROOT
BRANCH   1   3
ATOM      3  O   LIG d   1      12.762   4.966  -2.253  0.00  0.00    -0.482 OA
BRANCH   3   4
ATOM      4  C   LIG d   1      12.073   5.355  -3.359  0.00  0.00     0.163 A 
ATOM      5  C   LIG d   1      12.562   6.380  -4.155  0.00  0.00    -0.016 A 
ATOM      6  C   LIG d   1      11.867   6.778  -5.278  0.00  0.00    -0.051 A 
ATOM      7  H   LIG d   1      13.490   6.868  -3.894  0.00  0.00     0.066 H 
ATOM      8  C   LIG d   1      10.668   6.149  -5.616  0.00  0.00    -0.022 A 
ATOM      9  H   LIG d   1      12.250   7.578  -5.895  0.00  0.00     0.062 H 
ATOM     10  C   LIG d   1      10.176   5.117  -4.816  0.00  0.00    -0.009 A 
ATOM     11  C   LIG d   1      10.880   4.719  -3.694  0.00  0.00     0.162 A 
ATOM     12  H   LIG d   1       9.248   4.627  -5.074  0.00  0.00     0.066 H 
BRANCH   8  13
ATOM     13  C   LIG d   1       9.922   6.574  -6.818  0.00  0.00    -0.059 C 
ATOM     14  C   LIG d   1       9.572   7.845  -6.966  0.00  0.00    -0.086 C 
ATOM     15  H   LIG d   1       9.832   8.569  -6.208  0.00  0.00     0.057 H 
ATOM     16  H   LIG d   1       9.662   5.851  -7.577  0.00  0.00     0.062 H 
BRANCH  14  17
ATOM     17  C   LIG d   1       8.812   8.278  -8.193  0.00  0.00    -0.046 C 
ATOM     18  H   LIG d   1       8.816   9.367  -8.258  0.00  0.00     0.027 H 
ATOM     19  H   LIG d   1       9.285   7.859  -9.081  0.00  0.00     0.027 H 
ATOM     20  H   LIG d   1       7.783   7.923  -8.126  0.00  0.00     0.027 H 
ENDBRANCH  14  17
ENDBRANCH   8  13
BRANCH  11  21
ATOM     21  O   LIG d   1      10.405   3.710  -2.916  0.00  0.00    -0.491 OA
BRANCH  21  22
ATOM     22  C   LIG d   1       9.449   2.828  -3.508  0.00  0.00     0.079 C 
ATOM     23  H   LIG d   1       9.907   1.852  -3.671  0.00  0.00     0.066 H 
ATOM     24  H   LIG d   1       8.593   2.721  -2.842  0.00  0.00     0.066 H 
ATOM     25  H   LIG d   1       9.118   3.239  -4.462  0.00  0.00     0.066 H 
ENDBRANCH  21  22
ENDBRANCH  11  21
ENDBRANCH   3   4
ENDBRANCH   1   3
BRANCH   1  26
ATOM     26  C   LIG d   1      14.450   5.723  -0.698  0.00  0.00    -0.025 C 
ATOM     27  H   LIG d   1      14.356   5.482   0.361  0.00  0.00     0.027 H 
ATOM     28  H   LIG d   1      14.918   4.888  -1.219  0.00  0.00     0.027 H 
ATOM     29  H   LIG d   1      15.063   6.615  -0.814  0.00  0.00     0.027 H 
ENDBRANCH   1  26
BRANCH   1  30
ATOM     30  C   LIG d   1      12.017   5.938  -0.169  0.00  0.00     0.117 C 
ATOM     31  H   LIG d   1      12.507   6.103   0.790  0.00  0.00     0.068 H 
BRANCH  30  32
ATOM     32  C   LIG d   1      10.992   7.017  -0.402  0.00  0.00    -0.012 A 
ATOM     33  C   LIG d   1      11.182   8.276   0.137  0.00  0.00    -0.011 A 
ATOM     34  C   LIG d   1      10.239   9.270  -0.075  0.00  0.00     0.162 A 
ATOM     35  H   LIG d   1      12.064   8.486   0.724  0.00  0.00     0.066 H 
ATOM     36  C   LIG d   1       9.104   8.997  -0.832  0.00  0.00     0.159 A 
ATOM     37  C   LIG d   1       8.922   7.734  -1.372  0.00  0.00    -0.016 A 
ATOM     38  C   LIG d   1       9.863   6.746  -1.152  0.00  0.00    -0.052 A 
ATOM     39  H   LIG d   1       8.043   7.521  -1.963  0.00  0.00     0.066 H 
ATOM     40  H   LIG d   1       9.719   5.761  -1.571  0.00  0.00     0.062 H 
BRANCH  34  41
ATOM     41  O   LIG d   1      10.424  10.509   0.454  0.00  0.00    -0.491 OA
BRANCH  41  42
ATOM     42  C   LIG d   1      11.587  10.702   1.262  0.00  0.00     0.079 C 
ATOM     43  H   LIG d   1      11.349  10.468   2.301  0.00  0.00     0.066 H 
ATOM     44  H   LIG d   1      12.384  10.044   0.915  0.00  0.00     0.066 H 
ATOM     45  H   LIG d   1      11.913  11.738   1.187  0.00  0.00     0.066 H 
ENDBRANCH  41  42
ENDBRANCH  34  41
BRANCH  36  46
ATOM     46  O   LIG d   1       8.176   9.968  -1.043  0.00  0.00    -0.503 OA
ATOM     47  H   LIG d   1       7.995  10.143  -1.977  0.00  0.00     0.292 HD
ENDBRANCH  36  46
ENDBRANCH  30  32
BRANCH  30  48
ATOM     48  O   LIG d   1      11.373   4.662  -0.162  0.00  0.00    -0.384 OA
ATOM     49  H   LIG d   1      10.461   4.683   0.158  0.00  0.00     0.210 HD
ENDBRANCH  30  48
ENDBRANCH   1  30
TORSDOF 13
ENDMDL
MODEL 7
REMARK VINA RESULT:      -4.7      2.412      3.014
REMARK  13 active torsions:
REMARK  status: ('A' for Active; 'I' for Inactive)
REMARK    1  A    between atoms: C_1  and  C_2 
REMARK    2  A    between atoms: C_3  and  C_4 
REMARK    3  A    between atoms: C_7  and  O_12 
REMARK    4  A    between atoms: C_8  and  O_10 
REMARK    5  A    between atoms: O_10  and  C_11 
REMARK    6  A    between atoms: O_12  and  C_13 
REMARK    7  A    between atoms: C_13  and  C_15 
REMARK    8  A    between atoms: C_13  and  C_16 
REMARK    9  A    between atoms: C_16  and  C_18 
REMARK   10  A    between atoms: C_16  and  O_27 
REMARK   11  A    between atoms: C_21  and  O_26 
REMARK   12  A    between atoms: C_22  and  O_24 
REMARK   13  A    between atoms: O_24  and  C_25 
ROOT
ATOM      1  C   LIG d   1       5.613  -2.656  -6.147  0.00  0.00     0.127 C 
ATOM      2  H   LIG d   1       6.024  -1.647  -6.167  0.00  0.00     0.076 H 
ENDROOT
BRANCH   1   3
ATOM      3  O   LIG d   1       4.322  -2.656  -6.758  0.00  0.00    -0.482 OA
BRANCH   3   4
ATOM      4  C   LIG d   1       4.224  -2.096  -7.994  0.00  0.00     0.163 A 
ATOM      5  C   LIG d   1       4.188  -2.905  -9.119  0.00  0.00    -0.016 A 
ATOM      6  C   LIG d   1       4.090  -2.342 -10.375  0.00  0.00    -0.051 A 
ATOM      7  H   LIG d   1       4.238  -3.979  -9.013  0.00  0.00     0.066 H 
ATOM      8  C   LIG d   1       4.025  -0.955 -10.515  0.00  0.00    -0.022 A 
ATOM      9  H   LIG d   1       4.063  -2.975 -11.250  0.00  0.00     0.062 H 
ATOM     10  C   LIG d   1       4.060  -0.141  -9.383  0.00  0.00    -0.009 A 
ATOM     11  C   LIG d   1       4.154  -0.711  -8.126  0.00  0.00     0.162 A 
ATOM     12  H   LIG d   1       4.011   0.933  -9.486  0.00  0.00     0.066 H 
BRANCH   8  13
ATOM     13  C   LIG d   1       3.920  -0.351 -11.858  0.00  0.00    -0.059 C 
ATOM     14  C   LIG d   1       4.347  -1.019 -12.922  0.00  0.00    -0.086 C 
ATOM     15  H   LIG d   1       4.773  -2.004 -12.805  0.00  0.00     0.057 H 
ATOM     16  H   LIG d   1       3.493   0.635 -11.976  0.00  0.00     0.062 H 
BRANCH  14  17
ATOM     17  C   LIG d   1       4.239  -0.402 -14.292  0.00  0.00    -0.046 C 
ATOM     18  H   LIG d   1       3.286  -0.680 -14.742  0.00  0.00     0.027 H 
ATOM     19  H   LIG d   1       4.299   0.683 -14.209  0.00  0.00     0.027 H 
ATOM     20  H   LIG d   1       5.055  -0.763 -14.918  0.00  0.00     0.027 H 
ENDBRANCH  14  17
ENDBRANCH   8  13
BRANCH  11  21
ATOM     21  O   LIG d   1       4.183   0.080  -7.020  0.00  0.00    -0.491 OA
BRANCH  21  22
ATOM     22  C   LIG d   1       2.934   0.340  -6.375  0.00  0.00     0.079 C 
ATOM     23  H   LIG d   1       2.164   0.507  -7.129  0.00  0.00     0.066 H 
ATOM     24  H   LIG d   1       2.659  -0.515  -5.759  0.00  0.00     0.066 H 
ATOM     25  H   LIG d   1       3.028   1.226  -5.748  0.00  0.00     0.066 H 
ENDBRANCH  21  22
ENDBRANCH  11  21
ENDBRANCH   3   4
ENDBRANCH   1   3
BRANCH   1  26
ATOM     26  C   LIG d   1       6.540  -3.601  -6.913  0.00  0.00    -0.025 C 
ATOM     27  H   LIG d   1       6.267  -3.602  -7.968  0.00  0.00     0.027 H 
ATOM     28  H   LIG d   1       7.571  -3.265  -6.805  0.00  0.00     0.027 H 
ATOM     29  H   LIG d   1       6.443  -4.609  -6.512  0.00  0.00     0.027 H 
ENDBRANCH   1  26
BRANCH   1  30
ATOM     30  C   LIG d   1       5.489  -3.127  -4.696  0.00  0.00     0.117 C 
ATOM     31  H   LIG d   1       6.403  -3.646  -4.404  0.00  0.00     0.068 H 
BRANCH  30  32
ATOM     32  C   LIG d   1       5.279  -1.936  -3.797  0.00  0.00    -0.012 A 
ATOM     33  C   LIG d   1       5.912  -0.740  -4.079  0.00  0.00    -0.011 A 
ATOM     34  C   LIG d   1       5.720   0.357  -3.253  0.00  0.00     0.162 A 
ATOM     35  H   LIG d   1       6.556  -0.659  -4.942  0.00  0.00     0.066 H 
ATOM     36  C   LIG d   1       4.890   0.250  -2.141  0.00  0.00     0.159 A 
ATOM     37  C   LIG d   1       4.255  -0.952  -1.868  0.00  0.00    -0.016 A 
ATOM     38  C   LIG d   1       4.455  -2.043  -2.693  0.00  0.00    -0.052 A 
ATOM     39  H   LIG d   1       3.608  -1.036  -1.008  0.00  0.00     0.066 H 
ATOM     40  H   LIG d   1       3.962  -2.979  -2.476  0.00  0.00     0.062 H 
BRANCH  34  41
ATOM     41  O   LIG d   1       6.341   1.534  -3.528  0.00  0.00    -0.491 OA
BRANCH  41  42
ATOM     42  C   LIG d   1       7.730   1.472  -3.864  0.00  0.00     0.079 C 
ATOM     43  H   LIG d   1       7.847   1.575  -4.943  0.00  0.00     0.066 H 
ATOM     44  H   LIG d   1       8.262   2.280  -3.362  0.00  0.00     0.066 H 
ATOM     45  H   LIG d   1       8.138   0.514  -3.543  0.00  0.00     0.066 H 
ENDBRANCH  41  42
ENDBRANCH  34  41
BRANCH  36  46
ATOM     46  O   LIG d   1       4.698   1.322  -1.328  0.00  0.00    -0.503 OA
ATOM     47  H   LIG d   1       5.516   1.753  -1.046  0.00  0.00     0.292 HD
ENDBRANCH  36  46
ENDBRANCH  30  32
BRANCH  30  48
ATOM     48  O   LIG d   1       4.378  -4.016  -4.577  0.00  0.00    -0.384 OA
ATOM     49  H   LIG d   1       4.027  -4.091  -3.679  0.00  0.00     0.210 HD
ENDBRANCH  30  48
ENDBRANCH   1  30
TORSDOF 13
ENDMDL
MODEL 8
REMARK VINA RESULT:      -4.6      2.812      5.204
REMARK  13 active torsions:
REMARK  status: ('A' for Active; 'I' for Inactive)
REMARK    1  A    between atoms: C_1  and  C_2 
REMARK    2  A    between atoms: C_3  and  C_4 
REMARK    3  A    between atoms: C_7  and  O_12 
REMARK    4  A    between atoms: C_8  and  O_10 
REMARK    5  A    between atoms: O_10  and  C_11 
REMARK    6  A    between atoms: O_12  and  C_13 
REMARK    7  A    between atoms: C_13  and  C_15 
REMARK    8  A    between atoms: C_13  and  C_16 
REMARK    9  A    between atoms: C_16  and  C_18 
REMARK   10  A    between atoms: C_16  and  O_27 
REMARK   11  A    between atoms: C_21  and  O_26 
REMARK   12  A    between atoms: C_22  and  O_24 
REMARK   13  A    between atoms: O_24  and  C_25 
ROOT
ATOM      1  C   LIG d   1       4.502  -0.310  -3.641  0.00  0.00     0.127 C 
ATOM      2  H   LIG d   1       4.492  -1.389  -3.795  0.00  0.00     0.076 H 
ENDROOT
BRANCH   1   3
ATOM      3  O   LIG d   1       4.341   0.351  -4.897  0.00  0.00    -0.482 OA
BRANCH   3   4
ATOM      4  C   LIG d   1       4.123  -0.435  -5.986  0.00  0.00     0.163 A 
ATOM      5  C   LIG d   1       4.566  -1.749  -5.989  0.00  0.00    -0.016 A 
ATOM      6  C   LIG d   1       4.348  -2.551  -7.091  0.00  0.00    -0.051 A 
ATOM      7  H   LIG d   1       5.084  -2.146  -5.128  0.00  0.00     0.066 H 
ATOM      8  C   LIG d   1       3.680  -2.040  -8.205  0.00  0.00    -0.022 A 
ATOM      9  H   LIG d   1       4.695  -3.574  -7.091  0.00  0.00     0.062 H 
ATOM     10  C   LIG d   1       3.234  -0.718  -8.201  0.00  0.00    -0.009 A 
ATOM     11  C   LIG d   1       3.450   0.079  -7.091  0.00  0.00     0.162 A 
ATOM     12  H   LIG d   1       2.717  -0.318  -9.060  0.00  0.00     0.066 H 
BRANCH   8  13
ATOM     13  C   LIG d   1       3.446  -2.897  -9.385  0.00  0.00    -0.059 C 
ATOM     14  C   LIG d   1       3.202  -4.191  -9.227  0.00  0.00    -0.086 C 
ATOM     15  H   LIG d   1       3.175  -4.619  -8.236  0.00  0.00     0.057 H 
ATOM     16  H   LIG d   1       3.473  -2.469 -10.377  0.00  0.00     0.062 H 
BRANCH  14  17
ATOM     17  C   LIG d   1       2.963  -5.064 -10.432  0.00  0.00    -0.046 C 
ATOM     18  H   LIG d   1       2.817  -6.096 -10.110  0.00  0.00     0.027 H 
ATOM     19  H   LIG d   1       2.074  -4.720 -10.961  0.00  0.00     0.027 H 
ATOM     20  H   LIG d   1       3.825  -5.010 -11.096  0.00  0.00     0.027 H 
ENDBRANCH  14  17
ENDBRANCH   8  13
BRANCH  11  21
ATOM     21  O   LIG d   1       3.012   1.366  -7.083  0.00  0.00    -0.491 OA
BRANCH  21  22
ATOM     22  C   LIG d   1       2.864   2.011  -8.350  0.00  0.00     0.079 C 
ATOM     23  H   LIG d   1       2.014   1.580  -8.879  0.00  0.00     0.066 H 
ATOM     24  H   LIG d   1       2.696   3.076  -8.198  0.00  0.00     0.066 H 
ATOM     25  H   LIG d   1       3.770   1.866  -8.938  0.00  0.00     0.066 H 
ENDBRANCH  21  22
ENDBRANCH  11  21
ENDBRANCH   3   4
ENDBRANCH   1   3
BRANCH   1  26
ATOM     26  C   LIG d   1       3.357   0.084  -2.707  0.00  0.00    -0.025 C 
ATOM     27  H   LIG d   1       2.453   0.255  -3.291  0.00  0.00     0.027 H 
ATOM     28  H   LIG d   1       3.179  -0.720  -1.992  0.00  0.00     0.027 H 
ATOM     29  H   LIG d   1       3.621   0.995  -2.171  0.00  0.00     0.027 H 
ENDBRANCH   1  26
BRANCH   1  30
ATOM     30  C   LIG d   1       5.836   0.104  -3.015  0.00  0.00     0.117 C 
ATOM     31  H   LIG d   1       5.834  -0.153  -1.956  0.00  0.00     0.068 H 
BRANCH  30  32
ATOM     32  C   LIG d   1       6.961  -0.623  -3.706  0.00  0.00    -0.012 A 
ATOM     33  C   LIG d   1       7.208  -1.951  -3.412  0.00  0.00    -0.011 A 
ATOM     34  C   LIG d   1       8.243  -2.620  -4.045  0.00  0.00     0.162 A 
ATOM     35  H   LIG d   1       6.595  -2.467  -2.688  0.00  0.00     0.066 H 
ATOM     36  C   LIG d   1       9.031  -1.953  -4.978  0.00  0.00     0.159 A 
ATOM     37  C   LIG d   1       8.775  -0.622  -5.271  0.00  0.00    -0.016 A 
ATOM     38  C   LIG d   1       7.745   0.041  -4.632  0.00  0.00    -0.052 A 
ATOM     39  H   LIG d   1       9.383  -0.103  -5.997  0.00  0.00     0.066 H 
ATOM     40  H   LIG d   1       7.549   1.078  -4.859  0.00  0.00     0.062 H 
BRANCH  34  41
ATOM     41  O   LIG d   1       8.488  -3.926  -3.758  0.00  0.00    -0.491 OA
BRANCH  41  42
ATOM     42  C   LIG d   1       9.402  -4.195  -2.692  0.00  0.00     0.079 C 
ATOM     43  H   LIG d   1       9.233  -3.485  -1.882  0.00  0.00     0.066 H 
ATOM     44  H   LIG d   1       9.244  -5.209  -2.325  0.00  0.00     0.066 H 
ATOM     45  H   LIG d   1      10.423  -4.095  -3.057  0.00  0.00     0.066 H 
ENDBRANCH  41  42
ENDBRANCH  34  41
BRANCH  36  46
ATOM     46  O   LIG d   1      10.048  -2.604  -5.603  0.00  0.00    -0.503 OA
ATOM     47  H   LIG d   1      10.703  -2.981  -5.000  0.00  0.00     0.292 HD
ENDBRANCH  36  46
ENDBRANCH  30  32
BRANCH  30  48
ATOM     48  O   LIG d   1       6.015   1.513  -3.165  0.00  0.00    -0.384 OA
ATOM     49  H   LIG d   1       5.197   2.023  -3.097  0.00  0.00     0.210 HD
ENDBRANCH  30  48
ENDBRANCH   1  30
TORSDOF 13
ENDMDL
MODEL 9
REMARK VINA RESULT:      -4.6      3.537      4.952
REMARK  13 active torsions:
REMARK  status: ('A' for Active; 'I' for Inactive)
REMARK    1  A    between atoms: C_1  and  C_2 
REMARK    2  A    between atoms: C_3  and  C_4 
REMARK    3  A    between atoms: C_7  and  O_12 
REMARK    4  A    between atoms: C_8  and  O_10 
REMARK    5  A    between atoms: O_10  and  C_11 
REMARK    6  A    between atoms: O_12  and  C_13 
REMARK    7  A    between atoms: C_13  and  C_15 
REMARK    8  A    between atoms: C_13  and  C_16 
REMARK    9  A    between atoms: C_16  and  C_18 
REMARK   10  A    between atoms: C_16  and  O_27 
REMARK   11  A    between atoms: C_21  and  O_26 
REMARK   12  A    between atoms: C_22  and  O_24 
REMARK   13  A    between atoms: O_24  and  C_25 
ROOT
ATOM      1  C   LIG d   1       5.371  -3.269  -6.228  0.00  0.00     0.127 C 
ATOM      2  H   LIG d   1       4.828  -2.365  -6.506  0.00  0.00     0.076 H 
ENDROOT
BRANCH   1   3
ATOM      3  O   LIG d   1       4.847  -4.382  -6.956  0.00  0.00    -0.482 OA
BRANCH   3   4
ATOM      4  C   LIG d   1       3.982  -4.105  -7.968  0.00  0.00     0.163 A 
ATOM      5  C   LIG d   1       3.757  -2.789  -8.346  0.00  0.00    -0.016 A 
ATOM      6  C   LIG d   1       2.880  -2.503  -9.372  0.00  0.00    -0.051 A 
ATOM      7  H   LIG d   1       4.270  -1.987  -7.837  0.00  0.00     0.066 H 
ATOM      8  C   LIG d   1       2.216  -3.539 -10.032  0.00  0.00    -0.022 A 
ATOM      9  H   LIG d   1       2.707  -1.478  -9.664  0.00  0.00     0.062 H 
ATOM     10  C   LIG d   1       2.442  -4.862  -9.651  0.00  0.00    -0.009 A 
ATOM     11  C   LIG d   1       3.326  -5.143  -8.626  0.00  0.00     0.162 A 
ATOM     12  H   LIG d   1       1.930  -5.666 -10.159  0.00  0.00     0.066 H 
BRANCH   8  13
ATOM     13  C   LIG d   1       1.276  -3.234 -11.130  0.00  0.00    -0.059 C 
ATOM     14  C   LIG d   1       1.148  -1.988 -11.566  0.00  0.00    -0.086 C 
ATOM     15  H   LIG d   1       1.730  -1.196 -11.118  0.00  0.00     0.057 H 
ATOM     16  H   LIG d   1       0.694  -4.026 -11.579  0.00  0.00     0.062 H 
BRANCH  14  17
ATOM     17  C   LIG d   1       0.189  -1.678 -12.687  0.00  0.00    -0.046 C 
ATOM     18  H   LIG d   1      -0.230  -0.682 -12.543  0.00  0.00     0.027 H 
ATOM     19  H   LIG d   1       0.718  -1.715 -13.639  0.00  0.00     0.027 H 
ATOM     20  H   LIG d   1      -0.616  -2.413 -12.690  0.00  0.00     0.027 H 
ENDBRANCH  14  17
ENDBRANCH   8  13
BRANCH  11  21
ATOM     21  O   LIG d   1       3.552  -6.432  -8.257  0.00  0.00    -0.491 OA
BRANCH  21  22
ATOM     22  C   LIG d   1       4.384  -7.217  -9.115  0.00  0.00     0.079 C 
ATOM     23  H   LIG d   1       5.430  -7.045  -8.862  0.00  0.00     0.066 H 
ATOM     24  H   LIG d   1       4.147  -8.272  -8.984  0.00  0.00     0.066 H 
ATOM     25  H   LIG d   1       4.208  -6.930 -10.151  0.00  0.00     0.066 H 
ENDBRANCH  21  22
ENDBRANCH  11  21
ENDBRANCH   3   4
ENDBRANCH   1   3
BRANCH   1  26
ATOM     26  C   LIG d   1       6.855  -3.097  -6.558  0.00  0.00    -0.025 C 
ATOM     27  H   LIG d   1       7.103  -2.036  -6.572  0.00  0.00     0.027 H 
ATOM     28  H   LIG d   1       7.455  -3.600  -5.800  0.00  0.00     0.027 H 
ATOM     29  H   LIG d   1       7.063  -3.532  -7.534  0.00  0.00     0.027 H 
ENDBRANCH   1  26
BRANCH   1  30
ATOM     30  C   LIG d   1       5.208  -3.520  -4.727  0.00  0.00     0.117 C 
ATOM     31  H   LIG d   1       6.176  -3.770  -4.294  0.00  0.00     0.068 H 
BRANCH  30  32
ATOM     32  C   LIG d   1       4.667  -2.278  -4.066  0.00  0.00    -0.012 A 
ATOM     33  C   LIG d   1       4.118  -1.271  -4.838  0.00  0.00    -0.011 A 
ATOM     34  C   LIG d   1       3.622  -0.127  -4.232  0.00  0.00     0.162 A 
ATOM     35  H   LIG d   1       4.077  -1.373  -5.911  0.00  0.00     0.066 H 
ATOM     36  C   LIG d   1       3.676   0.002  -2.847  0.00  0.00     0.159 A 
ATOM     37  C   LIG d   1       4.223  -1.015  -2.080  0.00  0.00    -0.016 A 
ATOM     38  C   LIG d   1       4.722  -2.149  -2.691  0.00  0.00    -0.052 A 
ATOM     39  H   LIG d   1       4.264  -0.918  -1.006  0.00  0.00     0.066 H 
ATOM     40  H   LIG d   1       5.151  -2.939  -2.093  0.00  0.00     0.062 H 
BRANCH  34  41
ATOM     41  O   LIG d   1       3.082   0.865  -4.988  0.00  0.00    -0.491 OA
BRANCH  41  42
ATOM     42  C   LIG d   1       2.708   0.530  -6.326  0.00  0.00     0.079 C 
ATOM     43  H   LIG d   1       3.394  -0.222  -6.717  0.00  0.00     0.066 H 
ATOM     44  H   LIG d   1       1.693   0.134  -6.331  0.00  0.00     0.066 H 
ATOM     45  H   LIG d   1       2.753   1.423  -6.949  0.00  0.00     0.066 H 
ENDBRANCH  41  42
ENDBRANCH  34  41
BRANCH  36  46
ATOM     46  O   LIG d   1       3.190   1.122  -2.247  0.00  0.00    -0.503 OA
ATOM     47  H   LIG d   1       2.228   1.203  -2.287  0.00  0.00     0.292 HD
ENDBRANCH  36  46
ENDBRANCH  30  32
BRANCH  30  48
ATOM     48  O   LIG d   1       4.300  -4.604  -4.522  0.00  0.00    -0.384 OA
ATOM     49  H   LIG d   1       3.945  -4.981  -5.338  0.00  0.00     0.210 HD
ENDBRANCH  30  48
ENDBRANCH   1  30
TORSDOF 13
ENDMDL
MODEL 10
REMARK VINA RESULT:      -4.5      2.819      4.925
REMARK  13 active torsions:
REMARK  status: ('A' for Active; 'I' for Inactive)
REMARK    1  A    between atoms: C_1  and  C_2 
REMARK    2  A    between atoms: C_3  and  C_4 
REMARK    3  A    between atoms: C_7  and  O_12 
REMARK    4  A    between atoms: C_8  and  O_10 
REMARK    5  A    between atoms: O_10  and  C_11 
REMARK    6  A    between atoms: O_12  and  C_13 
REMARK    7  A    between atoms: C_13  and  C_15 
REMARK    8  A    between atoms: C_13  and  C_16 
REMARK    9  A    between atoms: C_16  and  C_18 
REMARK   10  A    between atoms: C_16  and  O_27 
REMARK   11  A    between atoms: C_21  and  O_26 
REMARK   12  A    between atoms: C_22  and  O_24 
REMARK   13  A    between atoms: O_24  and  C_25 
ROOT
ATOM      1  C   LIG d   1       4.474  -0.415  -3.791  0.00  0.00     0.127 C 
ATOM      2  H   LIG d   1       4.947  -1.357  -4.065  0.00  0.00     0.076 H 
ENDROOT
BRANCH   1   3
ATOM      3  O   LIG d   1       4.061   0.273  -4.974  0.00  0.00    -0.482 OA
BRANCH   3   4
ATOM      4  C   LIG d   1       3.968  -0.462  -6.114  0.00  0.00     0.163 A 
ATOM      5  C   LIG d   1       4.428  -1.770  -6.134  0.00  0.00    -0.016 A 
ATOM      6  C   LIG d   1       4.336  -2.520  -7.288  0.00  0.00    -0.051 A 
ATOM      7  H   LIG d   1       4.859  -2.203  -5.243  0.00  0.00     0.066 H 
ATOM      8  C   LIG d   1       3.779  -1.962  -8.440  0.00  0.00    -0.022 A 
ATOM      9  H   LIG d   1       4.696  -3.538  -7.300  0.00  0.00     0.062 H 
ATOM     10  C   LIG d   1       3.316  -0.646  -8.421  0.00  0.00    -0.009 A 
ATOM     11  C   LIG d   1       3.406   0.099  -7.259  0.00  0.00     0.162 A 
ATOM     12  H   LIG d   1       2.885  -0.210  -9.309  0.00  0.00     0.066 H 
BRANCH   8  13
ATOM     13  C   LIG d   1       3.681  -2.763  -9.677  0.00  0.00    -0.059 C 
ATOM     14  C   LIG d   1       3.536  -4.080  -9.605  0.00  0.00    -0.086 C 
ATOM     15  H   LIG d   1       3.491  -4.566  -8.642  0.00  0.00     0.057 H 
ATOM     16  H   LIG d   1       3.725  -2.277 -10.641  0.00  0.00     0.062 H 
BRANCH  14  17
ATOM     17  C   LIG d   1       3.435  -4.897 -10.867  0.00  0.00    -0.046 C 
ATOM     18  H   LIG d   1       3.853  -4.332 -11.701  0.00  0.00     0.027 H 
ATOM     19  H   LIG d   1       3.989  -5.827 -10.744  0.00  0.00     0.027 H 
ATOM     20  H   LIG d   1       2.387  -5.122 -11.071  0.00  0.00     0.027 H 
ENDBRANCH  14  17
ENDBRANCH   8  13
BRANCH  11  21
ATOM     21  O   LIG d   1       2.951   1.380  -7.235  0.00  0.00    -0.491 OA
BRANCH  21  22
ATOM     22  C   LIG d   1       2.863   2.061  -8.488  0.00  0.00     0.079 C 
ATOM     23  H   LIG d   1       3.066   1.359  -9.298  0.00  0.00     0.066 H 
ATOM     24  H   LIG d   1       1.861   2.473  -8.608  0.00  0.00     0.066 H 
ATOM     25  H   LIG d   1       3.594   2.868  -8.514  0.00  0.00     0.066 H 
ENDBRANCH  21  22
ENDBRANCH  11  21
ENDBRANCH   3   4
ENDBRANCH   1   3
BRANCH   1  26
ATOM     26  C   LIG d   1       3.254  -0.691  -2.910  0.00  0.00    -0.025 C 
ATOM     27  H   LIG d   1       2.380  -0.855  -3.541  0.00  0.00     0.027 H 
ATOM     28  H   LIG d   1       3.437  -1.580  -2.306  0.00  0.00     0.027 H 
ATOM     29  H   LIG d   1       3.076   0.161  -2.257  0.00  0.00     0.027 H 
ENDBRANCH   1  26
BRANCH   1  30
ATOM     30  C   LIG d   1       5.473   0.452  -3.020  0.00  0.00     0.117 C 
ATOM     31  H   LIG d   1       5.585   0.063  -2.009  0.00  0.00     0.068 H 
BRANCH  30  32
ATOM     32  C   LIG d   1       6.807   0.423  -3.721  0.00  0.00    -0.012 A 
ATOM     33  C   LIG d   1       7.577   1.570  -3.785  0.00  0.00    -0.011 A 
ATOM     34  C   LIG d   1       8.803   1.545  -4.430  0.00  0.00     0.162 A 
ATOM     35  H   LIG d   1       7.223   2.484  -3.334  0.00  0.00     0.066 H 
ATOM     36  C   LIG d   1       9.257   0.365  -5.012  0.00  0.00     0.159 A 
ATOM     37  C   LIG d   1       8.481  -0.782  -4.939  0.00  0.00    -0.016 A 
ATOM     38  C   LIG d   1       7.256  -0.749  -4.299  0.00  0.00    -0.052 A 
ATOM     39  H   LIG d   1       8.832  -1.700  -5.386  0.00  0.00     0.066 H 
ATOM     40  H   LIG d   1       6.652  -1.642  -4.247  0.00  0.00     0.062 H 
BRANCH  34  41
ATOM     41  O   LIG d   1       9.562   2.671  -4.495  0.00  0.00    -0.491 OA
BRANCH  41  42
ATOM     42  C   LIG d   1       9.638   3.470  -3.312  0.00  0.00     0.079 C 
ATOM     43  H   LIG d   1       8.813   4.182  -3.301  0.00  0.00     0.066 H 
ATOM     44  H   LIG d   1       9.574   2.827  -2.434  0.00  0.00     0.066 H 
ATOM     45  H   LIG d   1      10.585   4.009  -3.299  0.00  0.00     0.066 H 
ENDBRANCH  41  42
ENDBRANCH  34  41
BRANCH  36  46
ATOM     46  O   LIG d   1      10.459   0.335  -5.645  0.00  0.00    -0.503 OA
ATOM     47  H   LIG d   1      10.539   0.973  -6.367  0.00  0.00     0.292 HD
ENDBRANCH  36  46
ENDBRANCH  30  32
BRANCH  30  48
ATOM     48  O   LIG d   1       4.993   1.796  -2.964  0.00  0.00    -0.384 OA
ATOM     49  H   LIG d   1       4.031   1.868  -2.886  0.00  0.00     0.210 HD
ENDBRANCH  30  48
ENDBRANCH   1  30
TORSDOF 13
ENDMDL
