MODEL 1
REMARK VINA RESULT:      -6.5      0.000      0.000
REMARK  7 active torsions:
REMARK  status: ('A' for Active; 'I' for Inactive)
REMARK    1  A    between atoms: C_1  and  C_2 
REMARK    2  A    between atoms: C_2  and  C_3 
REMARK    3  A    between atoms: C_3  and  C_9 
REMARK    4  A    between atoms: N_4  and  N_5 
REMARK       I    between atoms: N_5  and  C_6 
REMARK       I    between atoms: C_6  and  N_8 
REMARK    5  A    between atoms: C_9  and  C_10 
REMARK    6  A    between atoms: C_10  and  C_11 
REMARK    7  A    between atoms: C_11  and  C_12 
ROOT
ATOM      1  C   LIG d   1       3.327   0.001  -6.791  0.00  0.00    -0.013 C 
ATOM      2  H   LIG d   1       4.407   0.149  -6.792  0.00  0.00     0.033 H 
ATOM      3  H   LIG d   1       3.102  -1.028  -6.511  0.00  0.00     0.033 H 
ENDROOT
BRANCH   1   4
ATOM      4  C   LIG d   1       2.782   0.277  -8.168  0.00  0.00     0.037 C 
ATOM      5  N   LIG d   1       2.386  -0.691  -8.906  0.00  0.00    -0.188 NA
BRANCH   4   6
ATOM      6  C   LIG d   1       2.703   1.694  -8.677  0.00  0.00    -0.016 C 
ATOM      7  H   LIG d   1       2.044   1.732  -9.544  0.00  0.00     0.032 H 
ATOM      8  H   LIG d   1       2.309   2.340  -7.893  0.00  0.00     0.032 H 
BRANCH   6   9
ATOM      9  C   LIG d   1       4.101   2.171  -9.076  0.00  0.00    -0.060 C 
ATOM     10  H   LIG d   1       4.032   2.785  -9.973  0.00  0.00     0.023 H 
ATOM     11  H   LIG d   1       4.529   2.758  -8.265  0.00  0.00     0.023 H 
ATOM     12  H   LIG d   1       4.736   1.308  -9.275  0.00  0.00     0.023 H 
ENDBRANCH   6   9
ENDBRANCH   4   6
BRANCH   5  13
ATOM     13  N   LIG d   1       1.971  -0.445 -10.221  0.00  0.00    -0.191 N 
ATOM     14  C   LIG d   1       1.243  -1.367 -10.883  0.00  0.00     0.317 C 
ATOM     15  O   LIG d   1       0.883  -1.153 -12.024  0.00  0.00    -0.251 OA
ATOM     16  N   LIG d   1       0.914  -2.526 -10.277  0.00  0.00    -0.312 N 
ATOM     17  H   LIG d   1       1.201  -2.696  -9.367  0.00  0.00     0.146 HD
ATOM     18  H   LIG d   1       0.390  -3.189 -10.753  0.00  0.00     0.146 HD
ATOM     19  H   LIG d   1       2.208   0.389 -10.657  0.00  0.00     0.179 HD
ENDBRANCH   5  13
ENDBRANCH   1   4
BRANCH   1  20
ATOM     20  C   LIG d   1       2.683   0.956  -5.785  0.00  0.00    -0.044 C 
ATOM     21  H   LIG d   1       1.965   1.596  -6.300  0.00  0.00     0.027 H 
ATOM     22  H   LIG d   1       3.454   1.575  -5.325  0.00  0.00     0.027 H 
BRANCH  20  23
ATOM     23  C   LIG d   1       1.963   0.149  -4.703  0.00  0.00    -0.027 C 
ATOM     24  H   LIG d   1       1.610  -0.791  -5.127  0.00  0.00     0.031 H 
ATOM     25  H   LIG d   1       1.115   0.720  -4.327  0.00  0.00     0.031 H 
BRANCH  23  26
ATOM     26  C   LIG d   1       2.917  -0.137  -3.572  0.00  0.00    -0.047 A 
ATOM     27  C   LIG d   1       3.213  -1.444  -3.231  0.00  0.00    -0.059 A 
ATOM     28  C   LIG d   1       4.088  -1.707  -2.194  0.00  0.00    -0.061 A 
ATOM     29  H   LIG d   1       2.761  -2.259  -3.776  0.00  0.00     0.062 H 
ATOM     30  C   LIG d   1       4.668  -0.663  -1.498  0.00  0.00    -0.062 A 
ATOM     31  H   LIG d   1       4.319  -2.728  -1.928  0.00  0.00     0.062 H 
ATOM     32  C   LIG d   1       4.372   0.644  -1.838  0.00  0.00    -0.061 A 
ATOM     33  H   LIG d   1       5.351  -0.868  -0.686  0.00  0.00     0.062 H 
ATOM     34  C   LIG d   1       3.500   0.907  -2.878  0.00  0.00    -0.059 A 
ATOM     35  H   LIG d   1       4.824   1.459  -1.294  0.00  0.00     0.062 H 
ATOM     36  H   LIG d   1       3.273   1.928  -3.147  0.00  0.00     0.062 H 
ENDBRANCH  23  26
ENDBRANCH  20  23
ENDBRANCH   1  20
TORSDOF 7
ENDMDL
MODEL 2
REMARK VINA RESULT:      -6.3      3.247      4.183
REMARK  7 active torsions:
REMARK  status: ('A' for Active; 'I' for Inactive)
REMARK    1  A    between atoms: C_1  and  C_2 
REMARK    2  A    between atoms: C_2  and  C_3 
REMARK    3  A    between atoms: C_3  and  C_9 
REMARK    4  A    between atoms: N_4  and  N_5 
REMARK       I    between atoms: N_5  and  C_6 
REMARK       I    between atoms: C_6  and  N_8 
REMARK    5  A    between atoms: C_9  and  C_10 
REMARK    6  A    between atoms: C_10  and  C_11 
REMARK    7  A    between atoms: C_11  and  C_12 
ROOT
ATOM      1  C   LIG d   1       2.877   0.738  -7.685  0.00  0.00    -0.013 C 
ATOM      2  H   LIG d   1       2.392   0.075  -8.402  0.00  0.00     0.033 H 
ATOM      3  H   LIG d   1       2.216   1.574  -7.458  0.00  0.00     0.033 H 
ENDROOT
BRANCH   1   4
ATOM      4  C   LIG d   1       4.163   1.259  -8.273  0.00  0.00     0.037 C 
ATOM      5  N   LIG d   1       5.287   0.882  -7.790  0.00  0.00    -0.188 NA
BRANCH   4   6
ATOM      6  C   LIG d   1       4.126   2.224  -9.430  0.00  0.00    -0.016 C 
ATOM      7  H   LIG d   1       3.350   2.970  -9.256  0.00  0.00     0.032 H 
ATOM      8  H   LIG d   1       5.092   2.720  -9.520  0.00  0.00     0.032 H 
BRANCH   6   9
ATOM      9  C   LIG d   1       3.822   1.461 -10.721  0.00  0.00    -0.060 C 
ATOM     10  H   LIG d   1       4.756   1.152 -11.189  0.00  0.00     0.023 H 
ATOM     11  H   LIG d   1       3.222   0.581 -10.489  0.00  0.00     0.023 H 
ATOM     12  H   LIG d   1       3.270   2.107 -11.404  0.00  0.00     0.023 H 
ENDBRANCH   6   9
ENDBRANCH   4   6
BRANCH   5  13
ATOM     13  N   LIG d   1       6.478   1.440  -8.270  0.00  0.00    -0.191 N 
ATOM     14  C   LIG d   1       7.530   1.601  -7.441  0.00  0.00     0.317 C 
ATOM     15  O   LIG d   1       8.565   2.085  -7.858  0.00  0.00    -0.251 OA
ATOM     16  N   LIG d   1       7.434   1.224  -6.150  0.00  0.00    -0.312 N 
ATOM     17  H   LIG d   1       6.609   0.837  -5.819  0.00  0.00     0.146 HD
ATOM     18  H   LIG d   1       8.190   1.339  -5.555  0.00  0.00     0.146 HD
ATOM     19  H   LIG d   1       6.547   1.712  -9.198  0.00  0.00     0.179 HD
ENDBRANCH   5  13
ENDBRANCH   1   4
BRANCH   1  20
ATOM     20  C   LIG d   1       3.179  -0.036  -6.400  0.00  0.00    -0.044 C 
ATOM     21  H   LIG d   1       4.256  -0.048  -6.229  0.00  0.00     0.027 H 
ATOM     22  H   LIG d   1       2.817  -1.059  -6.498  0.00  0.00     0.027 H 
BRANCH  20  23
ATOM     23  C   LIG d   1       2.482   0.642  -5.220  0.00  0.00    -0.027 C 
ATOM     24  H   LIG d   1       1.438   0.329  -5.186  0.00  0.00     0.031 H 
ATOM     25  H   LIG d   1       2.533   1.724  -5.340  0.00  0.00     0.031 H 
BRANCH  23  26
ATOM     26  C   LIG d   1       3.166   0.246  -3.937  0.00  0.00    -0.047 A 
ATOM     27  C   LIG d   1       3.677   1.220  -3.097  0.00  0.00    -0.059 A 
ATOM     28  C   LIG d   1       4.305   0.857  -1.920  0.00  0.00    -0.061 A 
ATOM     29  H   LIG d   1       3.584   2.263  -3.361  0.00  0.00     0.062 H 
ATOM     30  C   LIG d   1       4.422  -0.479  -1.583  0.00  0.00    -0.062 A 
ATOM     31  H   LIG d   1       4.703   1.617  -1.265  0.00  0.00     0.062 H 
ATOM     32  C   LIG d   1       3.911  -1.452  -2.422  0.00  0.00    -0.061 A 
ATOM     33  H   LIG d   1       4.913  -0.762  -0.663  0.00  0.00     0.062 H 
ATOM     34  C   LIG d   1       3.280  -1.088  -3.597  0.00  0.00    -0.059 A 
ATOM     35  H   LIG d   1       4.003  -2.494  -2.158  0.00  0.00     0.062 H 
ATOM     36  H   LIG d   1       2.877  -1.849  -4.250  0.00  0.00     0.062 H 
ENDBRANCH  23  26
ENDBRANCH  20  23
ENDBRANCH   1  20
TORSDOF 7
ENDMDL
MODEL 3
REMARK VINA RESULT:      -6.2      2.511      3.960
REMARK  7 active torsions:
REMARK  status: ('A' for Active; 'I' for Inactive)
REMARK    1  A    between atoms: C_1  and  C_2 
REMARK    2  A    between atoms: C_2  and  C_3 
REMARK    3  A    between atoms: C_3  and  C_9 
REMARK    4  A    between atoms: N_4  and  N_5 
REMARK       I    between atoms: N_5  and  C_6 
REMARK       I    between atoms: C_6  and  N_8 
REMARK    5  A    between atoms: C_9  and  C_10 
REMARK    6  A    between atoms: C_10  and  C_11 
REMARK    7  A    between atoms: C_11  and  C_12 
ROOT
ATOM      1  C   LIG d   1       5.970  -2.368  -4.169  0.00  0.00    -0.013 C 
ATOM      2  H   LIG d   1       6.234  -1.806  -3.273  0.00  0.00     0.033 H 
ATOM      3  H   LIG d   1       6.717  -3.141  -4.346  0.00  0.00     0.033 H 
ENDROOT
BRANCH   1   4
ATOM      4  C   LIG d   1       5.922  -1.436  -5.351  0.00  0.00     0.037 C 
ATOM      5  N   LIG d   1       5.186  -1.718  -6.360  0.00  0.00    -0.188 NA
BRANCH   4   6
ATOM      6  C   LIG d   1       6.741  -0.170  -5.347  0.00  0.00    -0.016 C 
ATOM      7  H   LIG d   1       7.550  -0.259  -6.072  0.00  0.00     0.032 H 
ATOM      8  H   LIG d   1       6.106   0.674  -5.612  0.00  0.00     0.032 H 
BRANCH   6   9
ATOM      9  C   LIG d   1       7.328   0.052  -3.951  0.00  0.00    -0.060 C 
ATOM     10  H   LIG d   1       7.101  -0.807  -3.321  0.00  0.00     0.023 H 
ATOM     11  H   LIG d   1       8.409   0.171  -4.027  0.00  0.00     0.023 H 
ATOM     12  H   LIG d   1       6.893   0.949  -3.512  0.00  0.00     0.023 H 
ENDBRANCH   6   9
ENDBRANCH   4   6
BRANCH   5  13
ATOM     13  N   LIG d   1       5.216  -0.903  -7.499  0.00  0.00    -0.191 N 
ATOM     14  C   LIG d   1       4.077  -0.353  -7.965  0.00  0.00     0.317 C 
ATOM     15  O   LIG d   1       4.103   0.354  -8.953  0.00  0.00    -0.251 OA
ATOM     16  N   LIG d   1       2.909  -0.587  -7.334  0.00  0.00    -0.312 N 
ATOM     17  H   LIG d   1       2.889  -1.151  -6.545  0.00  0.00     0.146 HD
ATOM     18  H   LIG d   1       2.090  -0.191  -7.669  0.00  0.00     0.146 HD
ATOM     19  H   LIG d   1       6.056  -0.736  -7.953  0.00  0.00     0.179 HD
ENDBRANCH   5  13
ENDBRANCH   1   4
BRANCH   1  20
ATOM     20  C   LIG d   1       4.599  -3.020  -3.976  0.00  0.00    -0.044 C 
ATOM     21  H   LIG d   1       4.714  -4.104  -3.947  0.00  0.00     0.027 H 
ATOM     22  H   LIG d   1       3.947  -2.747  -4.805  0.00  0.00     0.027 H 
BRANCH  20  23
ATOM     23  C   LIG d   1       3.985  -2.536  -2.661  0.00  0.00    -0.027 C 
ATOM     24  H   LIG d   1       4.623  -2.837  -1.830  0.00  0.00     0.031 H 
ATOM     25  H   LIG d   1       2.995  -2.977  -2.538  0.00  0.00     0.031 H 
BRANCH  23  26
ATOM     26  C   LIG d   1       3.866  -1.034  -2.685  0.00  0.00    -0.047 A 
ATOM     27  C   LIG d   1       3.108  -0.416  -3.663  0.00  0.00    -0.059 A 
ATOM     28  C   LIG d   1       2.999   0.962  -3.686  0.00  0.00    -0.061 A 
ATOM     29  H   LIG d   1       2.602  -1.010  -4.409  0.00  0.00     0.062 H 
ATOM     30  C   LIG d   1       3.647   1.722  -2.730  0.00  0.00    -0.062 A 
ATOM     31  H   LIG d   1       2.407   1.444  -4.449  0.00  0.00     0.062 H 
ATOM     32  C   LIG d   1       4.404   1.104  -1.751  0.00  0.00    -0.061 A 
ATOM     33  H   LIG d   1       3.562   2.799  -2.748  0.00  0.00     0.062 H 
ATOM     34  C   LIG d   1       4.510  -0.274  -1.727  0.00  0.00    -0.059 A 
ATOM     35  H   LIG d   1       4.910   1.698  -1.005  0.00  0.00     0.062 H 
ATOM     36  H   LIG d   1       5.097  -0.756  -0.960  0.00  0.00     0.062 H 
ENDBRANCH  23  26
ENDBRANCH  20  23
ENDBRANCH   1  20
TORSDOF 7
ENDMDL
MODEL 4
REMARK VINA RESULT:      -6.1      3.000      4.035
REMARK  7 active torsions:
REMARK  status: ('A' for Active; 'I' for Inactive)
REMARK    1  A    between atoms: C_1  and  C_2 
REMARK    2  A    between atoms: C_2  and  C_3 
REMARK    3  A    between atoms: C_3  and  C_9 
REMARK    4  A    between atoms: N_4  and  N_5 
REMARK       I    between atoms: N_5  and  C_6 
REMARK       I    between atoms: C_6  and  N_8 
REMARK    5  A    between atoms: C_9  and  C_10 
REMARK    6  A    between atoms: C_10  and  C_11 
REMARK    7  A    between atoms: C_11  and  C_12 
ROOT
ATOM      1  C   LIG d   1       4.651  -1.913  -5.964  0.00  0.00    -0.013 C 
ATOM      2  H   LIG d   1       4.383  -2.774  -6.577  0.00  0.00     0.033 H 
ATOM      3  H   LIG d   1       4.077  -1.933  -5.038  0.00  0.00     0.033 H 
ENDROOT
BRANCH   1   4
ATOM      4  C   LIG d   1       4.346  -0.645  -6.718  0.00  0.00     0.037 C 
ATOM      5  N   LIG d   1       5.225  -0.137  -7.499  0.00  0.00    -0.188 NA
BRANCH   4   6
ATOM      6  C   LIG d   1       3.007   0.026  -6.552  0.00  0.00    -0.016 C 
ATOM      7  H   LIG d   1       3.001   0.965  -7.105  0.00  0.00     0.032 H 
ATOM      8  H   LIG d   1       2.224  -0.627  -6.936  0.00  0.00     0.032 H 
BRANCH   6   9
ATOM      9  C   LIG d   1       2.757   0.306  -5.069  0.00  0.00    -0.060 C 
ATOM     10  H   LIG d   1       3.680   0.649  -4.603  0.00  0.00     0.023 H 
ATOM     11  H   LIG d   1       1.991   1.074  -4.968  0.00  0.00     0.023 H 
ATOM     12  H   LIG d   1       2.422  -0.608  -4.578  0.00  0.00     0.023 H 
ENDBRANCH   6   9
ENDBRANCH   4   6
BRANCH   5  13
ATOM     13  N   LIG d   1       4.980   1.092  -8.123  0.00  0.00    -0.191 N 
ATOM     14  C   LIG d   1       5.962   1.706  -8.813  0.00  0.00     0.317 C 
ATOM     15  O   LIG d   1       5.750   2.774  -9.355  0.00  0.00    -0.251 OA
ATOM     16  N   LIG d   1       7.181   1.136  -8.900  0.00  0.00    -0.312 N 
ATOM     17  H   LIG d   1       7.350   0.285  -8.469  0.00  0.00     0.146 HD
ATOM     18  H   LIG d   1       7.887   1.578  -9.397  0.00  0.00     0.146 HD
ATOM     19  H   LIG d   1       4.103   1.503  -8.059  0.00  0.00     0.179 HD
ENDBRANCH   5  13
ENDBRANCH   1   4
BRANCH   1  20
ATOM     20  C   LIG d   1       6.145  -1.967  -5.638  0.00  0.00    -0.044 C 
ATOM     21  H   LIG d   1       6.604  -1.008  -5.879  0.00  0.00     0.027 H 
ATOM     22  H   LIG d   1       6.618  -2.752  -6.227  0.00  0.00     0.027 H 
BRANCH  20  23
ATOM     23  C   LIG d   1       6.332  -2.263  -4.149  0.00  0.00    -0.027 C 
ATOM     24  H   LIG d   1       7.396  -2.351  -3.927  0.00  0.00     0.031 H 
ATOM     25  H   LIG d   1       5.829  -3.197  -3.898  0.00  0.00     0.031 H 
BRANCH  23  26
ATOM     26  C   LIG d   1       5.741  -1.140  -3.335  0.00  0.00    -0.047 A 
ATOM     27  C   LIG d   1       4.755  -1.407  -2.403  0.00  0.00    -0.059 A 
ATOM     28  C   LIG d   1       4.213  -0.377  -1.657  0.00  0.00    -0.061 A 
ATOM     29  H   LIG d   1       4.409  -2.420  -2.258  0.00  0.00     0.062 H 
ATOM     30  C   LIG d   1       4.657   0.919  -1.843  0.00  0.00    -0.062 A 
ATOM     31  H   LIG d   1       3.443  -0.586  -0.929  0.00  0.00     0.062 H 
ATOM     32  C   LIG d   1       5.643   1.185  -2.775  0.00  0.00    -0.061 A 
ATOM     33  H   LIG d   1       4.232   1.724  -1.260  0.00  0.00     0.062 H 
ATOM     34  C   LIG d   1       6.188   0.155  -3.517  0.00  0.00    -0.059 A 
ATOM     35  H   LIG d   1       5.989   2.197  -2.919  0.00  0.00     0.062 H 
ATOM     36  H   LIG d   1       6.961   0.363  -4.242  0.00  0.00     0.062 H 
ENDBRANCH  23  26
ENDBRANCH  20  23
ENDBRANCH   1  20
TORSDOF 7
ENDMDL
MODEL 5
REMARK VINA RESULT:      -6.0      4.329      6.973
REMARK  7 active torsions:
REMARK  status: ('A' for Active; 'I' for Inactive)
REMARK    1  A    between atoms: C_1  and  C_2 
REMARK    2  A    between atoms: C_2  and  C_3 
REMARK    3  A    between atoms: C_3  and  C_9 
REMARK    4  A    between atoms: N_4  and  N_5 
REMARK       I    between atoms: N_5  and  C_6 
REMARK       I    between atoms: C_6  and  N_8 
REMARK    5  A    between atoms: C_9  and  C_10 
REMARK    6  A    between atoms: C_10  and  C_11 
REMARK    7  A    between atoms: C_11  and  C_12 
ROOT
ATOM      1  C   LIG d   1       2.543  -0.164  -4.003  0.00  0.00    -0.013 C 
ATOM      2  H   LIG d   1       1.693   0.185  -3.417  0.00  0.00     0.033 H 
ATOM      3  H   LIG d   1       2.479  -1.244  -4.130  0.00  0.00     0.033 H 
ENDROOT
BRANCH   1   4
ATOM      4  C   LIG d   1       3.823   0.183  -3.287  0.00  0.00     0.037 C 
ATOM      5  N   LIG d   1       4.549   1.150  -3.706  0.00  0.00    -0.188 NA
BRANCH   4   6
ATOM      6  C   LIG d   1       4.249  -0.610  -2.078  0.00  0.00    -0.016 C 
ATOM      7  H   LIG d   1       5.332  -0.558  -1.973  0.00  0.00     0.032 H 
ATOM      8  H   LIG d   1       3.776  -0.196  -1.188  0.00  0.00     0.032 H 
BRANCH   6   9
ATOM      9  C   LIG d   1       3.822  -2.070  -2.250  0.00  0.00    -0.060 C 
ATOM     10  H   LIG d   1       2.976  -2.280  -1.597  0.00  0.00     0.023 H 
ATOM     11  H   LIG d   1       3.534  -2.244  -3.286  0.00  0.00     0.023 H 
ATOM     12  H   LIG d   1       4.653  -2.724  -1.989  0.00  0.00     0.023 H 
ENDBRANCH   6   9
ENDBRANCH   4   6
BRANCH   5  13
ATOM     13  N   LIG d   1       5.785   1.410  -3.102  0.00  0.00    -0.191 N 
ATOM     14  C   LIG d   1       6.921   1.316  -3.823  0.00  0.00     0.317 C 
ATOM     15  O   LIG d   1       7.995   1.542  -3.299  0.00  0.00    -0.251 OA
ATOM     16  N   LIG d   1       6.866   0.970  -5.125  0.00  0.00    -0.312 N 
ATOM     17  H   LIG d   1       6.009   0.791  -5.543  0.00  0.00     0.146 HD
ATOM     18  H   LIG d   1       7.682   0.903  -5.643  0.00  0.00     0.146 HD
ATOM     19  H   LIG d   1       5.826   1.658  -2.166  0.00  0.00     0.179 HD
ENDBRANCH   5  13
ENDBRANCH   1   4
BRANCH   1  20
ATOM     20  C   LIG d   1       2.526   0.512  -5.376  0.00  0.00    -0.044 C 
ATOM     21  H   LIG d   1       2.909   1.528  -5.284  0.00  0.00     0.027 H 
ATOM     22  H   LIG d   1       1.504   0.543  -5.753  0.00  0.00     0.027 H 
BRANCH  20  23
ATOM     23  C   LIG d   1       3.405  -0.280  -6.345  0.00  0.00    -0.027 C 
ATOM     24  H   LIG d   1       2.889  -1.195  -6.639  0.00  0.00     0.031 H 
ATOM     25  H   LIG d   1       4.346  -0.534  -5.859  0.00  0.00     0.031 H 
BRANCH  23  26
ATOM     26  C   LIG d   1       3.681   0.555  -7.570  0.00  0.00    -0.047 A 
ATOM     27  C   LIG d   1       4.854   0.374  -8.279  0.00  0.00    -0.059 A 
ATOM     28  C   LIG d   1       5.108   1.140  -9.402  0.00  0.00    -0.061 A 
ATOM     29  H   LIG d   1       5.572  -0.365  -7.956  0.00  0.00     0.062 H 
ATOM     30  C   LIG d   1       4.188   2.086  -9.815  0.00  0.00    -0.062 A 
ATOM     31  H   LIG d   1       6.024   0.998  -9.955  0.00  0.00     0.062 H 
ATOM     32  C   LIG d   1       3.015   2.267  -9.106  0.00  0.00    -0.061 A 
ATOM     33  H   LIG d   1       4.387   2.685 -10.692  0.00  0.00     0.062 H 
ATOM     34  C   LIG d   1       2.760   1.498  -7.986  0.00  0.00    -0.059 A 
ATOM     35  H   LIG d   1       2.298   3.005  -9.429  0.00  0.00     0.062 H 
ATOM     36  H   LIG d   1       1.841   1.636  -7.435  0.00  0.00     0.062 H 
ENDBRANCH  23  26
ENDBRANCH  20  23
ENDBRANCH   1  20
TORSDOF 7
ENDMDL
MODEL 6
REMARK VINA RESULT:      -6.0      3.307      4.071
REMARK  7 active torsions:
REMARK  status: ('A' for Active; 'I' for Inactive)
REMARK    1  A    between atoms: C_1  and  C_2 
REMARK    2  A    between atoms: C_2  and  C_3 
REMARK    3  A    between atoms: C_3  and  C_9 
REMARK    4  A    between atoms: N_4  and  N_5 
REMARK       I    between atoms: N_5  and  C_6 
REMARK       I    between atoms: C_6  and  N_8 
REMARK    5  A    between atoms: C_9  and  C_10 
REMARK    6  A    between atoms: C_10  and  C_11 
REMARK    7  A    between atoms: C_11  and  C_12 
ROOT
ATOM      1  C   LIG d   1       4.085   0.163  -6.700  0.00  0.00    -0.013 C 
ATOM      2  H   LIG d   1       4.003   0.432  -7.753  0.00  0.00     0.033 H 
ATOM      3  H   LIG d   1       4.501   1.001  -6.141  0.00  0.00     0.033 H 
ENDROOT
BRANCH   1   4
ATOM      4  C   LIG d   1       4.988  -1.035  -6.557  0.00  0.00     0.037 C 
ATOM      5  N   LIG d   1       4.506  -2.216  -6.660  0.00  0.00    -0.188 NA
BRANCH   4   6
ATOM      6  C   LIG d   1       6.459  -0.842  -6.292  0.00  0.00    -0.016 C 
ATOM      7  H   LIG d   1       6.972  -1.799  -6.377  0.00  0.00     0.032 H 
ATOM      8  H   LIG d   1       6.870  -0.143  -7.020  0.00  0.00     0.032 H 
BRANCH   6   9
ATOM      9  C   LIG d   1       6.654  -0.282  -4.881  0.00  0.00    -0.060 C 
ATOM     10  H   LIG d   1       7.292  -0.954  -4.309  0.00  0.00     0.023 H 
ATOM     11  H   LIG d   1       7.122   0.700  -4.942  0.00  0.00     0.023 H 
ATOM     12  H   LIG d   1       5.686  -0.193  -4.389  0.00  0.00     0.023 H 
ENDBRANCH   6   9
ENDBRANCH   4   6
BRANCH   5  13
ATOM     13  N   LIG d   1       5.324  -3.329  -6.430  0.00  0.00    -0.191 N 
ATOM     14  C   LIG d   1       4.778  -4.558  -6.325  0.00  0.00     0.317 C 
ATOM     15  O   LIG d   1       5.489  -5.524  -6.125  0.00  0.00    -0.251 OA
ATOM     16  N   LIG d   1       3.444  -4.714  -6.441  0.00  0.00    -0.312 N 
ATOM     17  H   LIG d   1       2.878  -3.943  -6.601  0.00  0.00     0.146 HD
ATOM     18  H   LIG d   1       3.052  -5.597  -6.366  0.00  0.00     0.146 HD
ATOM     19  H   LIG d   1       6.284  -3.217  -6.345  0.00  0.00     0.179 HD
ENDBRANCH   5  13
ENDBRANCH   1   4
BRANCH   1  20
ATOM     20  C   LIG d   1       2.697  -0.175  -6.151  0.00  0.00    -0.044 C 
ATOM     21  H   LIG d   1       2.676  -1.218  -5.835  0.00  0.00     0.027 H 
ATOM     22  H   LIG d   1       1.950  -0.018  -6.930  0.00  0.00     0.027 H 
BRANCH  20  23
ATOM     23  C   LIG d   1       2.387   0.728  -4.956  0.00  0.00    -0.027 C 
ATOM     24  H   LIG d   1       1.317   0.701  -4.750  0.00  0.00     0.031 H 
ATOM     25  H   LIG d   1       2.688   1.750  -5.184  0.00  0.00     0.031 H 
BRANCH  23  26
ATOM     26  C   LIG d   1       3.143   0.238  -3.748  0.00  0.00    -0.047 A 
ATOM     27  C   LIG d   1       3.825   1.138  -2.948  0.00  0.00    -0.059 A 
ATOM     28  C   LIG d   1       4.519   0.689  -1.840  0.00  0.00    -0.061 A 
ATOM     29  H   LIG d   1       3.814   2.190  -3.190  0.00  0.00     0.062 H 
ATOM     30  C   LIG d   1       4.531  -0.658  -1.531  0.00  0.00    -0.062 A 
ATOM     31  H   LIG d   1       5.050   1.392  -1.216  0.00  0.00     0.062 H 
ATOM     32  C   LIG d   1       3.850  -1.557  -2.330  0.00  0.00    -0.061 A 
ATOM     33  H   LIG d   1       5.074  -1.008  -0.665  0.00  0.00     0.062 H 
ATOM     34  C   LIG d   1       3.152  -1.108  -3.436  0.00  0.00    -0.059 A 
ATOM     35  H   LIG d   1       3.860  -2.609  -2.088  0.00  0.00     0.062 H 
ATOM     36  H   LIG d   1       2.616  -1.810  -4.057  0.00  0.00     0.062 H 
ENDBRANCH  23  26
ENDBRANCH  20  23
ENDBRANCH   1  20
TORSDOF 7
ENDMDL
MODEL 7
REMARK VINA RESULT:      -5.9      4.012      4.879
REMARK  7 active torsions:
REMARK  status: ('A' for Active; 'I' for Inactive)
REMARK    1  A    between atoms: C_1  and  C_2 
REMARK    2  A    between atoms: C_2  and  C_3 
REMARK    3  A    between atoms: C_3  and  C_9 
REMARK    4  A    between atoms: N_4  and  N_5 
REMARK       I    between atoms: N_5  and  C_6 
REMARK       I    between atoms: C_6  and  N_8 
REMARK    5  A    between atoms: C_9  and  C_10 
REMARK    6  A    between atoms: C_10  and  C_11 
REMARK    7  A    between atoms: C_11  and  C_12 
ROOT
ATOM      1  C   LIG d   1       3.680  -0.669  -6.569  0.00  0.00    -0.013 C 
ATOM      2  H   LIG d   1       3.599  -1.489  -5.855  0.00  0.00     0.033 H 
ATOM      3  H   LIG d   1       3.316  -0.997  -7.542  0.00  0.00     0.033 H 
ENDROOT
BRANCH   1   4
ATOM      4  C   LIG d   1       5.122  -0.247  -6.688  0.00  0.00     0.037 C 
ATOM      5  N   LIG d   1       5.759   0.156  -5.653  0.00  0.00    -0.188 NA
BRANCH   4   6
ATOM      6  C   LIG d   1       5.814  -0.299  -8.026  0.00  0.00    -0.016 C 
ATOM      7  H   LIG d   1       6.117   0.706  -8.318  0.00  0.00     0.032 H 
ATOM      8  H   LIG d   1       6.694  -0.937  -7.955  0.00  0.00     0.032 H 
BRANCH   6   9
ATOM      9  C   LIG d   1       4.855  -0.868  -9.074  0.00  0.00    -0.060 C 
ATOM     10  H   LIG d   1       5.418  -1.163  -9.959  0.00  0.00     0.023 H 
ATOM     11  H   LIG d   1       4.342  -1.737  -8.663  0.00  0.00     0.023 H 
ATOM     12  H   LIG d   1       4.123  -0.109  -9.347  0.00  0.00     0.023 H 
ENDBRANCH   6   9
ENDBRANCH   4   6
BRANCH   5  13
ATOM     13  N   LIG d   1       7.066   0.640  -5.781  0.00  0.00    -0.191 N 
ATOM     14  C   LIG d   1       7.949   0.474  -4.775  0.00  0.00     0.317 C 
ATOM     15  O   LIG d   1       9.084   0.894  -4.885  0.00  0.00    -0.251 OA
ATOM     16  N   LIG d   1       7.571  -0.160  -3.646  0.00  0.00    -0.312 N 
ATOM     17  H   LIG d   1       6.666  -0.496  -3.559  0.00  0.00     0.146 HD
ATOM     18  H   LIG d   1       8.206  -0.280  -2.923  0.00  0.00     0.146 HD
ATOM     19  H   LIG d   1       7.338   1.097  -6.592  0.00  0.00     0.179 HD
ENDBRANCH   5  13
ENDBRANCH   1   4
BRANCH   1  20
ATOM     20  C   LIG d   1       2.840   0.514  -6.083  0.00  0.00    -0.044 C 
ATOM     21  H   LIG d   1       2.168   0.833  -6.880  0.00  0.00     0.027 H 
ATOM     22  H   LIG d   1       3.498   1.340  -5.811  0.00  0.00     0.027 H 
BRANCH  20  23
ATOM     23  C   LIG d   1       2.021   0.091  -4.863  0.00  0.00    -0.027 C 
ATOM     24  H   LIG d   1       1.524  -0.857  -5.070  0.00  0.00     0.031 H 
ATOM     25  H   LIG d   1       1.273   0.853  -4.645  0.00  0.00     0.031 H 
BRANCH  23  26
ATOM     26  C   LIG d   1       2.935  -0.070  -3.675  0.00  0.00    -0.047 A 
ATOM     27  C   LIG d   1       3.237  -1.334  -3.203  0.00  0.00    -0.059 A 
ATOM     28  C   LIG d   1       4.075  -1.482  -2.113  0.00  0.00    -0.061 A 
ATOM     29  H   LIG d   1       2.819  -2.205  -3.685  0.00  0.00     0.062 H 
ATOM     30  C   LIG d   1       4.611  -0.367  -1.497  0.00  0.00    -0.062 A 
ATOM     31  H   LIG d   1       4.312  -2.469  -1.745  0.00  0.00     0.062 H 
ATOM     32  C   LIG d   1       4.309   0.897  -1.970  0.00  0.00    -0.061 A 
ATOM     33  H   LIG d   1       5.266  -0.483  -0.645  0.00  0.00     0.062 H 
ATOM     34  C   LIG d   1       3.474   1.044  -3.061  0.00  0.00    -0.059 A 
ATOM     35  H   LIG d   1       4.727   1.767  -1.488  0.00  0.00     0.062 H 
ATOM     36  H   LIG d   1       3.242   2.032  -3.433  0.00  0.00     0.062 H 
ENDBRANCH  23  26
ENDBRANCH  20  23
ENDBRANCH   1  20
TORSDOF 7
ENDMDL
MODEL 8
REMARK VINA RESULT:      -5.6      5.183      6.539
REMARK  7 active torsions:
REMARK  status: ('A' for Active; 'I' for Inactive)
REMARK    1  A    between atoms: C_1  and  C_2 
REMARK    2  A    between atoms: C_2  and  C_3 
REMARK    3  A    between atoms: C_3  and  C_9 
REMARK    4  A    between atoms: N_4  and  N_5 
REMARK       I    between atoms: N_5  and  C_6 
REMARK       I    between atoms: C_6  and  N_8 
REMARK    5  A    between atoms: C_9  and  C_10 
REMARK    6  A    between atoms: C_10  and  C_11 
REMARK    7  A    between atoms: C_11  and  C_12 
ROOT
ATOM      1  C   LIG d   1       6.362  -3.071  -5.561  0.00  0.00    -0.013 C 
ATOM      2  H   LIG d   1       6.423  -4.096  -5.194  0.00  0.00     0.033 H 
ATOM      3  H   LIG d   1       6.597  -3.051  -6.625  0.00  0.00     0.033 H 
ENDROOT
BRANCH   1   4
ATOM      4  C   LIG d   1       7.348  -2.211  -4.813  0.00  0.00     0.037 C 
ATOM      5  N   LIG d   1       7.363  -0.944  -4.999  0.00  0.00    -0.188 NA
BRANCH   4   6
ATOM      6  C   LIG d   1       8.317  -2.842  -3.846  0.00  0.00    -0.016 C 
ATOM      7  H   LIG d   1       9.287  -2.355  -3.934  0.00  0.00     0.032 H 
ATOM      8  H   LIG d   1       7.942  -2.725  -2.829  0.00  0.00     0.032 H 
BRANCH   6   9
ATOM      9  C   LIG d   1       8.461  -4.331  -4.168  0.00  0.00    -0.060 C 
ATOM     10  H   LIG d   1       8.045  -4.531  -5.155  0.00  0.00     0.023 H 
ATOM     11  H   LIG d   1       9.516  -4.604  -4.157  0.00  0.00     0.023 H 
ATOM     12  H   LIG d   1       7.926  -4.918  -3.423  0.00  0.00     0.023 H 
ENDBRANCH   6   9
ENDBRANCH   4   6
BRANCH   5  13
ATOM     13  N   LIG d   1       8.342  -0.157  -4.380  0.00  0.00    -0.191 N 
ATOM     14  C   LIG d   1       8.058   1.109  -4.015  0.00  0.00     0.317 C 
ATOM     15  O   LIG d   1       8.908   1.793  -3.478  0.00  0.00    -0.251 OA
ATOM     16  N   LIG d   1       6.831   1.618  -4.247  0.00  0.00    -0.312 N 
ATOM     17  H   LIG d   1       6.153   1.072  -4.675  0.00  0.00     0.146 HD
ATOM     18  H   LIG d   1       6.627   2.528  -3.984  0.00  0.00     0.146 HD
ATOM     19  H   LIG d   1       9.225  -0.523  -4.214  0.00  0.00     0.179 HD
ENDBRANCH   5  13
ENDBRANCH   1   4
BRANCH   1  20
ATOM     20  C   LIG d   1       4.946  -2.534  -5.342  0.00  0.00    -0.044 C 
ATOM     21  H   LIG d   1       4.240  -3.127  -5.924  0.00  0.00     0.027 H 
ATOM     22  H   LIG d   1       4.897  -1.494  -5.664  0.00  0.00     0.027 H 
BRANCH  20  23
ATOM     23  C   LIG d   1       4.590  -2.627  -3.857  0.00  0.00    -0.027 C 
ATOM     24  H   LIG d   1       5.437  -3.036  -3.305  0.00  0.00     0.031 H 
ATOM     25  H   LIG d   1       3.725  -3.279  -3.731  0.00  0.00     0.031 H 
BRANCH  23  26
ATOM     26  C   LIG d   1       4.264  -1.253  -3.332  0.00  0.00    -0.047 A 
ATOM     27  C   LIG d   1       4.794  -0.830  -2.127  0.00  0.00    -0.059 A 
ATOM     28  C   LIG d   1       4.496   0.431  -1.645  0.00  0.00    -0.061 A 
ATOM     29  H   LIG d   1       5.442  -1.485  -1.563  0.00  0.00     0.062 H 
ATOM     30  C   LIG d   1       3.668   1.269  -2.368  0.00  0.00    -0.062 A 
ATOM     31  H   LIG d   1       4.911   0.761  -0.704  0.00  0.00     0.062 H 
ATOM     32  C   LIG d   1       3.138   0.846  -3.573  0.00  0.00    -0.061 A 
ATOM     33  H   LIG d   1       3.434   2.254  -1.991  0.00  0.00     0.062 H 
ATOM     34  C   LIG d   1       3.440  -0.413  -4.057  0.00  0.00    -0.059 A 
ATOM     35  H   LIG d   1       2.491   1.501  -4.137  0.00  0.00     0.062 H 
ATOM     36  H   LIG d   1       3.029  -0.741  -5.001  0.00  0.00     0.062 H 
ENDBRANCH  23  26
ENDBRANCH  20  23
ENDBRANCH   1  20
TORSDOF 7
ENDMDL
MODEL 9
REMARK VINA RESULT:      -5.6      7.727      9.198
REMARK  7 active torsions:
REMARK  status: ('A' for Active; 'I' for Inactive)
REMARK    1  A    between atoms: C_1  and  C_2 
REMARK    2  A    between atoms: C_2  and  C_3 
REMARK    3  A    between atoms: C_3  and  C_9 
REMARK    4  A    between atoms: N_4  and  N_5 
REMARK       I    between atoms: N_5  and  C_6 
REMARK       I    between atoms: C_6  and  N_8 
REMARK    5  A    between atoms: C_9  and  C_10 
REMARK    6  A    between atoms: C_10  and  C_11 
REMARK    7  A    between atoms: C_11  and  C_12 
ROOT
ATOM      1  C   LIG d   1       9.245   2.088  -4.588  0.00  0.00    -0.013 C 
ATOM      2  H   LIG d   1       9.561   1.215  -5.159  0.00  0.00     0.033 H 
ATOM      3  H   LIG d   1       9.082   2.926  -5.265  0.00  0.00     0.033 H 
ENDROOT
BRANCH   1   4
ATOM      4  C   LIG d   1      10.315   2.449  -3.591  0.00  0.00     0.037 C 
ATOM      5  N   LIG d   1      10.052   3.259  -2.634  0.00  0.00    -0.188 NA
BRANCH   4   6
ATOM      6  C   LIG d   1      11.696   1.858  -3.720  0.00  0.00    -0.016 C 
ATOM      7  H   LIG d   1      12.344   2.561  -4.243  0.00  0.00     0.032 H 
ATOM      8  H   LIG d   1      12.100   1.661  -2.727  0.00  0.00     0.032 H 
BRANCH   6   9
ATOM      9  C   LIG d   1      11.618   0.550  -4.508  0.00  0.00    -0.060 C 
ATOM     10  H   LIG d   1      11.231  -0.240  -3.865  0.00  0.00     0.023 H 
ATOM     11  H   LIG d   1      10.956   0.680  -5.363  0.00  0.00     0.023 H 
ATOM     12  H   LIG d   1      12.614   0.276  -4.858  0.00  0.00     0.023 H 
ENDBRANCH   6   9
ENDBRANCH   4   6
BRANCH   5  13
ATOM     13  N   LIG d   1      11.071   3.671  -1.766  0.00  0.00    -0.191 N 
ATOM     14  C   LIG d   1      11.144   4.960  -1.375  0.00  0.00     0.317 C 
ATOM     15  O   LIG d   1      12.028   5.318  -0.621  0.00  0.00    -0.251 OA
ATOM     16  N   LIG d   1      10.235   5.851  -1.821  0.00  0.00    -0.312 N 
ATOM     17  H   LIG d   1       9.530   5.564  -2.422  0.00  0.00     0.146 HD
ATOM     18  H   LIG d   1      10.288   6.777  -1.540  0.00  0.00     0.146 HD
ATOM     19  H   LIG d   1      11.725   3.030  -1.446  0.00  0.00     0.179 HD
ENDBRANCH   5  13
ENDBRANCH   1   4
BRANCH   1  20
ATOM     20  C   LIG d   1       7.944   1.770  -3.848  0.00  0.00    -0.044 C 
ATOM     21  H   LIG d   1       7.156   2.439  -4.197  0.00  0.00     0.027 H 
ATOM     22  H   LIG d   1       8.091   1.910  -2.777  0.00  0.00     0.027 H 
BRANCH  20  23
ATOM     23  C   LIG d   1       7.542   0.320  -4.124  0.00  0.00    -0.027 C 
ATOM     24  H   LIG d   1       8.359  -0.344  -3.838  0.00  0.00     0.031 H 
ATOM     25  H   LIG d   1       7.328   0.197  -5.185  0.00  0.00     0.031 H 
BRANCH  23  26
ATOM     26  C   LIG d   1       6.313  -0.022  -3.321  0.00  0.00    -0.047 A 
ATOM     27  C   LIG d   1       5.919  -1.340  -3.188  0.00  0.00    -0.059 A 
ATOM     28  C   LIG d   1       4.791  -1.654  -2.451  0.00  0.00    -0.061 A 
ATOM     29  H   LIG d   1       6.492  -2.125  -3.659  0.00  0.00     0.062 H 
ATOM     30  C   LIG d   1       4.059  -0.649  -1.848  0.00  0.00    -0.062 A 
ATOM     31  H   LIG d   1       4.484  -2.684  -2.347  0.00  0.00     0.062 H 
ATOM     32  C   LIG d   1       4.453   0.670  -1.981  0.00  0.00    -0.061 A 
ATOM     33  H   LIG d   1       3.178  -0.894  -1.273  0.00  0.00     0.062 H 
ATOM     34  C   LIG d   1       5.583   0.983  -2.713  0.00  0.00    -0.059 A 
ATOM     35  H   LIG d   1       3.881   1.454  -1.509  0.00  0.00     0.062 H 
ATOM     36  H   LIG d   1       5.893   2.012  -2.813  0.00  0.00     0.062 H 
ENDBRANCH  23  26
ENDBRANCH  20  23
ENDBRANCH   1  20
TORSDOF 7
ENDMDL
MODEL 10
REMARK VINA RESULT:      -5.4      3.843      7.091
REMARK  7 active torsions:
REMARK  status: ('A' for Active; 'I' for Inactive)
REMARK    1  A    between atoms: C_1  and  C_2 
REMARK    2  A    between atoms: C_2  and  C_3 
REMARK    3  A    between atoms: C_3  and  C_9 
REMARK    4  A    between atoms: N_4  and  N_5 
REMARK       I    between atoms: N_5  and  C_6 
REMARK       I    between atoms: C_6  and  N_8 
REMARK    5  A    between atoms: C_9  and  C_10 
REMARK    6  A    between atoms: C_10  and  C_11 
REMARK    7  A    between atoms: C_11  and  C_12 
ROOT
ATOM      1  C   LIG d   1       2.613   0.504  -5.314  0.00  0.00    -0.013 C 
ATOM      2  H   LIG d   1       2.484   1.587  -5.307  0.00  0.00     0.033 H 
ATOM      3  H   LIG d   1       1.681   0.025  -5.013  0.00  0.00     0.033 H 
ENDROOT
BRANCH   1   4
ATOM      4  C   LIG d   1       3.707   0.123  -4.351  0.00  0.00     0.037 C 
ATOM      5  N   LIG d   1       4.887  -0.117  -4.785  0.00  0.00    -0.188 NA
BRANCH   4   6
ATOM      6  C   LIG d   1       3.412   0.024  -2.876  0.00  0.00    -0.016 C 
ATOM      7  H   LIG d   1       2.370  -0.261  -2.732  0.00  0.00     0.032 H 
ATOM      8  H   LIG d   1       4.060  -0.728  -2.426  0.00  0.00     0.032 H 
BRANCH   6   9
ATOM      9  C   LIG d   1       3.667   1.379  -2.213  0.00  0.00    -0.060 C 
ATOM     10  H   LIG d   1       2.770   1.992  -2.283  0.00  0.00     0.023 H 
ATOM     11  H   LIG d   1       3.923   1.227  -1.164  0.00  0.00     0.023 H 
ATOM     12  H   LIG d   1       4.491   1.882  -2.719  0.00  0.00     0.023 H 
ENDBRANCH   6   9
ENDBRANCH   4   6
BRANCH   5  13
ATOM     13  N   LIG d   1       5.880  -0.567  -3.905  0.00  0.00    -0.191 N 
ATOM     14  C   LIG d   1       6.438  -1.781  -4.081  0.00  0.00     0.317 C 
ATOM     15  O   LIG d   1       7.299  -2.172  -3.317  0.00  0.00    -0.251 OA
ATOM     16  N   LIG d   1       6.039  -2.563  -5.104  0.00  0.00    -0.312 N 
ATOM     17  H   LIG d   1       5.353  -2.251  -5.714  0.00  0.00     0.146 HD
ATOM     18  H   LIG d   1       6.441  -3.437  -5.231  0.00  0.00     0.146 HD
ATOM     19  H   LIG d   1       6.165  -0.004  -3.168  0.00  0.00     0.179 HD
ENDBRANCH   5  13
ENDBRANCH   1   4
BRANCH   1  20
ATOM     20  C   LIG d   1       2.990   0.045  -6.724  0.00  0.00    -0.044 C 
ATOM     21  H   LIG d   1       2.323  -0.761  -7.033  0.00  0.00     0.027 H 
ATOM     22  H   LIG d   1       4.019  -0.316  -6.726  0.00  0.00     0.027 H 
BRANCH  20  23
ATOM     23  C   LIG d   1       2.858   1.219  -7.695  0.00  0.00    -0.027 C 
ATOM     24  H   LIG d   1       3.659   1.935  -7.511  0.00  0.00     0.031 H 
ATOM     25  H   LIG d   1       1.894   1.706  -7.549  0.00  0.00     0.031 H 
BRANCH  23  26
ATOM     26  C   LIG d   1       2.954   0.712  -9.112  0.00  0.00    -0.047 A 
ATOM     27  C   LIG d   1       3.905   1.233  -9.969  0.00  0.00    -0.059 A 
ATOM     28  C   LIG d   1       3.994   0.768 -11.268  0.00  0.00    -0.061 A 
ATOM     29  H   LIG d   1       4.579   2.003  -9.623  0.00  0.00     0.062 H 
ATOM     30  C   LIG d   1       3.132  -0.218 -11.709  0.00  0.00    -0.062 A 
ATOM     31  H   LIG d   1       4.737   1.176 -11.937  0.00  0.00     0.062 H 
ATOM     32  C   LIG d   1       2.180  -0.739 -10.852  0.00  0.00    -0.061 A 
ATOM     33  H   LIG d   1       3.200  -0.581 -12.724  0.00  0.00     0.062 H 
ATOM     34  C   LIG d   1       2.095  -0.278  -9.552  0.00  0.00    -0.059 A 
ATOM     35  H   LIG d   1       1.507  -1.509 -11.197  0.00  0.00     0.062 H 
ATOM     36  H   LIG d   1       1.355  -0.689  -8.881  0.00  0.00     0.062 H 
ENDBRANCH  23  26
ENDBRANCH  20  23
ENDBRANCH   1  20
TORSDOF 7
ENDMDL
