MODEL 1
REMARK VINA RESULT:      -6.9      0.000      0.000
REMARK  6 active torsions:
REMARK  status: ('A' for Active; 'I' for Inactive)
REMARK    1  A    between atoms: C_1  and  C_2 
REMARK       I    between atoms: C_2  and  N_4 
REMARK    2  A    between atoms: N_7  and  C_10 
REMARK    3  A    between atoms: C_12  and  O_31 
REMARK    4  A    between atoms: C_14  and  N_23 
REMARK    5  A    between atoms: N_23  and  C_24 
REMARK    6  A    between atoms: C_24  and  C_25 
ROOT
ATOM      1  C   LIG d   1       5.153  -0.714  -8.321  0.00  0.00     0.093 C 
ATOM      2  H   LIG d   1       6.132  -0.594  -8.806  0.00  0.00     0.054 H 
ATOM      3  C   LIG d   1       4.543   0.650  -7.974  0.00  0.00     0.120 C 
ATOM      4  H   LIG d   1       5.170   1.197  -7.254  0.00  0.00     0.067 H 
ATOM      5  C   LIG d   1       3.122   0.448  -7.438  0.00  0.00     0.035 C 
ATOM      6  H   LIG d   1       2.622   1.413  -7.267  0.00  0.00     0.090 H 
ATOM      7  C   LIG d   1       2.340  -0.416  -8.441  0.00  0.00     0.130 C 
ATOM      8  H   LIG d   1       1.276  -0.481  -8.168  0.00  0.00     0.068 H 
ATOM      9  C   LIG d   1       2.631   0.128  -9.859  0.00  0.00     0.082 C 
ATOM     10  O   LIG d   1       3.788  -0.603 -10.307  0.00  0.00    -0.347 OA
ATOM     11  C   LIG d   1       4.175  -1.476  -9.230  0.00  0.00     0.178 C 
ATOM     12  H   LIG d   1       4.587  -2.413  -9.630  0.00  0.00     0.093 H 
ATOM     13  O   LIG d   1       2.972  -1.720  -8.467  0.00  0.00    -0.339 OA
ATOM     14  H   LIG d   1       1.761  -0.052 -10.508  0.00  0.00     0.059 H 
ATOM     15  H   LIG d   1       2.830   1.209  -9.804  0.00  0.00     0.059 H 
ENDROOT
BRANCH   5  16
ATOM     16  N   LIG d   1       3.176  -0.233  -6.138  0.00  0.00     0.233 N 
ATOM     17  H   LIG d   1       2.739  -1.238  -6.232  0.00  0.00     0.202 HD
ATOM     18  H   LIG d   1       4.223  -0.317  -5.811  0.00  0.00     0.202 HD
BRANCH  16  19
ATOM     19  C   LIG d   1       2.423   0.514  -5.121  0.00  0.00    -0.030 C 
ATOM     20  H   LIG d   1       2.656   1.586  -5.207  0.00  0.00     0.082 H 
ATOM     21  H   LIG d   1       1.345   0.360  -5.275  0.00  0.00     0.082 H 
BRANCH  19  22
ATOM     22  C   LIG d   1       2.816   0.017  -3.729  0.00  0.00    -0.001 C 
ATOM     23  C   LIG d   1       3.336  -1.419  -3.829  0.00  0.00    -0.045 C 
ATOM     24  C   LIG d   1       3.728  -1.919  -2.437  0.00  0.00    -0.053 C 
ATOM     25  H   LIG d   1       2.547  -2.067  -4.241  0.00  0.00     0.027 H 
ATOM     26  H   LIG d   1       4.214  -1.446  -4.491  0.00  0.00     0.027 H 
ATOM     27  C   LIG d   1       4.825  -1.018  -1.863  0.00  0.00    -0.053 C 
ATOM     28  H   LIG d   1       4.102  -2.950  -2.509  0.00  0.00     0.026 H 
ATOM     29  H   LIG d   1       2.850  -1.892  -1.777  0.00  0.00     0.026 H 
ATOM     30  C   LIG d   1       4.306   0.418  -1.764  0.00  0.00    -0.053 C 
ATOM     31  H   LIG d   1       5.704  -1.045  -2.525  0.00  0.00     0.026 H 
ATOM     32  H   LIG d   1       5.108  -1.377  -0.863  0.00  0.00     0.026 H 
ATOM     33  C   LIG d   1       3.913   0.916  -3.156  0.00  0.00    -0.045 C 
ATOM     34  H   LIG d   1       5.094   1.065  -1.351  0.00  0.00     0.026 H 
ATOM     35  H   LIG d   1       3.427   0.445  -1.103  0.00  0.00     0.026 H 
ATOM     36  H   LIG d   1       4.792   0.889  -3.817  0.00  0.00     0.027 H 
ATOM     37  H   LIG d   1       3.540   1.948  -3.084  0.00  0.00     0.027 H 
ATOM     38  H   LIG d   1       1.937   0.043  -3.068  0.00  0.00     0.035 H 
ENDBRANCH  19  22
ENDBRANCH  16  19
ENDBRANCH   5  16
BRANCH   3  39
ATOM     39  O   LIG d   1       4.502   1.466  -9.146  0.00  0.00    -0.384 OA
ATOM     40  H   LIG d   1       5.411   1.981  -9.490  0.00  0.00     0.210 HD
ENDBRANCH   3  39
BRANCH   1  41
ATOM     41  N   LIG d   1       5.379  -1.479  -7.089  0.00  0.00    -0.290 N 
ATOM     42  C   LIG d   1       5.504  -2.915  -7.377  0.00  0.00     0.015 C 
ATOM     43  C   LIG d   1       5.557  -3.694  -6.058  0.00  0.00     0.028 C 
ATOM     44  H   LIG d   1       6.427  -3.096  -7.947  0.00  0.00     0.044 H 
ATOM     45  H   LIG d   1       4.637  -3.249  -7.966  0.00  0.00     0.044 H 
ATOM     46  N   LIG d   1       6.629  -3.131  -5.225  0.00  0.00    -0.299 N 
ATOM     47  H   LIG d   1       5.766  -4.755  -6.258  0.00  0.00     0.048 H 
ATOM     48  H   LIG d   1       4.596  -3.603  -5.530  0.00  0.00     0.048 H 
ATOM     49  C   LIG d   1       7.570  -3.926  -4.678  0.00  0.00     0.212 C 
ATOM     50  C   LIG d   1       6.649  -1.676  -5.005  0.00  0.00     0.028 C 
ATOM     51  O   LIG d   1       7.600  -5.107  -4.951  0.00  0.00    -0.276 OA
ATOM     52  C   LIG d   1       6.553  -0.977  -6.364  0.00  0.00     0.015 C 
ATOM     53  H   LIG d   1       5.794  -1.391  -4.374  0.00  0.00     0.048 H 
ATOM     54  H   LIG d   1       7.586  -1.394  -4.501  0.00  0.00     0.048 H 
ATOM     55  H   LIG d   1       7.461  -1.184  -6.949  0.00  0.00     0.044 H 
ATOM     56  H   LIG d   1       6.453   0.108  -6.213  0.00  0.00     0.044 H 
BRANCH  49  57
ATOM     57  C   LIG d   1       8.585  -3.347  -3.726  0.00  0.00     0.012 C 
ATOM     58  H   LIG d   1       8.514  -2.249  -3.737  0.00  0.00     0.032 H 
ATOM     59  H   LIG d   1       9.595  -3.653  -4.037  0.00  0.00     0.032 H 
ATOM     60  H   LIG d   1       8.386  -3.718  -2.709  0.00  0.00     0.032 H 
ENDBRANCH  49  57
ENDBRANCH   1  41
TORSDOF 6
ENDMDL
MODEL 2
REMARK VINA RESULT:      -6.8      1.996      2.467
REMARK  6 active torsions:
REMARK  status: ('A' for Active; 'I' for Inactive)
REMARK    1  A    between atoms: C_1  and  C_2 
REMARK       I    between atoms: C_2  and  N_4 
REMARK    2  A    between atoms: N_7  and  C_10 
REMARK    3  A    between atoms: C_12  and  O_31 
REMARK    4  A    between atoms: C_14  and  N_23 
REMARK    5  A    between atoms: N_23  and  C_24 
REMARK    6  A    between atoms: C_24  and  C_25 
ROOT
ATOM      1  C   LIG d   1       4.847  -0.875  -8.700  0.00  0.00     0.093 C 
ATOM      2  H   LIG d   1       5.854  -1.163  -9.036  0.00  0.00     0.054 H 
ATOM      3  C   LIG d   1       4.913   0.294  -7.711  0.00  0.00     0.120 C 
ATOM      4  H   LIG d   1       5.466   0.018  -6.801  0.00  0.00     0.067 H 
ATOM      5  C   LIG d   1       3.491   0.760  -7.381  0.00  0.00     0.035 C 
ATOM      6  H   LIG d   1       3.506   1.658  -6.746  0.00  0.00     0.090 H 
ATOM      7  C   LIG d   1       2.744   1.020  -8.700  0.00  0.00     0.130 C 
ATOM      8  H   LIG d   1       1.762   1.481  -8.518  0.00  0.00     0.068 H 
ATOM      9  C   LIG d   1       3.692   1.814  -9.629  0.00  0.00     0.082 C 
ATOM     10  O   LIG d   1       4.413   0.811 -10.369  0.00  0.00    -0.347 OA
ATOM     11  C   LIG d   1       3.962  -0.468  -9.889  0.00  0.00     0.178 C 
ATOM     12  H   LIG d   1       3.961  -1.202 -10.708  0.00  0.00     0.093 H 
ATOM     13  O   LIG d   1       2.626  -0.253  -9.382  0.00  0.00    -0.339 OA
ATOM     14  H   LIG d   1       3.099   2.460 -10.293  0.00  0.00     0.059 H 
ATOM     15  H   LIG d   1       4.368   2.434  -9.020  0.00  0.00     0.059 H 
ENDROOT
BRANCH   5  16
ATOM     16  N   LIG d   1       2.794  -0.283  -6.617  0.00  0.00     0.233 N 
ATOM     17  H   LIG d   1       1.898  -0.604  -7.168  0.00  0.00     0.202 HD
ATOM     18  H   LIG d   1       3.465  -1.143  -6.474  0.00  0.00     0.202 HD
BRANCH  16  19
ATOM     19  C   LIG d   1       2.382   0.217  -5.298  0.00  0.00    -0.030 C 
ATOM     20  H   LIG d   1       2.161   1.293  -5.368  0.00  0.00     0.082 H 
ATOM     21  H   LIG d   1       1.483  -0.322  -4.966  0.00  0.00     0.082 H 
BRANCH  19  22
ATOM     22  C   LIG d   1       3.513  -0.007  -4.292  0.00  0.00    -0.001 C 
ATOM     23  C   LIG d   1       3.570   1.172  -3.319  0.00  0.00    -0.045 C 
ATOM     24  C   LIG d   1       4.701   0.949  -2.313  0.00  0.00    -0.053 C 
ATOM     25  H   LIG d   1       3.756   2.102  -3.878  0.00  0.00     0.027 H 
ATOM     26  H   LIG d   1       2.612   1.253  -2.784  0.00  0.00     0.027 H 
ATOM     27  C   LIG d   1       4.443  -0.343  -1.534  0.00  0.00    -0.053 C 
ATOM     28  H   LIG d   1       4.742   1.796  -1.613  0.00  0.00     0.026 H 
ATOM     29  H   LIG d   1       5.658   0.869  -2.848  0.00  0.00     0.026 H 
ATOM     30  C   LIG d   1       4.385  -1.522  -2.508  0.00  0.00    -0.053 C 
ATOM     31  H   LIG d   1       3.486  -0.262  -0.999  0.00  0.00     0.026 H 
ATOM     32  H   LIG d   1       5.256  -0.503  -0.811  0.00  0.00     0.026 H 
ATOM     33  C   LIG d   1       3.254  -1.298  -3.513  0.00  0.00    -0.045 C 
ATOM     34  H   LIG d   1       4.200  -2.451  -1.947  0.00  0.00     0.026 H 
ATOM     35  H   LIG d   1       5.342  -1.602  -3.043  0.00  0.00     0.026 H 
ATOM     36  H   LIG d   1       2.297  -1.218  -2.977  0.00  0.00     0.027 H 
ATOM     37  H   LIG d   1       3.213  -2.146  -4.214  0.00  0.00     0.027 H 
ATOM     38  H   LIG d   1       4.470  -0.087  -4.828  0.00  0.00     0.035 H 
ENDBRANCH  19  22
ENDBRANCH  16  19
ENDBRANCH   5  16
BRANCH   3  39
ATOM     39  O   LIG d   1       5.647   1.372  -8.295  0.00  0.00    -0.384 OA
ATOM     40  H   LIG d   1       6.740   1.418  -8.182  0.00  0.00     0.210 HD
ENDBRANCH   3  39
BRANCH   1  41
ATOM     41  N   LIG d   1       4.269  -2.050  -8.035  0.00  0.00    -0.290 N 
ATOM     42  C   LIG d   1       4.019  -3.131  -8.999  0.00  0.00     0.015 C 
ATOM     43  C   LIG d   1       3.254  -4.262  -8.305  0.00  0.00     0.028 C 
ATOM     44  H   LIG d   1       4.977  -3.514  -9.378  0.00  0.00     0.044 H 
ATOM     45  H   LIG d   1       3.421  -2.744  -9.838  0.00  0.00     0.044 H 
ATOM     46  N   LIG d   1       4.000  -4.662  -7.103  0.00  0.00    -0.299 N 
ATOM     47  H   LIG d   1       3.163  -5.124  -8.983  0.00  0.00     0.048 H 
ATOM     48  H   LIG d   1       2.251  -3.915  -8.016  0.00  0.00     0.048 H 
ATOM     49  C   LIG d   1       4.303  -5.956  -6.875  0.00  0.00     0.212 C 
ATOM     50  C   LIG d   1       4.408  -3.613  -6.155  0.00  0.00     0.028 C 
ATOM     51  O   LIG d   1       4.051  -6.795  -7.714  0.00  0.00    -0.276 OA
ATOM     52  C   LIG d   1       5.127  -2.507  -6.933  0.00  0.00     0.015 C 
ATOM     53  H   LIG d   1       3.516  -3.204  -5.657  0.00  0.00     0.048 H 
ATOM     54  H   LIG d   1       5.083  -4.043  -5.401  0.00  0.00     0.048 H 
ATOM     55  H   LIG d   1       6.070  -2.899  -7.342  0.00  0.00     0.044 H 
ATOM     56  H   LIG d   1       5.340  -1.663  -6.261  0.00  0.00     0.044 H 
BRANCH  49  57
ATOM     57  C   LIG d   1       4.956  -6.359  -5.578  0.00  0.00     0.012 C 
ATOM     58  H   LIG d   1       5.699  -5.601  -5.290  0.00  0.00     0.032 H 
ATOM     59  H   LIG d   1       5.455  -7.332  -5.706  0.00  0.00     0.032 H 
ATOM     60  H   LIG d   1       4.190  -6.441  -4.793  0.00  0.00     0.032 H 
ENDBRANCH  49  57
ENDBRANCH   1  41
TORSDOF 6
ENDMDL
MODEL 3
REMARK VINA RESULT:      -6.7      1.954      5.044
REMARK  6 active torsions:
REMARK  status: ('A' for Active; 'I' for Inactive)
REMARK    1  A    between atoms: C_1  and  C_2 
REMARK       I    between atoms: C_2  and  N_4 
REMARK    2  A    between atoms: N_7  and  C_10 
REMARK    3  A    between atoms: C_12  and  O_31 
REMARK    4  A    between atoms: C_14  and  N_23 
REMARK    5  A    between atoms: N_23  and  C_24 
REMARK    6  A    between atoms: C_24  and  C_25 
ROOT
ATOM      1  C   LIG d   1       4.807  -3.760  -8.112  0.00  0.00     0.093 C 
ATOM      2  H   LIG d   1       4.519  -3.907  -9.163  0.00  0.00     0.054 H 
ATOM      3  C   LIG d   1       3.844  -4.494  -7.172  0.00  0.00     0.120 C 
ATOM      4  H   LIG d   1       2.820  -4.101  -7.261  0.00  0.00     0.067 H 
ATOM      5  C   LIG d   1       4.361  -4.388  -5.734  0.00  0.00     0.035 C 
ATOM      6  H   LIG d   1       3.742  -4.984  -5.046  0.00  0.00     0.090 H 
ATOM      7  C   LIG d   1       5.828  -4.849  -5.706  0.00  0.00     0.130 C 
ATOM      8  H   LIG d   1       6.206  -4.916  -4.675  0.00  0.00     0.068 H 
ATOM      9  C   LIG d   1       5.929  -6.147  -6.540  0.00  0.00     0.082 C 
ATOM     10  O   LIG d   1       6.213  -5.706  -7.881  0.00  0.00    -0.347 OA
ATOM     11  C   LIG d   1       6.235  -4.267  -7.853  0.00  0.00     0.178 C 
ATOM     12  H   LIG d   1       6.974  -3.885  -8.571  0.00  0.00     0.093 H 
ATOM     13  O   LIG d   1       6.587  -3.903  -6.500  0.00  0.00    -0.339 OA
ATOM     14  H   LIG d   1       6.738  -6.778  -6.141  0.00  0.00     0.059 H 
ATOM     15  H   LIG d   1       4.976  -6.694  -6.485  0.00  0.00     0.059 H 
ENDROOT
BRANCH   5  16
ATOM     16  N   LIG d   1       4.272  -2.995  -5.278  0.00  0.00     0.233 N 
ATOM     17  H   LIG d   1       4.970  -2.374  -5.859  0.00  0.00     0.202 HD
ATOM     18  H   LIG d   1       3.246  -2.627  -5.422  0.00  0.00     0.202 HD
BRANCH  16  19
ATOM     19  C   LIG d   1       4.618  -2.884  -3.854  0.00  0.00    -0.030 C 
ATOM     20  H   LIG d   1       4.237  -3.764  -3.315  0.00  0.00     0.082 H 
ATOM     21  H   LIG d   1       5.711  -2.832  -3.745  0.00  0.00     0.082 H 
BRANCH  19  22
ATOM     22  C   LIG d   1       3.986  -1.617  -3.274  0.00  0.00    -0.001 C 
ATOM     23  C   LIG d   1       4.958  -0.971  -2.284  0.00  0.00    -0.045 C 
ATOM     24  C   LIG d   1       4.326   0.296  -1.702  0.00  0.00    -0.053 C 
ATOM     25  H   LIG d   1       5.176  -1.678  -1.469  0.00  0.00     0.027 H 
ATOM     26  H   LIG d   1       5.892  -0.712  -2.802  0.00  0.00     0.027 H 
ATOM     27  C   LIG d   1       4.023   1.280  -2.835  0.00  0.00    -0.053 C 
ATOM     28  H   LIG d   1       5.024   0.760  -0.991  0.00  0.00     0.026 H 
ATOM     29  H   LIG d   1       3.393   0.036  -1.184  0.00  0.00     0.026 H 
ATOM     30  C   LIG d   1       3.053   0.633  -3.826  0.00  0.00    -0.053 C 
ATOM     31  H   LIG d   1       4.958   1.540  -3.354  0.00  0.00     0.026 H 
ATOM     32  H   LIG d   1       3.570   2.190  -2.417  0.00  0.00     0.026 H 
ATOM     33  C   LIG d   1       3.684  -0.633  -4.406  0.00  0.00    -0.045 C 
ATOM     34  H   LIG d   1       2.835   1.341  -4.639  0.00  0.00     0.026 H 
ATOM     35  H   LIG d   1       2.119   0.374  -3.307  0.00  0.00     0.026 H 
ATOM     36  H   LIG d   1       4.618  -0.373  -4.925  0.00  0.00     0.027 H 
ATOM     37  H   LIG d   1       2.986  -1.098  -5.118  0.00  0.00     0.027 H 
ATOM     38  H   LIG d   1       3.052  -1.877  -2.755  0.00  0.00     0.035 H 
ENDBRANCH  19  22
ENDBRANCH  16  19
ENDBRANCH   5  16
BRANCH   3  39
ATOM     39  O   LIG d   1       3.763  -5.869  -7.552  0.00  0.00    -0.384 OA
ATOM     40  H   LIG d   1       2.806  -6.289  -7.899  0.00  0.00     0.210 HD
ENDBRANCH   3  39
BRANCH   1  41
ATOM     41  N   LIG d   1       4.743  -2.316  -7.852  0.00  0.00    -0.290 N 
ATOM     42  C   LIG d   1       5.940  -1.635  -8.366  0.00  0.00     0.015 C 
ATOM     43  C   LIG d   1       5.921  -0.170  -7.918  0.00  0.00     0.028 C 
ATOM     44  H   LIG d   1       5.947  -1.682  -9.464  0.00  0.00     0.044 H 
ATOM     45  H   LIG d   1       6.841  -2.128  -7.971  0.00  0.00     0.044 H 
ATOM     46  N   LIG d   1       4.641   0.428  -8.327  0.00  0.00    -0.299 N 
ATOM     47  H   LIG d   1       6.749   0.378  -8.391  0.00  0.00     0.048 H 
ATOM     48  H   LIG d   1       6.020  -0.110  -6.824  0.00  0.00     0.048 H 
ATOM     49  C   LIG d   1       4.607   1.587  -9.015  0.00  0.00     0.212 C 
ATOM     50  C   LIG d   1       3.399  -0.272  -7.966  0.00  0.00     0.028 C 
ATOM     51  O   LIG d   1       5.640   2.098  -9.392  0.00  0.00    -0.276 OA
ATOM     52  C   LIG d   1       3.516  -1.733  -8.412  0.00  0.00     0.015 C 
ATOM     53  H   LIG d   1       3.254  -0.222  -6.877  0.00  0.00     0.048 H 
ATOM     54  H   LIG d   1       2.547   0.208  -8.472  0.00  0.00     0.048 H 
ATOM     55  H   LIG d   1       3.557  -1.781  -9.510  0.00  0.00     0.044 H 
ATOM     56  H   LIG d   1       2.645  -2.299  -8.052  0.00  0.00     0.044 H 
BRANCH  49  57
ATOM     57  C   LIG d   1       3.286   2.246  -9.314  0.00  0.00     0.012 C 
ATOM     58  H   LIG d   1       2.961   2.831  -8.441  0.00  0.00     0.032 H 
ATOM     59  H   LIG d   1       2.534   1.475  -9.539  0.00  0.00     0.032 H 
ATOM     60  H   LIG d   1       3.398   2.913 -10.182  0.00  0.00     0.032 H 
ENDBRANCH  49  57
ENDBRANCH   1  41
TORSDOF 6
ENDMDL
MODEL 4
REMARK VINA RESULT:      -6.6      3.497      5.947
REMARK  6 active torsions:
REMARK  status: ('A' for Active; 'I' for Inactive)
REMARK    1  A    between atoms: C_1  and  C_2 
REMARK       I    between atoms: C_2  and  N_4 
REMARK    2  A    between atoms: N_7  and  C_10 
REMARK    3  A    between atoms: C_12  and  O_31 
REMARK    4  A    between atoms: C_14  and  N_23 
REMARK    5  A    between atoms: N_23  and  C_24 
REMARK    6  A    between atoms: C_24  and  C_25 
ROOT
ATOM      1  C   LIG d   1       6.243  -0.215  -3.179  0.00  0.00     0.093 C 
ATOM      2  H   LIG d   1       6.963  -0.633  -2.461  0.00  0.00     0.054 H 
ATOM      3  C   LIG d   1       5.316  -1.309  -3.724  0.00  0.00     0.120 C 
ATOM      4  H   LIG d   1       5.881  -2.074  -4.276  0.00  0.00     0.067 H 
ATOM      5  C   LIG d   1       4.237  -0.666  -4.603  0.00  0.00     0.035 C 
ATOM      6  H   LIG d   1       3.500  -1.413  -4.934  0.00  0.00     0.090 H 
ATOM      7  C   LIG d   1       3.567   0.465  -3.806  0.00  0.00     0.130 C 
ATOM      8  H   LIG d   1       2.698   0.871  -4.344  0.00  0.00     0.068 H 
ATOM      9  C   LIG d   1       3.281  -0.068  -2.382  0.00  0.00     0.082 C 
ATOM     10  O   LIG d   1       4.461   0.251  -1.622  0.00  0.00    -0.347 OA
ATOM     11  C   LIG d   1       5.385   0.881  -2.528  0.00  0.00     0.178 C 
ATOM     12  H   LIG d   1       5.974   1.644  -1.999  0.00  0.00     0.093 H 
ATOM     13  O   LIG d   1       4.577   1.476  -3.567  0.00  0.00    -0.339 OA
ATOM     14  H   LIG d   1       2.389   0.431  -1.976  0.00  0.00     0.059 H 
ATOM     15  H   LIG d   1       3.106  -1.154  -2.425  0.00  0.00     0.059 H 
ENDROOT
BRANCH   5  16
ATOM     16  N   LIG d   1       4.853  -0.117  -5.817  0.00  0.00     0.233 N 
ATOM     17  H   LIG d   1       4.493   0.911  -5.978  0.00  0.00     0.202 HD
ATOM     18  H   LIG d   1       5.947  -0.109  -5.704  0.00  0.00     0.202 HD
BRANCH  16  19
ATOM     19  C   LIG d   1       4.506  -0.924  -6.995  0.00  0.00    -0.030 C 
ATOM     20  H   LIG d   1       5.368  -1.547  -7.278  0.00  0.00     0.082 H 
ATOM     21  H   LIG d   1       3.649  -1.571  -6.757  0.00  0.00     0.082 H 
BRANCH  19  22
ATOM     22  C   LIG d   1       4.140   0.001  -8.157  0.00  0.00    -0.001 C 
ATOM     23  C   LIG d   1       3.043   0.969  -7.711  0.00  0.00    -0.045 C 
ATOM     24  C   LIG d   1       2.675   1.894  -8.874  0.00  0.00    -0.053 C 
ATOM     25  H   LIG d   1       2.153   0.399  -7.402  0.00  0.00     0.027 H 
ATOM     26  H   LIG d   1       3.405   1.569  -6.864  0.00  0.00     0.027 H 
ATOM     27  C   LIG d   1       3.912   2.688  -9.304  0.00  0.00    -0.053 C 
ATOM     28  H   LIG d   1       1.887   2.590  -8.553  0.00  0.00     0.026 H 
ATOM     29  H   LIG d   1       2.313   1.294  -9.720  0.00  0.00     0.026 H 
ATOM     30  C   LIG d   1       5.009   1.719  -9.748  0.00  0.00    -0.053 C 
ATOM     31  H   LIG d   1       4.274   3.288  -8.456  0.00  0.00     0.026 H 
ATOM     32  H   LIG d   1       3.648   3.353 -10.138  0.00  0.00     0.026 H 
ATOM     33  C   LIG d   1       5.376   0.795  -8.587  0.00  0.00    -0.045 C 
ATOM     34  H   LIG d   1       5.897   2.290 -10.058  0.00  0.00     0.026 H 
ATOM     35  H   LIG d   1       4.647   1.119 -10.596  0.00  0.00     0.026 H 
ATOM     36  H   LIG d   1       5.739   1.395  -7.740  0.00  0.00     0.027 H 
ATOM     37  H   LIG d   1       6.165   0.098  -8.907  0.00  0.00     0.027 H 
ATOM     38  H   LIG d   1       3.777  -0.600  -9.004  0.00  0.00     0.035 H 
ENDBRANCH  19  22
ENDBRANCH  16  19
ENDBRANCH   5  16
BRANCH   3  39
ATOM     39  O   LIG d   1       4.699  -1.997  -2.635  0.00  0.00    -0.384 OA
ATOM     40  H   LIG d   1       5.007  -3.024  -2.387  0.00  0.00     0.210 HD
ENDBRANCH   3  39
BRANCH   1  41
ATOM     41  N   LIG d   1       7.025   0.360  -4.280  0.00  0.00    -0.290 N 
ATOM     42  C   LIG d   1       7.702   1.594  -3.856  0.00  0.00     0.015 C 
ATOM     43  C   LIG d   1       8.356   2.257  -5.073  0.00  0.00     0.028 C 
ATOM     44  H   LIG d   1       8.474   1.352  -3.112  0.00  0.00     0.044 H 
ATOM     45  H   LIG d   1       6.968   2.282  -3.413  0.00  0.00     0.044 H 
ATOM     46  N   LIG d   1       9.220   1.270  -5.736  0.00  0.00    -0.299 N 
ATOM     47  H   LIG d   1       8.961   3.117  -4.751  0.00  0.00     0.048 H 
ATOM     48  H   LIG d   1       7.581   2.597  -5.776  0.00  0.00     0.048 H 
ATOM     49  C   LIG d   1      10.503   1.560  -6.032  0.00  0.00     0.212 C 
ATOM     50  C   LIG d   1       8.648  -0.044  -6.069  0.00  0.00     0.028 C 
ATOM     51  O   LIG d   1      10.988   2.608  -5.661  0.00  0.00    -0.276 OA
ATOM     52  C   LIG d   1       7.983  -0.618  -4.814  0.00  0.00     0.015 C 
ATOM     53  H   LIG d   1       7.902   0.073  -6.869  0.00  0.00     0.048 H 
ATOM     54  H   LIG d   1       9.449  -0.717  -6.411  0.00  0.00     0.048 H 
ATOM     55  H   LIG d   1       8.751  -0.829  -4.054  0.00  0.00     0.044 H 
ATOM     56  H   LIG d   1       7.453  -1.547  -5.070  0.00  0.00     0.044 H 
BRANCH  49  57
ATOM     57  C   LIG d   1      11.333   0.583  -6.823  0.00  0.00     0.012 C 
ATOM     58  H   LIG d   1      10.713  -0.280  -7.107  0.00  0.00     0.032 H 
ATOM     59  H   LIG d   1      12.180   0.241  -6.209  0.00  0.00     0.032 H 
ATOM     60  H   LIG d   1      11.714   1.077  -7.730  0.00  0.00     0.032 H 
ENDBRANCH  49  57
ENDBRANCH   1  41
TORSDOF 6
ENDMDL
MODEL 5
REMARK VINA RESULT:      -6.1      2.734      5.343
REMARK  6 active torsions:
REMARK  status: ('A' for Active; 'I' for Inactive)
REMARK    1  A    between atoms: C_1  and  C_2 
REMARK       I    between atoms: C_2  and  N_4 
REMARK    2  A    between atoms: N_7  and  C_10 
REMARK    3  A    between atoms: C_12  and  O_31 
REMARK    4  A    between atoms: C_14  and  N_23 
REMARK    5  A    between atoms: N_23  and  C_24 
REMARK    6  A    between atoms: C_24  and  C_25 
ROOT
ATOM      1  C   LIG d   1       5.513  -1.459  -3.600  0.00  0.00     0.093 C 
ATOM      2  H   LIG d   1       6.055  -2.177  -2.968  0.00  0.00     0.054 H 
ATOM      3  C   LIG d   1       4.027  -1.821  -3.692  0.00  0.00     0.120 C 
ATOM      4  H   LIG d   1       3.883  -2.805  -4.163  0.00  0.00     0.067 H 
ATOM      5  C   LIG d   1       3.283  -0.721  -4.456  0.00  0.00     0.035 C 
ATOM      6  H   LIG d   1       2.198  -0.905  -4.459  0.00  0.00     0.090 H 
ATOM      7  C   LIG d   1       3.618   0.634  -3.810  0.00  0.00     0.130 C 
ATOM      8  H   LIG d   1       3.008   1.442  -4.239  0.00  0.00     0.068 H 
ATOM      9  C   LIG d   1       3.517   0.463  -2.277  0.00  0.00     0.082 C 
ATOM     10  O   LIG d   1       4.837   0.067  -1.859  0.00  0.00    -0.347 OA
ATOM     11  C   LIG d   1       5.641  -0.030  -3.049  0.00  0.00     0.178 C 
ATOM     12  H   LIG d   1       6.677   0.266  -2.831  0.00  0.00     0.093 H 
ATOM     13  O   LIG d   1       5.035   0.864  -4.010  0.00  0.00    -0.339 OA
ATOM     14  H   LIG d   1       3.216   1.417  -1.820  0.00  0.00     0.059 H 
ATOM     15  H   LIG d   1       2.768  -0.309  -2.042  0.00  0.00     0.059 H 
ENDROOT
BRANCH   5  16
ATOM     16  N   LIG d   1       3.711  -0.718  -5.860  0.00  0.00     0.233 N 
ATOM     17  H   LIG d   1       4.746  -0.348  -5.927  0.00  0.00     0.202 HD
ATOM     18  H   LIG d   1       3.660  -1.741  -6.261  0.00  0.00     0.202 HD
BRANCH  16  19
ATOM     19  C   LIG d   1       2.848   0.151  -6.672  0.00  0.00    -0.030 C 
ATOM     20  H   LIG d   1       1.986  -0.427  -7.037  0.00  0.00     0.082 H 
ATOM     21  H   LIG d   1       2.493   0.992  -6.059  0.00  0.00     0.082 H 
BRANCH  19  22
ATOM     22  C   LIG d   1       3.643   0.688  -7.864  0.00  0.00    -0.001 C 
ATOM     23  C   LIG d   1       3.686  -0.372  -8.967  0.00  0.00    -0.045 C 
ATOM     24  C   LIG d   1       4.482   0.163 -10.159  0.00  0.00    -0.053 C 
ATOM     25  H   LIG d   1       4.171  -1.283  -8.583  0.00  0.00     0.027 H 
ATOM     26  H   LIG d   1       2.661  -0.611  -9.286  0.00  0.00     0.027 H 
ATOM     27  C   LIG d   1       3.808   1.429 -10.694  0.00  0.00    -0.053 C 
ATOM     28  H   LIG d   1       4.512  -0.598 -10.951  0.00  0.00     0.026 H 
ATOM     29  H   LIG d   1       5.506   0.401  -9.839  0.00  0.00     0.026 H 
ATOM     30  C   LIG d   1       3.764   2.488  -9.591  0.00  0.00    -0.053 C 
ATOM     31  H   LIG d   1       2.783   1.190 -11.014  0.00  0.00     0.026 H 
ATOM     32  H   LIG d   1       4.379   1.813 -11.551  0.00  0.00     0.026 H 
ATOM     33  C   LIG d   1       2.969   1.952  -8.400  0.00  0.00    -0.045 C 
ATOM     34  H   LIG d   1       3.280   3.398  -9.977  0.00  0.00     0.026 H 
ATOM     35  H   LIG d   1       4.789   2.727  -9.272  0.00  0.00     0.026 H 
ATOM     36  H   LIG d   1       1.944   1.714  -8.720  0.00  0.00     0.027 H 
ATOM     37  H   LIG d   1       2.938   2.714  -7.607  0.00  0.00     0.027 H 
ATOM     38  H   LIG d   1       4.668   0.926  -7.544  0.00  0.00     0.035 H 
ENDBRANCH  19  22
ENDBRANCH  16  19
ENDBRANCH   5  16
BRANCH   3  39
ATOM     39  O   LIG d   1       3.483  -1.942  -2.376  0.00  0.00    -0.384 OA
ATOM     40  H   LIG d   1       3.242  -2.936  -1.969  0.00  0.00     0.210 HD
ENDBRANCH   3  39
BRANCH   1  41
ATOM     41  N   LIG d   1       6.120  -1.527  -4.936  0.00  0.00    -0.290 N 
ATOM     42  C   LIG d   1       7.456  -0.915  -4.939  0.00  0.00     0.015 C 
ATOM     43  C   LIG d   1       7.977  -0.844  -6.378  0.00  0.00     0.028 C 
ATOM     44  H   LIG d   1       8.141  -1.524  -4.332  0.00  0.00     0.044 H 
ATOM     45  H   LIG d   1       7.397   0.100  -4.519  0.00  0.00     0.044 H 
ATOM     46  N   LIG d   1       7.907  -2.188  -6.969  0.00  0.00    -0.299 N 
ATOM     47  H   LIG d   1       9.021  -0.495  -6.382  0.00  0.00     0.048 H 
ATOM     48  H   LIG d   1       7.357  -0.152  -6.968  0.00  0.00     0.048 H 
ATOM     49  C   LIG d   1       8.981  -2.735  -7.574  0.00  0.00     0.212 C 
ATOM     50  C   LIG d   1       6.635  -2.922  -6.882  0.00  0.00     0.028 C 
ATOM     51  O   LIG d   1      10.049  -2.162  -7.548  0.00  0.00    -0.276 OA
ATOM     52  C   LIG d   1       6.166  -2.912  -5.423  0.00  0.00     0.015 C 
ATOM     53  H   LIG d   1       5.886  -2.431  -7.521  0.00  0.00     0.048 H 
ATOM     54  H   LIG d   1       6.784  -3.957  -7.222  0.00  0.00     0.048 H 
ATOM     55  H   LIG d   1       6.868  -3.493  -4.808  0.00  0.00     0.044 H 
ATOM     56  H   LIG d   1       5.163  -3.358  -5.356  0.00  0.00     0.044 H 
BRANCH  49  57
ATOM     57  C   LIG d   1       8.853  -4.059  -8.282  0.00  0.00     0.012 C 
ATOM     58  H   LIG d   1       7.945  -4.575  -7.935  0.00  0.00     0.032 H 
ATOM     59  H   LIG d   1       9.735  -4.680  -8.062  0.00  0.00     0.032 H 
ATOM     60  H   LIG d   1       8.786  -3.889  -9.367  0.00  0.00     0.032 H 
ENDBRANCH  49  57
ENDBRANCH   1  41
TORSDOF 6
ENDMDL
MODEL 6
REMARK VINA RESULT:      -6.1      2.974      5.536
REMARK  6 active torsions:
REMARK  status: ('A' for Active; 'I' for Inactive)
REMARK    1  A    between atoms: C_1  and  C_2 
REMARK       I    between atoms: C_2  and  N_4 
REMARK    2  A    between atoms: N_7  and  C_10 
REMARK    3  A    between atoms: C_12  and  O_31 
REMARK    4  A    between atoms: C_14  and  N_23 
REMARK    5  A    between atoms: N_23  and  C_24 
REMARK    6  A    between atoms: C_24  and  C_25 
ROOT
ATOM      1  C   LIG d   1       8.438   0.007  -7.029  0.00  0.00     0.093 C 
ATOM      2  H   LIG d   1       8.635  -0.841  -7.701  0.00  0.00     0.054 H 
ATOM      3  C   LIG d   1       8.644  -0.396  -5.564  0.00  0.00     0.120 C 
ATOM      4  H   LIG d   1       7.940  -1.186  -5.264  0.00  0.00     0.067 H 
ATOM      5  C   LIG d   1       8.506   0.844  -4.674  0.00  0.00     0.035 C 
ATOM      6  H   LIG d   1       8.740   0.606  -3.625  0.00  0.00     0.090 H 
ATOM      7  C   LIG d   1       9.434   1.942  -5.218  0.00  0.00     0.130 C 
ATOM      8  H   LIG d   1       9.470   2.806  -4.539  0.00  0.00     0.068 H 
ATOM      9  C   LIG d   1      10.798   1.289  -5.540  0.00  0.00     0.082 C 
ATOM     10  O   LIG d   1      10.691   0.860  -6.910  0.00  0.00    -0.347 OA
ATOM     11  C   LIG d   1       9.362   1.193  -7.350  0.00  0.00     0.178 C 
ATOM     12  H   LIG d   1       9.372   1.466  -8.415  0.00  0.00     0.093 H 
ATOM     13  O   LIG d   1       8.941   2.307  -6.531  0.00  0.00    -0.339 OA
ATOM     14  H   LIG d   1      11.601   2.030  -5.408  0.00  0.00     0.059 H 
ATOM     15  H   LIG d   1      10.968   0.439  -4.861  0.00  0.00     0.059 H 
ENDROOT
BRANCH   5  16
ATOM     16  N   LIG d   1       7.116   1.316  -4.697  0.00  0.00     0.233 N 
ATOM     17  H   LIG d   1       7.097   2.387  -4.946  0.00  0.00     0.202 HD
ATOM     18  H   LIG d   1       6.549   0.753  -5.452  0.00  0.00     0.202 HD
BRANCH  16  19
ATOM     19  C   LIG d   1       6.474   1.127  -3.388  0.00  0.00    -0.030 C 
ATOM     20  H   LIG d   1       7.217   0.759  -2.666  0.00  0.00     0.082 H 
ATOM     21  H   LIG d   1       6.065   2.086  -3.038  0.00  0.00     0.082 H 
BRANCH  19  22
ATOM     22  C   LIG d   1       5.341   0.107  -3.519  0.00  0.00    -0.001 C 
ATOM     23  C   LIG d   1       5.892  -1.300  -3.277  0.00  0.00    -0.045 C 
ATOM     24  C   LIG d   1       4.760  -2.321  -3.409  0.00  0.00    -0.053 C 
ATOM     25  H   LIG d   1       6.673  -1.521  -4.020  0.00  0.00     0.027 H 
ATOM     26  H   LIG d   1       6.322  -1.356  -2.267  0.00  0.00     0.027 H 
ATOM     27  C   LIG d   1       3.674  -2.014  -2.375  0.00  0.00    -0.053 C 
ATOM     28  H   LIG d   1       5.156  -3.332  -3.234  0.00  0.00     0.026 H 
ATOM     29  H   LIG d   1       4.331  -2.264  -4.419  0.00  0.00     0.026 H 
ATOM     30  C   LIG d   1       3.124  -0.607  -2.617  0.00  0.00    -0.053 C 
ATOM     31  H   LIG d   1       4.104  -2.070  -1.365  0.00  0.00     0.026 H 
ATOM     32  H   LIG d   1       2.860  -2.747  -2.470  0.00  0.00     0.026 H 
ATOM     33  C   LIG d   1       4.256   0.414  -2.486  0.00  0.00    -0.045 C 
ATOM     34  H   LIG d   1       2.342  -0.386  -1.875  0.00  0.00     0.026 H 
ATOM     35  H   LIG d   1       2.694  -0.550  -3.628  0.00  0.00     0.026 H 
ATOM     36  H   LIG d   1       4.685   0.357  -1.475  0.00  0.00     0.027 H 
ATOM     37  H   LIG d   1       3.860   1.425  -2.660  0.00  0.00     0.027 H 
ATOM     38  H   LIG d   1       4.912   0.164  -4.531  0.00  0.00     0.035 H 
ENDBRANCH  19  22
ENDBRANCH  16  19
ENDBRANCH   5  16
BRANCH   3  39
ATOM     39  O   LIG d   1       9.947  -0.959  -5.403  0.00  0.00    -0.384 OA
ATOM     40  H   LIG d   1      10.516  -0.774  -4.479  0.00  0.00     0.210 HD
ENDBRANCH   3  39
BRANCH   1  41
ATOM     41  N   LIG d   1       7.039   0.401  -7.239  0.00  0.00    -0.290 N 
ATOM     42  C   LIG d   1       6.863   1.037  -8.553  0.00  0.00     0.015 C 
ATOM     43  C   LIG d   1       5.440   1.593  -8.659  0.00  0.00     0.028 C 
ATOM     44  H   LIG d   1       7.027   0.294  -9.346  0.00  0.00     0.044 H 
ATOM     45  H   LIG d   1       7.588   1.858  -8.663  0.00  0.00     0.044 H 
ATOM     46  N   LIG d   1       4.491   0.511  -8.361  0.00  0.00    -0.299 N 
ATOM     47  H   LIG d   1       5.260   1.968  -9.678  0.00  0.00     0.048 H 
ATOM     48  H   LIG d   1       5.301   2.412  -7.938  0.00  0.00     0.048 H 
ATOM     49  C   LIG d   1       3.469   0.235  -9.197  0.00  0.00     0.212 C 
ATOM     50  C   LIG d   1       4.686  -0.265  -7.126  0.00  0.00     0.028 C 
ATOM     51  O   LIG d   1       3.382   0.815 -10.258  0.00  0.00    -0.276 OA
ATOM     52  C   LIG d   1       6.138  -0.748  -7.079  0.00  0.00     0.015 C 
ATOM     53  H   LIG d   1       4.473   0.374  -6.256  0.00  0.00     0.048 H 
ATOM     54  H   LIG d   1       4.002  -1.127  -7.123  0.00  0.00     0.048 H 
ATOM     55  H   LIG d   1       6.314  -1.467  -7.893  0.00  0.00     0.044 H 
ATOM     56  H   LIG d   1       6.333  -1.234  -6.111  0.00  0.00     0.044 H 
BRANCH  49  57
ATOM     57  C   LIG d   1       2.437  -0.792  -8.811  0.00  0.00     0.012 C 
ATOM     58  H   LIG d   1       1.758  -0.966  -9.659  0.00  0.00     0.032 H 
ATOM     59  H   LIG d   1       1.860  -0.425  -7.948  0.00  0.00     0.032 H 
ATOM     60  H   LIG d   1       2.939  -1.733  -8.542  0.00  0.00     0.032 H 
ENDBRANCH  49  57
ENDBRANCH   1  41
TORSDOF 6
ENDMDL
MODEL 7
REMARK VINA RESULT:      -5.9     11.371     13.083
REMARK  6 active torsions:
REMARK  status: ('A' for Active; 'I' for Inactive)
REMARK    1  A    between atoms: C_1  and  C_2 
REMARK       I    between atoms: C_2  and  N_4 
REMARK    2  A    between atoms: N_7  and  C_10 
REMARK    3  A    between atoms: C_12  and  O_31 
REMARK    4  A    between atoms: C_14  and  N_23 
REMARK    5  A    between atoms: N_23  and  C_24 
REMARK    6  A    between atoms: C_24  and  C_25 
ROOT
ATOM      1  C   LIG d   1       9.738  11.521  -2.097  0.00  0.00     0.093 C 
ATOM      2  H   LIG d   1       9.480  11.851  -1.080  0.00  0.00     0.054 H 
ATOM      3  C   LIG d   1       8.504  11.532  -3.006  0.00  0.00     0.120 C 
ATOM      4  H   LIG d   1       7.737  10.829  -2.648  0.00  0.00     0.067 H 
ATOM      5  C   LIG d   1       8.930  11.211  -4.442  0.00  0.00     0.035 C 
ATOM      6  H   LIG d   1       8.082  11.301  -5.137  0.00  0.00     0.090 H 
ATOM      7  C   LIG d   1      10.077  12.156  -4.835  0.00  0.00     0.130 C 
ATOM      8  H   LIG d   1      10.332  12.055  -5.900  0.00  0.00     0.068 H 
ATOM      9  C   LIG d   1       9.691  13.581  -4.374  0.00  0.00     0.082 C 
ATOM     10  O   LIG d   1      10.211  13.692  -3.035  0.00  0.00    -0.347 OA
ATOM     11  C   LIG d   1      10.816  12.426  -2.715  0.00  0.00     0.178 C 
ATOM     12  H   LIG d   1      11.689  12.577  -2.064  0.00  0.00     0.093 H 
ATOM     13  O   LIG d   1      11.203  11.841  -3.978  0.00  0.00    -0.339 OA
ATOM     14  H   LIG d   1      10.147  14.321  -5.048  0.00  0.00     0.059 H 
ATOM     15  H   LIG d   1       8.597  13.690  -4.394  0.00  0.00     0.059 H 
ENDROOT
BRANCH   5  16
ATOM     16  N   LIG d   1       9.390   9.818  -4.522  0.00  0.00     0.233 N 
ATOM     17  H   LIG d   1      10.368   9.726  -4.026  0.00  0.00     0.202 HD
ATOM     18  H   LIG d   1       8.662   9.163  -4.021  0.00  0.00     0.202 HD
BRANCH  16  19
ATOM     19  C   LIG d   1       9.528   9.388  -5.920  0.00  0.00    -0.030 C 
ATOM     20  H   LIG d   1       8.815   9.944  -6.546  0.00  0.00     0.082 H 
ATOM     21  H   LIG d   1      10.553   9.588  -6.265  0.00  0.00     0.082 H 
BRANCH  19  22
ATOM     22  C   LIG d   1       9.238   7.890  -6.023  0.00  0.00    -0.001 C 
ATOM     23  C   LIG d   1      10.084   7.283  -7.144  0.00  0.00    -0.045 C 
ATOM     24  C   LIG d   1       9.794   5.784  -7.249  0.00  0.00    -0.053 C 
ATOM     25  H   LIG d   1       9.834   7.772  -8.098  0.00  0.00     0.027 H 
ATOM     26  H   LIG d   1      11.151   7.437  -6.924  0.00  0.00     0.027 H 
ATOM     27  C   LIG d   1      10.143   5.104  -5.922  0.00  0.00    -0.053 C 
ATOM     28  H   LIG d   1      10.403   5.348  -8.054  0.00  0.00     0.026 H 
ATOM     29  H   LIG d   1       8.729   5.632  -7.470  0.00  0.00     0.026 H 
ATOM     30  C   LIG d   1       9.297   5.712  -4.801  0.00  0.00    -0.053 C 
ATOM     31  H   LIG d   1      11.209   5.258  -5.702  0.00  0.00     0.026 H 
ATOM     32  H   LIG d   1       9.934   4.027  -5.998  0.00  0.00     0.026 H 
ATOM     33  C   LIG d   1       9.587   7.210  -4.697  0.00  0.00    -0.045 C 
ATOM     34  H   LIG d   1       9.547   5.222  -3.848  0.00  0.00     0.026 H 
ATOM     35  H   LIG d   1       8.231   5.558  -5.022  0.00  0.00     0.026 H 
ATOM     36  H   LIG d   1      10.654   7.363  -4.476  0.00  0.00     0.027 H 
ATOM     37  H   LIG d   1       8.979   7.646  -3.891  0.00  0.00     0.027 H 
ATOM     38  H   LIG d   1       8.172   7.737  -6.244  0.00  0.00     0.035 H 
ENDBRANCH  19  22
ENDBRANCH  16  19
ENDBRANCH   5  16
BRANCH   3  39
ATOM     39  O   LIG d   1       7.893  12.822  -2.965  0.00  0.00    -0.384 OA
ATOM     40  H   LIG d   1       6.827  12.919  -2.706  0.00  0.00     0.210 HD
ENDBRANCH   3  39
BRANCH   1  41
ATOM     41  N   LIG d   1      10.253  10.151  -1.981  0.00  0.00    -0.290 N 
ATOM     42  C   LIG d   1      11.675  10.152  -1.610  0.00  0.00     0.015 C 
ATOM     43  C   LIG d   1      12.217   8.720  -1.677  0.00  0.00     0.028 C 
ATOM     44  H   LIG d   1      11.787  10.539  -0.587  0.00  0.00     0.044 H 
ATOM     45  H   LIG d   1      12.236  10.790  -2.308  0.00  0.00     0.044 H 
ATOM     46  N   LIG d   1      11.360   7.856  -0.852  0.00  0.00    -0.299 N 
ATOM     47  H   LIG d   1      13.247   8.691  -1.290  0.00  0.00     0.048 H 
ATOM     48  H   LIG d   1      12.205   8.363  -2.717  0.00  0.00     0.048 H 
ATOM     49  C   LIG d   1      11.891   7.043   0.083  0.00  0.00     0.212 C 
ATOM     50  C   LIG d   1       9.906   7.903  -1.073  0.00  0.00     0.028 C 
ATOM     51  O   LIG d   1      13.079   7.090   0.323  0.00  0.00    -0.276 OA
ATOM     52  C   LIG d   1       9.454   9.366  -1.030  0.00  0.00     0.015 C 
ATOM     53  H   LIG d   1       9.671   7.466  -2.055  0.00  0.00     0.048 H 
ATOM     54  H   LIG d   1       9.396   7.329  -0.285  0.00  0.00     0.048 H 
ATOM     55  H   LIG d   1       9.597   9.766  -0.015  0.00  0.00     0.044 H 
ATOM     56  H   LIG d   1       8.391   9.431  -1.304  0.00  0.00     0.044 H 
BRANCH  49  57
ATOM     57  C   LIG d   1      11.009   6.075   0.828  0.00  0.00     0.012 C 
ATOM     58  H   LIG d   1       9.955   6.362   0.696  0.00  0.00     0.032 H 
ATOM     59  H   LIG d   1      11.264   6.096   1.898  0.00  0.00     0.032 H 
ATOM     60  H   LIG d   1      11.165   5.059   0.434  0.00  0.00     0.032 H 
ENDBRANCH  49  57
ENDBRANCH   1  41
TORSDOF 6
ENDMDL
MODEL 8
REMARK VINA RESULT:      -5.5      5.144      6.889
REMARK  6 active torsions:
REMARK  status: ('A' for Active; 'I' for Inactive)
REMARK    1  A    between atoms: C_1  and  C_2 
REMARK       I    between atoms: C_2  and  N_4 
REMARK    2  A    between atoms: N_7  and  C_10 
REMARK    3  A    between atoms: C_12  and  O_31 
REMARK    4  A    between atoms: C_14  and  N_23 
REMARK    5  A    between atoms: N_23  and  C_24 
REMARK    6  A    between atoms: C_24  and  C_25 
ROOT
ATOM      1  C   LIG d   1      10.610   0.911  -6.221  0.00  0.00     0.093 C 
ATOM      2  H   LIG d   1      10.975   1.640  -6.959  0.00  0.00     0.054 H 
ATOM      3  C   LIG d   1       9.345   0.208  -6.726  0.00  0.00     0.120 C 
ATOM      4  H   LIG d   1       8.522   0.922  -6.875  0.00  0.00     0.067 H 
ATOM      5  C   LIG d   1       8.953  -0.899  -5.741  0.00  0.00     0.035 C 
ATOM      6  H   LIG d   1       8.102  -1.484  -6.121  0.00  0.00     0.090 H 
ATOM      7  C   LIG d   1      10.180  -1.791  -5.495  0.00  0.00     0.130 C 
ATOM      8  H   LIG d   1       9.917  -2.676  -4.897  0.00  0.00     0.068 H 
ATOM      9  C   LIG d   1      10.833  -2.083  -6.866  0.00  0.00     0.082 C 
ATOM     10  O   LIG d   1      11.787  -1.021  -7.057  0.00  0.00    -0.347 OA
ATOM     11  C   LIG d   1      11.678  -0.151  -5.916  0.00  0.00     0.178 C 
ATOM     12  H   LIG d   1      12.661   0.274  -5.667  0.00  0.00     0.093 H 
ATOM     13  O   LIG d   1      11.179  -0.973  -4.837  0.00  0.00    -0.339 OA
ATOM     14  H   LIG d   1      11.323  -3.067  -6.838  0.00  0.00     0.059 H 
ATOM     15  H   LIG d   1      10.060  -2.079  -7.649  0.00  0.00     0.059 H 
ENDROOT
BRANCH   5  16
ATOM     16  N   LIG d   1       8.516  -0.300  -4.473  0.00  0.00     0.233 N 
ATOM     17  H   LIG d   1       8.503  -1.071  -3.688  0.00  0.00     0.202 HD
ATOM     18  H   LIG d   1       9.212   0.503  -4.188  0.00  0.00     0.202 HD
BRANCH  16  19
ATOM     19  C   LIG d   1       7.166   0.268  -4.596  0.00  0.00    -0.030 C 
ATOM     20  H   LIG d   1       7.238   1.360  -4.711  0.00  0.00     0.082 H 
ATOM     21  H   LIG d   1       6.667  -0.161  -5.477  0.00  0.00     0.082 H 
BRANCH  19  22
ATOM     22  C   LIG d   1       6.358  -0.062  -3.340  0.00  0.00    -0.001 C 
ATOM     23  C   LIG d   1       5.470   1.130  -2.978  0.00  0.00    -0.045 C 
ATOM     24  C   LIG d   1       4.661   0.801  -1.721  0.00  0.00    -0.053 C 
ATOM     25  H   LIG d   1       6.099   2.013  -2.789  0.00  0.00     0.027 H 
ATOM     26  H   LIG d   1       4.783   1.342  -3.811  0.00  0.00     0.027 H 
ATOM     27  C   LIG d   1       3.786  -0.426  -1.985  0.00  0.00    -0.053 C 
ATOM     28  H   LIG d   1       4.023   1.658  -1.462  0.00  0.00     0.026 H 
ATOM     29  H   LIG d   1       5.348   0.590  -0.889  0.00  0.00     0.026 H 
ATOM     30  C   LIG d   1       4.675  -1.617  -2.347  0.00  0.00    -0.053 C 
ATOM     31  H   LIG d   1       3.100  -0.214  -2.818  0.00  0.00     0.026 H 
ATOM     32  H   LIG d   1       3.205  -0.662  -1.081  0.00  0.00     0.026 H 
ATOM     33  C   LIG d   1       5.483  -1.288  -3.604  0.00  0.00    -0.045 C 
ATOM     34  H   LIG d   1       4.045  -2.500  -2.536  0.00  0.00     0.026 H 
ATOM     35  H   LIG d   1       5.361  -1.830  -1.514  0.00  0.00     0.026 H 
ATOM     36  H   LIG d   1       4.796  -1.077  -4.436  0.00  0.00     0.027 H 
ATOM     37  H   LIG d   1       6.122  -2.145  -3.864  0.00  0.00     0.027 H 
ATOM     38  H   LIG d   1       7.045  -0.273  -2.507  0.00  0.00     0.035 H 
ENDBRANCH  19  22
ENDBRANCH  16  19
ENDBRANCH   5  16
BRANCH   3  39
ATOM     39  O   LIG d   1       9.597  -0.363  -8.011  0.00  0.00    -0.384 OA
ATOM     40  H   LIG d   1      10.632  -0.499  -8.359  0.00  0.00     0.210 HD
ENDBRANCH   3  39
BRANCH   1  41
ATOM     41  N   LIG d   1      10.299   1.664  -4.998  0.00  0.00    -0.290 N 
ATOM     42  C   LIG d   1      11.514   1.908  -4.208  0.00  0.00     0.015 C 
ATOM     43  C   LIG d   1      11.127   2.531  -2.863  0.00  0.00     0.028 C 
ATOM     44  H   LIG d   1      12.175   2.596  -4.754  0.00  0.00     0.044 H 
ATOM     45  H   LIG d   1      12.038   0.956  -4.035  0.00  0.00     0.044 H 
ATOM     46  N   LIG d   1      10.302   3.720  -3.118  0.00  0.00    -0.299 N 
ATOM     47  H   LIG d   1      12.033   2.825  -2.311  0.00  0.00     0.048 H 
ATOM     48  H   LIG d   1      10.553   1.807  -2.266  0.00  0.00     0.048 H 
ATOM     49  C   LIG d   1      10.599   4.905  -2.548  0.00  0.00     0.212 C 
ATOM     50  C   LIG d   1       9.142   3.584  -4.014  0.00  0.00     0.028 C 
ATOM     51  O   LIG d   1      11.614   5.026  -1.895  0.00  0.00    -0.276 OA
ATOM     52  C   LIG d   1       9.607   2.920  -5.314  0.00  0.00     0.015 C 
ATOM     53  H   LIG d   1       8.376   2.963  -3.528  0.00  0.00     0.048 H 
ATOM     54  H   LIG d   1       8.726   4.579  -4.228  0.00  0.00     0.048 H 
ATOM     55  H   LIG d   1      10.295   3.593  -5.846  0.00  0.00     0.044 H 
ATOM     56  H   LIG d   1       8.735   2.707  -5.950  0.00  0.00     0.044 H 
BRANCH  49  57
ATOM     57  C   LIG d   1       9.670   6.079  -2.721  0.00  0.00     0.012 C 
ATOM     58  H   LIG d   1       8.768   5.756  -3.261  0.00  0.00     0.032 H 
ATOM     59  H   LIG d   1      10.179   6.867  -3.296  0.00  0.00     0.032 H 
ATOM     60  H   LIG d   1       9.387   6.470  -1.733  0.00  0.00     0.032 H 
ENDBRANCH  49  57
ENDBRANCH   1  41
TORSDOF 6
ENDMDL
MODEL 9
REMARK VINA RESULT:      -5.4      2.721      5.906
REMARK  6 active torsions:
REMARK  status: ('A' for Active; 'I' for Inactive)
REMARK    1  A    between atoms: C_1  and  C_2 
REMARK       I    between atoms: C_2  and  N_4 
REMARK    2  A    between atoms: N_7  and  C_10 
REMARK    3  A    between atoms: C_12  and  O_31 
REMARK    4  A    between atoms: C_14  and  N_23 
REMARK    5  A    between atoms: N_23  and  C_24 
REMARK    6  A    between atoms: C_24  and  C_25 
ROOT
ATOM      1  C   LIG d   1       5.673  -4.514  -5.588  0.00  0.00     0.093 C 
ATOM      2  H   LIG d   1       6.539  -4.727  -4.943  0.00  0.00     0.054 H 
ATOM      3  C   LIG d   1       6.072  -4.542  -7.068  0.00  0.00     0.120 C 
ATOM      4  H   LIG d   1       6.816  -3.764  -7.297  0.00  0.00     0.067 H 
ATOM      5  C   LIG d   1       4.817  -4.390  -7.934  0.00  0.00     0.035 C 
ATOM      6  H   LIG d   1       5.058  -4.499  -9.002  0.00  0.00     0.090 H 
ATOM      7  C   LIG d   1       3.783  -5.435  -7.484  0.00  0.00     0.130 C 
ATOM      8  H   LIG d   1       2.915  -5.454  -8.160  0.00  0.00     0.068 H 
ATOM      9  C   LIG d   1       4.521  -6.782  -7.308  0.00  0.00     0.082 C 
ATOM     10  O   LIG d   1       4.957  -6.791  -5.936  0.00  0.00    -0.347 OA
ATOM     11  C   LIG d   1       4.549  -5.537  -5.359  0.00  0.00     0.178 C 
ATOM     12  H   LIG d   1       4.288  -5.673  -4.300  0.00  0.00     0.093 H 
ATOM     13  O   LIG d   1       3.403  -5.103  -6.125  0.00  0.00    -0.339 OA
ATOM     14  H   LIG d   1       3.829  -7.611  -7.519  0.00  0.00     0.059 H 
ATOM     15  H   LIG d   1       5.372  -6.829  -8.004  0.00  0.00     0.059 H 
ENDROOT
BRANCH   5  16
ATOM     16  N   LIG d   1       4.262  -3.041  -7.765  0.00  0.00     0.233 N 
ATOM     17  H   LIG d   1       3.197  -3.046  -8.044  0.00  0.00     0.202 HD
ATOM     18  H   LIG d   1       4.365  -2.730  -6.715  0.00  0.00     0.202 HD
BRANCH  16  19
ATOM     19  C   LIG d   1       4.966  -2.071  -8.615  0.00  0.00    -0.030 C 
ATOM     20  H   LIG d   1       5.611  -1.437  -7.989  0.00  0.00     0.082 H 
ATOM     21  H   LIG d   1       5.582  -2.608  -9.351  0.00  0.00     0.082 H 
BRANCH  19  22
ATOM     22  C   LIG d   1       3.944  -1.198  -9.345  0.00  0.00    -0.001 C 
ATOM     23  C   LIG d   1       4.277  -1.164 -10.838  0.00  0.00    -0.045 C 
ATOM     24  C   LIG d   1       3.256  -0.290 -11.570  0.00  0.00    -0.053 C 
ATOM     25  H   LIG d   1       5.285  -0.746 -10.981  0.00  0.00     0.027 H 
ATOM     26  H   LIG d   1       4.245  -2.186 -11.245  0.00  0.00     0.027 H 
ATOM     27  C   LIG d   1       1.854  -0.872 -11.373  0.00  0.00    -0.053 C 
ATOM     28  H   LIG d   1       3.495  -0.267 -12.643  0.00  0.00     0.026 H 
ATOM     29  H   LIG d   1       3.289   0.730 -11.164  0.00  0.00     0.026 H 
ATOM     30  C   LIG d   1       1.521  -0.906  -9.880  0.00  0.00    -0.053 C 
ATOM     31  H   LIG d   1       1.821  -1.893 -11.779  0.00  0.00     0.026 H 
ATOM     32  H   LIG d   1       1.120  -0.244 -11.898  0.00  0.00     0.026 H 
ATOM     33  C   LIG d   1       2.543  -1.780  -9.150  0.00  0.00    -0.045 C 
ATOM     34  H   LIG d   1       0.513  -1.324  -9.739  0.00  0.00     0.026 H 
ATOM     35  H   LIG d   1       1.554   0.115  -9.474  0.00  0.00     0.026 H 
ATOM     36  H   LIG d   1       2.509  -2.801  -9.556  0.00  0.00     0.027 H 
ATOM     37  H   LIG d   1       2.304  -1.804  -8.076  0.00  0.00     0.027 H 
ATOM     38  H   LIG d   1       3.977  -0.176  -8.939  0.00  0.00     0.035 H 
ENDBRANCH  19  22
ENDBRANCH  16  19
ENDBRANCH   5  16
BRANCH   3  39
ATOM     39  O   LIG d   1       6.712  -5.785  -7.366  0.00  0.00    -0.384 OA
ATOM     40  H   LIG d   1       6.896  -6.072  -8.412  0.00  0.00     0.210 HD
ENDBRANCH   3  39
BRANCH   1  41
ATOM     41  N   LIG d   1       5.197  -3.171  -5.232  0.00  0.00    -0.290 N 
ATOM     42  C   LIG d   1       4.514  -3.183  -3.931  0.00  0.00     0.015 C 
ATOM     43  C   LIG d   1       3.877  -1.812  -3.681  0.00  0.00     0.028 C 
ATOM     44  H   LIG d   1       5.241  -3.400  -3.135  0.00  0.00     0.044 H 
ATOM     45  H   LIG d   1       3.731  -3.956  -3.934  0.00  0.00     0.044 H 
ATOM     46  N   LIG d   1       4.915  -0.781  -3.829  0.00  0.00    -0.299 N 
ATOM     47  H   LIG d   1       3.463  -1.771  -2.663  0.00  0.00     0.048 H 
ATOM     48  H   LIG d   1       3.075  -1.631  -4.411  0.00  0.00     0.048 H 
ATOM     49  C   LIG d   1       5.109   0.149  -2.871  0.00  0.00     0.212 C 
ATOM     50  C   LIG d   1       5.737  -0.790  -5.049  0.00  0.00     0.028 C 
ATOM     51  O   LIG d   1       4.494   0.082  -1.828  0.00  0.00    -0.276 OA
ATOM     52  C   LIG d   1       6.300  -2.201  -5.246  0.00  0.00     0.015 C 
ATOM     53  H   LIG d   1       5.114  -0.510  -5.911  0.00  0.00     0.048 H 
ATOM     54  H   LIG d   1       6.560  -0.068  -4.942  0.00  0.00     0.048 H 
ATOM     55  H   LIG d   1       7.003  -2.433  -4.432  0.00  0.00     0.044 H 
ATOM     56  H   LIG d   1       6.824  -2.256  -6.212  0.00  0.00     0.044 H 
BRANCH  49  57
ATOM     57  C   LIG d   1       6.089   1.270  -3.098  0.00  0.00     0.012 C 
ATOM     58  H   LIG d   1       5.909   1.721  -4.086  0.00  0.00     0.032 H 
ATOM     59  H   LIG d   1       7.115   0.874  -3.058  0.00  0.00     0.032 H 
ATOM     60  H   LIG d   1       5.960   2.034  -2.317  0.00  0.00     0.032 H 
ENDBRANCH  49  57
ENDBRANCH   1  41
TORSDOF 6
ENDMDL
