MODEL 1
REMARK VINA RESULT:      -7.3      0.000      0.000
REMARK  1 active torsions:
REMARK  status: ('A' for Active; 'I' for Inactive)
REMARK    1  A    between atoms: C_6  and  C_7 
ROOT
ATOM      1  C   LIG d   1       8.822   1.468  -5.616  0.00  0.00    -0.052 A 
ATOM      2  C   LIG d   1       8.091   0.390  -6.041  0.00  0.00    -0.037 A 
ATOM      3  C   LIG d   1       7.011  -0.011  -5.257  0.00  0.00     0.050 A 
ATOM      4  C   LIG d   1       6.685   0.685  -4.053  0.00  0.00     0.004 A 
ATOM      5  C   LIG d   1       7.441   1.782  -3.631  0.00  0.00    -0.045 A 
ATOM      6  C   LIG d   1       8.516   2.157  -4.439  0.00  0.00    -0.021 A 
ATOM      7  C   LIG d   1       5.534   0.020  -3.506  0.00  0.00    -0.013 A 
ATOM      8  C   LIG d   1       5.226  -0.975  -4.361  0.00  0.00     0.071 A 
ATOM      9  N   LIG d   1       6.112  -1.025  -5.401  0.00  0.00    -0.334 N 
ATOM     10  C   LIG d   1       6.013  -2.064  -6.438  0.00  0.00     0.064 C 
ATOM     11  C   LIG d   1       4.623  -2.705  -6.342  0.00  0.00    -0.015 C 
ATOM     12  C   LIG d   1       4.048  -1.894  -4.130  0.00  0.00     0.019 C 
ATOM     13  H   LIG d   1       3.120  -1.410  -4.435  0.00  0.00     0.092 H 
ATOM     14  C   LIG d   1       4.012  -2.256  -2.654  0.00  0.00    -0.004 C 
ATOM     15  C   LIG d   1       4.348  -1.149  -1.686  0.00  0.00    -0.043 C 
ATOM     16  C   LIG d   1       4.685   0.211  -2.280  0.00  0.00    -0.025 C 
ATOM     17  H   LIG d   1       9.662   1.796  -6.209  0.00  0.00     0.062 H 
ATOM     18  H   LIG d   1       8.343  -0.131  -6.953  0.00  0.00     0.064 H 
ATOM     19  H   LIG d   1       7.204   2.315  -2.722  0.00  0.00     0.063 H 
ATOM     20  H   LIG d   1       6.143  -1.615  -7.422  0.00  0.00     0.054 H 
ATOM     21  H   LIG d   1       6.780  -2.821  -6.274  0.00  0.00     0.054 H 
ATOM     22  H   LIG d   1       3.877  -1.993  -6.694  0.00  0.00     0.083 H 
ATOM     23  H   LIG d   1       4.596  -3.593  -6.972  0.00  0.00     0.083 H 
ATOM     24  H   LIG d   1       3.012  -2.621  -2.419  0.00  0.00     0.032 H 
ATOM     25  H   LIG d   1       4.716  -3.072  -2.488  0.00  0.00     0.032 H 
ATOM     26  H   LIG d   1       5.199  -1.473  -1.088  0.00  0.00     0.027 H 
ATOM     27  H   LIG d   1       3.499  -1.021  -1.015  0.00  0.00     0.027 H 
ATOM     28  H   LIG d   1       5.232   0.804  -1.547  0.00  0.00     0.031 H 
ATOM     29  H   LIG d   1       3.765   0.728  -2.552  0.00  0.00     0.031 H 
ATOM     30  N   LIG d   1       4.306  -3.097  -4.955  0.00  0.00     0.235 N 
ATOM     31  H   LIG d   1       5.098  -3.617  -4.560  0.00  0.00     0.202 HD
ATOM     32  H   LIG d   1       3.471  -3.694  -4.955  0.00  0.00     0.202 HD
ENDROOT
BRANCH   6  33
ATOM     33  C   LIG d   1       9.349   3.311  -4.041  0.00  0.00    -0.044 C 
ATOM     34  C   LIG d   1      10.329   3.305  -2.891  0.00  0.00    -0.027 C 
ATOM     35  C   LIG d   1      10.619   4.798  -2.611  0.00  0.00    -0.046 C 
ATOM     36  H   LIG d   1       9.883   2.834  -2.014  0.00  0.00     0.031 H 
ATOM     37  H   LIG d   1      11.246   2.788  -3.176  0.00  0.00     0.031 H 
ATOM     38  C   LIG d   1      10.310   5.438  -3.983  0.00  0.00    -0.034 C 
ATOM     39  H   LIG d   1       9.953   5.187  -1.840  0.00  0.00     0.027 H 
ATOM     40  H   LIG d   1      11.663   4.948  -2.335  0.00  0.00     0.027 H 
ATOM     41  C   LIG d   1       9.342   4.485  -4.646  0.00  0.00    -0.080 C 
ATOM     42  H   LIG d   1       9.851   6.418  -3.851  0.00  0.00     0.031 H 
ATOM     43  H   LIG d   1      11.221   5.524  -4.576  0.00  0.00     0.031 H 
ATOM     44  H   LIG d   1       8.727   4.732  -5.499  0.00  0.00     0.058 H 
ENDBRANCH   6  33
TORSDOF 1
ENDMDL
MODEL 2
REMARK VINA RESULT:      -7.0      2.755      7.390
REMARK  1 active torsions:
REMARK  status: ('A' for Active; 'I' for Inactive)
REMARK    1  A    between atoms: C_6  and  C_7 
ROOT
ATOM      1  C   LIG d   1       6.620  -4.321  -6.433  0.00  0.00    -0.052 A 
ATOM      2  C   LIG d   1       7.066  -3.068  -6.102  0.00  0.00    -0.037 A 
ATOM      3  C   LIG d   1       6.365  -2.369  -5.121  0.00  0.00     0.050 A 
ATOM      4  C   LIG d   1       5.223  -2.948  -4.488  0.00  0.00     0.004 A 
ATOM      5  C   LIG d   1       4.779  -4.226  -4.837  0.00  0.00    -0.045 A 
ATOM      6  C   LIG d   1       5.503  -4.898  -5.823  0.00  0.00    -0.021 A 
ATOM      7  C   LIG d   1       4.754  -1.973  -3.541  0.00  0.00    -0.013 A 
ATOM      8  C   LIG d   1       5.594  -0.922  -3.627  0.00  0.00     0.071 A 
ATOM      9  N   LIG d   1       6.548  -1.130  -4.584  0.00  0.00    -0.334 N 
ATOM     10  C   LIG d   1       7.548  -0.098  -4.900  0.00  0.00     0.064 C 
ATOM     11  C   LIG d   1       7.551   0.930  -3.763  0.00  0.00    -0.015 C 
ATOM     12  C   LIG d   1       5.432   0.306  -2.762  0.00  0.00     0.019 C 
ATOM     13  H   LIG d   1       5.836   0.128  -1.765  0.00  0.00     0.092 H 
ATOM     14  C   LIG d   1       3.952   0.647  -2.693  0.00  0.00    -0.004 C 
ATOM     15  C   LIG d   1       3.002  -0.521  -2.589  0.00  0.00    -0.043 C 
ATOM     16  C   LIG d   1       3.617  -1.913  -2.559  0.00  0.00    -0.025 C 
ATOM     17  H   LIG d   1       7.149  -4.880  -7.190  0.00  0.00     0.062 H 
ATOM     18  H   LIG d   1       7.931  -2.637  -6.585  0.00  0.00     0.064 H 
ATOM     19  H   LIG d   1       3.916  -4.673  -4.366  0.00  0.00     0.063 H 
ATOM     20  H   LIG d   1       8.534  -0.555  -4.984  0.00  0.00     0.054 H 
ATOM     21  H   LIG d   1       7.287   0.391  -5.839  0.00  0.00     0.054 H 
ATOM     22  H   LIG d   1       7.995   0.480  -2.876  0.00  0.00     0.083 H 
ATOM     23  H   LIG d   1       8.145   1.792  -4.063  0.00  0.00     0.083 H 
ATOM     24  H   LIG d   1       3.792   1.293  -1.831  0.00  0.00     0.032 H 
ATOM     25  H   LIG d   1       3.693   1.211  -3.590  0.00  0.00     0.032 H 
ATOM     26  H   LIG d   1       2.318  -0.474  -3.436  0.00  0.00     0.027 H 
ATOM     27  H   LIG d   1       2.414  -0.394  -1.680  0.00  0.00     0.027 H 
ATOM     28  H   LIG d   1       2.862  -2.650  -2.831  0.00  0.00     0.031 H 
ATOM     29  H   LIG d   1       3.990  -2.125  -1.558  0.00  0.00     0.031 H 
ATOM     30  N   LIG d   1       6.183   1.385  -3.445  0.00  0.00     0.235 N 
ATOM     31  H   LIG d   1       5.699   1.638  -4.314  0.00  0.00     0.202 HD
ATOM     32  H   LIG d   1       6.233   2.206  -2.830  0.00  0.00     0.202 HD
ENDROOT
BRANCH   6  33
ATOM     33  C   LIG d   1       5.079  -6.254  -6.232  0.00  0.00    -0.044 C 
ATOM     34  C   LIG d   1       5.072  -7.461  -5.323  0.00  0.00    -0.027 C 
ATOM     35  C   LIG d   1       4.974  -8.673  -6.277  0.00  0.00    -0.046 C 
ATOM     36  H   LIG d   1       5.995  -7.506  -4.744  0.00  0.00     0.031 H 
ATOM     37  H   LIG d   1       4.208  -7.431  -4.658  0.00  0.00     0.031 H 
ATOM     38  C   LIG d   1       4.302  -8.042  -7.517  0.00  0.00    -0.034 C 
ATOM     39  H   LIG d   1       5.965  -9.057  -6.523  0.00  0.00     0.027 H 
ATOM     40  H   LIG d   1       4.350  -9.458  -5.849  0.00  0.00     0.027 H 
ATOM     41  C   LIG d   1       4.650  -6.573  -7.440  0.00  0.00    -0.080 C 
ATOM     42  H   LIG d   1       4.701  -8.481  -8.431  0.00  0.00     0.031 H 
ATOM     43  H   LIG d   1       3.221  -8.177  -7.472  0.00  0.00     0.031 H 
ATOM     44  H   LIG d   1       4.561  -5.879  -8.262  0.00  0.00     0.058 H 
ENDBRANCH   6  33
TORSDOF 1
ENDMDL
MODEL 3
REMARK VINA RESULT:      -6.7      3.995      6.240
REMARK  1 active torsions:
REMARK  status: ('A' for Active; 'I' for Inactive)
REMARK    1  A    between atoms: C_6  and  C_7 
ROOT
ATOM      1  C   LIG d   1       4.946  -2.035  -5.249  0.00  0.00    -0.052 A 
ATOM      2  C   LIG d   1       4.998  -2.823  -6.369  0.00  0.00    -0.037 A 
ATOM      3  C   LIG d   1       4.344  -2.367  -7.512  0.00  0.00     0.050 A 
ATOM      4  C   LIG d   1       3.647  -1.120  -7.507  0.00  0.00     0.004 A 
ATOM      5  C   LIG d   1       3.602  -0.329  -6.356  0.00  0.00    -0.045 A 
ATOM      6  C   LIG d   1       4.266  -0.814  -5.228  0.00  0.00    -0.021 A 
ATOM      7  C   LIG d   1       3.102  -0.961  -8.827  0.00  0.00    -0.013 A 
ATOM      8  C   LIG d   1       3.486  -2.043  -9.532  0.00  0.00     0.071 A 
ATOM      9  N   LIG d   1       4.209  -2.907  -8.755  0.00  0.00    -0.334 N 
ATOM     10  C   LIG d   1       4.693  -4.190  -9.291  0.00  0.00     0.064 C 
ATOM     11  C   LIG d   1       4.602  -4.135 -10.820  0.00  0.00    -0.015 C 
ATOM     12  C   LIG d   1       3.115  -2.226 -10.986  0.00  0.00     0.019 C 
ATOM     13  H   LIG d   1       3.773  -1.637 -11.625  0.00  0.00     0.092 H 
ATOM     14  C   LIG d   1       1.666  -1.803 -11.162  0.00  0.00    -0.004 C 
ATOM     15  C   LIG d   1       1.225  -0.588 -10.384  0.00  0.00    -0.043 C 
ATOM     16  C   LIG d   1       2.270   0.090  -9.509  0.00  0.00    -0.025 C 
ATOM     17  H   LIG d   1       5.447  -2.369  -4.352  0.00  0.00     0.062 H 
ATOM     18  H   LIG d   1       5.528  -3.764  -6.366  0.00  0.00     0.064 H 
ATOM     19  H   LIG d   1       3.077   0.615  -6.340  0.00  0.00     0.063 H 
ATOM     20  H   LIG d   1       5.729  -4.346  -8.989  0.00  0.00     0.054 H 
ATOM     21  H   LIG d   1       4.073  -5.002  -8.913  0.00  0.00     0.054 H 
ATOM     22  H   LIG d   1       5.365  -3.455 -11.199  0.00  0.00     0.083 H 
ATOM     23  H   LIG d   1       4.779  -5.131 -11.223  0.00  0.00     0.083 H 
ATOM     24  H   LIG d   1       1.496  -1.608 -12.220  0.00  0.00     0.032 H 
ATOM     25  H   LIG d   1       1.031  -2.639 -10.867  0.00  0.00     0.032 H 
ATOM     26  H   LIG d   1       0.393  -0.882  -9.745  0.00  0.00     0.027 H 
ATOM     27  H   LIG d   1       0.855   0.149 -11.096  0.00  0.00     0.027 H 
ATOM     28  H   LIG d   1       1.774   0.704  -8.758  0.00  0.00     0.031 H 
ATOM     29  H   LIG d   1       2.912   0.717 -10.127  0.00  0.00     0.031 H 
ATOM     30  N   LIG d   1       3.273  -3.673 -11.265  0.00  0.00     0.235 N 
ATOM     31  H   LIG d   1       2.546  -4.197 -10.763  0.00  0.00     0.202 HD
ATOM     32  H   LIG d   1       3.177  -3.836 -12.274  0.00  0.00     0.202 HD
ENDROOT
BRANCH   6  33
ATOM     33  C   LIG d   1       4.252  -0.018  -3.983  0.00  0.00    -0.044 C 
ATOM     34  C   LIG d   1       5.344  -0.039  -2.939  0.00  0.00    -0.027 C 
ATOM     35  C   LIG d   1       4.700   0.589  -1.682  0.00  0.00    -0.046 C 
ATOM     36  H   LIG d   1       5.655  -1.064  -2.735  0.00  0.00     0.031 H 
ATOM     37  H   LIG d   1       6.195   0.558  -3.268  0.00  0.00     0.031 H 
ATOM     38  C   LIG d   1       3.585   1.460  -2.303  0.00  0.00    -0.034 C 
ATOM     39  H   LIG d   1       4.278  -0.181  -1.034  0.00  0.00     0.027 H 
ATOM     40  H   LIG d   1       5.420   1.202  -1.139  0.00  0.00     0.027 H 
ATOM     41  C   LIG d   1       3.284   0.812  -3.635  0.00  0.00    -0.080 C 
ATOM     42  H   LIG d   1       2.700   1.455  -1.667  0.00  0.00     0.031 H 
ATOM     43  H   LIG d   1       3.939   2.480  -2.451  0.00  0.00     0.031 H 
ATOM     44  H   LIG d   1       2.398   1.001  -4.222  0.00  0.00     0.058 H 
ENDBRANCH   6  33
TORSDOF 1
ENDMDL
MODEL 4
REMARK VINA RESULT:      -6.4      3.728      6.944
REMARK  1 active torsions:
REMARK  status: ('A' for Active; 'I' for Inactive)
REMARK    1  A    between atoms: C_6  and  C_7 
ROOT
ATOM      1  C   LIG d   1       4.907  -1.794  -8.993  0.00  0.00    -0.052 A 
ATOM      2  C   LIG d   1       5.689  -1.881  -7.871  0.00  0.00    -0.037 A 
ATOM      3  C   LIG d   1       5.189  -1.340  -6.689  0.00  0.00     0.050 A 
ATOM      4  C   LIG d   1       3.904  -0.717  -6.657  0.00  0.00     0.004 A 
ATOM      5  C   LIG d   1       3.118  -0.634  -7.810  0.00  0.00    -0.045 A 
ATOM      6  C   LIG d   1       3.648  -1.186  -8.977  0.00  0.00    -0.021 A 
ATOM      7  C   LIG d   1       3.705  -0.279  -5.303  0.00  0.00    -0.013 A 
ATOM      8  C   LIG d   1       4.803  -0.650  -4.616  0.00  0.00     0.071 A 
ATOM      9  N   LIG d   1       5.713  -1.263  -5.434  0.00  0.00    -0.334 N 
ATOM     10  C   LIG d   1       7.018  -1.710  -4.921  0.00  0.00     0.064 C 
ATOM     11  C   LIG d   1       6.948  -1.734  -3.390  0.00  0.00    -0.015 C 
ATOM     12  C   LIG d   1       4.955  -0.375  -3.138  0.00  0.00     0.019 C 
ATOM     13  H   LIG d   1       4.402  -1.111  -2.553  0.00  0.00     0.092 H 
ATOM     14  C   LIG d   1       4.447   1.030  -2.862  0.00  0.00    -0.004 C 
ATOM     15  C   LIG d   1       3.213   1.455  -3.619  0.00  0.00    -0.043 C 
ATOM     16  C   LIG d   1       2.603   0.439  -4.574  0.00  0.00    -0.025 C 
ATOM     17  H   LIG d   1       5.275  -2.208  -9.920  0.00  0.00     0.062 H 
ATOM     18  H   LIG d   1       6.660  -2.354  -7.903  0.00  0.00     0.064 H 
ATOM     19  H   LIG d   1       2.146  -0.165  -7.798  0.00  0.00     0.063 H 
ATOM     20  H   LIG d   1       7.236  -2.711  -5.295  0.00  0.00     0.054 H 
ATOM     21  H   LIG d   1       7.795  -1.019  -5.244  0.00  0.00     0.054 H 
ATOM     22  H   LIG d   1       6.312  -2.560  -3.074  0.00  0.00     0.083 H 
ATOM     23  H   LIG d   1       7.951  -1.882  -2.990  0.00  0.00     0.083 H 
ATOM     24  H   LIG d   1       4.236   1.112  -1.796  0.00  0.00     0.032 H 
ATOM     25  H   LIG d   1       5.247   1.732  -3.102  0.00  0.00     0.032 H 
ATOM     26  H   LIG d   1       3.463   2.348  -4.193  0.00  0.00     0.027 H 
ATOM     27  H   LIG d   1       2.451   1.731  -2.890  0.00  0.00     0.027 H 
ATOM     28  H   LIG d   1       1.966   0.953  -5.293  0.00  0.00     0.031 H 
ATOM     29  H   LIG d   1       2.010  -0.280  -4.010  0.00  0.00     0.031 H 
ATOM     30  N   LIG d   1       6.407  -0.469  -2.856  0.00  0.00     0.235 N 
ATOM     31  H   LIG d   1       6.891   0.321  -3.298  0.00  0.00     0.202 HD
ATOM     32  H   LIG d   1       6.558  -0.438  -1.841  0.00  0.00     0.202 HD
ENDROOT
BRANCH   6  33
ATOM     33  C   LIG d   1       2.861  -1.127 -10.226  0.00  0.00    -0.044 C 
ATOM     34  C   LIG d   1       1.403  -0.736 -10.303  0.00  0.00    -0.027 C 
ATOM     35  C   LIG d   1       0.935  -1.227 -11.692  0.00  0.00    -0.046 C 
ATOM     36  H   LIG d   1       0.835  -1.229  -9.515  0.00  0.00     0.031 H 
ATOM     37  H   LIG d   1       1.296   0.347 -10.228  0.00  0.00     0.031 H 
ATOM     38  C   LIG d   1       2.264  -1.249 -12.480  0.00  0.00    -0.034 C 
ATOM     39  H   LIG d   1       0.503  -2.227 -11.628  0.00  0.00     0.027 H 
ATOM     40  H   LIG d   1       0.228  -0.527 -12.136  0.00  0.00     0.027 H 
ATOM     41  C   LIG d   1       3.337  -1.405 -11.427  0.00  0.00    -0.080 C 
ATOM     42  H   LIG d   1       2.282  -2.091 -13.172  0.00  0.00     0.031 H 
ATOM     43  H   LIG d   1       2.400  -0.312 -13.021  0.00  0.00     0.031 H 
ATOM     44  H   LIG d   1       4.354  -1.706 -11.629  0.00  0.00     0.058 H 
ENDBRANCH   6  33
TORSDOF 1
ENDMDL
MODEL 5
REMARK VINA RESULT:      -6.1      4.737      9.036
REMARK  1 active torsions:
REMARK  status: ('A' for Active; 'I' for Inactive)
REMARK    1  A    between atoms: C_6  and  C_7 
ROOT
ATOM      1  C   LIG d   1       9.168   5.639  -4.640  0.00  0.00    -0.052 A 
ATOM      2  C   LIG d   1       9.477   6.854  -4.087  0.00  0.00    -0.037 A 
ATOM      3  C   LIG d   1      10.065   6.860  -2.824  0.00  0.00     0.050 A 
ATOM      4  C   LIG d   1      10.332   5.636  -2.137  0.00  0.00     0.004 A 
ATOM      5  C   LIG d   1      10.010   4.405  -2.713  0.00  0.00    -0.045 A 
ATOM      6  C   LIG d   1       9.422   4.433  -3.978  0.00  0.00    -0.021 A 
ATOM      7  C   LIG d   1      10.935   6.004  -0.885  0.00  0.00    -0.013 A 
ATOM      8  C   LIG d   1      11.015   7.349  -0.880  0.00  0.00     0.071 A 
ATOM      9  N   LIG d   1      10.478   7.880  -2.020  0.00  0.00    -0.334 N 
ATOM     10  C   LIG d   1      10.402   9.336  -2.221  0.00  0.00     0.064 C 
ATOM     11  C   LIG d   1      11.337  10.008  -1.209  0.00  0.00    -0.015 C 
ATOM     12  C   LIG d   1      11.617   8.112   0.278  0.00  0.00     0.019 C 
ATOM     13  H   LIG d   1      12.705   8.096   0.222  0.00  0.00     0.092 H 
ATOM     14  C   LIG d   1      11.131   7.475   1.569  0.00  0.00    -0.004 C 
ATOM     15  C   LIG d   1      11.043   5.968   1.580  0.00  0.00    -0.043 C 
ATOM     16  C   LIG d   1      11.451   5.243   0.305  0.00  0.00    -0.025 C 
ATOM     17  H   LIG d   1       8.713   5.611  -5.618  0.00  0.00     0.062 H 
ATOM     18  H   LIG d   1       9.273   7.775  -4.613  0.00  0.00     0.064 H 
ATOM     19  H   LIG d   1      10.206   3.473  -2.202  0.00  0.00     0.063 H 
ATOM     20  H   LIG d   1      10.718   9.584  -3.234  0.00  0.00     0.054 H 
ATOM     21  H   LIG d   1       9.379   9.676  -2.060  0.00  0.00     0.054 H 
ATOM     22  H   LIG d   1      12.371   9.816  -1.495  0.00  0.00     0.083 H 
ATOM     23  H   LIG d   1      11.157  11.082  -1.217  0.00  0.00     0.083 H 
ATOM     24  H   LIG d   1      11.801   7.781   2.372  0.00  0.00     0.032 H 
ATOM     25  H   LIG d   1      10.138   7.871   1.789  0.00  0.00     0.032 H 
ATOM     26  H   LIG d   1      10.013   5.694   1.807  0.00  0.00     0.027 H 
ATOM     27  H   LIG d   1      11.672   5.602   2.390  0.00  0.00     0.027 H 
ATOM     28  H   LIG d   1      11.027   4.239   0.306  0.00  0.00     0.031 H 
ATOM     29  H   LIG d   1      12.537   5.180   0.253  0.00  0.00     0.031 H 
ATOM     30  N   LIG d   1      11.107   9.499   0.157  0.00  0.00     0.235 N 
ATOM     31  H   LIG d   1      10.101   9.509   0.359  0.00  0.00     0.202 HD
ATOM     32  H   LIG d   1      11.598  10.100   0.830  0.00  0.00     0.202 HD
ENDROOT
BRANCH   6  33
ATOM     33  C   LIG d   1       9.060   3.160  -4.636  0.00  0.00    -0.044 C 
ATOM     34  C   LIG d   1       9.374   2.818  -6.073  0.00  0.00    -0.027 C 
ATOM     35  C   LIG d   1       8.453   1.621  -6.405  0.00  0.00    -0.046 C 
ATOM     36  H   LIG d   1       9.148   3.663  -6.724  0.00  0.00     0.031 H 
ATOM     37  H   LIG d   1      10.421   2.530  -6.175  0.00  0.00     0.031 H 
ATOM     38  C   LIG d   1       8.209   1.017  -5.004  0.00  0.00    -0.034 C 
ATOM     39  H   LIG d   1       7.518   1.960  -6.852  0.00  0.00     0.027 H 
ATOM     40  H   LIG d   1       8.959   0.908  -7.056  0.00  0.00     0.027 H 
ATOM     41  C   LIG d   1       8.422   2.166  -4.044  0.00  0.00    -0.080 C 
ATOM     42  H   LIG d   1       7.190   0.638  -4.925  0.00  0.00     0.031 H 
ATOM     43  H   LIG d   1       8.926   0.221  -4.804  0.00  0.00     0.031 H 
ATOM     44  H   LIG d   1       8.095   2.173  -3.015  0.00  0.00     0.058 H 
ENDBRANCH   6  33
TORSDOF 1
ENDMDL
MODEL 6
REMARK VINA RESULT:      -5.8      5.404      7.502
REMARK  1 active torsions:
REMARK  status: ('A' for Active; 'I' for Inactive)
REMARK    1  A    between atoms: C_6  and  C_7 
ROOT
ATOM      1  C   LIG d   1      10.022   4.423  -2.722  0.00  0.00    -0.052 A 
ATOM      2  C   LIG d   1       9.821   3.849  -3.949  0.00  0.00    -0.037 A 
ATOM      3  C   LIG d   1       9.826   4.685  -5.064  0.00  0.00     0.050 A 
ATOM      4  C   LIG d   1      10.034   6.092  -4.921  0.00  0.00     0.004 A 
ATOM      5  C   LIG d   1      10.236   6.662  -3.662  0.00  0.00    -0.045 A 
ATOM      6  C   LIG d   1      10.225   5.797  -2.566  0.00  0.00    -0.021 A 
ATOM      7  C   LIG d   1       9.982   6.640  -6.249  0.00  0.00    -0.013 A 
ATOM      8  C   LIG d   1       9.774   5.602  -7.083  0.00  0.00     0.071 A 
ATOM      9  N   LIG d   1       9.654   4.429  -6.391  0.00  0.00    -0.334 N 
ATOM     10  C   LIG d   1       9.369   3.162  -7.084  0.00  0.00     0.064 C 
ATOM     11  C   LIG d   1       9.648   3.360  -8.578  0.00  0.00    -0.015 C 
ATOM     12  C   LIG d   1       9.678   5.785  -8.580  0.00  0.00     0.019 C 
ATOM     13  H   LIG d   1      10.673   5.876  -9.019  0.00  0.00     0.092 H 
ATOM     14  C   LIG d   1       8.849   7.029  -8.854  0.00  0.00    -0.004 C 
ATOM     15  C   LIG d   1       9.077   8.201  -7.931  0.00  0.00    -0.043 C 
ATOM     16  C   LIG d   1      10.110   8.021  -6.828  0.00  0.00    -0.025 C 
ATOM     17  H   LIG d   1      10.023   3.793  -1.845  0.00  0.00     0.062 H 
ATOM     18  H   LIG d   1       9.665   2.785  -4.050  0.00  0.00     0.064 H 
ATOM     19  H   LIG d   1      10.393   7.724  -3.542  0.00  0.00     0.063 H 
ATOM     20  H   LIG d   1      10.014   2.376  -6.690  0.00  0.00     0.054 H 
ATOM     21  H   LIG d   1       8.324   2.890  -6.936  0.00  0.00     0.054 H 
ATOM     22  H   LIG d   1      10.724   3.440  -8.733  0.00  0.00     0.083 H 
ATOM     23  H   LIG d   1       9.271   2.499  -9.128  0.00  0.00     0.083 H 
ATOM     24  H   LIG d   1       9.053   7.355  -9.874  0.00  0.00     0.032 H 
ATOM     25  H   LIG d   1       7.796   6.753  -8.794  0.00  0.00     0.032 H 
ATOM     26  H   LIG d   1       8.125   8.448  -7.462  0.00  0.00     0.027 H 
ATOM     27  H   LIG d   1       9.380   9.052  -8.540  0.00  0.00     0.027 H 
ATOM     28  H   LIG d   1       9.940   8.761  -6.046  0.00  0.00     0.031 H 
ATOM     29  H   LIG d   1      11.110   8.151  -7.241  0.00  0.00     0.031 H 
ATOM     30  N   LIG d   1       8.990   4.577  -9.092  0.00  0.00     0.235 N 
ATOM     31  H   LIG d   1       8.011   4.589  -8.785  0.00  0.00     0.202 HD
ATOM     32  H   LIG d   1       9.027   4.574 -10.118  0.00  0.00     0.202 HD
ENDROOT
BRANCH   6  33
ATOM     33  C   LIG d   1      10.434   6.347  -1.210  0.00  0.00    -0.044 C 
ATOM     34  C   LIG d   1      10.043   7.741  -0.781  0.00  0.00    -0.027 C 
ATOM     35  C   LIG d   1      10.825   7.985   0.530  0.00  0.00    -0.046 C 
ATOM     36  H   LIG d   1      10.335   8.469  -1.538  0.00  0.00     0.031 H 
ATOM     37  H   LIG d   1       8.969   7.795  -0.597  0.00  0.00     0.031 H 
ATOM     38  C   LIG d   1      11.048   6.541   1.034  0.00  0.00    -0.034 C 
ATOM     39  H   LIG d   1      11.776   8.480   0.331  0.00  0.00     0.027 H 
ATOM     40  H   LIG d   1      10.229   8.559   1.240  0.00  0.00     0.027 H 
ATOM     41  C   LIG d   1      10.984   5.683  -0.209  0.00  0.00    -0.080 C 
ATOM     42  H   LIG d   1      12.024   6.451   1.510  0.00  0.00     0.031 H 
ATOM     43  H   LIG d   1      10.260   6.256   1.730  0.00  0.00     0.031 H 
ATOM     44  H   LIG d   1      11.341   4.666  -0.270  0.00  0.00     0.058 H 
ENDBRANCH   6  33
TORSDOF 1
ENDMDL
MODEL 7
REMARK VINA RESULT:      -5.8      3.332      6.957
REMARK  1 active torsions:
REMARK  status: ('A' for Active; 'I' for Inactive)
REMARK    1  A    between atoms: C_6  and  C_7 
ROOT
ATOM      1  C   LIG d   1       4.817   0.266  -9.295  0.00  0.00    -0.052 A 
ATOM      2  C   LIG d   1       5.755   0.591  -8.352  0.00  0.00    -0.037 A 
ATOM      3  C   LIG d   1       5.759  -0.136  -7.163  0.00  0.00     0.050 A 
ATOM      4  C   LIG d   1       4.813  -1.185  -6.946  0.00  0.00     0.004 A 
ATOM      5  C   LIG d   1       3.861  -1.504  -7.917  0.00  0.00    -0.045 A 
ATOM      6  C   LIG d   1       3.884  -0.756  -9.096  0.00  0.00    -0.021 A 
ATOM      7  C   LIG d   1       5.099  -1.717  -5.642  0.00  0.00    -0.013 A 
ATOM      8  C   LIG d   1       6.150  -1.021  -5.167  0.00  0.00     0.071 A 
ATOM      9  N   LIG d   1       6.543  -0.055  -6.052  0.00  0.00    -0.334 N 
ATOM     10  C   LIG d   1       7.641   0.871  -5.732  0.00  0.00     0.064 C 
ATOM     11  C   LIG d   1       8.422   0.295  -4.545  0.00  0.00    -0.015 C 
ATOM     12  C   LIG d   1       6.757  -1.309  -3.813  0.00  0.00     0.019 C 
ATOM     13  H   LIG d   1       7.417  -2.176  -3.866  0.00  0.00     0.092 H 
ATOM     14  C   LIG d   1       5.625  -1.550  -2.828  0.00  0.00    -0.004 C 
ATOM     15  C   LIG d   1       4.444  -2.335  -3.345  0.00  0.00    -0.043 C 
ATOM     16  C   LIG d   1       4.507  -2.806  -4.791  0.00  0.00    -0.025 C 
ATOM     17  H   LIG d   1       4.797   0.816 -10.224  0.00  0.00     0.062 H 
ATOM     18  H   LIG d   1       6.468   1.385  -8.523  0.00  0.00     0.064 H 
ATOM     19  H   LIG d   1       3.140  -2.294  -7.764  0.00  0.00     0.063 H 
ATOM     20  H   LIG d   1       8.302   0.969  -6.593  0.00  0.00     0.054 H 
ATOM     21  H   LIG d   1       7.233   1.846  -5.467  0.00  0.00     0.054 H 
ATOM     22  H   LIG d   1       8.982  -0.579  -4.876  0.00  0.00     0.083 H 
ATOM     23  H   LIG d   1       9.118   1.048  -4.177  0.00  0.00     0.083 H 
ATOM     24  H   LIG d   1       6.032  -2.078  -1.966  0.00  0.00     0.032 H 
ATOM     25  H   LIG d   1       5.260  -0.580  -2.487  0.00  0.00     0.032 H 
ATOM     26  H   LIG d   1       3.555  -1.715  -3.232  0.00  0.00     0.027 H 
ATOM     27  H   LIG d   1       4.322  -3.212  -2.711  0.00  0.00     0.027 H 
ATOM     28  H   LIG d   1       3.501  -3.037  -5.142  0.00  0.00     0.031 H 
ATOM     29  H   LIG d   1       5.129  -3.698  -4.857  0.00  0.00     0.031 H 
ATOM     30  N   LIG d   1       7.519  -0.094  -3.444  0.00  0.00     0.235 N 
ATOM     31  H   LIG d   1       6.864   0.674  -3.255  0.00  0.00     0.202 HD
ATOM     32  H   LIG d   1       8.074  -0.284  -2.601  0.00  0.00     0.202 HD
ENDROOT
BRANCH   6  33
ATOM     33  C   LIG d   1       2.900  -1.051 -10.158  0.00  0.00    -0.044 C 
ATOM     34  C   LIG d   1       3.174  -1.920 -11.363  0.00  0.00    -0.027 C 
ATOM     35  C   LIG d   1       2.039  -1.585 -12.358  0.00  0.00    -0.046 C 
ATOM     36  H   LIG d   1       4.144  -1.674 -11.797  0.00  0.00     0.031 H 
ATOM     37  H   LIG d   1       3.138  -2.975 -11.088  0.00  0.00     0.031 H 
ATOM     38  C   LIG d   1       0.928  -1.085 -11.408  0.00  0.00    -0.034 C 
ATOM     39  H   LIG d   1       2.345  -0.798 -13.049  0.00  0.00     0.027 H 
ATOM     40  H   LIG d   1       1.720  -2.475 -12.901  0.00  0.00     0.027 H 
ATOM     41  C   LIG d   1       1.660  -0.595 -10.180  0.00  0.00    -0.080 C 
ATOM     42  H   LIG d   1       0.370  -0.271 -11.870  0.00  0.00     0.031 H 
ATOM     43  H   LIG d   1       0.257  -1.903 -11.145  0.00  0.00     0.031 H 
ATOM     44  H   LIG d   1       1.228   0.043  -9.423  0.00  0.00     0.058 H 
ENDBRANCH   6  33
TORSDOF 1
ENDMDL
MODEL 8
REMARK VINA RESULT:      -5.7      9.383     12.585
REMARK  1 active torsions:
REMARK  status: ('A' for Active; 'I' for Inactive)
REMARK    1  A    between atoms: C_6  and  C_7 
ROOT
ATOM      1  C   LIG d   1       6.597 -11.436  -1.423  0.00  0.00    -0.052 A 
ATOM      2  C   LIG d   1       7.699 -11.282  -0.625  0.00  0.00    -0.037 A 
ATOM      3  C   LIG d   1       8.557 -10.220  -0.902  0.00  0.00     0.050 A 
ATOM      4  C   LIG d   1       8.288  -9.327  -1.985  0.00  0.00     0.004 A 
ATOM      5  C   LIG d   1       7.160  -9.498  -2.791  0.00  0.00    -0.045 A 
ATOM      6  C   LIG d   1       6.322 -10.572  -2.487  0.00  0.00    -0.021 A 
ATOM      7  C   LIG d   1       9.354  -8.363  -1.983  0.00  0.00    -0.013 A 
ATOM      8  C   LIG d   1      10.160  -8.688  -0.953  0.00  0.00     0.071 A 
ATOM      9  N   LIG d   1       9.714  -9.809  -0.310  0.00  0.00    -0.334 N 
ATOM     10  C   LIG d   1      10.460 -10.389   0.817  0.00  0.00     0.064 C 
ATOM     11  C   LIG d   1      11.461  -9.342   1.318  0.00  0.00    -0.015 C 
ATOM     12  C   LIG d   1      11.395  -7.883  -0.617  0.00  0.00     0.019 C 
ATOM     13  H   LIG d   1      11.126  -6.984  -0.061  0.00  0.00     0.092 H 
ATOM     14  C   LIG d   1      12.096  -7.525  -1.918  0.00  0.00    -0.004 C 
ATOM     15  C   LIG d   1      11.205  -7.154  -3.078  0.00  0.00    -0.043 C 
ATOM     16  C   LIG d   1       9.703  -7.171  -2.829  0.00  0.00    -0.025 C 
ATOM     17  H   LIG d   1       5.918 -12.252  -1.225  0.00  0.00     0.062 H 
ATOM     18  H   LIG d   1       7.897 -11.961   0.192  0.00  0.00     0.064 H 
ATOM     19  H   LIG d   1       6.946  -8.830  -3.613  0.00  0.00     0.063 H 
ATOM     20  H   LIG d   1       9.770 -10.651   1.619  0.00  0.00     0.054 H 
ATOM     21  H   LIG d   1      10.994 -11.280   0.485  0.00  0.00     0.054 H 
ATOM     22  H   LIG d   1      10.920  -8.542   1.823  0.00  0.00     0.083 H 
ATOM     23  H   LIG d   1      12.145  -9.812   2.025  0.00  0.00     0.083 H 
ATOM     24  H   LIG d   1      12.766  -6.689  -1.723  0.00  0.00     0.032 H 
ATOM     25  H   LIG d   1      12.703  -8.380  -2.221  0.00  0.00     0.032 H 
ATOM     26  H   LIG d   1      11.417  -7.840  -3.897  0.00  0.00     0.027 H 
ATOM     27  H   LIG d   1      11.480  -6.151  -3.403  0.00  0.00     0.027 H 
ATOM     28  H   LIG d   1       9.177  -7.233  -3.781  0.00  0.00     0.031 H 
ATOM     29  H   LIG d   1       9.410  -6.259  -2.310  0.00  0.00     0.031 H 
ATOM     30  N   LIG d   1      12.247  -8.773   0.206  0.00  0.00     0.235 N 
ATOM     31  H   LIG d   1      12.608  -9.534  -0.380  0.00  0.00     0.202 HD
ATOM     32  H   LIG d   1      13.032  -8.232   0.588  0.00  0.00     0.202 HD
ENDROOT
BRANCH   6  33
ATOM     33  C   LIG d   1       5.114 -10.800  -3.307  0.00  0.00    -0.044 C 
ATOM     34  C   LIG d   1       3.760 -10.189  -3.028  0.00  0.00    -0.027 C 
ATOM     35  C   LIG d   1       2.767 -11.033  -3.861  0.00  0.00    -0.046 C 
ATOM     36  H   LIG d   1       3.522 -10.261  -1.967  0.00  0.00     0.031 H 
ATOM     37  H   LIG d   1       3.739  -9.149  -3.353  0.00  0.00     0.031 H 
ATOM     38  C   LIG d   1       3.683 -11.578  -4.980  0.00  0.00    -0.034 C 
ATOM     39  H   LIG d   1       2.351 -11.846  -3.266  0.00  0.00     0.027 H 
ATOM     40  H   LIG d   1       1.975 -10.408  -4.274  0.00  0.00     0.027 H 
ATOM     41  C   LIG d   1       5.073 -11.562  -4.386  0.00  0.00    -0.080 C 
ATOM     42  H   LIG d   1       3.393 -12.595  -5.246  0.00  0.00     0.031 H 
ATOM     43  H   LIG d   1       3.639 -10.931  -5.856  0.00  0.00     0.031 H 
ATOM     44  H   LIG d   1       5.917 -12.101  -4.788  0.00  0.00     0.058 H 
ENDBRANCH   6  33
TORSDOF 1
ENDMDL
MODEL 9
REMARK VINA RESULT:      -5.6      7.915     10.646
REMARK  1 active torsions:
REMARK  status: ('A' for Active; 'I' for Inactive)
REMARK    1  A    between atoms: C_6  and  C_7 
ROOT
ATOM      1  C   LIG d   1       9.592   9.195  -7.285  0.00  0.00    -0.052 A 
ATOM      2  C   LIG d   1       9.673  10.287  -6.461  0.00  0.00    -0.037 A 
ATOM      3  C   LIG d   1       9.807  10.056  -5.093  0.00  0.00     0.050 A 
ATOM      4  C   LIG d   1       9.859   8.725  -4.578  0.00  0.00     0.004 A 
ATOM      5  C   LIG d   1       9.773   7.622  -5.432  0.00  0.00    -0.045 A 
ATOM      6  C   LIG d   1       9.638   7.887  -6.795  0.00  0.00    -0.021 A 
ATOM      7  C   LIG d   1      10.003   8.852  -3.153  0.00  0.00    -0.013 A 
ATOM      8  C   LIG d   1      10.047  10.173  -2.891  0.00  0.00     0.071 A 
ATOM      9  N   LIG d   1       9.907  10.909  -4.035  0.00  0.00    -0.334 N 
ATOM     10  C   LIG d   1       9.869  12.380  -3.995  0.00  0.00     0.064 C 
ATOM     11  C   LIG d   1      10.400  12.835  -2.631  0.00  0.00    -0.015 C 
ATOM     12  C   LIG d   1      10.212  10.706  -1.486  0.00  0.00     0.019 C 
ATOM     13  H   LIG d   1      11.258  10.660  -1.180  0.00  0.00     0.092 H 
ATOM     14  C   LIG d   1       9.340   9.877  -0.559  0.00  0.00    -0.004 C 
ATOM     15  C   LIG d   1       9.287   8.394  -0.838  0.00  0.00    -0.043 C 
ATOM     16  C   LIG d   1      10.111   7.882  -2.010  0.00  0.00    -0.025 C 
ATOM     17  H   LIG d   1       9.488   9.351  -8.349  0.00  0.00     0.062 H 
ATOM     18  H   LIG d   1       9.634  11.291  -6.858  0.00  0.00     0.064 H 
ATOM     19  H   LIG d   1       9.810   6.611  -5.054  0.00  0.00     0.063 H 
ATOM     20  H   LIG d   1      10.498  12.785  -4.788  0.00  0.00     0.054 H 
ATOM     21  H   LIG d   1       8.844  12.724  -4.126  0.00  0.00     0.054 H 
ATOM     22  H   LIG d   1      11.474  12.658  -2.588  0.00  0.00     0.083 H 
ATOM     23  H   LIG d   1      10.209  13.901  -2.512  0.00  0.00     0.083 H 
ATOM     24  H   LIG d   1       9.698  10.017   0.461  0.00  0.00     0.032 H 
ATOM     25  H   LIG d   1       8.322  10.265  -0.614  0.00  0.00     0.032 H 
ATOM     26  H   LIG d   1       8.247   8.123  -1.015  0.00  0.00     0.027 H 
ATOM     27  H   LIG d   1       9.619   7.873   0.060  0.00  0.00     0.027 H 
ATOM     28  H   LIG d   1       9.734   6.908  -2.322  0.00  0.00     0.031 H 
ATOM     29  H   LIG d   1      11.154   7.789  -1.710  0.00  0.00     0.031 H 
ATOM     30  N   LIG d   1       9.741  12.110  -1.528  0.00  0.00     0.235 N 
ATOM     31  H   LIG d   1       8.725  12.123  -1.671  0.00  0.00     0.202 HD
ATOM     32  H   LIG d   1       9.967  12.570  -0.637  0.00  0.00     0.202 HD
ENDROOT
BRANCH   6  33
ATOM     33  C   LIG d   1       9.544   6.758  -7.745  0.00  0.00    -0.044 C 
ATOM     34  C   LIG d   1       9.106   6.884  -9.185  0.00  0.00    -0.027 C 
ATOM     35  C   LIG d   1       8.763   5.441  -9.621  0.00  0.00    -0.046 C 
ATOM     36  H   LIG d   1       8.226   7.522  -9.261  0.00  0.00     0.031 H 
ATOM     37  H   LIG d   1       9.918   7.281  -9.796  0.00  0.00     0.031 H 
ATOM     38  C   LIG d   1       9.626   4.607  -8.648  0.00  0.00    -0.034 C 
ATOM     39  H   LIG d   1       7.702   5.231  -9.478  0.00  0.00     0.027 H 
ATOM     40  H   LIG d   1       9.057   5.264 -10.655  0.00  0.00     0.027 H 
ATOM     41  C   LIG d   1       9.835   5.504  -7.449  0.00  0.00    -0.080 C 
ATOM     42  H   LIG d   1       9.101   3.697  -8.357  0.00  0.00     0.031 H 
ATOM     43  H   LIG d   1      10.584   4.360  -9.106  0.00  0.00     0.031 H 
ATOM     44  H   LIG d   1      10.176   5.164  -6.483  0.00  0.00     0.058 H 
ENDBRANCH   6  33
TORSDOF 1
ENDMDL
MODEL 10
REMARK VINA RESULT:      -5.5      5.944     10.802
REMARK  1 active torsions:
REMARK  status: ('A' for Active; 'I' for Inactive)
REMARK    1  A    between atoms: C_6  and  C_7 
ROOT
ATOM      1  C   LIG d   1      10.340   5.917  -1.100  0.00  0.00    -0.052 A 
ATOM      2  C   LIG d   1      10.478   7.078  -0.385  0.00  0.00    -0.037 A 
ATOM      3  C   LIG d   1      10.318   8.282  -1.068  0.00  0.00     0.050 A 
ATOM      4  C   LIG d   1      10.020   8.295  -2.465  0.00  0.00     0.004 A 
ATOM      5  C   LIG d   1       9.884   7.102  -3.181  0.00  0.00    -0.045 A 
ATOM      6  C   LIG d   1      10.051   5.914  -2.468  0.00  0.00    -0.021 A 
ATOM      7  C   LIG d   1       9.919   9.679  -2.840  0.00  0.00    -0.013 A 
ATOM      8  C   LIG d   1      10.130  10.394  -1.717  0.00  0.00     0.071 A 
ATOM      9  N   LIG d   1      10.395   9.577  -0.653  0.00  0.00    -0.334 N 
ATOM     10  C   LIG d   1      10.711  10.131   0.673  0.00  0.00     0.064 C 
ATOM     11  C   LIG d   1      10.293  11.606   0.688  0.00  0.00    -0.015 C 
ATOM     12  C   LIG d   1      10.085  11.905  -1.710  0.00  0.00     0.019 C 
ATOM     13  H   LIG d   1       9.053  12.257  -1.681  0.00  0.00     0.092 H 
ATOM     14  C   LIG d   1      10.794  12.407  -2.956  0.00  0.00    -0.004 C 
ATOM     15  C   LIG d   1      10.561  11.619  -4.222  0.00  0.00    -0.043 C 
ATOM     16  C   LIG d   1       9.641  10.410  -4.123  0.00  0.00    -0.025 C 
ATOM     17  H   LIG d   1      10.460   4.972  -0.590  0.00  0.00     0.062 H 
ATOM     18  H   LIG d   1      10.703   7.060   0.671  0.00  0.00     0.064 H 
ATOM     19  H   LIG d   1       9.660   7.100  -4.237  0.00  0.00     0.063 H 
ATOM     20  H   LIG d   1      10.162   9.585   1.440  0.00  0.00     0.054 H 
ATOM     21  H   LIG d   1      11.782  10.050   0.858  0.00  0.00     0.054 H 
ATOM     22  H   LIG d   1       9.205  11.669   0.696  0.00  0.00     0.083 H 
ATOM     23  H   LIG d   1      10.685  12.078   1.588  0.00  0.00     0.083 H 
ATOM     24  H   LIG d   1      10.481  13.435  -3.135  0.00  0.00     0.032 H 
ATOM     25  H   LIG d   1      11.867  12.411  -2.757  0.00  0.00     0.032 H 
ATOM     26  H   LIG d   1      11.528  11.275  -4.587  0.00  0.00     0.027 H 
ATOM     27  H   LIG d   1      10.146  12.297  -4.967  0.00  0.00     0.027 H 
ATOM     28  H   LIG d   1       9.822   9.745  -4.968  0.00  0.00     0.031 H 
ATOM     29  H   LIG d   1       8.603  10.740  -4.136  0.00  0.00     0.031 H 
ATOM     30  N   LIG d   1      10.814  12.326  -0.490  0.00  0.00     0.235 N 
ATOM     31  H   LIG d   1      11.813  12.116  -0.603  0.00  0.00     0.202 HD
ATOM     32  H   LIG d   1      10.690  13.336  -0.353  0.00  0.00     0.202 HD
ENDROOT
BRANCH   6  33
ATOM     33  C   LIG d   1       9.918   4.623  -3.174  0.00  0.00    -0.044 C 
ATOM     34  C   LIG d   1       9.322   4.457  -4.553  0.00  0.00    -0.027 C 
ATOM     35  C   LIG d   1       9.015   2.947  -4.671  0.00  0.00    -0.046 C 
ATOM     36  H   LIG d   1       8.406   5.040  -4.643  0.00  0.00     0.031 H 
ATOM     37  H   LIG d   1      10.041   4.759  -5.316  0.00  0.00     0.031 H 
ATOM     38  C   LIG d   1      10.022   2.343  -3.667  0.00  0.00    -0.034 C 
ATOM     39  H   LIG d   1       7.988   2.733  -4.371  0.00  0.00     0.027 H 
ATOM     40  H   LIG d   1       9.206   2.587  -5.682  0.00  0.00     0.027 H 
ATOM     41  C   LIG d   1      10.308   3.459  -2.687  0.00  0.00    -0.080 C 
ATOM     42  H   LIG d   1       9.581   1.488  -3.154  0.00  0.00     0.031 H 
ATOM     43  H   LIG d   1      10.937   2.046  -4.179  0.00  0.00     0.031 H 
ATOM     44  H   LIG d   1      10.768   3.321  -1.720  0.00  0.00     0.058 H 
ENDBRANCH   6  33
TORSDOF 1
ENDMDL
