MODEL 1
REMARK VINA RESULT:      -7.5      0.000      0.000
REMARK  6 active torsions:
REMARK  status: ('A' for Active; 'I' for Inactive)
REMARK    1  A    between atoms: C_1  and  C_2 
REMARK    2  A    between atoms: C_2  and  C_3 
REMARK    3  A    between atoms: C_2  and  N_4 
REMARK       I    between atoms: N_4  and  C_5 
REMARK       I    between atoms: C_5  and  N_7 
REMARK    4  A    between atoms: C_15  and  C_17 
REMARK    5  A    between atoms: C_19  and  C_22 
REMARK    6  A    between atoms: C_26  and  N_28 
ROOT
ATOM      1  N   LIG d   1      10.921   5.003  -0.883  0.00  0.00    -0.297 N 
ATOM      2  C   LIG d   1      10.275   5.095  -2.063  0.00  0.00     0.303 C 
ATOM      3  O   LIG d   1       9.630   6.091  -2.328  0.00  0.00    -0.253 OA
ATOM      4  N   LIG d   1      10.346   4.082  -2.950  0.00  0.00    -0.268 N 
ATOM      5  C   LIG d   1      11.028   2.821  -2.605  0.00  0.00     0.059 C 
ATOM      6  C   LIG d   1      11.872   2.431  -3.792  0.00  0.00     0.056 A 
ATOM      7  C   LIG d   1      11.791   3.016  -5.006  0.00  0.00     0.066 A 
ATOM      8  N   LIG d   1      12.677   2.417  -5.809  0.00  0.00    -0.240 NA
ATOM      9  C   LIG d   1      13.303   1.487  -5.138  0.00  0.00     0.094 A 
ATOM     10  N   LIG d   1      12.827   1.466  -3.872  0.00  0.00    -0.347 N 
ATOM     11  C   LIG d   1      10.854   4.148  -5.345  0.00  0.00     0.019 C 
ATOM     12  C   LIG d   1       9.741   4.205  -4.285  0.00  0.00     0.112 C 
ATOM     13  H   LIG d   1       9.211   5.155  -4.359  0.00  0.00     0.060 H 
ATOM     14  H   LIG d   1      11.373   4.181  -0.640  0.00  0.00     0.150 HD
ATOM     15  H   LIG d   1      11.661   2.969  -1.731  0.00  0.00     0.053 H 
ATOM     16  H   LIG d   1      10.289   2.045  -2.402  0.00  0.00     0.053 H 
ATOM     17  H   LIG d   1      14.074   0.840  -5.531  0.00  0.00     0.103 H 
ATOM     18  H   LIG d   1      11.405   5.089  -5.349  0.00  0.00     0.035 H 
ATOM     19  H   LIG d   1      10.414   3.976  -6.327  0.00  0.00     0.035 H 
ATOM     20  H   LIG d   1      13.114   0.876  -3.157  0.00  0.00     0.167 HD
ENDROOT
BRANCH  12  21
ATOM     21  C   LIG d   1       8.773   3.071  -4.504  0.00  0.00     0.249 A 
ATOM     22  O   LIG d   1       8.606   2.396  -5.650  0.00  0.00    -0.336 OA
ATOM     23  N   LIG d   1       7.603   1.423  -5.398  0.00  0.00    -0.056 NA
ATOM     24  C   LIG d   1       7.236   1.581  -4.150  0.00  0.00     0.202 A 
ATOM     25  N   LIG d   1       7.954   2.586  -3.616  0.00  0.00    -0.190 NA
BRANCH  24  26
ATOM     26  C   LIG d   1       6.202   0.785  -3.444  0.00  0.00     0.029 A 
ATOM     27  C   LIG d   1       5.978  -0.543  -3.801  0.00  0.00     0.026 A 
ATOM     28  C   LIG d   1       5.018  -1.280  -3.136  0.00  0.00     0.274 A 
ATOM     29  H   LIG d   1       6.556  -0.996  -4.592  0.00  0.00     0.069 H 
ATOM     30  C   LIG d   1       4.272  -0.700  -2.127  0.00  0.00     0.016 A 
ATOM     31  C   LIG d   1       4.487   0.620  -1.773  0.00  0.00    -0.055 A 
ATOM     32  H   LIG d   1       3.520  -1.279  -1.614  0.00  0.00     0.069 H 
ATOM     33  C   LIG d   1       5.448   1.364  -2.426  0.00  0.00    -0.051 A 
ATOM     34  H   LIG d   1       3.901   1.069  -0.984  0.00  0.00     0.062 H 
ATOM     35  H   LIG d   1       5.615   2.395  -2.148  0.00  0.00     0.062 H 
BRANCH  28  36
ATOM     36  N   LIG d   1       4.783  -2.693  -3.510  0.00  0.00     0.080 N 
ATOM     37  O   LIG d   1       3.876  -3.311  -3.001  0.00  0.00     0.041 OA
ATOM     38  O   LIG d   1       5.500  -3.231  -4.322  0.00  0.00    -0.576 OA
ENDBRANCH  28  36
ENDBRANCH  24  26
ENDBRANCH  12  21
BRANCH   1  39
ATOM     39  C   LIG d   1      10.937   6.147   0.033  0.00  0.00     0.019 C 
ATOM     40  H   LIG d   1      10.057   6.765  -0.141  0.00  0.00     0.049 H 
BRANCH  39  41
ATOM     41  C   LIG d   1      10.929   5.642   1.478  0.00  0.00    -0.047 C 
ATOM     42  H   LIG d   1      11.842   5.965   1.980  0.00  0.00     0.025 H 
ATOM     43  H   LIG d   1      10.064   6.050   2.000  0.00  0.00     0.025 H 
ATOM     44  H   LIG d   1      10.877   4.554   1.482  0.00  0.00     0.025 H 
ENDBRANCH  39  41
BRANCH  39  45
ATOM     45  C   LIG d   1      12.199   6.977  -0.210  0.00  0.00    -0.047 C 
ATOM     46  H   LIG d   1      12.190   7.850   0.443  0.00  0.00     0.025 H 
ATOM     47  H   LIG d   1      13.079   6.372   0.007  0.00  0.00     0.025 H 
ATOM     48  H   LIG d   1      12.226   7.301  -1.250  0.00  0.00     0.025 H 
ENDBRANCH  39  45
ENDBRANCH   1  39
TORSDOF 6
ENDMDL
MODEL 2
REMARK VINA RESULT:      -6.5      7.184      9.859
REMARK  6 active torsions:
REMARK  status: ('A' for Active; 'I' for Inactive)
REMARK    1  A    between atoms: C_1  and  C_2 
REMARK    2  A    between atoms: C_2  and  C_3 
REMARK    3  A    between atoms: C_2  and  N_4 
REMARK       I    between atoms: N_4  and  C_5 
REMARK       I    between atoms: C_5  and  N_7 
REMARK    4  A    between atoms: C_15  and  C_17 
REMARK    5  A    between atoms: C_19  and  C_22 
REMARK    6  A    between atoms: C_26  and  N_28 
ROOT
ATOM      1  N   LIG d   1       3.938  -0.420  -4.509  0.00  0.00    -0.297 N 
ATOM      2  C   LIG d   1       3.160  -0.025  -5.537  0.00  0.00     0.303 C 
ATOM      3  O   LIG d   1       2.007   0.305  -5.336  0.00  0.00    -0.253 OA
ATOM      4  N   LIG d   1       3.661   0.004  -6.788  0.00  0.00    -0.268 N 
ATOM      5  C   LIG d   1       5.018  -0.498  -7.071  0.00  0.00     0.059 C 
ATOM      6  C   LIG d   1       5.681   0.499  -7.988  0.00  0.00     0.056 A 
ATOM      7  C   LIG d   1       5.033   1.510  -8.606  0.00  0.00     0.066 A 
ATOM      8  N   LIG d   1       5.928   2.184  -9.336  0.00  0.00    -0.240 NA
ATOM      9  C   LIG d   1       7.103   1.632  -9.191  0.00  0.00     0.094 A 
ATOM     10  N   LIG d   1       6.989   0.575  -8.354  0.00  0.00    -0.347 N 
ATOM     11  C   LIG d   1       3.558   1.791  -8.461  0.00  0.00     0.019 C 
ATOM     12  C   LIG d   1       2.866   0.533  -7.907  0.00  0.00     0.112 C 
ATOM     13  H   LIG d   1       1.867   0.790  -7.555  0.00  0.00     0.060 H 
ATOM     14  H   LIG d   1       4.832  -0.753  -4.678  0.00  0.00     0.150 HD
ATOM     15  H   LIG d   1       5.583  -0.583  -6.143  0.00  0.00     0.053 H 
ATOM     16  H   LIG d   1       4.958  -1.470  -7.561  0.00  0.00     0.053 H 
ATOM     17  H   LIG d   1       8.016   1.964  -9.663  0.00  0.00     0.103 H 
ATOM     18  H   LIG d   1       3.411   2.623  -7.772  0.00  0.00     0.035 H 
ATOM     19  H   LIG d   1       3.136   2.040  -9.434  0.00  0.00     0.035 H 
ATOM     20  H   LIG d   1       7.704  -0.015  -8.068  0.00  0.00     0.167 HD
ENDROOT
BRANCH  12  21
ATOM     21  C   LIG d   1       2.766  -0.509  -8.990  0.00  0.00     0.249 A 
ATOM     22  O   LIG d   1       2.624  -1.827  -8.797  0.00  0.00    -0.336 OA
ATOM     23  N   LIG d   1       2.572  -2.418 -10.087  0.00  0.00    -0.056 NA
ATOM     24  C   LIG d   1       2.692  -1.438 -10.949  0.00  0.00     0.202 A 
ATOM     25  N   LIG d   1       2.809  -0.282 -10.272  0.00  0.00    -0.190 NA
BRANCH  24  26
ATOM     26  C   LIG d   1       2.698  -1.581 -12.426  0.00  0.00     0.029 A 
ATOM     27  C   LIG d   1       3.660  -0.924 -13.189  0.00  0.00     0.026 A 
ATOM     28  C   LIG d   1       3.663  -1.067 -14.563  0.00  0.00     0.274 A 
ATOM     29  H   LIG d   1       4.406  -0.309 -12.708  0.00  0.00     0.069 H 
ATOM     30  C   LIG d   1       2.705  -1.849 -15.182  0.00  0.00     0.016 A 
ATOM     31  C   LIG d   1       1.744  -2.499 -14.429  0.00  0.00    -0.055 A 
ATOM     32  H   LIG d   1       2.709  -1.954 -16.256  0.00  0.00     0.069 H 
ATOM     33  C   LIG d   1       1.735  -2.369 -13.056  0.00  0.00    -0.051 A 
ATOM     34  H   LIG d   1       0.998  -3.109 -14.918  0.00  0.00     0.062 H 
ATOM     35  H   LIG d   1       0.984  -2.877 -12.469  0.00  0.00     0.062 H 
BRANCH  28  36
ATOM     36  N   LIG d   1       4.690  -0.375 -15.375  0.00  0.00     0.080 N 
ATOM     37  O   LIG d   1       5.838  -0.752 -15.346  0.00  0.00     0.041 OA
ATOM     38  O   LIG d   1       4.380   0.568 -16.065  0.00  0.00    -0.576 OA
ENDBRANCH  28  36
ENDBRANCH  24  26
ENDBRANCH  12  21
BRANCH   1  39
ATOM     39  C   LIG d   1       3.430  -0.345  -3.136  0.00  0.00     0.019 C 
ATOM     40  H   LIG d   1       2.342  -0.285  -3.154  0.00  0.00     0.049 H 
BRANCH  39  41
ATOM     41  C   LIG d   1       3.860  -1.595  -2.365  0.00  0.00    -0.047 C 
ATOM     42  H   LIG d   1       3.064  -2.338  -2.407  0.00  0.00     0.025 H 
ATOM     43  H   LIG d   1       4.765  -2.006  -2.815  0.00  0.00     0.025 H 
ATOM     44  H   LIG d   1       4.058  -1.331  -1.327  0.00  0.00     0.025 H 
ENDBRANCH  39  41
BRANCH  39  45
ATOM     45  C   LIG d   1       3.999   0.898  -2.449  0.00  0.00    -0.047 C 
ATOM     46  H   LIG d   1       3.233   1.674  -2.411  0.00  0.00     0.025 H 
ATOM     47  H   LIG d   1       4.307   0.644  -1.435  0.00  0.00     0.025 H 
ATOM     48  H   LIG d   1       4.858   1.264  -3.011  0.00  0.00     0.025 H 
ENDBRANCH  39  45
ENDBRANCH   1  39
TORSDOF 6
ENDMDL
MODEL 3
REMARK VINA RESULT:      -6.4      4.910      7.274
REMARK  6 active torsions:
REMARK  status: ('A' for Active; 'I' for Inactive)
REMARK    1  A    between atoms: C_1  and  C_2 
REMARK    2  A    between atoms: C_2  and  C_3 
REMARK    3  A    between atoms: C_2  and  N_4 
REMARK       I    between atoms: N_4  and  C_5 
REMARK       I    between atoms: C_5  and  N_7 
REMARK    4  A    between atoms: C_15  and  C_17 
REMARK    5  A    between atoms: C_19  and  C_22 
REMARK    6  A    between atoms: C_26  and  N_28 
ROOT
ATOM      1  N   LIG d   1      11.746  -2.263  -3.879  0.00  0.00    -0.297 N 
ATOM      2  C   LIG d   1      10.942  -2.842  -4.792  0.00  0.00     0.303 C 
ATOM      3  O   LIG d   1      11.076  -2.583  -5.972  0.00  0.00    -0.253 OA
ATOM      4  N   LIG d   1       9.987  -3.708  -4.397  0.00  0.00    -0.268 N 
ATOM      5  C   LIG d   1       9.732  -3.950  -2.965  0.00  0.00     0.059 C 
ATOM      6  C   LIG d   1       9.579  -5.439  -2.784  0.00  0.00     0.056 A 
ATOM      7  C   LIG d   1       9.454  -6.318  -3.801  0.00  0.00     0.066 A 
ATOM      8  N   LIG d   1       9.336  -7.541  -3.272  0.00  0.00    -0.240 NA
ATOM      9  C   LIG d   1       9.385  -7.452  -1.969  0.00  0.00     0.094 A 
ATOM     10  N   LIG d   1       9.536  -6.152  -1.626  0.00  0.00    -0.347 N 
ATOM     11  C   LIG d   1       9.461  -5.939  -5.261  0.00  0.00     0.019 C 
ATOM     12  C   LIG d   1       9.171  -4.433  -5.383  0.00  0.00     0.112 C 
ATOM     13  H   LIG d   1       9.423  -4.091  -6.386  0.00  0.00     0.060 H 
ATOM     14  H   LIG d   1      11.591  -2.411  -2.933  0.00  0.00     0.150 HD
ATOM     15  H   LIG d   1      10.571  -3.588  -2.372  0.00  0.00     0.053 H 
ATOM     16  H   LIG d   1       8.815  -3.443  -2.662  0.00  0.00     0.053 H 
ATOM     17  H   LIG d   1       9.314  -8.280  -1.280  0.00  0.00     0.103 H 
ATOM     18  H   LIG d   1      10.438  -6.160  -5.691  0.00  0.00     0.035 H 
ATOM     19  H   LIG d   1       8.691  -6.502  -5.788  0.00  0.00     0.035 H 
ATOM     20  H   LIG d   1       9.604  -5.797  -0.726  0.00  0.00     0.167 HD
ENDROOT
BRANCH  12  21
ATOM     21  C   LIG d   1       7.711  -4.174  -5.114  0.00  0.00     0.249 A 
ATOM     22  O   LIG d   1       6.711  -5.040  -5.328  0.00  0.00    -0.336 OA
ATOM     23  N   LIG d   1       5.518  -4.378  -4.934  0.00  0.00    -0.056 NA
ATOM     24  C   LIG d   1       5.872  -3.184  -4.528  0.00  0.00     0.202 A 
ATOM     25  N   LIG d   1       7.208  -3.070  -4.641  0.00  0.00    -0.190 NA
BRANCH  24  26
ATOM     26  C   LIG d   1       4.952  -2.133  -4.025  0.00  0.00     0.029 A 
ATOM     27  C   LIG d   1       4.321  -1.271  -4.919  0.00  0.00     0.026 A 
ATOM     28  C   LIG d   1       3.462  -0.299  -4.445  0.00  0.00     0.274 A 
ATOM     29  H   LIG d   1       4.499  -1.365  -5.979  0.00  0.00     0.069 H 
ATOM     30  C   LIG d   1       3.238  -0.173  -3.086  0.00  0.00     0.016 A 
ATOM     31  C   LIG d   1       3.866  -1.023  -2.195  0.00  0.00    -0.055 A 
ATOM     32  H   LIG d   1       2.569   0.591  -2.721  0.00  0.00     0.069 H 
ATOM     33  C   LIG d   1       4.722  -2.002  -2.657  0.00  0.00    -0.051 A 
ATOM     34  H   LIG d   1       3.688  -0.920  -1.134  0.00  0.00     0.062 H 
ATOM     35  H   LIG d   1       5.213  -2.665  -1.960  0.00  0.00     0.062 H 
BRANCH  28  36
ATOM     36  N   LIG d   1       2.785   0.614  -5.394  0.00  0.00     0.080 N 
ATOM     37  O   LIG d   1       2.542   0.244  -6.519  0.00  0.00     0.041 OA
ATOM     38  O   LIG d   1       2.476   1.729  -5.044  0.00  0.00    -0.576 OA
ENDBRANCH  28  36
ENDBRANCH  24  26
ENDBRANCH  12  21
BRANCH   1  39
ATOM     39  C   LIG d   1      12.854  -1.409  -4.315  0.00  0.00     0.019 C 
ATOM     40  H   LIG d   1      13.020  -1.547  -5.383  0.00  0.00     0.049 H 
BRANCH  39  41
ATOM     41  C   LIG d   1      12.509   0.055  -4.038  0.00  0.00    -0.047 C 
ATOM     42  H   LIG d   1      11.784   0.403  -4.774  0.00  0.00     0.025 H 
ATOM     43  H   LIG d   1      12.084   0.146  -3.038  0.00  0.00     0.025 H 
ATOM     44  H   LIG d   1      13.413   0.660  -4.104  0.00  0.00     0.025 H 
ENDBRANCH  39  41
BRANCH  39  45
ATOM     45  C   LIG d   1      14.123  -1.788  -3.549  0.00  0.00    -0.047 C 
ATOM     46  H   LIG d   1      14.162  -1.229  -2.614  0.00  0.00     0.025 H 
ATOM     47  H   LIG d   1      14.111  -2.856  -3.332  0.00  0.00     0.025 H 
ATOM     48  H   LIG d   1      14.997  -1.548  -4.153  0.00  0.00     0.025 H 
ENDBRANCH  39  45
ENDBRANCH   1  39
TORSDOF 6
ENDMDL
MODEL 4
REMARK VINA RESULT:      -6.4      5.505      8.210
REMARK  6 active torsions:
REMARK  status: ('A' for Active; 'I' for Inactive)
REMARK    1  A    between atoms: C_1  and  C_2 
REMARK    2  A    between atoms: C_2  and  C_3 
REMARK    3  A    between atoms: C_2  and  N_4 
REMARK       I    between atoms: N_4  and  C_5 
REMARK       I    between atoms: C_5  and  N_7 
REMARK    4  A    between atoms: C_15  and  C_17 
REMARK    5  A    between atoms: C_19  and  C_22 
REMARK    6  A    between atoms: C_26  and  N_28 
ROOT
ATOM      1  N   LIG d   1       4.583   0.645  -8.045  0.00  0.00    -0.297 N 
ATOM      2  C   LIG d   1       5.708   0.591  -7.305  0.00  0.00     0.303 C 
ATOM      3  O   LIG d   1       6.630   1.346  -7.543  0.00  0.00    -0.253 OA
ATOM      4  N   LIG d   1       5.811  -0.303  -6.301  0.00  0.00    -0.268 N 
ATOM      5  C   LIG d   1       4.754  -1.303  -6.066  0.00  0.00     0.059 C 
ATOM      6  C   LIG d   1       4.503  -1.348  -4.580  0.00  0.00     0.056 A 
ATOM      7  C   LIG d   1       5.293  -0.757  -3.659  0.00  0.00     0.066 A 
ATOM      8  N   LIG d   1       4.773  -1.006  -2.453  0.00  0.00    -0.240 NA
ATOM      9  C   LIG d   1       3.691  -1.727  -2.593  0.00  0.00     0.094 A 
ATOM     10  N   LIG d   1       3.490  -1.960  -3.910  0.00  0.00    -0.347 N 
ATOM     11  C   LIG d   1       6.531   0.041  -3.985  0.00  0.00     0.019 C 
ATOM     12  C   LIG d   1       6.984  -0.307  -5.413  0.00  0.00     0.112 C 
ATOM     13  H   LIG d   1       7.706   0.431  -5.760  0.00  0.00     0.060 H 
ATOM     14  H   LIG d   1       3.878  -0.005  -7.904  0.00  0.00     0.150 HD
ATOM     15  H   LIG d   1       3.843  -1.009  -6.588  0.00  0.00     0.053 H 
ATOM     16  H   LIG d   1       5.084  -2.281  -6.418  0.00  0.00     0.053 H 
ATOM     17  H   LIG d   1       3.062  -2.079  -1.788  0.00  0.00     0.103 H 
ATOM     18  H   LIG d   1       6.306   1.106  -3.921  0.00  0.00     0.035 H 
ATOM     19  H   LIG d   1       7.323  -0.210  -3.280  0.00  0.00     0.035 H 
ATOM     20  H   LIG d   1       2.761  -2.466  -4.301  0.00  0.00     0.167 HD
ENDROOT
BRANCH  12  21
ATOM     21  C   LIG d   1       7.617  -1.675  -5.424  0.00  0.00     0.249 A 
ATOM     22  O   LIG d   1       7.982  -2.360  -6.517  0.00  0.00    -0.336 OA
ATOM     23  N   LIG d   1       8.532  -3.585  -6.056  0.00  0.00    -0.056 NA
ATOM     24  C   LIG d   1       8.455  -3.559  -4.748  0.00  0.00     0.202 A 
ATOM     25  N   LIG d   1       7.898  -2.392  -4.374  0.00  0.00    -0.190 NA
BRANCH  24  26
ATOM     26  C   LIG d   1       8.908  -4.635  -3.833  0.00  0.00     0.029 A 
ATOM     27  C   LIG d   1       8.739  -5.972  -4.187  0.00  0.00     0.026 A 
ATOM     28  C   LIG d   1       9.168  -6.968  -3.333  0.00  0.00     0.274 A 
ATOM     29  H   LIG d   1       8.278  -6.228  -5.129  0.00  0.00     0.069 H 
ATOM     30  C   LIG d   1       9.753  -6.642  -2.123  0.00  0.00     0.016 A 
ATOM     31  C   LIG d   1       9.918  -5.317  -1.764  0.00  0.00    -0.055 A 
ATOM     32  H   LIG d   1      10.083  -7.425  -1.458  0.00  0.00     0.069 H 
ATOM     33  C   LIG d   1       9.498  -4.313  -2.612  0.00  0.00    -0.051 A 
ATOM     34  H   LIG d   1      10.375  -5.067  -0.818  0.00  0.00     0.062 H 
ATOM     35  H   LIG d   1       9.628  -3.277  -2.330  0.00  0.00     0.062 H 
BRANCH  28  36
ATOM     36  N   LIG d   1       8.996  -8.389  -3.712  0.00  0.00     0.080 N 
ATOM     37  O   LIG d   1       7.887  -8.865  -3.786  0.00  0.00     0.041 OA
ATOM     38  O   LIG d   1       9.964  -9.075  -3.945  0.00  0.00    -0.576 OA
ENDBRANCH  28  36
ENDBRANCH  24  26
ENDBRANCH  12  21
BRANCH   1  39
ATOM     39  C   LIG d   1       4.425   1.688  -9.062  0.00  0.00     0.019 C 
ATOM     40  H   LIG d   1       5.297   2.342  -9.050  0.00  0.00     0.049 H 
BRANCH  39  41
ATOM     41  C   LIG d   1       4.294   1.039 -10.442  0.00  0.00    -0.047 C 
ATOM     42  H   LIG d   1       5.227   0.534 -10.694  0.00  0.00     0.025 H 
ATOM     43  H   LIG d   1       3.480   0.314 -10.426  0.00  0.00     0.025 H 
ATOM     44  H   LIG d   1       4.084   1.807 -11.186  0.00  0.00     0.025 H 
ENDBRANCH  39  41
BRANCH  39  45
ATOM     45  C   LIG d   1       3.168   2.507  -8.763  0.00  0.00    -0.047 C 
ATOM     46  H   LIG d   1       2.294   1.857  -8.800  0.00  0.00     0.025 H 
ATOM     47  H   LIG d   1       3.250   2.948  -7.770  0.00  0.00     0.025 H 
ATOM     48  H   LIG d   1       3.064   3.298  -9.506  0.00  0.00     0.025 H 
ENDBRANCH  39  45
ENDBRANCH   1  39
TORSDOF 6
ENDMDL
MODEL 5
REMARK VINA RESULT:      -6.4      1.777      2.230
REMARK  6 active torsions:
REMARK  status: ('A' for Active; 'I' for Inactive)
REMARK    1  A    between atoms: C_1  and  C_2 
REMARK    2  A    between atoms: C_2  and  C_3 
REMARK    3  A    between atoms: C_2  and  N_4 
REMARK       I    between atoms: N_4  and  C_5 
REMARK       I    between atoms: C_5  and  N_7 
REMARK    4  A    between atoms: C_15  and  C_17 
REMARK    5  A    between atoms: C_19  and  C_22 
REMARK    6  A    between atoms: C_26  and  N_28 
ROOT
ATOM      1  N   LIG d   1      11.061   5.771  -0.957  0.00  0.00    -0.297 N 
ATOM      2  C   LIG d   1      10.301   5.878  -2.065  0.00  0.00     0.303 C 
ATOM      3  O   LIG d   1       9.345   6.629  -2.077  0.00  0.00    -0.253 OA
ATOM      4  N   LIG d   1      10.601   5.152  -3.160  0.00  0.00    -0.268 N 
ATOM      5  C   LIG d   1      11.685   4.153  -3.132  0.00  0.00     0.059 C 
ATOM      6  C   LIG d   1      12.481   4.321  -4.401  0.00  0.00     0.056 A 
ATOM      7  C   LIG d   1      12.089   5.079  -5.448  0.00  0.00     0.066 A 
ATOM      8  N   LIG d   1      13.032   4.990  -6.392  0.00  0.00    -0.240 NA
ATOM      9  C   LIG d   1      13.992   4.211  -5.969  0.00  0.00     0.094 A 
ATOM     10  N   LIG d   1      13.683   3.773  -4.727  0.00  0.00    -0.347 N 
ATOM     11  C   LIG d   1      10.808   5.872  -5.492  0.00  0.00     0.019 C 
ATOM     12  C   LIG d   1       9.852   5.333  -4.413  0.00  0.00     0.112 C 
ATOM     13  H   LIG d   1       9.041   6.042  -4.254  0.00  0.00     0.060 H 
ATOM     14  H   LIG d   1      11.778   5.120  -0.921  0.00  0.00     0.150 HD
ATOM     15  H   LIG d   1      12.325   4.325  -2.266  0.00  0.00     0.053 H 
ATOM     16  H   LIG d   1      11.262   3.149  -3.088  0.00  0.00     0.053 H 
ATOM     17  H   LIG d   1      14.884   3.956  -6.522  0.00  0.00     0.103 H 
ATOM     18  H   LIG d   1      11.022   6.923  -5.299  0.00  0.00     0.035 H 
ATOM     19  H   LIG d   1      10.346   5.765  -6.474  0.00  0.00     0.035 H 
ATOM     20  H   LIG d   1      14.217   3.182  -4.174  0.00  0.00     0.167 HD
ENDROOT
BRANCH  12  21
ATOM     21  C   LIG d   1       9.285   4.008  -4.855  0.00  0.00     0.249 A 
ATOM     22  O   LIG d   1       9.282   3.537  -6.109  0.00  0.00    -0.336 OA
ATOM     23  N   LIG d   1       8.654   2.265  -6.058  0.00  0.00    -0.056 NA
ATOM     24  C   LIG d   1       8.321   2.065  -4.807  0.00  0.00     0.202 A 
ATOM     25  N   LIG d   1       8.709   3.131  -4.083  0.00  0.00    -0.190 NA
BRANCH  24  26
ATOM     26  C   LIG d   1       7.631   0.863  -4.276  0.00  0.00     0.029 A 
ATOM     27  C   LIG d   1       6.552   1.003  -3.406  0.00  0.00     0.026 A 
ATOM     28  C   LIG d   1       5.910  -0.120  -2.922  0.00  0.00     0.274 A 
ATOM     29  H   LIG d   1       6.215   1.986  -3.116  0.00  0.00     0.069 H 
ATOM     30  C   LIG d   1       6.345  -1.381  -3.288  0.00  0.00     0.016 A 
ATOM     31  C   LIG d   1       7.419  -1.525  -4.148  0.00  0.00    -0.055 A 
ATOM     32  H   LIG d   1       5.843  -2.255  -2.903  0.00  0.00     0.069 H 
ATOM     33  C   LIG d   1       8.063  -0.410  -4.643  0.00  0.00    -0.051 A 
ATOM     34  H   LIG d   1       7.755  -2.512  -4.431  0.00  0.00     0.062 H 
ATOM     35  H   LIG d   1       8.903  -0.523  -5.314  0.00  0.00     0.062 H 
BRANCH  28  36
ATOM     36  N   LIG d   1       4.760   0.027  -2.002  0.00  0.00     0.080 N 
ATOM     37  O   LIG d   1       4.671   1.003  -1.295  0.00  0.00     0.041 OA
ATOM     38  O   LIG d   1       3.908  -0.831  -1.958  0.00  0.00    -0.576 OA
ENDBRANCH  28  36
ENDBRANCH  24  26
ENDBRANCH  12  21
BRANCH   1  39
ATOM     39  C   LIG d   1      10.804   6.641   0.194  0.00  0.00     0.019 C 
ATOM     40  H   LIG d   1       9.778   7.004   0.153  0.00  0.00     0.049 H 
BRANCH  39  41
ATOM     41  C   LIG d   1      11.015   5.851   1.487  0.00  0.00    -0.047 C 
ATOM     42  H   LIG d   1      11.651   4.989   1.286  0.00  0.00     0.025 H 
ATOM     43  H   LIG d   1      11.492   6.490   2.230  0.00  0.00     0.025 H 
ATOM     44  H   LIG d   1      10.051   5.511   1.866  0.00  0.00     0.025 H 
ENDBRANCH  39  41
BRANCH  39  45
ATOM     45  C   LIG d   1      11.767   7.830   0.161  0.00  0.00    -0.047 C 
ATOM     46  H   LIG d   1      12.785   7.468   0.013  0.00  0.00     0.025 H 
ATOM     47  H   LIG d   1      11.496   8.494  -0.659  0.00  0.00     0.025 H 
ATOM     48  H   LIG d   1      11.708   8.372   1.104  0.00  0.00     0.025 H 
ENDBRANCH  39  45
ENDBRANCH   1  39
TORSDOF 6
ENDMDL
MODEL 6
REMARK VINA RESULT:      -6.4      6.336      8.942
REMARK  6 active torsions:
REMARK  status: ('A' for Active; 'I' for Inactive)
REMARK    1  A    between atoms: C_1  and  C_2 
REMARK    2  A    between atoms: C_2  and  C_3 
REMARK    3  A    between atoms: C_2  and  N_4 
REMARK       I    between atoms: N_4  and  C_5 
REMARK       I    between atoms: C_5  and  N_7 
REMARK    4  A    between atoms: C_15  and  C_17 
REMARK    5  A    between atoms: C_19  and  C_22 
REMARK    6  A    between atoms: C_26  and  N_28 
ROOT
ATOM      1  N   LIG d   1       3.957  -0.530  -4.605  0.00  0.00    -0.297 N 
ATOM      2  C   LIG d   1       3.193   0.009  -5.575  0.00  0.00     0.303 C 
ATOM      3  O   LIG d   1       2.112   0.492  -5.301  0.00  0.00    -0.253 OA
ATOM      4  N   LIG d   1       3.627   0.012  -6.852  0.00  0.00    -0.268 N 
ATOM      5  C   LIG d   1       4.881  -0.667  -7.225  0.00  0.00     0.059 C 
ATOM      6  C   LIG d   1       5.633   0.259  -8.148  0.00  0.00     0.056 A 
ATOM      7  C   LIG d   1       5.106   1.373  -8.700  0.00  0.00     0.066 A 
ATOM      8  N   LIG d   1       6.050   1.939  -9.459  0.00  0.00    -0.240 NA
ATOM      9  C   LIG d   1       7.140   1.221  -9.396  0.00  0.00     0.094 A 
ATOM     10  N   LIG d   1       6.918   0.161  -8.586  0.00  0.00    -0.347 N 
ATOM     11  C   LIG d   1       3.697   1.855  -8.463  0.00  0.00     0.019 C 
ATOM     12  C   LIG d   1       2.860   0.690  -7.908  0.00  0.00     0.112 C 
ATOM     13  H   LIG d   1       1.928   1.072  -7.493  0.00  0.00     0.060 H 
ATOM     14  H   LIG d   1       4.785  -0.981  -4.833  0.00  0.00     0.150 HD
ATOM     15  H   LIG d   1       5.475  -0.866  -6.333  0.00  0.00     0.053 H 
ATOM     16  H   LIG d   1       4.657  -1.602  -7.739  0.00  0.00     0.053 H 
ATOM     17  H   LIG d   1       8.065   1.437  -9.910  0.00  0.00     0.103 H 
ATOM     18  H   LIG d   1       3.707   2.675  -7.744  0.00  0.00     0.035 H 
ATOM     19  H   LIG d   1       3.266   2.198  -9.404  0.00  0.00     0.035 H 
ATOM     20  H   LIG d   1       7.554  -0.535  -8.358  0.00  0.00     0.167 HD
ENDROOT
BRANCH  12  21
ATOM     21  C   LIG d   1       2.555  -0.288  -9.014  0.00  0.00     0.249 A 
ATOM     22  O   LIG d   1       2.490   0.004 -10.320  0.00  0.00    -0.336 OA
ATOM     23  N   LIG d   1       2.182  -1.211 -10.986  0.00  0.00    -0.056 NA
ATOM     24  C   LIG d   1       2.077  -2.129 -10.057  0.00  0.00     0.202 A 
ATOM     25  N   LIG d   1       2.306  -1.557  -8.861  0.00  0.00    -0.190 NA
BRANCH  24  26
ATOM     26  C   LIG d   1       1.759  -3.560 -10.286  0.00  0.00     0.029 A 
ATOM     27  C   LIG d   1       2.662  -4.548  -9.901  0.00  0.00     0.026 A 
ATOM     28  C   LIG d   1       2.357  -5.878 -10.112  0.00  0.00     0.274 A 
ATOM     29  H   LIG d   1       3.596  -4.275  -9.435  0.00  0.00     0.069 H 
ATOM     30  C   LIG d   1       1.163  -6.229 -10.715  0.00  0.00     0.016 A 
ATOM     31  C   LIG d   1       0.265  -5.252 -11.104  0.00  0.00    -0.055 A 
ATOM     32  H   LIG d   1       0.931  -7.270 -10.882  0.00  0.00     0.069 H 
ATOM     33  C   LIG d   1       0.557  -3.920 -10.893  0.00  0.00    -0.051 A 
ATOM     34  H   LIG d   1      -0.666  -5.532 -11.575  0.00  0.00     0.062 H 
ATOM     35  H   LIG d   1      -0.146  -3.157 -11.197  0.00  0.00     0.062 H 
BRANCH  28  36
ATOM     36  N   LIG d   1       3.313  -6.929  -9.698  0.00  0.00     0.080 N 
ATOM     37  O   LIG d   1       3.082  -7.606  -8.723  0.00  0.00     0.041 OA
ATOM     38  O   LIG d   1       4.326  -7.110 -10.333  0.00  0.00    -0.576 OA
ENDBRANCH  28  36
ENDBRANCH  24  26
ENDBRANCH  12  21
BRANCH   1  39
ATOM     39  C   LIG d   1       3.538  -0.435  -3.204  0.00  0.00     0.019 C 
ATOM     40  H   LIG d   1       2.470  -0.222  -3.159  0.00  0.00     0.049 H 
BRANCH  39  41
ATOM     41  C   LIG d   1       3.825  -1.759  -2.495  0.00  0.00    -0.047 C 
ATOM     42  H   LIG d   1       2.988  -2.011  -1.844  0.00  0.00     0.025 H 
ATOM     43  H   LIG d   1       3.959  -2.547  -3.236  0.00  0.00     0.025 H 
ATOM     44  H   LIG d   1       4.733  -1.662  -1.899  0.00  0.00     0.025 H 
ENDBRANCH  39  41
BRANCH  39  45
ATOM     45  C   LIG d   1       4.311   0.691  -2.515  0.00  0.00    -0.047 C 
ATOM     46  H   LIG d   1       4.712   0.329  -1.568  0.00  0.00     0.025 H 
ATOM     47  H   LIG d   1       5.132   1.014  -3.157  0.00  0.00     0.025 H 
ATOM     48  H   LIG d   1       3.642   1.531  -2.330  0.00  0.00     0.025 H 
ENDBRANCH  39  45
ENDBRANCH   1  39
TORSDOF 6
ENDMDL
MODEL 7
REMARK VINA RESULT:      -6.3      5.278      8.604
REMARK  6 active torsions:
REMARK  status: ('A' for Active; 'I' for Inactive)
REMARK    1  A    between atoms: C_1  and  C_2 
REMARK    2  A    between atoms: C_2  and  C_3 
REMARK    3  A    between atoms: C_2  and  N_4 
REMARK       I    between atoms: N_4  and  C_5 
REMARK       I    between atoms: C_5  and  N_7 
REMARK    4  A    between atoms: C_15  and  C_17 
REMARK    5  A    between atoms: C_19  and  C_22 
REMARK    6  A    between atoms: C_26  and  N_28 
ROOT
ATOM      1  N   LIG d   1       7.567  -3.915  -5.363  0.00  0.00    -0.297 N 
ATOM      2  C   LIG d   1       6.358  -3.417  -5.036  0.00  0.00     0.303 C 
ATOM      3  O   LIG d   1       5.484  -4.157  -4.628  0.00  0.00    -0.253 OA
ATOM      4  N   LIG d   1       6.116  -2.096  -5.161  0.00  0.00    -0.268 N 
ATOM      5  C   LIG d   1       7.121  -1.197  -5.758  0.00  0.00     0.059 C 
ATOM      6  C   LIG d   1       7.185   0.038  -4.896  0.00  0.00     0.056 A 
ATOM      7  C   LIG d   1       6.297   0.330  -3.922  0.00  0.00     0.066 A 
ATOM      8  N   LIG d   1       6.660   1.494  -3.373  0.00  0.00    -0.240 NA
ATOM      9  C   LIG d   1       7.739   1.931  -3.967  0.00  0.00     0.094 A 
ATOM     10  N   LIG d   1       8.098   1.047  -4.925  0.00  0.00    -0.347 N 
ATOM     11  C   LIG d   1       5.122  -0.540  -3.552  0.00  0.00     0.019 C 
ATOM     12  C   LIG d   1       4.843  -1.516  -4.708  0.00  0.00     0.112 C 
ATOM     13  H   LIG d   1       4.181  -2.311  -4.366  0.00  0.00     0.060 H 
ATOM     14  H   LIG d   1       8.238  -3.337  -5.757  0.00  0.00     0.150 HD
ATOM     15  H   LIG d   1       8.094  -1.688  -5.777  0.00  0.00     0.053 H 
ATOM     16  H   LIG d   1       6.821  -0.928  -6.771  0.00  0.00     0.053 H 
ATOM     17  H   LIG d   1       8.257   2.849  -3.733  0.00  0.00     0.103 H 
ATOM     18  H   LIG d   1       5.354  -1.102  -2.647  0.00  0.00     0.035 H 
ATOM     19  H   LIG d   1       4.245   0.084  -3.382  0.00  0.00     0.035 H 
ATOM     20  H   LIG d   1       8.861   1.117  -5.520  0.00  0.00     0.167 HD
ENDROOT
BRANCH  12  21
ATOM     21  C   LIG d   1       4.194  -0.776  -5.850  0.00  0.00     0.249 A 
ATOM     22  O   LIG d   1       3.727   0.479  -5.804  0.00  0.00    -0.336 OA
ATOM     23  N   LIG d   1       3.209   0.760  -7.096  0.00  0.00    -0.056 NA
ATOM     24  C   LIG d   1       3.387  -0.322  -7.812  0.00  0.00     0.202 A 
ATOM     25  N   LIG d   1       3.988  -1.250  -7.045  0.00  0.00    -0.190 NA
BRANCH  24  26
ATOM     26  C   LIG d   1       2.993  -0.495  -9.232  0.00  0.00     0.029 A 
ATOM     27  C   LIG d   1       3.953  -0.416 -10.239  0.00  0.00     0.026 A 
ATOM     28  C   LIG d   1       3.580  -0.584 -11.558  0.00  0.00     0.274 A 
ATOM     29  H   LIG d   1       4.986  -0.230  -9.988  0.00  0.00     0.069 H 
ATOM     30  C   LIG d   1       2.256  -0.816 -11.881  0.00  0.00     0.016 A 
ATOM     31  C   LIG d   1       1.298  -0.890 -10.886  0.00  0.00    -0.055 A 
ATOM     32  H   LIG d   1       1.969  -0.942 -12.914  0.00  0.00     0.069 H 
ATOM     33  C   LIG d   1       1.660  -0.730  -9.564  0.00  0.00    -0.051 A 
ATOM     34  H   LIG d   1       0.265  -1.071 -11.144  0.00  0.00     0.062 H 
ATOM     35  H   LIG d   1       0.911  -0.787  -8.787  0.00  0.00     0.062 H 
BRANCH  28  36
ATOM     36  N   LIG d   1       4.600  -0.508 -12.628  0.00  0.00     0.080 N 
ATOM     37  O   LIG d   1       5.774  -0.585 -12.351  0.00  0.00     0.041 OA
ATOM     38  O   LIG d   1       4.258  -0.367 -13.780  0.00  0.00    -0.576 OA
ENDBRANCH  28  36
ENDBRANCH  24  26
ENDBRANCH  12  21
BRANCH   1  39
ATOM     39  C   LIG d   1       7.866  -5.329  -5.122  0.00  0.00     0.019 C 
ATOM     40  H   LIG d   1       6.970  -5.833  -4.760  0.00  0.00     0.049 H 
BRANCH  39  41
ATOM     41  C   LIG d   1       8.325  -5.982  -6.428  0.00  0.00    -0.047 C 
ATOM     42  H   LIG d   1       8.960  -6.838  -6.201  0.00  0.00     0.025 H 
ATOM     43  H   LIG d   1       7.455  -6.314  -6.994  0.00  0.00     0.025 H 
ATOM     44  H   LIG d   1       8.888  -5.258  -7.017  0.00  0.00     0.025 H 
ENDBRANCH  39  41
BRANCH  39  45
ATOM     45  C   LIG d   1       8.976  -5.445  -4.076  0.00  0.00    -0.047 C 
ATOM     46  H   LIG d   1       9.899  -5.764  -4.560  0.00  0.00     0.025 H 
ATOM     47  H   LIG d   1       9.131  -4.475  -3.602  0.00  0.00     0.025 H 
ATOM     48  H   LIG d   1       8.689  -6.177  -3.322  0.00  0.00     0.025 H 
ENDBRANCH  39  45
ENDBRANCH   1  39
TORSDOF 6
ENDMDL
MODEL 8
REMARK VINA RESULT:      -6.3      2.243      2.500
REMARK  6 active torsions:
REMARK  status: ('A' for Active; 'I' for Inactive)
REMARK    1  A    between atoms: C_1  and  C_2 
REMARK    2  A    between atoms: C_2  and  C_3 
REMARK    3  A    between atoms: C_2  and  N_4 
REMARK       I    between atoms: N_4  and  C_5 
REMARK       I    between atoms: C_5  and  N_7 
REMARK    4  A    between atoms: C_15  and  C_17 
REMARK    5  A    between atoms: C_19  and  C_22 
REMARK    6  A    between atoms: C_26  and  N_28 
ROOT
ATOM      1  N   LIG d   1      10.198   5.315  -3.004  0.00  0.00    -0.297 N 
ATOM      2  C   LIG d   1       9.833   4.619  -4.099  0.00  0.00     0.303 C 
ATOM      3  O   LIG d   1       9.193   5.160  -4.979  0.00  0.00    -0.253 OA
ATOM      4  N   LIG d   1      10.178   3.320  -4.217  0.00  0.00    -0.268 N 
ATOM      5  C   LIG d   1      10.855   2.614  -3.114  0.00  0.00     0.059 C 
ATOM      6  C   LIG d   1      11.973   1.805  -3.721  0.00  0.00     0.056 A 
ATOM      7  C   LIG d   1      12.127   1.598  -5.047  0.00  0.00     0.066 A 
ATOM      8  N   LIG d   1      13.214   0.839  -5.219  0.00  0.00    -0.240 NA
ATOM      9  C   LIG d   1      13.739   0.570  -4.052  0.00  0.00     0.094 A 
ATOM     10  N   LIG d   1      12.990   1.158  -3.091  0.00  0.00    -0.347 N 
ATOM     11  C   LIG d   1      11.211   2.155  -6.108  0.00  0.00     0.019 C 
ATOM     12  C   LIG d   1       9.885   2.572  -5.449  0.00  0.00     0.112 C 
ATOM     13  H   LIG d   1       9.317   3.203  -6.133  0.00  0.00     0.060 H 
ATOM     14  H   LIG d   1      10.644   4.866  -2.270  0.00  0.00     0.150 HD
ATOM     15  H   LIG d   1      11.260   3.336  -2.406  0.00  0.00     0.053 H 
ATOM     16  H   LIG d   1      10.149   1.953  -2.610  0.00  0.00     0.053 H 
ATOM     17  H   LIG d   1      14.624  -0.025  -3.883  0.00  0.00     0.103 H 
ATOM     18  H   LIG d   1      11.677   3.023  -6.574  0.00  0.00     0.035 H 
ATOM     19  H   LIG d   1      11.019   1.391  -6.861  0.00  0.00     0.035 H 
ATOM     20  H   LIG d   1      13.150   1.126  -2.135  0.00  0.00     0.167 HD
ENDROOT
BRANCH  12  21
ATOM     21  C   LIG d   1       9.079   1.344  -5.111  0.00  0.00     0.249 A 
ATOM     22  O   LIG d   1       9.492   0.076  -5.242  0.00  0.00    -0.336 OA
ATOM     23  N   LIG d   1       8.417  -0.742  -4.806  0.00  0.00    -0.056 NA
ATOM     24  C   LIG d   1       7.449   0.070  -4.458  0.00  0.00     0.202 A 
ATOM     25  N   LIG d   1       7.862   1.336  -4.647  0.00  0.00    -0.190 NA
BRANCH  24  26
ATOM     26  C   LIG d   1       6.119  -0.340  -3.942  0.00  0.00     0.029 A 
ATOM     27  C   LIG d   1       4.961   0.240  -4.452  0.00  0.00     0.026 A 
ATOM     28  C   LIG d   1       3.727  -0.150  -3.971  0.00  0.00     0.274 A 
ATOM     29  H   LIG d   1       5.027   0.991  -5.226  0.00  0.00     0.069 H 
ATOM     30  C   LIG d   1       3.640  -1.107  -2.976  0.00  0.00     0.016 A 
ATOM     31  C   LIG d   1       4.788  -1.683  -2.462  0.00  0.00    -0.055 A 
ATOM     32  H   LIG d   1       2.673  -1.405  -2.601  0.00  0.00     0.069 H 
ATOM     33  C   LIG d   1       6.026  -1.305  -2.939  0.00  0.00    -0.051 A 
ATOM     34  H   LIG d   1       4.715  -2.429  -1.684  0.00  0.00     0.062 H 
ATOM     35  H   LIG d   1       6.922  -1.755  -2.537  0.00  0.00     0.062 H 
BRANCH  28  36
ATOM     36  N   LIG d   1       2.494   0.461  -4.518  0.00  0.00     0.080 N 
ATOM     37  O   LIG d   1       1.473  -0.184  -4.575  0.00  0.00     0.041 OA
ATOM     38  O   LIG d   1       2.509   1.606  -4.909  0.00  0.00    -0.576 OA
ENDBRANCH  28  36
ENDBRANCH  24  26
ENDBRANCH  12  21
BRANCH   1  39
ATOM     39  C   LIG d   1       9.922   6.752  -2.925  0.00  0.00     0.019 C 
ATOM     40  H   LIG d   1       9.137   7.011  -3.635  0.00  0.00     0.049 H 
BRANCH  39  41
ATOM     41  C   LIG d   1       9.465   7.106  -1.508  0.00  0.00    -0.047 C 
ATOM     42  H   LIG d   1      10.252   7.665  -1.002  0.00  0.00     0.025 H 
ATOM     43  H   LIG d   1       8.562   7.714  -1.560  0.00  0.00     0.025 H 
ATOM     44  H   LIG d   1       9.255   6.190  -0.955  0.00  0.00     0.025 H 
ENDBRANCH  39  41
BRANCH  39  45
ATOM     45  C   LIG d   1      11.193   7.535  -3.261  0.00  0.00    -0.047 C 
ATOM     46  H   LIG d   1      12.027   7.137  -2.684  0.00  0.00     0.025 H 
ATOM     47  H   LIG d   1      11.408   7.438  -4.325  0.00  0.00     0.025 H 
ATOM     48  H   LIG d   1      11.048   8.587  -3.013  0.00  0.00     0.025 H 
ENDBRANCH  39  45
ENDBRANCH   1  39
TORSDOF 6
ENDMDL
MODEL 9
REMARK VINA RESULT:      -6.2      5.358      8.458
REMARK  6 active torsions:
REMARK  status: ('A' for Active; 'I' for Inactive)
REMARK    1  A    between atoms: C_1  and  C_2 
REMARK    2  A    between atoms: C_2  and  C_3 
REMARK    3  A    between atoms: C_2  and  N_4 
REMARK       I    between atoms: N_4  and  C_5 
REMARK       I    between atoms: C_5  and  N_7 
REMARK    4  A    between atoms: C_15  and  C_17 
REMARK    5  A    between atoms: C_19  and  C_22 
REMARK    6  A    between atoms: C_26  and  N_28 
ROOT
ATOM      1  N   LIG d   1       8.514  -2.552  -4.184  0.00  0.00    -0.297 N 
ATOM      2  C   LIG d   1       7.241  -2.858  -4.508  0.00  0.00     0.303 C 
ATOM      3  O   LIG d   1       6.957  -3.986  -4.860  0.00  0.00    -0.253 OA
ATOM      4  N   LIG d   1       6.283  -1.911  -4.443  0.00  0.00    -0.268 N 
ATOM      5  C   LIG d   1       6.624  -0.512  -4.128  0.00  0.00     0.059 C 
ATOM      6  C   LIG d   1       5.607  -0.017  -3.131  0.00  0.00     0.056 A 
ATOM      7  C   LIG d   1       4.474  -0.680  -2.810  0.00  0.00     0.066 A 
ATOM      8  N   LIG d   1       3.816   0.050  -1.904  0.00  0.00    -0.240 NA
ATOM      9  C   LIG d   1       4.498   1.136  -1.650  0.00  0.00     0.094 A 
ATOM     10  N   LIG d   1       5.624   1.129  -2.399  0.00  0.00    -0.347 N 
ATOM     11  C   LIG d   1       4.072  -2.011  -3.394  0.00  0.00     0.019 C 
ATOM     12  C   LIG d   1       4.873  -2.248  -4.687  0.00  0.00     0.112 C 
ATOM     13  H   LIG d   1       4.793  -3.294  -4.981  0.00  0.00     0.060 H 
ATOM     14  H   LIG d   1       8.754  -1.637  -3.975  0.00  0.00     0.150 HD
ATOM     15  H   LIG d   1       7.623  -0.461  -3.696  0.00  0.00     0.053 H 
ATOM     16  H   LIG d   1       6.580   0.092  -5.035  0.00  0.00     0.053 H 
ATOM     17  H   LIG d   1       4.208   1.913  -0.957  0.00  0.00     0.103 H 
ATOM     18  H   LIG d   1       4.288  -2.804  -2.679  0.00  0.00     0.035 H 
ATOM     19  H   LIG d   1       3.006  -2.002  -3.623  0.00  0.00     0.035 H 
ATOM     20  H   LIG d   1       6.315   1.811  -2.410  0.00  0.00     0.167 HD
ENDROOT
BRANCH  12  21
ATOM     21  C   LIG d   1       4.330  -1.373  -5.787  0.00  0.00     0.249 A 
ATOM     22  O   LIG d   1       3.594  -0.267  -5.616  0.00  0.00    -0.336 OA
ATOM     23  N   LIG d   1       3.311   0.231  -6.915  0.00  0.00    -0.056 NA
ATOM     24  C   LIG d   1       3.876  -0.595  -7.761  0.00  0.00     0.202 A 
ATOM     25  N   LIG d   1       4.494  -1.566  -7.064  0.00  0.00    -0.190 NA
BRANCH  24  26
ATOM     26  C   LIG d   1       3.841  -0.478  -9.240  0.00  0.00     0.029 A 
ATOM     27  C   LIG d   1       2.792  -1.041  -9.962  0.00  0.00     0.026 A 
ATOM     28  C   LIG d   1       2.762  -0.923 -11.337  0.00  0.00     0.274 A 
ATOM     29  H   LIG d   1       2.001  -1.565  -9.447  0.00  0.00     0.069 H 
ATOM     30  C   LIG d   1       3.778  -0.257 -11.999  0.00  0.00     0.016 A 
ATOM     31  C   LIG d   1       4.825   0.299 -11.287  0.00  0.00    -0.055 A 
ATOM     32  H   LIG d   1       3.752  -0.172 -13.074  0.00  0.00     0.069 H 
ATOM     33  C   LIG d   1       4.862   0.193  -9.912  0.00  0.00    -0.051 A 
ATOM     34  H   LIG d   1       5.616   0.818 -11.809  0.00  0.00     0.062 H 
ATOM     35  H   LIG d   1       5.680   0.628  -9.357  0.00  0.00     0.062 H 
BRANCH  28  36
ATOM     36  N   LIG d   1       1.644  -1.516 -12.105  0.00  0.00     0.080 N 
ATOM     37  O   LIG d   1       0.528  -1.064 -11.994  0.00  0.00     0.041 OA
ATOM     38  O   LIG d   1       1.847  -2.453 -12.842  0.00  0.00    -0.576 OA
ENDBRANCH  28  36
ENDBRANCH  24  26
ENDBRANCH  12  21
BRANCH   1  39
ATOM     39  C   LIG d   1       9.532  -3.605  -4.146  0.00  0.00     0.019 C 
ATOM     40  H   LIG d   1       9.230  -4.427  -4.795  0.00  0.00     0.049 H 
BRANCH  39  41
ATOM     41  C   LIG d   1      10.869  -3.038  -4.631  0.00  0.00    -0.047 C 
ATOM     42  H   LIG d   1      10.738  -2.596  -5.618  0.00  0.00     0.025 H 
ATOM     43  H   LIG d   1      11.213  -2.274  -3.933  0.00  0.00     0.025 H 
ATOM     44  H   LIG d   1      11.605  -3.840  -4.685  0.00  0.00     0.025 H 
ENDBRANCH  39  41
BRANCH  39  45
ATOM     45  C   LIG d   1       9.685  -4.117  -2.713  0.00  0.00    -0.047 C 
ATOM     46  H   LIG d   1      10.506  -4.833  -2.669  0.00  0.00     0.025 H 
ATOM     47  H   LIG d   1       9.899  -3.279  -2.049  0.00  0.00     0.025 H 
ATOM     48  H   LIG d   1       8.762  -4.603  -2.400  0.00  0.00     0.025 H 
ENDBRANCH  39  45
ENDBRANCH   1  39
TORSDOF 6
ENDMDL
