MODEL 1
REMARK VINA RESULT:      -7.4      0.000      0.000
REMARK  7 active torsions:
REMARK  status: ('A' for Active; 'I' for Inactive)
REMARK    1  A    between atoms: C_1  and  O_2 
REMARK    2  A    between atoms: O_2  and  C_3 
REMARK    3  A    between atoms: C_6  and  O_9 
REMARK    4  A    between atoms: O_9  and  C_10 
REMARK    5  A    between atoms: C_16  and  O_25 
REMARK    6  A    between atoms: C_20  and  C_21 
REMARK    7  A    between atoms: O_25  and  C_26 
REMARK       I    between atoms: C_26  and  N_28 
ROOT
ATOM      1  C   LIG d   1       6.014  -0.206  -4.610  0.00  0.00     0.222 A 
ATOM      2  C   LIG d   1       7.068   0.049  -5.533  0.00  0.00     0.235 A 
ATOM      3  O   LIG d   1       7.173  -0.589  -6.568  0.00  0.00    -0.283 OA
ATOM      4  C   LIG d   1       8.023   1.116  -5.187  0.00  0.00     0.068 A 
ATOM      5  C   LIG d   1       9.088   1.439  -6.029  0.00  0.00    -0.044 A 
ATOM      6  C   LIG d   1       9.951   2.437  -5.677  0.00  0.00    -0.018 A 
ATOM      7  C   LIG d   1       9.779   3.127  -4.478  0.00  0.00     0.137 A 
ATOM      8  C   LIG d   1       8.727   2.818  -3.633  0.00  0.00     0.024 A 
ATOM      9  C   LIG d   1       7.838   1.810  -3.978  0.00  0.00     0.143 A 
ATOM     10  O   LIG d   1       6.805   1.489  -3.173  0.00  0.00    -0.447 OA
ATOM     11  C   LIG d   1       5.931   0.521  -3.478  0.00  0.00     0.254 A 
ATOM     12  H   LIG d   1       9.227   0.904  -6.957  0.00  0.00     0.063 H 
ATOM     13  H   LIG d   1      10.773   2.691  -6.329  0.00  0.00     0.065 H 
ATOM     14  H   LIG d   1       8.599   3.361  -2.708  0.00  0.00     0.069 H 
ENDROOT
BRANCH   7  15
ATOM     15  O   LIG d   1      10.648   4.114  -4.139  0.00  0.00    -0.411 OA
BRANCH  15  16
ATOM     16  C   LIG d   1      10.140   5.354  -4.002  0.00  0.00     0.408 C 
ATOM     17  O   LIG d   1       9.416   5.813  -4.864  0.00  0.00    -0.226 OA
ATOM     18  N   LIG d   1      10.434   6.085  -2.908  0.00  0.00    -0.263 N 
ATOM     19  C   LIG d   1      11.307   5.549  -1.852  0.00  0.00     0.041 C 
ATOM     20  C   LIG d   1       9.891   7.442  -2.736  0.00  0.00     0.041 C 
ATOM     21  C   LIG d   1      10.603   5.735  -0.502  0.00  0.00     0.064 C 
ATOM     22  H   LIG d   1      11.489   4.489  -2.028  0.00  0.00     0.049 H 
ATOM     23  H   LIG d   1      12.254   6.090  -1.849  0.00  0.00     0.049 H 
ATOM     24  O   LIG d   1      10.202   7.100  -0.364  0.00  0.00    -0.377 OA
ATOM     25  H   LIG d   1       9.723   5.092  -0.460  0.00  0.00     0.058 H 
ATOM     26  H   LIG d   1      11.286   5.472   0.305  0.00  0.00     0.058 H 
ATOM     27  C   LIG d   1       9.256   7.535  -1.343  0.00  0.00     0.064 C 
ATOM     28  H   LIG d   1       8.971   8.568  -1.142  0.00  0.00     0.058 H 
ATOM     29  H   LIG d   1       8.372   6.899  -1.304  0.00  0.00     0.058 H 
ATOM     30  H   LIG d   1       9.136   7.635  -3.498  0.00  0.00     0.049 H 
ATOM     31  H   LIG d   1      10.695   8.173  -2.822  0.00  0.00     0.049 H 
ENDBRANCH  15  16
ENDBRANCH   7  15
BRANCH  11  32
ATOM     32  C   LIG d   1       4.808   0.234  -2.515  0.00  0.00     0.454 C 
ATOM     33  F   LIG d   1       3.582   0.495  -3.138  0.00  0.00    -0.163 F 
ATOM     34  F   LIG d   1       4.858  -1.108  -2.126  0.00  0.00    -0.163 F 
ATOM     35  F   LIG d   1       4.941   1.052  -1.388  0.00  0.00    -0.163 F 
ENDBRANCH  11  32
BRANCH   1  36
ATOM     36  O   LIG d   1       5.097  -1.178  -4.868  0.00  0.00    -0.449 OA
BRANCH  36  37
ATOM     37  C   LIG d   1       4.352  -1.068  -6.000  0.00  0.00     0.129 A 
ATOM     38  C   LIG d   1       4.423  -2.050  -6.976  0.00  0.00    -0.016 A 
ATOM     39  C   LIG d   1       3.666  -1.939  -8.126  0.00  0.00    -0.017 A 
ATOM     40  H   LIG d   1       5.072  -2.903  -6.838  0.00  0.00     0.066 H 
ATOM     41  C   LIG d   1       2.832  -0.843  -8.304  0.00  0.00     0.120 A 
ATOM     42  H   LIG d   1       3.721  -2.703  -8.886  0.00  0.00     0.066 H 
ATOM     43  C   LIG d   1       2.761   0.139  -7.327  0.00  0.00    -0.017 A 
ATOM     44  C   LIG d   1       3.515   0.025  -6.175  0.00  0.00    -0.016 A 
ATOM     45  H   LIG d   1       2.113   0.992  -7.466  0.00  0.00     0.066 H 
ATOM     46  H   LIG d   1       3.456   0.788  -5.413  0.00  0.00     0.066 H 
BRANCH  41  47
ATOM     47  O   LIG d   1       2.087  -0.733  -9.436  0.00  0.00    -0.495 OA
BRANCH  47  48
ATOM     48  C   LIG d   1       1.665  -1.950 -10.054  0.00  0.00     0.079 C 
ATOM     49  H   LIG d   1       1.064  -1.721 -10.935  0.00  0.00     0.066 H 
ATOM     50  H   LIG d   1       2.538  -2.530 -10.351  0.00  0.00     0.066 H 
ATOM     51  H   LIG d   1       1.069  -2.529  -9.349  0.00  0.00     0.066 H 
ENDBRANCH  47  48
ENDBRANCH  41  47
ENDBRANCH  36  37
ENDBRANCH   1  36
TORSDOF 7
ENDMDL
MODEL 2
REMARK VINA RESULT:      -6.9      1.608      2.289
REMARK  7 active torsions:
REMARK  status: ('A' for Active; 'I' for Inactive)
REMARK    1  A    between atoms: C_1  and  O_2 
REMARK    2  A    between atoms: O_2  and  C_3 
REMARK    3  A    between atoms: C_6  and  O_9 
REMARK    4  A    between atoms: O_9  and  C_10 
REMARK    5  A    between atoms: C_16  and  O_25 
REMARK    6  A    between atoms: C_20  and  C_21 
REMARK    7  A    between atoms: O_25  and  C_26 
REMARK       I    between atoms: C_26  and  N_28 
ROOT
ATOM      1  C   LIG d   1       6.179  -0.977  -3.683  0.00  0.00     0.222 A 
ATOM      2  C   LIG d   1       7.428  -0.967  -4.367  0.00  0.00     0.235 A 
ATOM      3  O   LIG d   1       7.853  -1.964  -4.928  0.00  0.00    -0.283 OA
ATOM      4  C   LIG d   1       8.185   0.298  -4.371  0.00  0.00     0.068 A 
ATOM      5  C   LIG d   1       9.418   0.405  -5.015  0.00  0.00    -0.044 A 
ATOM      6  C   LIG d   1      10.087   1.595  -5.001  0.00  0.00    -0.018 A 
ATOM      7  C   LIG d   1       9.551   2.698  -4.339  0.00  0.00     0.137 A 
ATOM      8  C   LIG d   1       8.329   2.607  -3.697  0.00  0.00     0.024 A 
ATOM      9  C   LIG d   1       7.633   1.406  -3.706  0.00  0.00     0.143 A 
ATOM     10  O   LIG d   1       6.440   1.290  -3.088  0.00  0.00    -0.447 OA
ATOM     11  C   LIG d   1       5.744   0.146  -3.078  0.00  0.00     0.254 A 
ATOM     12  H   LIG d   1       9.839  -0.448  -5.525  0.00  0.00     0.063 H 
ATOM     13  H   LIG d   1      11.041   1.681  -5.502  0.00  0.00     0.065 H 
ATOM     14  H   LIG d   1       7.918   3.468  -3.189  0.00  0.00     0.069 H 
ENDROOT
BRANCH   7  15
ATOM     15  O   LIG d   1      10.231   3.873  -4.330  0.00  0.00    -0.411 OA
BRANCH  15  16
ATOM     16  C   LIG d   1      10.399   4.473  -3.136  0.00  0.00     0.408 C 
ATOM     17  O   LIG d   1      10.930   3.872  -2.223  0.00  0.00    -0.226 OA
ATOM     18  N   LIG d   1       9.978   5.741  -2.953  0.00  0.00    -0.263 N 
ATOM     19  C   LIG d   1       9.334   6.489  -4.045  0.00  0.00     0.041 C 
ATOM     20  C   LIG d   1      10.151   6.417  -1.658  0.00  0.00     0.041 C 
ATOM     21  C   LIG d   1      10.032   7.847  -4.178  0.00  0.00     0.064 C 
ATOM     22  H   LIG d   1       9.430   5.934  -4.977  0.00  0.00     0.049 H 
ATOM     23  H   LIG d   1       8.279   6.640  -3.813  0.00  0.00     0.049 H 
ATOM     24  O   LIG d   1      10.063   8.488  -2.900  0.00  0.00    -0.377 OA
ATOM     25  H   LIG d   1      11.051   7.699  -4.535  0.00  0.00     0.058 H 
ATOM     26  H   LIG d   1       9.485   8.471  -4.885  0.00  0.00     0.058 H 
ATOM     27  C   LIG d   1      10.810   7.779  -1.908  0.00  0.00     0.064 C 
ATOM     28  H   LIG d   1      10.821   8.353  -0.981  0.00  0.00     0.058 H 
ATOM     29  H   LIG d   1      11.831   7.630  -2.257  0.00  0.00     0.058 H 
ATOM     30  H   LIG d   1      10.788   5.814  -1.011  0.00  0.00     0.049 H 
ATOM     31  H   LIG d   1       9.179   6.561  -1.186  0.00  0.00     0.049 H 
ENDBRANCH  15  16
ENDBRANCH   7  15
BRANCH  11  32
ATOM     32  C   LIG d   1       4.420   0.113  -2.360  0.00  0.00     0.454 C 
ATOM     33  F   LIG d   1       4.233   1.316  -1.671  0.00  0.00    -0.163 F 
ATOM     34  F   LIG d   1       3.389  -0.057  -3.290  0.00  0.00    -0.163 F 
ATOM     35  F   LIG d   1       4.408  -0.951  -1.452  0.00  0.00    -0.163 F 
ENDBRANCH  11  32
BRANCH   1  36
ATOM     36  O   LIG d   1       5.430  -2.112  -3.642  0.00  0.00    -0.449 OA
BRANCH  36  37
ATOM     37  C   LIG d   1       5.017  -2.649  -4.821  0.00  0.00     0.129 A 
ATOM     38  C   LIG d   1       4.659  -1.819  -5.873  0.00  0.00    -0.016 A 
ATOM     39  C   LIG d   1       4.239  -2.364  -7.071  0.00  0.00    -0.017 A 
ATOM     40  H   LIG d   1       4.707  -0.747  -5.755  0.00  0.00     0.066 H 
ATOM     41  C   LIG d   1       4.178  -3.742  -7.222  0.00  0.00     0.120 A 
ATOM     42  H   LIG d   1       3.961  -1.719  -7.890  0.00  0.00     0.066 H 
ATOM     43  C   LIG d   1       4.537  -4.572  -6.169  0.00  0.00    -0.017 A 
ATOM     44  C   LIG d   1       4.960  -4.026  -4.973  0.00  0.00    -0.016 A 
ATOM     45  H   LIG d   1       4.488  -5.645  -6.287  0.00  0.00     0.066 H 
ATOM     46  H   LIG d   1       5.243  -4.673  -4.156  0.00  0.00     0.066 H 
BRANCH  41  47
ATOM     47  O   LIG d   1       3.765  -4.279  -8.401  0.00  0.00    -0.495 OA
BRANCH  47  48
ATOM     48  C   LIG d   1       3.061  -3.414  -9.295  0.00  0.00     0.079 C 
ATOM     49  H   LIG d   1       3.507  -3.477 -10.289  0.00  0.00     0.066 H 
ATOM     50  H   LIG d   1       2.016  -3.717  -9.346  0.00  0.00     0.066 H 
ATOM     51  H   LIG d   1       3.124  -2.388  -8.934  0.00  0.00     0.066 H 
ENDBRANCH  47  48
ENDBRANCH  41  47
ENDBRANCH  36  37
ENDBRANCH   1  36
TORSDOF 7
ENDMDL
MODEL 3
REMARK VINA RESULT:      -6.4      5.072      8.477
REMARK  7 active torsions:
REMARK  status: ('A' for Active; 'I' for Inactive)
REMARK    1  A    between atoms: C_1  and  O_2 
REMARK    2  A    between atoms: O_2  and  C_3 
REMARK    3  A    between atoms: C_6  and  O_9 
REMARK    4  A    between atoms: O_9  and  C_10 
REMARK    5  A    between atoms: C_16  and  O_25 
REMARK    6  A    between atoms: C_20  and  C_21 
REMARK    7  A    between atoms: O_25  and  C_26 
REMARK       I    between atoms: C_26  and  N_28 
ROOT
ATOM      1  C   LIG d   1       2.783  -5.091  -9.669  0.00  0.00     0.222 A 
ATOM      2  C   LIG d   1       3.287  -5.848  -8.574  0.00  0.00     0.235 A 
ATOM      3  O   LIG d   1       3.225  -7.067  -8.563  0.00  0.00    -0.283 OA
ATOM      4  C   LIG d   1       3.889  -5.100  -7.456  0.00  0.00     0.068 A 
ATOM      5  C   LIG d   1       4.410  -5.756  -6.340  0.00  0.00    -0.044 A 
ATOM      6  C   LIG d   1       4.964  -5.028  -5.326  0.00  0.00    -0.018 A 
ATOM      7  C   LIG d   1       5.002  -3.637  -5.395  0.00  0.00     0.137 A 
ATOM      8  C   LIG d   1       4.490  -2.973  -6.496  0.00  0.00     0.024 A 
ATOM      9  C   LIG d   1       3.927  -3.697  -7.538  0.00  0.00     0.143 A 
ATOM     10  O   LIG d   1       3.421  -3.076  -8.622  0.00  0.00    -0.447 OA
ATOM     11  C   LIG d   1       2.872  -3.746  -9.644  0.00  0.00     0.254 A 
ATOM     12  H   LIG d   1       4.379  -6.833  -6.280  0.00  0.00     0.063 H 
ATOM     13  H   LIG d   1       5.371  -5.534  -4.462  0.00  0.00     0.065 H 
ATOM     14  H   LIG d   1       4.527  -1.894  -6.543  0.00  0.00     0.069 H 
ENDROOT
BRANCH   7  15
ATOM     15  O   LIG d   1       5.552  -2.927  -4.376  0.00  0.00    -0.411 OA
BRANCH  15  16
ATOM     16  C   LIG d   1       4.703  -2.283  -3.552  0.00  0.00     0.408 C 
ATOM     17  O   LIG d   1       3.906  -2.914  -2.886  0.00  0.00    -0.226 OA
ATOM     18  N   LIG d   1       4.739  -0.938  -3.465  0.00  0.00    -0.263 N 
ATOM     19  C   LIG d   1       5.696  -0.153  -4.261  0.00  0.00     0.041 C 
ATOM     20  C   LIG d   1       3.822  -0.213  -2.571  0.00  0.00     0.041 C 
ATOM     21  C   LIG d   1       6.429   0.811  -3.321  0.00  0.00     0.064 C 
ATOM     22  H   LIG d   1       6.414  -0.821  -4.735  0.00  0.00     0.049 H 
ATOM     23  H   LIG d   1       5.161   0.414  -5.024  0.00  0.00     0.049 H 
ATOM     24  O   LIG d   1       5.469   1.555  -2.567  0.00  0.00    -0.377 OA
ATOM     25  H   LIG d   1       7.065   0.244  -2.641  0.00  0.00     0.058 H 
ATOM     26  H   LIG d   1       7.042   1.496  -3.907  0.00  0.00     0.058 H 
ATOM     27  C   LIG d   1       4.647   0.755  -1.714  0.00  0.00     0.064 C 
ATOM     28  H   LIG d   1       3.977   1.399  -1.145  0.00  0.00     0.058 H 
ATOM     29  H   LIG d   1       5.276   0.187  -1.029  0.00  0.00     0.058 H 
ATOM     30  H   LIG d   1       3.299  -0.920  -1.928  0.00  0.00     0.049 H 
ATOM     31  H   LIG d   1       3.098   0.348  -3.164  0.00  0.00     0.049 H 
ENDBRANCH  15  16
ENDBRANCH   7  15
BRANCH  11  32
ATOM     32  C   LIG d   1       2.333  -2.964 -10.812  0.00  0.00     0.454 C 
ATOM     33  F   LIG d   1       2.758  -3.557 -12.007  0.00  0.00    -0.163 F 
ATOM     34  F   LIG d   1       0.935  -2.959 -10.766  0.00  0.00    -0.163 F 
ATOM     35  F   LIG d   1       2.806  -1.649 -10.752  0.00  0.00    -0.163 F 
ENDBRANCH  11  32
BRANCH   1  36
ATOM     36  O   LIG d   1       2.215  -5.720 -10.734  0.00  0.00    -0.449 OA
BRANCH  36  37
ATOM     37  C   LIG d   1       1.062  -6.410 -10.527  0.00  0.00     0.129 A 
ATOM     38  C   LIG d   1       0.998  -7.761 -10.831  0.00  0.00    -0.016 A 
ATOM     39  C   LIG d   1      -0.174  -8.462 -10.620  0.00  0.00    -0.017 A 
ATOM     40  H   LIG d   1       1.863  -8.266 -11.232  0.00  0.00     0.066 H 
ATOM     41  C   LIG d   1      -1.287  -7.814 -10.104  0.00  0.00     0.120 A 
ATOM     42  H   LIG d   1      -0.225  -9.514 -10.856  0.00  0.00     0.066 H 
ATOM     43  C   LIG d   1      -1.222  -6.461  -9.800  0.00  0.00    -0.017 A 
ATOM     44  C   LIG d   1      -0.050  -5.762 -10.006  0.00  0.00    -0.016 A 
ATOM     45  H   LIG d   1      -2.090  -5.957  -9.399  0.00  0.00     0.066 H 
ATOM     46  H   LIG d   1       0.001  -4.710  -9.765  0.00  0.00     0.066 H 
BRANCH  41  47
ATOM     47  O   LIG d   1      -2.440  -8.503  -9.897  0.00  0.00    -0.495 OA
BRANCH  47  48
ATOM     48  C   LIG d   1      -3.426  -8.443 -10.930  0.00  0.00     0.079 C 
ATOM     49  H   LIG d   1      -4.155  -9.241 -10.785  0.00  0.00     0.066 H 
ATOM     50  H   LIG d   1      -3.931  -7.478 -10.894  0.00  0.00     0.066 H 
ATOM     51  H   LIG d   1      -2.944  -8.564 -11.900  0.00  0.00     0.066 H 
ENDBRANCH  47  48
ENDBRANCH  41  47
ENDBRANCH  36  37
ENDBRANCH   1  36
TORSDOF 7
ENDMDL
MODEL 4
REMARK VINA RESULT:      -6.3      2.249      3.529
REMARK  7 active torsions:
REMARK  status: ('A' for Active; 'I' for Inactive)
REMARK    1  A    between atoms: C_1  and  O_2 
REMARK    2  A    between atoms: O_2  and  C_3 
REMARK    3  A    between atoms: C_6  and  O_9 
REMARK    4  A    between atoms: O_9  and  C_10 
REMARK    5  A    between atoms: C_16  and  O_25 
REMARK    6  A    between atoms: C_20  and  C_21 
REMARK    7  A    between atoms: O_25  and  C_26 
REMARK       I    between atoms: C_26  and  N_28 
ROOT
ATOM      1  C   LIG d   1       6.470  -0.156  -4.799  0.00  0.00     0.222 A 
ATOM      2  C   LIG d   1       7.478   0.275  -5.708  0.00  0.00     0.235 A 
ATOM      3  O   LIG d   1       7.670  -0.305  -6.764  0.00  0.00    -0.283 OA
ATOM      4  C   LIG d   1       8.278   1.450  -5.319  0.00  0.00     0.068 A 
ATOM      5  C   LIG d   1       9.288   1.946  -6.145  0.00  0.00    -0.044 A 
ATOM      6  C   LIG d   1      10.005   3.040  -5.753  0.00  0.00    -0.018 A 
ATOM      7  C   LIG d   1       9.740   3.656  -4.530  0.00  0.00     0.137 A 
ATOM      8  C   LIG d   1       8.741   3.176  -3.702  0.00  0.00     0.024 A 
ATOM      9  C   LIG d   1       7.999   2.067  -4.088  0.00  0.00     0.143 A 
ATOM     10  O   LIG d   1       7.020   1.579  -3.300  0.00  0.00    -0.447 OA
ATOM     11  C   LIG d   1       6.287   0.511  -3.643  0.00  0.00     0.254 A 
ATOM     12  H   LIG d   1       9.499   1.469  -7.090  0.00  0.00     0.063 H 
ATOM     13  H   LIG d   1      10.785   3.428  -6.391  0.00  0.00     0.065 H 
ATOM     14  H   LIG d   1       8.540   3.661  -2.759  0.00  0.00     0.069 H 
ENDROOT
BRANCH   7  15
ATOM     15  O   LIG d   1      10.465   4.740  -4.153  0.00  0.00    -0.411 OA
BRANCH  15  16
ATOM     16  C   LIG d   1      11.136   4.652  -2.989  0.00  0.00     0.408 C 
ATOM     17  O   LIG d   1      12.062   3.872  -2.879  0.00  0.00    -0.226 OA
ATOM     18  N   LIG d   1      10.782   5.428  -1.945  0.00  0.00    -0.263 N 
ATOM     19  C   LIG d   1       9.665   6.380  -2.055  0.00  0.00     0.041 C 
ATOM     20  C   LIG d   1      11.501   5.349  -0.664  0.00  0.00     0.041 C 
ATOM     21  C   LIG d   1      10.148   7.750  -1.565  0.00  0.00     0.064 C 
ATOM     22  H   LIG d   1       9.346   6.454  -3.094  0.00  0.00     0.049 H 
ATOM     23  H   LIG d   1       8.832   6.042  -1.437  0.00  0.00     0.049 H 
ATOM     24  O   LIG d   1      10.736   7.607  -0.269  0.00  0.00    -0.377 OA
ATOM     25  H   LIG d   1      10.891   8.144  -2.259  0.00  0.00     0.058 H 
ATOM     26  H   LIG d   1       9.302   8.436  -1.508  0.00  0.00     0.058 H 
ATOM     27  C   LIG d   1      11.894   6.770  -0.241  0.00  0.00     0.064 C 
ATOM     28  H   LIG d   1      12.304   6.749   0.768  0.00  0.00     0.058 H 
ATOM     29  H   LIG d   1      12.643   7.160  -0.931  0.00  0.00     0.058 H 
ATOM     30  H   LIG d   1      12.397   4.740  -0.782  0.00  0.00     0.049 H 
ATOM     31  H   LIG d   1      10.854   4.907   0.094  0.00  0.00     0.049 H 
ENDBRANCH  15  16
ENDBRANCH   7  15
BRANCH  11  32
ATOM     32  C   LIG d   1       5.215   0.038  -2.697  0.00  0.00     0.454 C 
ATOM     33  F   LIG d   1       5.568  -1.213  -2.179  0.00  0.00    -0.163 F 
ATOM     34  F   LIG d   1       5.079   0.955  -1.649  0.00  0.00    -0.163 F 
ATOM     35  F   LIG d   1       4.001  -0.067  -3.384  0.00  0.00    -0.163 F 
ENDBRANCH  11  32
BRANCH   1  36
ATOM     36  O   LIG d   1       5.695  -1.235  -5.097  0.00  0.00    -0.449 OA
BRANCH  36  37
ATOM     37  C   LIG d   1       6.289  -2.458  -5.133  0.00  0.00     0.129 A 
ATOM     38  C   LIG d   1       5.832  -3.426  -6.014  0.00  0.00    -0.016 A 
ATOM     39  C   LIG d   1       6.436  -4.668  -6.051  0.00  0.00    -0.017 A 
ATOM     40  H   LIG d   1       5.003  -3.209  -6.671  0.00  0.00     0.066 H 
ATOM     41  C   LIG d   1       7.502  -4.946  -5.206  0.00  0.00     0.120 A 
ATOM     42  H   LIG d   1       6.081  -5.421  -6.737  0.00  0.00     0.066 H 
ATOM     43  C   LIG d   1       7.959  -3.977  -4.325  0.00  0.00    -0.017 A 
ATOM     44  C   LIG d   1       7.357  -2.734  -4.292  0.00  0.00    -0.016 A 
ATOM     45  H   LIG d   1       8.788  -4.194  -3.667  0.00  0.00     0.066 H 
ATOM     46  H   LIG d   1       7.717  -1.979  -3.608  0.00  0.00     0.066 H 
BRANCH  41  47
ATOM     47  O   LIG d   1       8.096  -6.168  -5.242  0.00  0.00    -0.495 OA
BRANCH  47  48
ATOM     48  C   LIG d   1       9.495  -6.200  -5.530  0.00  0.00     0.079 C 
ATOM     49  H   LIG d   1       9.672  -6.820  -6.410  0.00  0.00     0.066 H 
ATOM     50  H   LIG d   1       9.850  -5.188  -5.723  0.00  0.00     0.066 H 
ATOM     51  H   LIG d   1      10.032  -6.617  -4.679  0.00  0.00     0.066 H 
ENDBRANCH  47  48
ENDBRANCH  41  47
ENDBRANCH  36  37
ENDBRANCH   1  36
TORSDOF 7
ENDMDL
MODEL 5
REMARK VINA RESULT:      -6.2      5.597     10.496
REMARK  7 active torsions:
REMARK  status: ('A' for Active; 'I' for Inactive)
REMARK    1  A    between atoms: C_1  and  O_2 
REMARK    2  A    between atoms: O_2  and  C_3 
REMARK    3  A    between atoms: C_6  and  O_9 
REMARK    4  A    between atoms: O_9  and  C_10 
REMARK    5  A    between atoms: C_16  and  O_25 
REMARK    6  A    between atoms: C_20  and  C_21 
REMARK    7  A    between atoms: O_25  and  C_26 
REMARK       I    between atoms: C_26  and  N_28 
ROOT
ATOM      1  C   LIG d   1       6.181  -1.826  -3.874  0.00  0.00     0.222 A 
ATOM      2  C   LIG d   1       7.063  -2.840  -4.343  0.00  0.00     0.235 A 
ATOM      3  O   LIG d   1       8.275  -2.704  -4.286  0.00  0.00    -0.283 OA
ATOM      4  C   LIG d   1       6.453  -4.061  -4.897  0.00  0.00     0.068 A 
ATOM      5  C   LIG d   1       7.236  -5.110  -5.380  0.00  0.00    -0.044 A 
ATOM      6  C   LIG d   1       6.634  -6.228  -5.882  0.00  0.00    -0.018 A 
ATOM      7  C   LIG d   1       5.244  -6.322  -5.923  0.00  0.00     0.137 A 
ATOM      8  C   LIG d   1       4.454  -5.291  -5.447  0.00  0.00     0.024 A 
ATOM      9  C   LIG d   1       5.050  -4.149  -4.929  0.00  0.00     0.143 A 
ATOM     10  O   LIG d   1       4.304  -3.130  -4.458  0.00  0.00    -0.447 OA
ATOM     11  C   LIG d   1       4.849  -2.015  -3.953  0.00  0.00     0.254 A 
ATOM     12  H   LIG d   1       8.313  -5.039  -5.354  0.00  0.00     0.063 H 
ATOM     13  H   LIG d   1       7.239  -7.043  -6.253  0.00  0.00     0.065 H 
ATOM     14  H   LIG d   1       3.378  -5.374  -5.479  0.00  0.00     0.069 H 
ENDROOT
BRANCH   7  15
ATOM     15  O   LIG d   1       4.661  -7.439  -6.430  0.00  0.00    -0.411 OA
BRANCH  15  16
ATOM     16  C   LIG d   1       4.783  -8.572  -5.712  0.00  0.00     0.408 C 
ATOM     17  O   LIG d   1       4.268  -8.654  -4.614  0.00  0.00    -0.226 OA
ATOM     18  N   LIG d   1       5.476  -9.616  -6.211  0.00  0.00    -0.263 N 
ATOM     19  C   LIG d   1       6.107  -9.539  -7.538  0.00  0.00     0.041 C 
ATOM     20  C   LIG d   1       5.623 -10.863  -5.445  0.00  0.00     0.041 C 
ATOM     21  C   LIG d   1       5.691 -10.777  -8.343  0.00  0.00     0.064 C 
ATOM     22  H   LIG d   1       5.773  -8.638  -8.053  0.00  0.00     0.049 H 
ATOM     23  H   LIG d   1       7.191  -9.520  -7.429  0.00  0.00     0.049 H 
ATOM     24  O   LIG d   1       5.965 -11.951  -7.575  0.00  0.00    -0.377 OA
ATOM     25  H   LIG d   1       4.624 -10.726  -8.562  0.00  0.00     0.058 H 
ATOM     26  H   LIG d   1       6.254 -10.811  -9.275  0.00  0.00     0.058 H 
ATOM     27  C   LIG d   1       5.231 -12.036  -6.352  0.00  0.00     0.064 C 
ATOM     28  H   LIG d   1       5.463 -12.976  -5.851  0.00  0.00     0.058 H 
ATOM     29  H   LIG d   1       4.163 -11.990  -6.564  0.00  0.00     0.058 H 
ATOM     30  H   LIG d   1       4.969 -10.838  -4.573  0.00  0.00     0.049 H 
ATOM     31  H   LIG d   1       6.658 -10.978  -5.124  0.00  0.00     0.049 H 
ENDBRANCH  15  16
ENDBRANCH   7  15
BRANCH  11  32
ATOM     32  C   LIG d   1       3.933  -0.929  -3.451  0.00  0.00     0.454 C 
ATOM     33  F   LIG d   1       4.020   0.182  -4.296  0.00  0.00    -0.163 F 
ATOM     34  F   LIG d   1       2.616  -1.400  -3.433  0.00  0.00    -0.163 F 
ATOM     35  F   LIG d   1       4.314  -0.560  -2.156  0.00  0.00    -0.163 F 
ENDBRANCH  11  32
BRANCH   1  36
ATOM     36  O   LIG d   1       6.679  -0.672  -3.350  0.00  0.00    -0.449 OA
BRANCH  36  37
ATOM     37  C   LIG d   1       7.239   0.226  -4.203  0.00  0.00     0.129 A 
ATOM     38  C   LIG d   1       7.953   1.305  -3.703  0.00  0.00    -0.016 A 
ATOM     39  C   LIG d   1       8.523   2.218  -4.569  0.00  0.00    -0.017 A 
ATOM     40  H   LIG d   1       8.064   1.432  -2.636  0.00  0.00     0.066 H 
ATOM     41  C   LIG d   1       8.382   2.055  -5.940  0.00  0.00     0.120 A 
ATOM     42  H   LIG d   1       9.079   3.057  -4.180  0.00  0.00     0.066 H 
ATOM     43  C   LIG d   1       7.667   0.975  -6.439  0.00  0.00    -0.017 A 
ATOM     44  C   LIG d   1       7.102   0.061  -5.573  0.00  0.00    -0.016 A 
ATOM     45  H   LIG d   1       7.557   0.850  -7.507  0.00  0.00     0.066 H 
ATOM     46  H   LIG d   1       6.549  -0.782  -5.963  0.00  0.00     0.066 H 
BRANCH  41  47
ATOM     47  O   LIG d   1       8.942   2.953  -6.792  0.00  0.00    -0.495 OA
BRANCH  47  48
ATOM     48  C   LIG d   1       9.802   3.941  -6.219  0.00  0.00     0.079 C 
ATOM     49  H   LIG d   1       9.467   4.172  -5.207  0.00  0.00     0.066 H 
ATOM     50  H   LIG d   1      10.822   3.561  -6.187  0.00  0.00     0.066 H 
ATOM     51  H   LIG d   1       9.771   4.846  -6.826  0.00  0.00     0.066 H 
ENDBRANCH  47  48
ENDBRANCH  41  47
ENDBRANCH  36  37
ENDBRANCH   1  36
TORSDOF 7
ENDMDL
MODEL 6
REMARK VINA RESULT:      -6.2      4.074      9.272
REMARK  7 active torsions:
REMARK  status: ('A' for Active; 'I' for Inactive)
REMARK    1  A    between atoms: C_1  and  O_2 
REMARK    2  A    between atoms: O_2  and  C_3 
REMARK    3  A    between atoms: C_6  and  O_9 
REMARK    4  A    between atoms: O_9  and  C_10 
REMARK    5  A    between atoms: C_16  and  O_25 
REMARK    6  A    between atoms: C_20  and  C_21 
REMARK    7  A    between atoms: O_25  and  C_26 
REMARK       I    between atoms: C_26  and  N_28 
ROOT
ATOM      1  C   LIG d   1      10.872   5.639  -4.215  0.00  0.00     0.222 A 
ATOM      2  C   LIG d   1      10.363   4.955  -5.355  0.00  0.00     0.235 A 
ATOM      3  O   LIG d   1      10.569   5.365  -6.486  0.00  0.00    -0.283 OA
ATOM      4  C   LIG d   1       9.578   3.732  -5.113  0.00  0.00     0.068 A 
ATOM      5  C   LIG d   1       9.038   2.994  -6.167  0.00  0.00    -0.044 A 
ATOM      6  C   LIG d   1       8.320   1.863  -5.903  0.00  0.00    -0.018 A 
ATOM      7  C   LIG d   1       8.115   1.449  -4.588  0.00  0.00     0.137 A 
ATOM      8  C   LIG d   1       8.644   2.169  -3.532  0.00  0.00     0.024 A 
ATOM      9  C   LIG d   1       9.381   3.319  -3.783  0.00  0.00     0.143 A 
ATOM     10  O   LIG d   1       9.909   4.040  -2.773  0.00  0.00    -0.447 OA
ATOM     11  C   LIG d   1      10.624   5.153  -2.982  0.00  0.00     0.254 A 
ATOM     12  H   LIG d   1       9.190   3.314  -7.187  0.00  0.00     0.063 H 
ATOM     13  H   LIG d   1       7.904   1.289  -6.718  0.00  0.00     0.065 H 
ATOM     14  H   LIG d   1       8.484   1.839  -2.517  0.00  0.00     0.069 H 
ENDROOT
BRANCH   7  15
ATOM     15  O   LIG d   1       7.394   0.324  -4.342  0.00  0.00    -0.411 OA
BRANCH  15  16
ATOM     16  C   LIG d   1       6.331   0.446  -3.524  0.00  0.00     0.408 C 
ATOM     17  O   LIG d   1       5.941   1.550  -3.196  0.00  0.00    -0.226 OA
ATOM     18  N   LIG d   1       5.700  -0.655  -3.070  0.00  0.00    -0.263 N 
ATOM     19  C   LIG d   1       6.155  -2.001  -3.455  0.00  0.00     0.041 C 
ATOM     20  C   LIG d   1       4.536  -0.546  -2.176  0.00  0.00     0.041 C 
ATOM     21  C   LIG d   1       4.944  -2.792  -3.964  0.00  0.00     0.064 C 
ATOM     22  H   LIG d   1       6.902  -1.924  -4.244  0.00  0.00     0.049 H 
ATOM     23  H   LIG d   1       6.584  -2.504  -2.588  0.00  0.00     0.049 H 
ATOM     24  O   LIG d   1       3.897  -2.729  -2.993  0.00  0.00    -0.377 OA
ATOM     25  H   LIG d   1       4.596  -2.360  -4.902  0.00  0.00     0.058 H 
ATOM     26  H   LIG d   1       5.230  -3.832  -4.124  0.00  0.00     0.058 H 
ATOM     27  C   LIG d   1       3.405  -1.409  -2.748  0.00  0.00     0.064 C 
ATOM     28  H   LIG d   1       2.584  -1.453  -2.032  0.00  0.00     0.058 H 
ATOM     29  H   LIG d   1       3.052  -0.972  -3.682  0.00  0.00     0.058 H 
ATOM     30  H   LIG d   1       4.213   0.493  -2.118  0.00  0.00     0.049 H 
ATOM     31  H   LIG d   1       4.803  -0.903  -1.181  0.00  0.00     0.049 H 
ENDBRANCH  15  16
ENDBRANCH   7  15
BRANCH  11  32
ATOM     32  C   LIG d   1      11.173   5.892  -1.790  0.00  0.00     0.454 C 
ATOM     33  F   LIG d   1      11.205   5.035  -0.684  0.00  0.00    -0.163 F 
ATOM     34  F   LIG d   1      12.468   6.337  -2.073  0.00  0.00    -0.163 F 
ATOM     35  F   LIG d   1      10.354   6.990  -1.504  0.00  0.00    -0.163 F 
ENDBRANCH  11  32
BRANCH   1  36
ATOM     36  O   LIG d   1      11.606   6.775  -4.368  0.00  0.00    -0.449 OA
BRANCH  36  37
ATOM     37  C   LIG d   1      10.941   7.957  -4.458  0.00  0.00     0.129 A 
ATOM     38  C   LIG d   1       9.905   8.103  -5.368  0.00  0.00    -0.016 A 
ATOM     39  C   LIG d   1       9.228   9.305  -5.459  0.00  0.00    -0.017 A 
ATOM     40  H   LIG d   1       9.627   7.278  -6.007  0.00  0.00     0.066 H 
ATOM     41  C   LIG d   1       9.585  10.365  -4.638  0.00  0.00     0.120 A 
ATOM     42  H   LIG d   1       8.422   9.419  -6.167  0.00  0.00     0.066 H 
ATOM     43  C   LIG d   1      10.622  10.218  -3.727  0.00  0.00    -0.017 A 
ATOM     44  C   LIG d   1      11.295   9.016  -3.634  0.00  0.00    -0.016 A 
ATOM     45  H   LIG d   1      10.900  11.045  -3.089  0.00  0.00     0.066 H 
ATOM     46  H   LIG d   1      12.099   8.901  -2.921  0.00  0.00     0.066 H 
BRANCH  41  47
ATOM     47  O   LIG d   1       8.920  11.547  -4.728  0.00  0.00    -0.495 OA
BRANCH  47  48
ATOM     48  C   LIG d   1       8.702  12.262  -3.509  0.00  0.00     0.079 C 
ATOM     49  H   LIG d   1       7.752  12.794  -3.565  0.00  0.00     0.066 H 
ATOM     50  H   LIG d   1       8.678  11.561  -2.676  0.00  0.00     0.066 H 
ATOM     51  H   LIG d   1       9.510  12.977  -3.358  0.00  0.00     0.066 H 
ENDBRANCH  47  48
ENDBRANCH  41  47
ENDBRANCH  36  37
ENDBRANCH   1  36
TORSDOF 7
ENDMDL
MODEL 7
REMARK VINA RESULT:      -6.2      6.556     11.602
REMARK  7 active torsions:
REMARK  status: ('A' for Active; 'I' for Inactive)
REMARK    1  A    between atoms: C_1  and  O_2 
REMARK    2  A    between atoms: O_2  and  C_3 
REMARK    3  A    between atoms: C_6  and  O_9 
REMARK    4  A    between atoms: O_9  and  C_10 
REMARK    5  A    between atoms: C_16  and  O_25 
REMARK    6  A    between atoms: C_20  and  C_21 
REMARK    7  A    between atoms: O_25  and  C_26 
REMARK       I    between atoms: C_26  and  N_28 
ROOT
ATOM      1  C   LIG d   1       3.875  -0.342  -8.777  0.00  0.00     0.222 A 
ATOM      2  C   LIG d   1       3.594  -1.720  -9.000  0.00  0.00     0.235 A 
ATOM      3  O   LIG d   1       4.093  -2.590  -8.305  0.00  0.00    -0.283 OA
ATOM      4  C   LIG d   1       2.676  -2.050 -10.104  0.00  0.00     0.068 A 
ATOM      5  C   LIG d   1       2.340  -3.372 -10.399  0.00  0.00    -0.044 A 
ATOM      6  C   LIG d   1       1.483  -3.639 -11.427  0.00  0.00    -0.018 A 
ATOM      7  C   LIG d   1       0.950  -2.600 -12.188  0.00  0.00     0.137 A 
ATOM      8  C   LIG d   1       1.272  -1.284 -11.907  0.00  0.00     0.024 A 
ATOM      9  C   LIG d   1       2.139  -0.995 -10.862  0.00  0.00     0.143 A 
ATOM     10  O   LIG d   1       2.470   0.278 -10.567  0.00  0.00    -0.447 OA
ATOM     11  C   LIG d   1       3.304   0.590  -9.566  0.00  0.00     0.254 A 
ATOM     12  H   LIG d   1       2.755  -4.180  -9.815  0.00  0.00     0.063 H 
ATOM     13  H   LIG d   1       1.219  -4.662 -11.655  0.00  0.00     0.065 H 
ATOM     14  H   LIG d   1       0.851  -0.485 -12.500  0.00  0.00     0.069 H 
ENDROOT
BRANCH   7  15
ATOM     15  O   LIG d   1       0.101  -2.882 -13.210  0.00  0.00    -0.411 OA
BRANCH  15  16
ATOM     16  C   LIG d   1      -1.142  -3.280 -12.880  0.00  0.00     0.408 C 
ATOM     17  O   LIG d   1      -1.300  -4.243 -12.155  0.00  0.00    -0.226 OA
ATOM     18  N   LIG d   1      -2.213  -2.610 -13.352  0.00  0.00    -0.263 N 
ATOM     19  C   LIG d   1      -2.046  -1.440 -14.230  0.00  0.00     0.041 C 
ATOM     20  C   LIG d   1      -3.580  -3.025 -13.005  0.00  0.00     0.041 C 
ATOM     21  C   LIG d   1      -2.886  -0.289 -13.666  0.00  0.00     0.064 C 
ATOM     22  H   LIG d   1      -0.996  -1.149 -14.259  0.00  0.00     0.049 H 
ATOM     23  H   LIG d   1      -2.388  -1.685 -15.236  0.00  0.00     0.049 H 
ATOM     24  O   LIG d   1      -4.226  -0.741 -13.458  0.00  0.00    -0.377 OA
ATOM     25  H   LIG d   1      -2.462   0.040 -12.717  0.00  0.00     0.058 H 
ATOM     26  H   LIG d   1      -2.887   0.542 -14.372  0.00  0.00     0.058 H 
ATOM     27  C   LIG d   1      -4.346  -1.796 -12.500  0.00  0.00     0.064 C 
ATOM     28  H   LIG d   1      -5.397  -2.051 -12.368  0.00  0.00     0.058 H 
ATOM     29  H   LIG d   1      -3.927  -1.473 -11.547  0.00  0.00     0.058 H 
ATOM     30  H   LIG d   1      -3.547  -3.784 -12.223  0.00  0.00     0.049 H 
ATOM     31  H   LIG d   1      -4.077  -3.430 -13.887  0.00  0.00     0.049 H 
ENDBRANCH  15  16
ENDBRANCH   7  15
BRANCH  11  32
ATOM     32  C   LIG d   1       3.615   2.041  -9.312  0.00  0.00     0.454 C 
ATOM     33  F   LIG d   1       3.320   2.789 -10.457  0.00  0.00    -0.163 F 
ATOM     34  F   LIG d   1       2.842   2.504  -8.242  0.00  0.00    -0.163 F 
ATOM     35  F   LIG d   1       4.972   2.180  -9.001  0.00  0.00    -0.163 F 
ENDBRANCH  11  32
BRANCH   1  36
ATOM     36  O   LIG d   1       4.715   0.033  -7.773  0.00  0.00    -0.449 OA
BRANCH  36  37
ATOM     37  C   LIG d   1       4.361  -0.274  -6.497  0.00  0.00     0.129 A 
ATOM     38  C   LIG d   1       3.163   0.192  -5.977  0.00  0.00    -0.016 A 
ATOM     39  C   LIG d   1       2.803  -0.120  -4.680  0.00  0.00    -0.017 A 
ATOM     40  H   LIG d   1       2.511   0.801  -6.586  0.00  0.00     0.066 H 
ATOM     41  C   LIG d   1       3.641  -0.902  -3.898  0.00  0.00     0.120 A 
ATOM     42  H   LIG d   1       1.871   0.243  -4.276  0.00  0.00     0.066 H 
ATOM     43  C   LIG d   1       4.840  -1.369  -4.418  0.00  0.00    -0.017 A 
ATOM     44  C   LIG d   1       5.197  -1.060  -5.716  0.00  0.00    -0.016 A 
ATOM     45  H   LIG d   1       5.492  -1.977  -3.808  0.00  0.00     0.066 H 
ATOM     46  H   LIG d   1       6.128  -1.427  -6.121  0.00  0.00     0.066 H 
BRANCH  41  47
ATOM     47  O   LIG d   1       3.288  -1.209  -2.621  0.00  0.00    -0.495 OA
BRANCH  47  48
ATOM     48  C   LIG d   1       4.344  -1.319  -1.665  0.00  0.00     0.079 C 
ATOM     49  H   LIG d   1       4.395  -0.405  -1.072  0.00  0.00     0.066 H 
ATOM     50  H   LIG d   1       4.152  -2.167  -1.008  0.00  0.00     0.066 H 
ATOM     51  H   LIG d   1       5.290  -1.469  -2.184  0.00  0.00     0.066 H 
ENDBRANCH  47  48
ENDBRANCH  41  47
ENDBRANCH  36  37
ENDBRANCH   1  36
TORSDOF 7
ENDMDL
MODEL 8
REMARK VINA RESULT:      -6.2      6.347     12.028
REMARK  7 active torsions:
REMARK  status: ('A' for Active; 'I' for Inactive)
REMARK    1  A    between atoms: C_1  and  O_2 
REMARK    2  A    between atoms: O_2  and  C_3 
REMARK    3  A    between atoms: C_6  and  O_9 
REMARK    4  A    between atoms: O_9  and  C_10 
REMARK    5  A    between atoms: C_16  and  O_25 
REMARK    6  A    between atoms: C_20  and  C_21 
REMARK    7  A    between atoms: O_25  and  C_26 
REMARK       I    between atoms: C_26  and  N_28 
ROOT
ATOM      1  C   LIG d   1       3.829  -0.526  -8.920  0.00  0.00     0.222 A 
ATOM      2  C   LIG d   1       3.327  -1.856  -9.003  0.00  0.00     0.235 A 
ATOM      3  O   LIG d   1       3.724  -2.733  -8.253  0.00  0.00    -0.283 OA
ATOM      4  C   LIG d   1       2.308  -2.128 -10.032  0.00  0.00     0.068 A 
ATOM      5  C   LIG d   1       1.756  -3.400 -10.189  0.00  0.00    -0.044 A 
ATOM      6  C   LIG d   1       0.810  -3.613 -11.150  0.00  0.00    -0.018 A 
ATOM      7  C   LIG d   1       0.401  -2.570 -11.980  0.00  0.00     0.137 A 
ATOM      8  C   LIG d   1       0.938  -1.303 -11.835  0.00  0.00     0.024 A 
ATOM      9  C   LIG d   1       1.897  -1.069 -10.860  0.00  0.00     0.143 A 
ATOM     10  O   LIG d   1       2.437   0.156 -10.697  0.00  0.00    -0.447 OA
ATOM     11  C   LIG d   1       3.365   0.415  -9.766  0.00  0.00     0.254 A 
ATOM     12  H   LIG d   1       2.073  -4.211  -9.551  0.00  0.00     0.063 H 
ATOM     13  H   LIG d   1       0.379  -4.596 -11.271  0.00  0.00     0.065 H 
ATOM     14  H   LIG d   1       0.612  -0.500 -12.480  0.00  0.00     0.069 H 
ENDROOT
BRANCH   7  15
ATOM     15  O   LIG d   1      -0.538  -2.799 -12.934  0.00  0.00    -0.411 OA
BRANCH  15  16
ATOM     16  C   LIG d   1      -0.630  -4.054 -13.412  0.00  0.00     0.408 C 
ATOM     17  O   LIG d   1       0.233  -4.489 -14.149  0.00  0.00    -0.226 OA
ATOM     18  N   LIG d   1      -1.679  -4.830 -13.073  0.00  0.00    -0.263 N 
ATOM     19  C   LIG d   1      -2.736  -4.325 -12.181  0.00  0.00     0.041 C 
ATOM     20  C   LIG d   1      -1.801  -6.205 -13.582  0.00  0.00     0.041 C 
ATOM     21  C   LIG d   1      -2.955  -5.351 -11.062  0.00  0.00     0.064 C 
ATOM     22  H   LIG d   1      -2.429  -3.372 -11.751  0.00  0.00     0.049 H 
ATOM     23  H   LIG d   1      -3.660  -4.195 -12.745  0.00  0.00     0.049 H 
ATOM     24  O   LIG d   1      -3.173  -6.640 -11.641  0.00  0.00    -0.377 OA
ATOM     25  H   LIG d   1      -2.073  -5.384 -10.423  0.00  0.00     0.058 H 
ATOM     26  H   LIG d   1      -3.824  -5.064 -10.471  0.00  0.00     0.058 H 
ATOM     27  C   LIG d   1      -2.066  -7.139 -12.395  0.00  0.00     0.064 C 
ATOM     28  H   LIG d   1      -2.296  -8.138 -12.763  0.00  0.00     0.058 H 
ATOM     29  H   LIG d   1      -1.181  -7.178 -11.760  0.00  0.00     0.058 H 
ATOM     30  H   LIG d   1      -0.876  -6.496 -14.079  0.00  0.00     0.049 H 
ATOM     31  H   LIG d   1      -2.631  -6.264 -14.287  0.00  0.00     0.049 H 
ENDBRANCH  15  16
ENDBRANCH   7  15
BRANCH  11  32
ATOM     32  C   LIG d   1       3.910   1.815  -9.660  0.00  0.00     0.454 C 
ATOM     33  F   LIG d   1       5.304   1.766  -9.554  0.00  0.00    -0.163 F 
ATOM     34  F   LIG d   1       3.554   2.542 -10.800  0.00  0.00    -0.163 F 
ATOM     35  F   LIG d   1       3.378   2.438  -8.526  0.00  0.00    -0.163 F 
ENDBRANCH  11  32
BRANCH   1  36
ATOM     36  O   LIG d   1       4.773  -0.207  -7.992  0.00  0.00    -0.449 OA
BRANCH  36  37
ATOM     37  C   LIG d   1       4.411  -0.226  -6.681  0.00  0.00     0.129 A 
ATOM     38  C   LIG d   1       3.144   0.194  -6.305  0.00  0.00    -0.016 A 
ATOM     39  C   LIG d   1       2.777   0.174  -4.973  0.00  0.00    -0.017 A 
ATOM     40  H   LIG d   1       2.444   0.536  -7.052  0.00  0.00     0.066 H 
ATOM     41  C   LIG d   1       3.676  -0.266  -4.012  0.00  0.00     0.120 A 
ATOM     42  H   LIG d   1       1.791   0.500  -4.680  0.00  0.00     0.066 H 
ATOM     43  C   LIG d   1       4.944  -0.685  -4.390  0.00  0.00    -0.017 A 
ATOM     44  C   LIG d   1       5.309  -0.670  -5.721  0.00  0.00    -0.016 A 
ATOM     45  H   LIG d   1       5.644  -1.027  -3.641  0.00  0.00     0.066 H 
ATOM     46  H   LIG d   1       6.295  -1.001  -6.015  0.00  0.00     0.066 H 
BRANCH  41  47
ATOM     47  O   LIG d   1       3.315  -0.285  -2.702  0.00  0.00    -0.495 OA
BRANCH  47  48
ATOM     48  C   LIG d   1       4.323   0.051  -1.746  0.00  0.00     0.079 C 
ATOM     49  H   LIG d   1       4.768  -0.862  -1.349  0.00  0.00     0.066 H 
ATOM     50  H   LIG d   1       5.095   0.651  -2.228  0.00  0.00     0.066 H 
ATOM     51  H   LIG d   1       3.877   0.621  -0.932  0.00  0.00     0.066 H 
ENDBRANCH  47  48
ENDBRANCH  41  47
ENDBRANCH  36  37
ENDBRANCH   1  36
TORSDOF 7
ENDMDL
MODEL 9
REMARK VINA RESULT:      -6.0      6.346     11.832
REMARK  7 active torsions:
REMARK  status: ('A' for Active; 'I' for Inactive)
REMARK    1  A    between atoms: C_1  and  O_2 
REMARK    2  A    between atoms: O_2  and  C_3 
REMARK    3  A    between atoms: C_6  and  O_9 
REMARK    4  A    between atoms: O_9  and  C_10 
REMARK    5  A    between atoms: C_16  and  O_25 
REMARK    6  A    between atoms: C_20  and  C_21 
REMARK    7  A    between atoms: O_25  and  C_26 
REMARK       I    between atoms: C_26  and  N_28 
ROOT
ATOM      1  C   LIG d   1       3.852  -0.350  -8.784  0.00  0.00     0.222 A 
ATOM      2  C   LIG d   1       3.476  -1.718  -8.910  0.00  0.00     0.235 A 
ATOM      3  O   LIG d   1       3.969  -2.580  -8.200  0.00  0.00    -0.283 OA
ATOM      4  C   LIG d   1       2.467  -2.048  -9.931  0.00  0.00     0.068 A 
ATOM      5  C   LIG d   1       2.035  -3.361 -10.128  0.00  0.00    -0.044 A 
ATOM      6  C   LIG d   1       1.095  -3.627 -11.082  0.00  0.00    -0.018 A 
ATOM      7  C   LIG d   1       0.573  -2.599 -11.865  0.00  0.00     0.137 A 
ATOM      8  C   LIG d   1       0.991  -1.292 -11.680  0.00  0.00     0.024 A 
ATOM      9  C   LIG d   1       1.943  -1.003 -10.712  0.00  0.00     0.143 A 
ATOM     10  O   LIG d   1       2.368   0.260 -10.511  0.00  0.00    -0.447 OA
ATOM     11  C   LIG d   1       3.285   0.572  -9.586  0.00  0.00     0.254 A 
ATOM     12  H   LIG d   1       2.440  -4.161  -9.527  0.00  0.00     0.063 H 
ATOM     13  H   LIG d   1       0.757  -4.642 -11.234  0.00  0.00     0.065 H 
ATOM     14  H   LIG d   1       0.579  -0.501 -12.289  0.00  0.00     0.069 H 
ENDROOT
BRANCH   7  15
ATOM     15  O   LIG d   1      -0.358  -2.881 -12.812  0.00  0.00    -0.411 OA
BRANCH  15  16
ATOM     16  C   LIG d   1       0.023  -2.759 -14.098  0.00  0.00     0.408 C 
ATOM     17  O   LIG d   1       1.041  -3.299 -14.484  0.00  0.00    -0.226 OA
ATOM     18  N   LIG d   1      -0.727  -2.041 -14.959  0.00  0.00    -0.263 N 
ATOM     19  C   LIG d   1      -1.964  -1.380 -14.514  0.00  0.00     0.041 C 
ATOM     20  C   LIG d   1      -0.331  -1.895 -16.368  0.00  0.00     0.041 C 
ATOM     21  C   LIG d   1      -3.090  -1.760 -15.484  0.00  0.00     0.064 C 
ATOM     22  H   LIG d   1      -2.218  -1.714 -13.509  0.00  0.00     0.049 H 
ATOM     23  H   LIG d   1      -1.825  -0.299 -14.519  0.00  0.00     0.049 H 
ATOM     24  O   LIG d   1      -2.669  -1.488 -16.823  0.00  0.00    -0.377 OA
ATOM     25  H   LIG d   1      -3.314  -2.822 -15.383  0.00  0.00     0.058 H 
ATOM     26  H   LIG d   1      -3.980  -1.175 -15.256  0.00  0.00     0.058 H 
ATOM     27  C   LIG d   1      -1.536  -2.250 -17.248  0.00  0.00     0.064 C 
ATOM     28  H   LIG d   1      -1.309  -2.016 -18.288  0.00  0.00     0.058 H 
ATOM     29  H   LIG d   1      -1.756  -3.313 -17.152  0.00  0.00     0.058 H 
ATOM     30  H   LIG d   1       0.496  -2.569 -16.590  0.00  0.00     0.049 H 
ATOM     31  H   LIG d   1      -0.027  -0.866 -16.560  0.00  0.00     0.049 H 
ENDBRANCH  15  16
ENDBRANCH   7  15
BRANCH  11  32
ATOM     32  C   LIG d   1       3.697   2.013  -9.435  0.00  0.00     0.454 C 
ATOM     33  F   LIG d   1       3.059   2.566  -8.319  0.00  0.00    -0.163 F 
ATOM     34  F   LIG d   1       5.083   2.087  -9.265  0.00  0.00    -0.163 F 
ATOM     35  F   LIG d   1       3.329   2.725 -10.582  0.00  0.00    -0.163 F 
ENDBRANCH  11  32
BRANCH   1  36
ATOM     36  O   LIG d   1       4.779   0.023  -7.860  0.00  0.00    -0.449 OA
BRANCH  36  37
ATOM     37  C   LIG d   1       4.472  -0.141  -6.545  0.00  0.00     0.129 A 
ATOM     38  C   LIG d   1       3.217   0.217  -6.076  0.00  0.00    -0.016 A 
ATOM     39  C   LIG d   1       2.905   0.050  -4.741  0.00  0.00    -0.017 A 
ATOM     40  H   LIG d   1       2.483   0.626  -6.755  0.00  0.00     0.066 H 
ATOM     41  C   LIG d   1       3.848  -0.476  -3.869  0.00  0.00     0.120 A 
ATOM     42  H   LIG d   1       1.928   0.328  -4.375  0.00  0.00     0.066 H 
ATOM     43  C   LIG d   1       5.104  -0.833  -4.339  0.00  0.00    -0.017 A 
ATOM     44  C   LIG d   1       5.413  -0.671  -5.675  0.00  0.00    -0.016 A 
ATOM     45  H   LIG d   1       5.838  -1.242  -3.659  0.00  0.00     0.066 H 
ATOM     46  H   LIG d   1       6.390  -0.953  -6.040  0.00  0.00     0.066 H 
BRANCH  41  47
ATOM     47  O   LIG d   1       3.541  -0.640  -2.554  0.00  0.00    -0.495 OA
BRANCH  47  48
ATOM     48  C   LIG d   1       4.142  -1.748  -1.882  0.00  0.00     0.079 C 
ATOM     49  H   LIG d   1       4.260  -1.511  -0.824  0.00  0.00     0.066 H 
ATOM     50  H   LIG d   1       3.506  -2.626  -1.988  0.00  0.00     0.066 H 
ATOM     51  H   LIG d   1       5.119  -1.953  -2.319  0.00  0.00     0.066 H 
ENDBRANCH  47  48
ENDBRANCH  41  47
ENDBRANCH  36  37
ENDBRANCH   1  36
TORSDOF 7
ENDMDL
