MODEL 1
REMARK VINA RESULT:      -6.6      0.000      0.000
REMARK  3 active torsions:
REMARK  status: ('A' for Active; 'I' for Inactive)
REMARK    1  A    between atoms: C_1  and  C_2 
REMARK    2  A    between atoms: C_5  and  O_33 
REMARK    3  A    between atoms: C_18  and  C_28 
ROOT
ATOM      1  C   LIG d   1       5.138  -2.203  -4.123  0.00  0.00    -0.026 C 
ATOM      2  C   LIG d   1       4.045  -2.388  -3.064  0.00  0.00    -0.045 C 
ATOM      3  C   LIG d   1       3.586  -1.038  -2.518  0.00  0.00    -0.026 C 
ATOM      4  C   LIG d   1       4.769  -0.276  -1.920  0.00  0.00     0.056 C 
ATOM      5  H   LIG d   1       5.184  -0.844  -1.087  0.00  0.00     0.059 H 
ATOM      6  C   LIG d   1       5.849  -0.075  -2.986  0.00  0.00    -0.023 C 
ATOM      7  C   LIG d   1       6.304  -1.436  -3.503  0.00  0.00    -0.028 C 
ATOM      8  H   LIG d   1       6.687  -2.019  -2.654  0.00  0.00     0.031 H 
ATOM      9  C   LIG d   1       7.433  -1.269  -4.519  0.00  0.00     0.005 C 
ATOM     10  C   LIG d   1       7.929  -2.655  -4.941  0.00  0.00     0.174 C 
ATOM     11  C   LIG d   1       6.787  -3.456  -5.557  0.00  0.00     0.020 C 
ATOM     12  H   LIG d   1       6.436  -2.904  -6.438  0.00  0.00     0.036 H 
ATOM     13  C   LIG d   1       5.629  -3.582  -4.576  0.00  0.00    -0.027 C 
ATOM     14  H   LIG d   1       5.966  -4.138  -3.693  0.00  0.00     0.031 H 
ATOM     15  C   LIG d   1       4.485  -4.352  -5.239  0.00  0.00    -0.049 C 
ATOM     16  C   LIG d   1       4.971  -5.754  -5.601  0.00  0.00    -0.042 C 
ATOM     17  C   LIG d   1       6.133  -5.693  -6.591  0.00  0.00     0.025 C 
ATOM     18  C   LIG d   1       7.265  -4.800  -6.051  0.00  0.00    -0.023 C 
ATOM     19  H   LIG d   1       7.994  -4.640  -6.848  0.00  0.00     0.031 H 
ATOM     20  C   LIG d   1       7.909  -5.661  -4.952  0.00  0.00    -0.044 C 
ATOM     21  C   LIG d   1       7.882  -7.092  -5.544  0.00  0.00     0.002 C 
ATOM     22  C   LIG d   1       6.783  -7.096  -6.612  0.00  0.00     0.176 C 
ATOM     23  O   LIG d   1       5.797  -8.100  -6.328  0.00  0.00    -0.346 OA
ATOM     24  C   LIG d   1       6.375  -9.304  -6.892  0.00  0.00     0.074 C 
ATOM     25  C   LIG d   1       7.109  -8.783  -8.147  0.00  0.00     0.074 C 
ATOM     26  O   LIG d   1       7.317  -7.378  -7.906  0.00  0.00    -0.346 OA
ATOM     27  O   LIG d   1       8.998  -2.501  -5.896  0.00  0.00    -0.346 OA
ATOM     28  C   LIG d   1      10.145  -2.247  -5.037  0.00  0.00     0.074 C 
ATOM     29  C   LIG d   1       9.908  -3.299  -3.922  0.00  0.00     0.074 C 
ATOM     30  O   LIG d   1       8.469  -3.324  -3.793  0.00  0.00    -0.346 OA
ATOM     31  H   LIG d   1       3.193  -2.901  -3.514  0.00  0.00     0.027 H 
ATOM     32  H   LIG d   1       4.437  -2.997  -2.248  0.00  0.00     0.027 H 
ATOM     33  H   LIG d   1       3.121  -0.444  -3.301  0.00  0.00     0.029 H 
ATOM     34  H   LIG d   1       2.843  -1.208  -1.731  0.00  0.00     0.029 H 
ATOM     35  H   LIG d   1       6.702   0.438  -2.530  0.00  0.00     0.029 H 
ATOM     36  H   LIG d   1       5.465   0.542  -3.792  0.00  0.00     0.029 H 
ATOM     37  H   LIG d   1       8.259  -0.727  -4.047  0.00  0.00     0.032 H 
ATOM     38  H   LIG d   1       7.101  -0.713  -5.388  0.00  0.00     0.032 H 
ATOM     39  H   LIG d   1       4.147  -3.848  -6.141  0.00  0.00     0.027 H 
ATOM     40  H   LIG d   1       3.648  -4.439  -4.542  0.00  0.00     0.027 H 
ATOM     41  H   LIG d   1       4.145  -6.311  -6.048  0.00  0.00     0.027 H 
ATOM     42  H   LIG d   1       5.294  -6.264  -4.693  0.00  0.00     0.027 H 
ATOM     43  H   LIG d   1       7.329  -5.617  -4.032  0.00  0.00     0.027 H 
ATOM     44  H   LIG d   1       8.939  -5.352  -4.774  0.00  0.00     0.027 H 
ATOM     45  H   LIG d   1       7.650  -7.815  -4.763  0.00  0.00     0.032 H 
ATOM     46  H   LIG d   1       8.845  -7.327  -5.998  0.00  0.00     0.032 H 
ATOM     47  H   LIG d   1       5.595 -10.013  -7.168  0.00  0.00     0.058 H 
ATOM     48  H   LIG d   1       7.078  -9.759  -6.195  0.00  0.00     0.058 H 
ATOM     49  H   LIG d   1       6.492  -8.928  -9.034  0.00  0.00     0.058 H 
ATOM     50  H   LIG d   1       8.066  -9.292  -8.266  0.00  0.00     0.058 H 
ATOM     51  H   LIG d   1      10.117  -1.236  -4.638  0.00  0.00     0.058 H 
ATOM     52  H   LIG d   1      11.075  -2.441  -5.568  0.00  0.00     0.058 H 
ATOM     53  H   LIG d   1      10.366  -2.972  -2.987  0.00  0.00     0.058 H 
ATOM     54  H   LIG d   1      10.294  -4.270  -4.219  0.00  0.00     0.058 H 
ENDROOT
BRANCH   1  55
ATOM     55  C   LIG d   1       4.561  -1.433  -5.311  0.00  0.00    -0.059 C 
ATOM     56  H   LIG d   1       4.542  -2.079  -6.188  0.00  0.00     0.024 H 
ATOM     57  H   LIG d   1       3.547  -1.110  -5.076  0.00  0.00     0.024 H 
ATOM     58  H   LIG d   1       5.182  -0.561  -5.515  0.00  0.00     0.024 H 
ENDBRANCH   1  55
BRANCH  17  59
ATOM     59  C   LIG d   1       5.680  -5.265  -7.988  0.00  0.00    -0.054 C 
ATOM     60  H   LIG d   1       5.051  -4.378  -7.911  0.00  0.00     0.024 H 
ATOM     61  H   LIG d   1       6.553  -5.038  -8.600  0.00  0.00     0.024 H 
ATOM     62  H   LIG d   1       5.113  -6.074  -8.449  0.00  0.00     0.024 H 
ENDBRANCH  17  59
BRANCH   4  63
ATOM     63  O   LIG d   1       4.325   0.999  -1.449  0.00  0.00    -0.392 OA
ATOM     64  H   LIG d   1       3.622   0.952  -0.787  0.00  0.00     0.210 HD
ENDBRANCH   4  63
TORSDOF 3
ENDMDL
MODEL 2
REMARK VINA RESULT:      -6.6      4.096      6.195
REMARK  3 active torsions:
REMARK  status: ('A' for Active; 'I' for Inactive)
REMARK    1  A    between atoms: C_1  and  C_2 
REMARK    2  A    between atoms: C_5  and  O_33 
REMARK    3  A    between atoms: C_18  and  C_28 
ROOT
ATOM      1  C   LIG d   1       7.314   0.375  -5.790  0.00  0.00    -0.026 C 
ATOM      2  C   LIG d   1       8.140   1.562  -6.302  0.00  0.00    -0.045 C 
ATOM      3  C   LIG d   1       9.311   1.850  -5.366  0.00  0.00    -0.026 C 
ATOM      4  C   LIG d   1       8.805   2.138  -3.952  0.00  0.00     0.056 C 
ATOM      5  H   LIG d   1       8.169   3.024  -3.966  0.00  0.00     0.059 H 
ATOM      6  C   LIG d   1       7.998   0.943  -3.437  0.00  0.00    -0.023 C 
ATOM      7  C   LIG d   1       6.825   0.685  -4.377  0.00  0.00    -0.028 C 
ATOM      8  H   LIG d   1       6.207   1.593  -4.417  0.00  0.00     0.031 H 
ATOM      9  C   LIG d   1       5.961  -0.459  -3.848  0.00  0.00     0.005 C 
ATOM     10  C   LIG d   1       4.743  -0.624  -4.762  0.00  0.00     0.174 C 
ATOM     11  C   LIG d   1       5.193  -0.925  -6.187  0.00  0.00     0.020 C 
ATOM     12  H   LIG d   1       5.765  -1.860  -6.160  0.00  0.00     0.036 H 
ATOM     13  C   LIG d   1       6.103   0.180  -6.708  0.00  0.00    -0.027 C 
ATOM     14  H   LIG d   1       5.540   1.120  -6.745  0.00  0.00     0.031 H 
ATOM     15  C   LIG d   1       6.571  -0.173  -8.122  0.00  0.00    -0.049 C 
ATOM     16  C   LIG d   1       5.354  -0.275  -9.039  0.00  0.00    -0.042 C 
ATOM     17  C   LIG d   1       4.403  -1.375  -8.569  0.00  0.00     0.025 C 
ATOM     18  C   LIG d   1       4.011  -1.166  -7.095  0.00  0.00    -0.023 C 
ATOM     19  H   LIG d   1       3.479  -2.053  -6.746  0.00  0.00     0.031 H 
ATOM     20  C   LIG d   1       3.030   0.016  -7.147  0.00  0.00    -0.044 C 
ATOM     21  C   LIG d   1       2.207  -0.247  -8.433  0.00  0.00     0.002 C 
ATOM     22  C   LIG d   1       3.064  -1.163  -9.313  0.00  0.00     0.176 C 
ATOM     23  O   LIG d   1       3.302  -0.563 -10.596  0.00  0.00    -0.346 OA
ATOM     24  C   LIG d   1       2.117  -0.915 -11.353  0.00  0.00     0.074 C 
ATOM     25  C   LIG d   1       1.771  -2.325 -10.826  0.00  0.00     0.074 C 
ATOM     26  O   LIG d   1       2.418  -2.416  -9.542  0.00  0.00    -0.346 OA
ATOM     27  O   LIG d   1       3.923  -1.700  -4.262  0.00  0.00    -0.346 OA
ATOM     28  C   LIG d   1       3.164  -1.045  -3.208  0.00  0.00     0.074 C 
ATOM     29  C   LIG d   1       2.793   0.290  -3.906  0.00  0.00     0.074 C 
ATOM     30  O   LIG d   1       3.959   0.576  -4.709  0.00  0.00    -0.346 OA
ATOM     31  H   LIG d   1       8.524   1.328  -7.296  0.00  0.00     0.027 H 
ATOM     32  H   LIG d   1       7.498   2.442  -6.365  0.00  0.00     0.027 H 
ATOM     33  H   LIG d   1      10.004   1.012  -5.347  0.00  0.00     0.029 H 
ATOM     34  H   LIG d   1       9.849   2.732  -5.733  0.00  0.00     0.029 H 
ATOM     35  H   LIG d   1       7.613   1.182  -2.440  0.00  0.00     0.029 H 
ATOM     36  H   LIG d   1       8.638   0.069  -3.360  0.00  0.00     0.029 H 
ATOM     37  H   LIG d   1       5.616  -0.208  -2.841  0.00  0.00     0.032 H 
ATOM     38  H   LIG d   1       6.521  -1.386  -3.805  0.00  0.00     0.032 H 
ATOM     39  H   LIG d   1       7.104  -1.121  -8.131  0.00  0.00     0.027 H 
ATOM     40  H   LIG d   1       7.230   0.613  -8.497  0.00  0.00     0.027 H 
ATOM     41  H   LIG d   1       5.692  -0.499 -10.052  0.00  0.00     0.027 H 
ATOM     42  H   LIG d   1       4.830   0.681  -9.042  0.00  0.00     0.027 H 
ATOM     43  H   LIG d   1       3.563   0.962  -7.221  0.00  0.00     0.027 H 
ATOM     44  H   LIG d   1       2.373   0.011  -6.278  0.00  0.00     0.027 H 
ATOM     45  H   LIG d   1       2.009   0.692  -8.949  0.00  0.00     0.032 H 
ATOM     46  H   LIG d   1       1.269  -0.741  -8.181  0.00  0.00     0.032 H 
ATOM     47  H   LIG d   1       2.337  -0.945 -12.420  0.00  0.00     0.058 H 
ATOM     48  H   LIG d   1       1.306  -0.216 -11.147  0.00  0.00     0.058 H 
ATOM     49  H   LIG d   1       2.160  -3.087 -11.501  0.00  0.00     0.058 H 
ATOM     50  H   LIG d   1       0.692  -2.434 -10.714  0.00  0.00     0.058 H 
ATOM     51  H   LIG d   1       3.783  -0.872  -2.331  0.00  0.00     0.058 H 
ATOM     52  H   LIG d   1       2.273  -1.620  -2.962  0.00  0.00     0.058 H 
ATOM     53  H   LIG d   1       2.641   1.076  -3.165  0.00  0.00     0.058 H 
ATOM     54  H   LIG d   1       1.908   0.169  -4.524  0.00  0.00     0.058 H 
ENDROOT
BRANCH   1  55
ATOM     55  C   LIG d   1       8.185  -0.881  -5.792  0.00  0.00    -0.059 C 
ATOM     56  H   LIG d   1       8.377  -1.192  -4.766  0.00  0.00     0.024 H 
ATOM     57  H   LIG d   1       7.669  -1.679  -6.325  0.00  0.00     0.024 H 
ATOM     58  H   LIG d   1       9.131  -0.665  -6.289  0.00  0.00     0.024 H 
ENDBRANCH   1  55
BRANCH  17  59
ATOM     59  C   LIG d   1       4.968  -2.773  -8.821  0.00  0.00    -0.054 C 
ATOM     60  H   LIG d   1       5.940  -2.866  -8.336  0.00  0.00     0.024 H 
ATOM     61  H   LIG d   1       4.287  -3.520  -8.414  0.00  0.00     0.024 H 
ATOM     62  H   LIG d   1       5.082  -2.931  -9.894  0.00  0.00     0.024 H 
ENDBRANCH  17  59
BRANCH   4  63
ATOM     63  O   LIG d   1       9.918   2.368  -3.085  0.00  0.00    -0.392 OA
ATOM     64  H   LIG d   1       9.763   3.051  -2.418  0.00  0.00     0.210 HD
ENDBRANCH   4  63
TORSDOF 3
ENDMDL
MODEL 3
REMARK VINA RESULT:      -6.4      4.384      7.682
REMARK  3 active torsions:
REMARK  status: ('A' for Active; 'I' for Inactive)
REMARK    1  A    between atoms: C_1  and  C_2 
REMARK    2  A    between atoms: C_5  and  O_33 
REMARK    3  A    between atoms: C_18  and  C_28 
ROOT
ATOM      1  C   LIG d   1       4.285  -2.181 -10.181  0.00  0.00    -0.026 C 
ATOM      2  C   LIG d   1       3.461  -3.411 -10.580  0.00  0.00    -0.045 C 
ATOM      3  C   LIG d   1       3.565  -3.668 -12.081  0.00  0.00    -0.026 C 
ATOM      4  C   LIG d   1       3.091  -2.445 -12.866  0.00  0.00     0.056 C 
ATOM      5  H   LIG d   1       2.042  -2.250 -12.638  0.00  0.00     0.059 H 
ATOM      6  C   LIG d   1       3.929  -1.224 -12.479  0.00  0.00    -0.023 C 
ATOM      7  C   LIG d   1       3.796  -0.975 -10.980  0.00  0.00    -0.028 C 
ATOM      8  H   LIG d   1       2.733  -0.817 -10.749  0.00  0.00     0.031 H 
ATOM      9  C   LIG d   1       4.567   0.281 -10.578  0.00  0.00     0.005 C 
ATOM     10  C   LIG d   1       4.330   0.552  -9.089  0.00  0.00     0.174 C 
ATOM     11  C   LIG d   1       4.799  -0.636  -8.258  0.00  0.00     0.020 C 
ATOM     12  H   LIG d   1       5.871  -0.766  -8.444  0.00  0.00     0.036 H 
ATOM     13  C   LIG d   1       4.080  -1.909  -8.687  0.00  0.00    -0.027 C 
ATOM     14  H   LIG d   1       3.006  -1.794  -8.499  0.00  0.00     0.031 H 
ATOM     15  C   LIG d   1       4.603  -3.089  -7.864  0.00  0.00    -0.049 C 
ATOM     16  C   LIG d   1       4.307  -2.837  -6.387  0.00  0.00    -0.042 C 
ATOM     17  C   LIG d   1       5.009  -1.572  -5.895  0.00  0.00     0.025 C 
ATOM     18  C   LIG d   1       4.646  -0.366  -6.780  0.00  0.00    -0.023 C 
ATOM     19  H   LIG d   1       5.291   0.473  -6.511  0.00  0.00     0.031 H 
ATOM     20  C   LIG d   1       3.202  -0.036  -6.366  0.00  0.00    -0.044 C 
ATOM     21  C   LIG d   1       3.200  -0.262  -4.833  0.00  0.00     0.002 C 
ATOM     22  C   LIG d   1       4.372  -1.202  -4.535  0.00  0.00     0.176 C 
ATOM     23  O   LIG d   1       3.919  -2.388  -3.865  0.00  0.00    -0.346 OA
ATOM     24  C   LIG d   1       3.865  -1.985  -2.474  0.00  0.00     0.074 C 
ATOM     25  C   LIG d   1       5.061  -1.017  -2.344  0.00  0.00     0.074 C 
ATOM     26  O   LIG d   1       5.337  -0.577  -3.687  0.00  0.00    -0.346 OA
ATOM     27  O   LIG d   1       5.052   1.740  -8.708  0.00  0.00    -0.346 OA
ATOM     28  C   LIG d   1       4.155   2.801  -9.142  0.00  0.00     0.074 C 
ATOM     29  C   LIG d   1       2.790   2.233  -8.671  0.00  0.00     0.074 C 
ATOM     30  O   LIG d   1       2.934   0.811  -8.882  0.00  0.00    -0.346 OA
ATOM     31  H   LIG d   1       3.834  -4.283 -10.040  0.00  0.00     0.027 H 
ATOM     32  H   LIG d   1       2.417  -3.244 -10.311  0.00  0.00     0.027 H 
ATOM     33  H   LIG d   1       4.588  -3.912 -12.360  0.00  0.00     0.029 H 
ATOM     34  H   LIG d   1       2.927  -4.521 -12.340  0.00  0.00     0.029 H 
ATOM     35  H   LIG d   1       3.551  -0.351 -13.022  0.00  0.00     0.029 H 
ATOM     36  H   LIG d   1       4.966  -1.381 -12.759  0.00  0.00     0.029 H 
ATOM     37  H   LIG d   1       4.190   1.130 -11.156  0.00  0.00     0.032 H 
ATOM     38  H   LIG d   1       5.628   0.169 -10.770  0.00  0.00     0.032 H 
ATOM     39  H   LIG d   1       5.675  -3.211  -7.997  0.00  0.00     0.027 H 
ATOM     40  H   LIG d   1       4.095  -4.005  -8.174  0.00  0.00     0.027 H 
ATOM     41  H   LIG d   1       4.655  -3.692  -5.805  0.00  0.00     0.027 H 
ATOM     42  H   LIG d   1       3.230  -2.731  -6.253  0.00  0.00     0.027 H 
ATOM     43  H   LIG d   1       2.494  -0.706  -6.852  0.00  0.00     0.027 H 
ATOM     44  H   LIG d   1       2.964   1.004  -6.589  0.00  0.00     0.027 H 
ATOM     45  H   LIG d   1       2.262  -0.721  -4.525  0.00  0.00     0.032 H 
ATOM     46  H   LIG d   1       3.341   0.687  -4.316  0.00  0.00     0.032 H 
ATOM     47  H   LIG d   1       3.992  -2.846  -1.817  0.00  0.00     0.058 H 
ATOM     48  H   LIG d   1       2.928  -1.472  -2.256  0.00  0.00     0.058 H 
ATOM     49  H   LIG d   1       5.926  -1.537  -1.931  0.00  0.00     0.058 H 
ATOM     50  H   LIG d   1       4.796  -0.167  -1.715  0.00  0.00     0.058 H 
ATOM     51  H   LIG d   1       4.182   2.916 -10.223  0.00  0.00     0.058 H 
ATOM     52  H   LIG d   1       4.388   3.734  -8.634  0.00  0.00     0.058 H 
ATOM     53  H   LIG d   1       1.982   2.627  -9.290  0.00  0.00     0.058 H 
ATOM     54  H   LIG d   1       2.617   2.461  -7.624  0.00  0.00     0.058 H 
ENDROOT
BRANCH   1  55
ATOM     55  C   LIG d   1       5.762  -2.451 -10.469  0.00  0.00    -0.059 C 
ATOM     56  H   LIG d   1       6.362  -2.134  -9.616  0.00  0.00     0.024 H 
ATOM     57  H   LIG d   1       5.909  -3.518 -10.641  0.00  0.00     0.024 H 
ATOM     58  H   LIG d   1       6.067  -1.895 -11.355  0.00  0.00     0.024 H 
ENDBRANCH   1  55
BRANCH  17  59
ATOM     59  C   LIG d   1       6.521  -1.761  -5.773  0.00  0.00    -0.054 C 
ATOM     60  H   LIG d   1       6.862  -1.361  -4.818  0.00  0.00     0.024 H 
ATOM     61  H   LIG d   1       6.761  -2.822  -5.828  0.00  0.00     0.024 H 
ATOM     62  H   LIG d   1       7.020  -1.233  -6.586  0.00  0.00     0.024 H 
ENDBRANCH  17  59
BRANCH   4  63
ATOM     63  O   LIG d   1       3.232  -2.692 -14.267  0.00  0.00    -0.392 OA
ATOM     64  H   LIG d   1       4.122  -2.962 -14.532  0.00  0.00     0.210 HD
ENDBRANCH   4  63
TORSDOF 3
ENDMDL
MODEL 4
REMARK VINA RESULT:      -6.1      2.103      6.919
REMARK  3 active torsions:
REMARK  status: ('A' for Active; 'I' for Inactive)
REMARK    1  A    between atoms: C_1  and  C_2 
REMARK    2  A    between atoms: C_5  and  O_33 
REMARK    3  A    between atoms: C_18  and  C_28 
ROOT
ATOM      1  C   LIG d   1       8.526  -4.744  -5.089  0.00  0.00    -0.026 C 
ATOM      2  C   LIG d   1       9.267  -5.392  -3.912  0.00  0.00    -0.045 C 
ATOM      3  C   LIG d   1      10.276  -6.423  -4.410  0.00  0.00    -0.026 C 
ATOM      4  C   LIG d   1       9.574  -7.498  -5.239  0.00  0.00     0.056 C 
ATOM      5  H   LIG d   1       8.848  -8.023  -4.617  0.00  0.00     0.059 H 
ATOM      6  C   LIG d   1       8.853  -6.851  -6.424  0.00  0.00    -0.023 C 
ATOM      7  C   LIG d   1       7.838  -5.838  -5.903  0.00  0.00    -0.028 C 
ATOM      8  H   LIG d   1       7.131  -6.364  -5.247  0.00  0.00     0.031 H 
ATOM      9  C   LIG d   1       7.053  -5.226  -7.063  0.00  0.00     0.005 C 
ATOM     10  C   LIG d   1       5.981  -4.291  -6.496  0.00  0.00     0.174 C 
ATOM     11  C   LIG d   1       6.631  -3.189  -5.667  0.00  0.00     0.020 C 
ATOM     12  H   LIG d   1       7.298  -2.627  -6.331  0.00  0.00     0.036 H 
ATOM     13  C   LIG d   1       7.465  -3.785  -4.540  0.00  0.00    -0.027 C 
ATOM     14  H   LIG d   1       6.807  -4.345  -3.865  0.00  0.00     0.031 H 
ATOM     15  C   LIG d   1       8.136  -2.656  -3.755  0.00  0.00    -0.049 C 
ATOM     16  C   LIG d   1       7.058  -1.764  -3.143  0.00  0.00    -0.042 C 
ATOM     17  C   LIG d   1       6.190  -1.130  -4.228  0.00  0.00     0.025 C 
ATOM     18  C   LIG d   1       5.602  -2.208  -5.157  0.00  0.00    -0.023 C 
ATOM     19  H   LIG d   1       5.136  -1.716  -6.013  0.00  0.00     0.031 H 
ATOM     20  C   LIG d   1       4.505  -2.863  -4.301  0.00  0.00    -0.044 C 
ATOM     21  C   LIG d   1       3.879  -1.671  -3.534  0.00  0.00     0.002 C 
ATOM     22  C   LIG d   1       4.934  -0.561  -3.527  0.00  0.00     0.176 C 
ATOM     23  O   LIG d   1       5.255  -0.169  -2.184  0.00  0.00    -0.346 OA
ATOM     24  C   LIG d   1       4.218   0.790  -1.860  0.00  0.00     0.074 C 
ATOM     25  C   LIG d   1       3.974   1.509  -3.205  0.00  0.00     0.074 C 
ATOM     26  O   LIG d   1       4.468   0.604  -4.210  0.00  0.00    -0.346 OA
ATOM     27  O   LIG d   1       5.235  -3.716  -7.588  0.00  0.00    -0.346 OA
ATOM     28  C   LIG d   1       4.285  -4.772  -7.903  0.00  0.00     0.074 C 
ATOM     29  C   LIG d   1       3.851  -5.202  -6.476  0.00  0.00     0.074 C 
ATOM     30  O   LIG d   1       5.065  -5.062  -5.706  0.00  0.00    -0.346 OA
ATOM     31  H   LIG d   1       9.792  -4.617  -3.350  0.00  0.00     0.027 H 
ATOM     32  H   LIG d   1       8.541  -5.878  -3.257  0.00  0.00     0.027 H 
ATOM     33  H   LIG d   1      11.053  -5.947  -5.003  0.00  0.00     0.029 H 
ATOM     34  H   LIG d   1      10.750  -6.901  -3.545  0.00  0.00     0.029 H 
ATOM     35  H   LIG d   1       8.326  -7.630  -6.984  0.00  0.00     0.029 H 
ATOM     36  H   LIG d   1       9.574  -6.378  -7.084  0.00  0.00     0.029 H 
ATOM     37  H   LIG d   1       6.563  -6.028  -7.623  0.00  0.00     0.032 H 
ATOM     38  H   LIG d   1       7.706  -4.679  -7.734  0.00  0.00     0.032 H 
ATOM     39  H   LIG d   1       8.771  -2.056  -4.401  0.00  0.00     0.027 H 
ATOM     40  H   LIG d   1       8.742  -3.080  -2.950  0.00  0.00     0.027 H 
ATOM     41  H   LIG d   1       7.539  -0.977  -2.560  0.00  0.00     0.027 H 
ATOM     42  H   LIG d   1       6.433  -2.365  -2.482  0.00  0.00     0.027 H 
ATOM     43  H   LIG d   1       4.932  -3.583  -3.605  0.00  0.00     0.027 H 
ATOM     44  H   LIG d   1       3.753  -3.336  -4.933  0.00  0.00     0.027 H 
ATOM     45  H   LIG d   1       3.639  -1.969  -2.514  0.00  0.00     0.032 H 
ATOM     46  H   LIG d   1       2.980  -1.330  -4.047  0.00  0.00     0.032 H 
ATOM     47  H   LIG d   1       4.566   1.493  -1.104  0.00  0.00     0.058 H 
ATOM     48  H   LIG d   1       3.314   0.282  -1.524  0.00  0.00     0.058 H 
ATOM     49  H   LIG d   1       4.525   2.448  -3.237  0.00  0.00     0.058 H 
ATOM     50  H   LIG d   1       2.909   1.691  -3.350  0.00  0.00     0.058 H 
ATOM     51  H   LIG d   1       4.770  -5.589  -8.431  0.00  0.00     0.058 H 
ATOM     52  H   LIG d   1       3.442  -4.376  -8.466  0.00  0.00     0.058 H 
ATOM     53  H   LIG d   1       3.522  -6.243  -6.478  0.00  0.00     0.058 H 
ATOM     54  H   LIG d   1       3.066  -4.553  -6.099  0.00  0.00     0.058 H 
ENDROOT
BRANCH   1  55
ATOM     55  C   LIG d   1       9.529  -3.982  -5.954  0.00  0.00    -0.059 C 
ATOM     56  H   LIG d   1      10.529  -4.382  -5.791  0.00  0.00     0.024 H 
ATOM     57  H   LIG d   1       9.259  -4.092  -7.005  0.00  0.00     0.024 H 
ATOM     58  H   LIG d   1       9.512  -2.926  -5.684  0.00  0.00     0.024 H 
ENDBRANCH   1  55
BRANCH  17  59
ATOM     59  C   LIG d   1       6.937  -0.047  -5.006  0.00  0.00    -0.054 C 
ATOM     60  H   LIG d   1       8.008  -0.243  -4.967  0.00  0.00     0.024 H 
ATOM     61  H   LIG d   1       6.605  -0.049  -6.044  0.00  0.00     0.024 H 
ATOM     62  H   LIG d   1       6.731   0.927  -4.561  0.00  0.00     0.024 H 
ENDBRANCH  17  59
BRANCH   4  63
ATOM     63  O   LIG d   1      10.541  -8.432  -5.726  0.00  0.00    -0.392 OA
ATOM     64  H   LIG d   1      10.227  -9.347  -5.753  0.00  0.00     0.210 HD
ENDBRANCH   4  63
TORSDOF 3
ENDMDL
MODEL 5
REMARK VINA RESULT:      -5.9      3.229      4.724
REMARK  3 active torsions:
REMARK  status: ('A' for Active; 'I' for Inactive)
REMARK    1  A    between atoms: C_1  and  C_2 
REMARK    2  A    between atoms: C_5  and  O_33 
REMARK    3  A    between atoms: C_18  and  C_28 
ROOT
ATOM      1  C   LIG d   1       4.550  -1.025  -5.348  0.00  0.00    -0.026 C 
ATOM      2  C   LIG d   1       3.431  -0.096  -4.860  0.00  0.00    -0.045 C 
ATOM      3  C   LIG d   1       3.806   0.551  -3.529  0.00  0.00    -0.026 C 
ATOM      4  C   LIG d   1       4.090  -0.521  -2.477  0.00  0.00     0.056 C 
ATOM      5  H   LIG d   1       3.191  -1.117  -2.312  0.00  0.00     0.059 H 
ATOM      6  C   LIG d   1       5.221  -1.433  -2.958  0.00  0.00    -0.023 C 
ATOM      7  C   LIG d   1       4.817  -2.082  -4.279  0.00  0.00    -0.028 C 
ATOM      8  H   LIG d   1       3.891  -2.650  -4.116  0.00  0.00     0.031 H 
ATOM      9  C   LIG d   1       5.900  -3.053  -4.748  0.00  0.00     0.005 C 
ATOM     10  C   LIG d   1       5.417  -3.756  -6.020  0.00  0.00     0.174 C 
ATOM     11  C   LIG d   1       5.130  -2.729  -7.110  0.00  0.00     0.020 C 
ATOM     12  H   LIG d   1       6.065  -2.196  -7.314  0.00  0.00     0.036 H 
ATOM     13  C   LIG d   1       4.094  -1.718  -6.635  0.00  0.00    -0.027 C 
ATOM     14  H   LIG d   1       3.150  -2.240  -6.434  0.00  0.00     0.031 H 
ATOM     15  C   LIG d   1       3.860  -0.679  -7.734  0.00  0.00    -0.049 C 
ATOM     16  C   LIG d   1       3.321  -1.381  -8.979  0.00  0.00    -0.042 C 
ATOM     17  C   LIG d   1       4.323  -2.407  -9.507  0.00  0.00     0.025 C 
ATOM     18  C   LIG d   1       4.724  -3.399  -8.401  0.00  0.00    -0.023 C 
ATOM     19  H   LIG d   1       5.560  -4.003  -8.758  0.00  0.00     0.031 H 
ATOM     20  C   LIG d   1       3.485  -4.300  -8.258  0.00  0.00    -0.044 C 
ATOM     21  C   LIG d   1       2.995  -4.483  -9.716  0.00  0.00     0.002 C 
ATOM     22  C   LIG d   1       3.563  -3.304 -10.513  0.00  0.00     0.176 C 
ATOM     23  O   LIG d   1       2.511  -2.557 -11.141  0.00  0.00    -0.346 OA
ATOM     24  C   LIG d   1       2.268  -3.291 -12.367  0.00  0.00     0.074 C 
ATOM     25  C   LIG d   1       3.676  -3.786 -12.763  0.00  0.00     0.074 C 
ATOM     26  O   LIG d   1       4.444  -3.750 -11.545  0.00  0.00    -0.346 OA
ATOM     27  O   LIG d   1       6.434  -4.677  -6.462  0.00  0.00    -0.346 OA
ATOM     28  C   LIG d   1       6.191  -5.836  -5.615  0.00  0.00     0.074 C 
ATOM     29  C   LIG d   1       4.643  -5.912  -5.670  0.00  0.00     0.074 C 
ATOM     30  O   LIG d   1       4.245  -4.523  -5.710  0.00  0.00    -0.346 OA
ATOM     31  H   LIG d   1       3.264   0.685  -5.605  0.00  0.00     0.027 H 
ATOM     32  H   LIG d   1       2.514  -0.675  -4.738  0.00  0.00     0.027 H 
ATOM     33  H   LIG d   1       4.675   1.195  -3.646  0.00  0.00     0.029 H 
ATOM     34  H   LIG d   1       2.967   1.167  -3.186  0.00  0.00     0.029 H 
ATOM     35  H   LIG d   1       5.384  -2.216  -2.210  0.00  0.00     0.029 H 
ATOM     36  H   LIG d   1       6.138  -0.863  -3.067  0.00  0.00     0.029 H 
ATOM     37  H   LIG d   1       6.064  -3.805  -3.970  0.00  0.00     0.032 H 
ATOM     38  H   LIG d   1       6.834  -2.538  -4.940  0.00  0.00     0.032 H 
ATOM     39  H   LIG d   1       4.784  -0.165  -7.987  0.00  0.00     0.027 H 
ATOM     40  H   LIG d   1       3.123   0.053  -7.396  0.00  0.00     0.027 H 
ATOM     41  H   LIG d   1       3.128  -0.635  -9.751  0.00  0.00     0.027 H 
ATOM     42  H   LIG d   1       2.386  -1.882  -8.728  0.00  0.00     0.027 H 
ATOM     43  H   LIG d   1       2.719  -3.816  -7.655  0.00  0.00     0.027 H 
ATOM     44  H   LIG d   1       3.757  -5.266  -7.833  0.00  0.00     0.027 H 
ATOM     45  H   LIG d   1       1.907  -4.469  -9.749  0.00  0.00     0.032 H 
ATOM     46  H   LIG d   1       3.371  -5.423 -10.120  0.00  0.00     0.032 H 
ATOM     47  H   LIG d   1       1.859  -2.634 -13.135  0.00  0.00     0.058 H 
ATOM     48  H   LIG d   1       1.599  -4.133 -12.187  0.00  0.00     0.058 H 
ATOM     49  H   LIG d   1       4.115  -3.122 -13.508  0.00  0.00     0.058 H 
ATOM     50  H   LIG d   1       3.626  -4.805 -13.148  0.00  0.00     0.058 H 
ATOM     51  H   LIG d   1       6.542  -5.658  -4.602  0.00  0.00     0.058 H 
ATOM     52  H   LIG d   1       6.643  -6.727  -6.045  0.00  0.00     0.058 H 
ATOM     53  H   LIG d   1       4.254  -6.391  -4.770  0.00  0.00     0.058 H 
ATOM     54  H   LIG d   1       4.313  -6.442  -6.559  0.00  0.00     0.058 H 
ENDROOT
BRANCH   1  55
ATOM     55  C   LIG d   1       5.808  -0.198  -5.612  0.00  0.00    -0.059 C 
ATOM     56  H   LIG d   1       6.660  -0.666  -5.118  0.00  0.00     0.024 H 
ATOM     57  H   LIG d   1       5.992  -0.150  -6.685  0.00  0.00     0.024 H 
ATOM     58  H   LIG d   1       5.669   0.809  -5.221  0.00  0.00     0.024 H 
ENDBRANCH   1  55
BRANCH  17  59
ATOM     59  C   LIG d   1       5.540  -1.746 -10.154  0.00  0.00    -0.054 C 
ATOM     60  H   LIG d   1       5.434  -1.770 -11.239  0.00  0.00     0.024 H 
ATOM     61  H   LIG d   1       5.613  -0.711  -9.821  0.00  0.00     0.024 H 
ATOM     62  H   LIG d   1       6.442  -2.285  -9.866  0.00  0.00     0.024 H 
ENDBRANCH  17  59
BRANCH   4  63
ATOM     63  O   LIG d   1       4.475   0.105  -1.251  0.00  0.00    -0.392 OA
ATOM     64  H   LIG d   1       4.166  -0.357  -0.459  0.00  0.00     0.210 HD
ENDBRANCH   4  63
TORSDOF 3
ENDMDL
MODEL 6
REMARK VINA RESULT:      -5.9      8.319     12.531
REMARK  3 active torsions:
REMARK  status: ('A' for Active; 'I' for Inactive)
REMARK    1  A    between atoms: C_1  and  C_2 
REMARK    2  A    between atoms: C_5  and  O_33 
REMARK    3  A    between atoms: C_18  and  C_28 
ROOT
ATOM      1  C   LIG d   1      10.124   3.659  -4.128  0.00  0.00    -0.026 C 
ATOM      2  C   LIG d   1       9.160   2.651  -3.493  0.00  0.00    -0.045 C 
ATOM      3  C   LIG d   1       8.907   1.477  -4.435  0.00  0.00    -0.026 C 
ATOM      4  C   LIG d   1       8.341   1.974  -5.766  0.00  0.00     0.056 C 
ATOM      5  H   LIG d   1       7.385   2.468  -5.593  0.00  0.00     0.059 H 
ATOM      6  C   LIG d   1       9.316   2.965  -6.406  0.00  0.00    -0.023 C 
ATOM      7  C   LIG d   1       9.540   4.137  -5.456  0.00  0.00    -0.028 C 
ATOM      8  H   LIG d   1       8.568   4.609  -5.255  0.00  0.00     0.031 H 
ATOM      9  C   LIG d   1      10.456   5.177  -6.099  0.00  0.00     0.005 C 
ATOM     10  C   LIG d   1      10.577   6.379  -5.158  0.00  0.00     0.174 C 
ATOM     11  C   LIG d   1      11.149   5.939  -3.816  0.00  0.00     0.020 C 
ATOM     12  H   LIG d   1      12.143   5.515  -4.004  0.00  0.00     0.036 H 
ATOM     13  C   LIG d   1      10.278   4.859  -3.188  0.00  0.00    -0.027 C 
ATOM     14  H   LIG d   1       9.282   5.274  -2.988  0.00  0.00     0.031 H 
ATOM     15  C   LIG d   1      10.902   4.410  -1.864  0.00  0.00    -0.049 C 
ATOM     16  C   LIG d   1      10.962   5.602  -0.911  0.00  0.00    -0.042 C 
ATOM     17  C   LIG d   1      11.831   6.720  -1.485  0.00  0.00     0.025 C 
ATOM     18  C   LIG d   1      11.350   7.118  -2.893  0.00  0.00    -0.023 C 
ATOM     19  H   LIG d   1      12.088   7.787  -3.339  0.00  0.00     0.031 H 
ATOM     20  C   LIG d   1      10.060   7.909  -2.622  0.00  0.00    -0.044 C 
ATOM     21  C   LIG d   1      10.390   8.725  -1.348  0.00  0.00     0.002 C 
ATOM     22  C   LIG d   1      11.541   7.991  -0.653  0.00  0.00     0.176 C 
ATOM     23  O   LIG d   1      11.181   7.629   0.689  0.00  0.00    -0.346 OA
ATOM     24  C   LIG d   1      11.466   8.831   1.446  0.00  0.00     0.074 C 
ATOM     25  C   LIG d   1      12.717   9.400   0.741  0.00  0.00     0.074 C 
ATOM     26  O   LIG d   1      12.708   8.811  -0.574  0.00  0.00    -0.346 OA
ATOM     27  O   LIG d   1      11.436   7.365  -5.765  0.00  0.00    -0.346 OA
ATOM     28  C   LIG d   1      10.529   8.048  -6.675  0.00  0.00     0.074 C 
ATOM     29  C   LIG d   1       9.274   8.194  -5.775  0.00  0.00     0.074 C 
ATOM     30  O   LIG d   1       9.282   6.975  -4.998  0.00  0.00    -0.346 OA
ATOM     31  H   LIG d   1       9.592   2.278  -2.563  0.00  0.00     0.027 H 
ATOM     32  H   LIG d   1       8.215   3.150  -3.272  0.00  0.00     0.027 H 
ATOM     33  H   LIG d   1       9.824   0.918  -4.609  0.00  0.00     0.029 H 
ATOM     34  H   LIG d   1       8.177   0.802  -3.973  0.00  0.00     0.029 H 
ATOM     35  H   LIG d   1       8.878   3.338  -7.338  0.00  0.00     0.029 H 
ATOM     36  H   LIG d   1      10.252   2.466  -6.640  0.00  0.00     0.029 H 
ATOM     37  H   LIG d   1      10.009   5.509  -7.041  0.00  0.00     0.032 H 
ATOM     38  H   LIG d   1      11.437   4.764  -6.302  0.00  0.00     0.032 H 
ATOM     39  H   LIG d   1      11.907   4.026  -2.018  0.00  0.00     0.027 H 
ATOM     40  H   LIG d   1      10.284   3.630  -1.414  0.00  0.00     0.027 H 
ATOM     41  H   LIG d   1      11.381   5.273   0.041  0.00  0.00     0.027 H 
ATOM     42  H   LIG d   1       9.952   5.976  -0.745  0.00  0.00     0.027 H 
ATOM     43  H   LIG d   1       9.222   7.238  -2.440  0.00  0.00     0.027 H 
ATOM     44  H   LIG d   1       9.840   8.584  -3.450  0.00  0.00     0.027 H 
ATOM     45  H   LIG d   1       9.520   8.764  -0.694  0.00  0.00     0.032 H 
ATOM     46  H   LIG d   1      10.700   9.733  -1.621  0.00  0.00     0.032 H 
ATOM     47  H   LIG d   1      11.686   8.588   2.486  0.00  0.00     0.058 H 
ATOM     48  H   LIG d   1      10.635   9.533   1.384  0.00  0.00     0.058 H 
ATOM     49  H   LIG d   1      13.619   9.111   1.279  0.00  0.00     0.058 H 
ATOM     50  H   LIG d   1      12.651  10.486   0.669  0.00  0.00     0.058 H 
ATOM     51  H   LIG d   1      10.319   7.435  -7.548  0.00  0.00     0.058 H 
ATOM     52  H   LIG d   1      10.926   9.021  -6.956  0.00  0.00     0.058 H 
ATOM     53  H   LIG d   1       8.372   8.247  -6.387  0.00  0.00     0.058 H 
ATOM     54  H   LIG d   1       9.356   9.069  -5.137  0.00  0.00     0.058 H 
ENDROOT
BRANCH   1  55
ATOM     55  C   LIG d   1      11.479   2.987  -4.349  0.00  0.00    -0.059 C 
ATOM     56  H   LIG d   1      12.007   2.912  -3.399  0.00  0.00     0.024 H 
ATOM     57  H   LIG d   1      11.326   1.989  -4.760  0.00  0.00     0.024 H 
ATOM     58  H   LIG d   1      12.069   3.581  -5.047  0.00  0.00     0.024 H 
ENDBRANCH   1  55
BRANCH  17  59
ATOM     59  C   LIG d   1      13.318   6.364  -1.465  0.00  0.00    -0.054 C 
ATOM     60  H   LIG d   1      13.814   6.827  -2.319  0.00  0.00     0.024 H 
ATOM     61  H   LIG d   1      13.767   6.730  -0.543  0.00  0.00     0.024 H 
ATOM     62  H   LIG d   1      13.433   5.281  -1.521  0.00  0.00     0.024 H 
ENDBRANCH  17  59
BRANCH   4  63
ATOM     63  O   LIG d   1       8.147   0.863  -6.646  0.00  0.00    -0.392 OA
ATOM     64  H   LIG d   1       8.640   0.927  -7.475  0.00  0.00     0.210 HD
ENDBRANCH   4  63
TORSDOF 3
ENDMDL
MODEL 7
REMARK VINA RESULT:      -5.8      2.296      3.860
REMARK  3 active torsions:
REMARK  status: ('A' for Active; 'I' for Inactive)
REMARK    1  A    between atoms: C_1  and  C_2 
REMARK    2  A    between atoms: C_5  and  O_33 
REMARK    3  A    between atoms: C_18  and  C_28 
ROOT
ATOM      1  C   LIG d   1       5.208  -1.220  -3.862  0.00  0.00    -0.026 C 
ATOM      2  C   LIG d   1       5.852  -0.422  -2.723  0.00  0.00    -0.045 C 
ATOM      3  C   LIG d   1       4.791   0.314  -1.909  0.00  0.00    -0.026 C 
ATOM      4  C   LIG d   1       3.982   1.249  -2.809  0.00  0.00     0.056 C 
ATOM      5  H   LIG d   1       4.644   2.000  -3.242  0.00  0.00     0.059 H 
ATOM      6  C   LIG d   1       3.324   0.445  -3.933  0.00  0.00    -0.023 C 
ATOM      7  C   LIG d   1       4.404  -0.266  -4.743  0.00  0.00    -0.028 C 
ATOM      8  H   LIG d   1       5.089   0.493  -5.146  0.00  0.00     0.031 H 
ATOM      9  C   LIG d   1       3.779  -1.020  -5.916  0.00  0.00     0.005 C 
ATOM     10  C   LIG d   1       4.899  -1.638  -6.760  0.00  0.00     0.174 C 
ATOM     11  C   LIG d   1       5.731  -2.591  -5.910  0.00  0.00     0.020 C 
ATOM     12  H   LIG d   1       5.061  -3.380  -5.549  0.00  0.00     0.036 H 
ATOM     13  C   LIG d   1       6.313  -1.866  -4.703  0.00  0.00    -0.027 C 
ATOM     14  H   LIG d   1       6.991  -1.078  -5.052  0.00  0.00     0.031 H 
ATOM     15  C   LIG d   1       7.107  -2.859  -3.850  0.00  0.00    -0.049 C 
ATOM     16  C   LIG d   1       8.257  -3.423  -4.681  0.00  0.00    -0.042 C 
ATOM     17  C   LIG d   1       7.733  -4.170  -5.907  0.00  0.00     0.025 C 
ATOM     18  C   LIG d   1       6.797  -3.272  -6.735  0.00  0.00    -0.023 C 
ATOM     19  H   LIG d   1       6.309  -3.883  -7.498  0.00  0.00     0.031 H 
ATOM     20  C   LIG d   1       7.757  -2.288  -7.425  0.00  0.00    -0.044 C 
ATOM     21  C   LIG d   1       8.979  -3.166  -7.793  0.00  0.00     0.002 C 
ATOM     22  C   LIG d   1       8.936  -4.378  -6.857  0.00  0.00     0.176 C 
ATOM     23  O   LIG d   1      10.151  -4.482  -6.098  0.00  0.00    -0.346 OA
ATOM     24  C   LIG d   1      11.046  -5.184  -6.996  0.00  0.00     0.074 C 
ATOM     25  C   LIG d   1      10.103  -6.160  -7.736  0.00  0.00     0.074 C 
ATOM     26  O   LIG d   1       8.787  -5.595  -7.589  0.00  0.00    -0.346 OA
ATOM     27  O   LIG d   1       4.313  -2.346  -7.871  0.00  0.00    -0.346 OA
ATOM     28  C   LIG d   1       4.058  -1.273  -8.821  0.00  0.00     0.074 C 
ATOM     29  C   LIG d   1       5.375  -0.462  -8.699  0.00  0.00     0.074 C 
ATOM     30  O   LIG d   1       5.708  -0.583  -7.299  0.00  0.00    -0.346 OA
ATOM     31  H   LIG d   1       6.396  -1.106  -2.069  0.00  0.00     0.027 H 
ATOM     32  H   LIG d   1       6.553   0.301  -3.145  0.00  0.00     0.027 H 
ATOM     33  H   LIG d   1       4.126  -0.392  -1.417  0.00  0.00     0.029 H 
ATOM     34  H   LIG d   1       5.287   0.912  -1.137  0.00  0.00     0.029 H 
ATOM     35  H   LIG d   1       2.781   1.135  -4.588  0.00  0.00     0.029 H 
ATOM     36  H   LIG d   1       2.616  -0.265  -3.517  0.00  0.00     0.029 H 
ATOM     37  H   LIG d   1       3.219  -0.313  -6.536  0.00  0.00     0.032 H 
ATOM     38  H   LIG d   1       3.104  -1.795  -5.571  0.00  0.00     0.032 H 
ATOM     39  H   LIG d   1       6.474  -3.677  -3.515  0.00  0.00     0.027 H 
ATOM     40  H   LIG d   1       7.520  -2.345  -2.979  0.00  0.00     0.027 H 
ATOM     41  H   LIG d   1       8.838  -4.109  -4.062  0.00  0.00     0.027 H 
ATOM     42  H   LIG d   1       8.900  -2.603  -5.002  0.00  0.00     0.027 H 
ATOM     43  H   LIG d   1       8.051  -1.490  -6.746  0.00  0.00     0.027 H 
ATOM     44  H   LIG d   1       7.307  -1.879  -8.329  0.00  0.00     0.027 H 
ATOM     45  H   LIG d   1       9.901  -2.606  -7.641  0.00  0.00     0.032 H 
ATOM     46  H   LIG d   1       8.905  -3.492  -8.830  0.00  0.00     0.032 H 
ATOM     47  H   LIG d   1      11.804  -5.730  -6.436  0.00  0.00     0.058 H 
ATOM     48  H   LIG d   1      11.511  -4.492  -7.698  0.00  0.00     0.058 H 
ATOM     49  H   LIG d   1      10.146  -7.148  -7.276  0.00  0.00     0.058 H 
ATOM     50  H   LIG d   1      10.374  -6.222  -8.790  0.00  0.00     0.058 H 
ATOM     51  H   LIG d   1       3.199  -0.679  -8.517  0.00  0.00     0.058 H 
ATOM     52  H   LIG d   1       3.934  -1.671  -9.826  0.00  0.00     0.058 H 
ATOM     53  H   LIG d   1       5.201   0.584  -8.958  0.00  0.00     0.058 H 
ATOM     54  H   LIG d   1       6.151  -0.889  -9.328  0.00  0.00     0.058 H 
ENDROOT
BRANCH   1  55
ATOM     55  C   LIG d   1       4.299  -2.297  -3.270  0.00  0.00    -0.059 C 
ATOM     56  H   LIG d   1       4.558  -3.265  -3.696  0.00  0.00     0.024 H 
ATOM     57  H   LIG d   1       4.432  -2.328  -2.188  0.00  0.00     0.024 H 
ATOM     58  H   LIG d   1       3.260  -2.063  -3.502  0.00  0.00     0.024 H 
ENDBRANCH   1  55
BRANCH  17  59
ATOM     59  C   LIG d   1       7.075  -5.499  -5.536  0.00  0.00    -0.054 C 
ATOM     60  H   LIG d   1       7.382  -6.268  -6.246  0.00  0.00     0.024 H 
ATOM     61  H   LIG d   1       7.383  -5.790  -4.532  0.00  0.00     0.024 H 
ATOM     62  H   LIG d   1       5.991  -5.389  -5.567  0.00  0.00     0.024 H 
ENDBRANCH  17  59
BRANCH   4  63
ATOM     63  O   LIG d   1       2.971   1.899  -2.035  0.00  0.00    -0.392 OA
ATOM     64  H   LIG d   1       2.303   1.298  -1.675  0.00  0.00     0.210 HD
ENDBRANCH   4  63
TORSDOF 3
ENDMDL
MODEL 8
REMARK VINA RESULT:      -5.7      2.778      7.106
REMARK  3 active torsions:
REMARK  status: ('A' for Active; 'I' for Inactive)
REMARK    1  A    between atoms: C_1  and  C_2 
REMARK    2  A    between atoms: C_5  and  O_33 
REMARK    3  A    between atoms: C_18  and  C_28 
ROOT
ATOM      1  C   LIG d   1       6.508  -3.431  -5.983  0.00  0.00    -0.026 C 
ATOM      2  C   LIG d   1       7.204  -4.620  -5.310  0.00  0.00    -0.045 C 
ATOM      3  C   LIG d   1       6.562  -5.937  -5.738  0.00  0.00    -0.026 C 
ATOM      4  C   LIG d   1       5.073  -5.941  -5.393  0.00  0.00     0.056 C 
ATOM      5  H   LIG d   1       4.949  -5.850  -4.313  0.00  0.00     0.059 H 
ATOM      6  C   LIG d   1       4.378  -4.765  -6.084  0.00  0.00    -0.023 C 
ATOM      7  C   LIG d   1       5.023  -3.460  -5.627  0.00  0.00    -0.028 C 
ATOM      8  H   LIG d   1       4.929  -3.391  -4.534  0.00  0.00     0.031 H 
ATOM      9  C   LIG d   1       4.302  -2.264  -6.247  0.00  0.00     0.005 C 
ATOM     10  C   LIG d   1       4.913  -0.974  -5.691  0.00  0.00     0.174 C 
ATOM     11  C   LIG d   1       6.400  -0.914  -6.019  0.00  0.00     0.020 C 
ATOM     12  H   LIG d   1       6.497  -0.929  -7.111  0.00  0.00     0.036 H 
ATOM     13  C   LIG d   1       7.124  -2.131  -5.457  0.00  0.00    -0.027 C 
ATOM     14  H   LIG d   1       7.040  -2.124  -4.364  0.00  0.00     0.031 H 
ATOM     15  C   LIG d   1       8.605  -2.062  -5.839  0.00  0.00    -0.049 C 
ATOM     16  C   LIG d   1       9.220  -0.804  -5.229  0.00  0.00    -0.042 C 
ATOM     17  C   LIG d   1       8.537   0.454  -5.762  0.00  0.00     0.025 C 
ATOM     18  C   LIG d   1       7.014   0.382  -5.548  0.00  0.00    -0.023 C 
ATOM     19  H   LIG d   1       6.545   1.207  -6.089  0.00  0.00     0.031 H 
ATOM     20  C   LIG d   1       6.851   0.622  -4.037  0.00  0.00    -0.044 C 
ATOM     21  C   LIG d   1       7.913   1.703  -3.721  0.00  0.00     0.002 C 
ATOM     22  C   LIG d   1       8.958   1.622  -4.839  0.00  0.00     0.176 C 
ATOM     23  O   LIG d   1      10.265   1.377  -4.300  0.00  0.00    -0.346 OA
ATOM     24  C   LIG d   1      10.730   2.702  -3.938  0.00  0.00     0.074 C 
ATOM     25  C   LIG d   1      10.126   3.597  -5.043  0.00  0.00     0.074 C 
ATOM     26  O   LIG d   1       9.023   2.842  -5.578  0.00  0.00    -0.346 OA
ATOM     27  O   LIG d   1       4.231   0.156  -6.271  0.00  0.00    -0.346 OA
ATOM     28  C   LIG d   1       3.036   0.253  -5.445  0.00  0.00     0.074 C 
ATOM     29  C   LIG d   1       3.643   0.032  -4.034  0.00  0.00     0.074 C 
ATOM     30  O   LIG d   1       4.693  -0.931  -4.274  0.00  0.00    -0.346 OA
ATOM     31  H   LIG d   1       8.258  -4.625  -5.594  0.00  0.00     0.027 H 
ATOM     32  H   LIG d   1       7.127  -4.512  -4.227  0.00  0.00     0.027 H 
ATOM     33  H   LIG d   1       6.695  -6.101  -6.805  0.00  0.00     0.029 H 
ATOM     34  H   LIG d   1       7.049  -6.759  -5.203  0.00  0.00     0.029 H 
ATOM     35  H   LIG d   1       3.321  -4.762  -5.795  0.00  0.00     0.029 H 
ATOM     36  H   LIG d   1       4.441  -4.876  -7.162  0.00  0.00     0.029 H 
ATOM     37  H   LIG d   1       3.245  -2.303  -5.969  0.00  0.00     0.032 H 
ATOM     38  H   LIG d   1       4.380  -2.276  -7.328  0.00  0.00     0.032 H 
ATOM     39  H   LIG d   1       8.727  -2.030  -6.919  0.00  0.00     0.027 H 
ATOM     40  H   LIG d   1       9.126  -2.937  -5.444  0.00  0.00     0.027 H 
ATOM     41  H   LIG d   1      10.281  -0.772  -5.479  0.00  0.00     0.027 H 
ATOM     42  H   LIG d   1       9.111  -0.845  -4.145  0.00  0.00     0.027 H 
ATOM     43  H   LIG d   1       7.052  -0.288  -3.475  0.00  0.00     0.027 H 
ATOM     44  H   LIG d   1       5.854   1.002  -3.812  0.00  0.00     0.027 H 
ATOM     45  H   LIG d   1       8.378   1.500  -2.757  0.00  0.00     0.032 H 
ATOM     46  H   LIG d   1       7.450   2.690  -3.713  0.00  0.00     0.032 H 
ATOM     47  H   LIG d   1      11.819   2.747  -3.957  0.00  0.00     0.058 H 
ATOM     48  H   LIG d   1      10.351   2.990  -2.958  0.00  0.00     0.058 H 
ATOM     49  H   LIG d   1      10.866   3.791  -5.820  0.00  0.00     0.058 H 
ATOM     50  H   LIG d   1       9.771   4.536  -4.617  0.00  0.00     0.058 H 
ATOM     51  H   LIG d   1       2.325  -0.530  -5.695  0.00  0.00     0.058 H 
ATOM     52  H   LIG d   1       2.590   1.241  -5.529  0.00  0.00     0.058 H 
ATOM     53  H   LIG d   1       2.894  -0.386  -3.360  0.00  0.00     0.058 H 
ATOM     54  H   LIG d   1       4.043   0.960  -3.636  0.00  0.00     0.058 H 
ENDROOT
BRANCH   1  55
ATOM     55  C   LIG d   1       6.699  -3.529  -7.497  0.00  0.00    -0.059 C 
ATOM     56  H   LIG d   1       6.929  -4.559  -7.768  0.00  0.00     0.024 H 
ATOM     57  H   LIG d   1       5.783  -3.217  -7.999  0.00  0.00     0.024 H 
ATOM     58  H   LIG d   1       7.520  -2.881  -7.802  0.00  0.00     0.024 H 
ENDBRANCH   1  55
BRANCH  17  59
ATOM     59  C   LIG d   1       8.899   0.735  -7.220  0.00  0.00    -0.054 C 
ATOM     60  H   LIG d   1       9.442   1.678  -7.286  0.00  0.00     0.024 H 
ATOM     61  H   LIG d   1       9.525  -0.071  -7.601  0.00  0.00     0.024 H 
ATOM     62  H   LIG d   1       7.988   0.799  -7.815  0.00  0.00     0.024 H 
ENDBRANCH  17  59
BRANCH   4  63
ATOM     63  O   LIG d   1       4.484  -7.166  -5.836  0.00  0.00    -0.392 OA
ATOM     64  H   LIG d   1       4.514  -7.294  -6.794  0.00  0.00     0.210 HD
ENDBRANCH   4  63
TORSDOF 3
ENDMDL
MODEL 9
REMARK VINA RESULT:      -5.6     10.191     12.844
REMARK  3 active torsions:
REMARK  status: ('A' for Active; 'I' for Inactive)
REMARK    1  A    between atoms: C_1  and  C_2 
REMARK    2  A    between atoms: C_5  and  O_33 
REMARK    3  A    between atoms: C_18  and  C_28 
ROOT
ATOM      1  C   LIG d   1      10.654   5.670  -4.619  0.00  0.00    -0.026 C 
ATOM      2  C   LIG d   1      11.692   4.567  -4.380  0.00  0.00    -0.045 C 
ATOM      3  C   LIG d   1      11.512   3.944  -2.999  0.00  0.00    -0.026 C 
ATOM      4  C   LIG d   1      11.627   5.013  -1.912  0.00  0.00     0.056 C 
ATOM      5  H   LIG d   1      12.622   5.459  -1.944  0.00  0.00     0.059 H 
ATOM      6  C   LIG d   1      10.576   6.102  -2.142  0.00  0.00    -0.023 C 
ATOM      7  C   LIG d   1      10.787   6.722  -3.520  0.00  0.00    -0.028 C 
ATOM      8  H   LIG d   1      11.804   7.137  -3.560  0.00  0.00     0.031 H 
ATOM      9  C   LIG d   1       9.794   7.861  -3.748  0.00  0.00     0.005 C 
ATOM     10  C   LIG d   1      10.100   8.521  -5.096  0.00  0.00     0.174 C 
ATOM     11  C   LIG d   1       9.986   7.498  -6.219  0.00  0.00     0.020 C 
ATOM     12  H   LIG d   1       8.957   7.119  -6.217  0.00  0.00     0.036 H 
ATOM     13  C   LIG d   1      10.929   6.326  -5.976  0.00  0.00    -0.027 C 
ATOM     14  H   LIG d   1      11.963   6.691  -5.982  0.00  0.00     0.031 H 
ATOM     15  C   LIG d   1      10.760   5.298  -7.097  0.00  0.00    -0.049 C 
ATOM     16  C   LIG d   1      11.126   5.948  -8.430  0.00  0.00    -0.042 C 
ATOM     17  C   LIG d   1      10.207   7.131  -8.733  0.00  0.00     0.025 C 
ATOM     18  C   LIG d   1      10.209   8.138  -7.569  0.00  0.00    -0.023 C 
ATOM     19  H   LIG d   1       9.420   8.873  -7.740  0.00  0.00     0.031 H 
ATOM     20  C   LIG d   1      11.574   8.834  -7.697  0.00  0.00    -0.044 C 
ATOM     21  C   LIG d   1      11.767   8.986  -9.226  0.00  0.00     0.002 C 
ATOM     22  C   LIG d   1      10.866   7.932  -9.880  0.00  0.00     0.176 C 
ATOM     23  O   LIG d   1      11.633   7.054 -10.718  0.00  0.00    -0.346 OA
ATOM     24  C   LIG d   1      11.722   7.780 -11.969  0.00  0.00     0.074 C 
ATOM     25  C   LIG d   1      10.356   8.497 -12.055  0.00  0.00     0.074 C 
ATOM     26  O   LIG d   1       9.868   8.540 -10.701  0.00  0.00    -0.346 OA
ATOM     27  O   LIG d   1       9.168   9.600  -5.312  0.00  0.00    -0.346 OA
ATOM     28  C   LIG d   1       9.762  10.681  -4.539  0.00  0.00     0.074 C 
ATOM     29  C   LIG d   1      11.257  10.522  -4.925  0.00  0.00     0.074 C 
ATOM     30  O   LIG d   1      11.415   9.091  -5.045  0.00  0.00    -0.346 OA
ATOM     31  H   LIG d   1      11.574   3.794  -5.142  0.00  0.00     0.027 H 
ATOM     32  H   LIG d   1      12.693   4.995  -4.459  0.00  0.00     0.027 H 
ATOM     33  H   LIG d   1      10.548   3.444  -2.925  0.00  0.00     0.029 H 
ATOM     34  H   LIG d   1      12.298   3.196  -2.842  0.00  0.00     0.029 H 
ATOM     35  H   LIG d   1      10.699   6.876  -1.378  0.00  0.00     0.029 H 
ATOM     36  H   LIG d   1       9.579   5.681  -2.051  0.00  0.00     0.029 H 
ATOM     37  H   LIG d   1       9.917   8.604  -2.955  0.00  0.00     0.032 H 
ATOM     38  H   LIG d   1       8.772   7.500  -3.735  0.00  0.00     0.032 H 
ATOM     39  H   LIG d   1       9.736   4.939  -7.146  0.00  0.00     0.027 H 
ATOM     40  H   LIG d   1      11.429   4.452  -6.923  0.00  0.00     0.027 H 
ATOM     41  H   LIG d   1      11.032   5.206  -9.224  0.00  0.00     0.027 H 
ATOM     42  H   LIG d   1      12.160   6.293  -8.386  0.00  0.00     0.027 H 
ATOM     43  H   LIG d   1      12.366   8.220  -7.271  0.00  0.00     0.027 H 
ATOM     44  H   LIG d   1      11.552   9.816  -7.225  0.00  0.00     0.027 H 
ATOM     45  H   LIG d   1      12.808   8.807  -9.491  0.00  0.00     0.032 H 
ATOM     46  H   LIG d   1      11.465   9.984  -9.543  0.00  0.00     0.032 H 
ATOM     47  H   LIG d   1      11.851   7.093 -12.805  0.00  0.00     0.058 H 
ATOM     48  H   LIG d   1      12.536   8.505 -11.938  0.00  0.00     0.058 H 
ATOM     49  H   LIG d   1       9.671   7.931 -12.687  0.00  0.00     0.058 H 
ATOM     50  H   LIG d   1      10.482   9.507 -12.445  0.00  0.00     0.058 H 
ATOM     51  H   LIG d   1       9.611  10.528  -3.474  0.00  0.00     0.058 H 
ATOM     52  H   LIG d   1       9.374  11.644  -4.864  0.00  0.00     0.058 H 
ATOM     53  H   LIG d   1      11.896  10.908  -4.129  0.00  0.00     0.058 H 
ATOM     54  H   LIG d   1      11.469  11.023  -5.865  0.00  0.00     0.058 H 
ENDROOT
BRANCH   1  55
ATOM     55  C   LIG d   1       9.255   5.054  -4.606  0.00  0.00    -0.059 C 
ATOM     56  H   LIG d   1       9.232   4.191  -5.270  0.00  0.00     0.024 H 
ATOM     57  H   LIG d   1       9.007   4.739  -3.592  0.00  0.00     0.024 H 
ATOM     58  H   LIG d   1       8.530   5.794  -4.945  0.00  0.00     0.024 H 
ENDBRANCH   1  55
BRANCH  17  59
ATOM     59  C   LIG d   1       8.793   6.684  -9.104  0.00  0.00    -0.054 C 
ATOM     60  H   LIG d   1       8.555   5.757  -8.580  0.00  0.00     0.024 H 
ATOM     61  H   LIG d   1       8.080   7.456  -8.817  0.00  0.00     0.024 H 
ATOM     62  H   LIG d   1       8.735   6.517 -10.180  0.00  0.00     0.024 H 
ENDBRANCH  17  59
BRANCH   4  63
ATOM     63  O   LIG d   1      11.418   4.415  -0.631  0.00  0.00    -0.392 OA
ATOM     64  H   LIG d   1      11.311   5.052   0.089  0.00  0.00     0.210 HD
ENDBRANCH   4  63
TORSDOF 3
ENDMDL
MODEL 10
REMARK VINA RESULT:      -5.6      8.136     10.768
REMARK  3 active torsions:
REMARK  status: ('A' for Active; 'I' for Inactive)
REMARK    1  A    between atoms: C_1  and  C_2 
REMARK    2  A    between atoms: C_5  and  O_33 
REMARK    3  A    between atoms: C_18  and  C_28 
ROOT
ATOM      1  C   LIG d   1      10.436   7.891  -5.034  0.00  0.00    -0.026 C 
ATOM      2  C   LIG d   1       9.263   8.541  -5.778  0.00  0.00    -0.045 C 
ATOM      3  C   LIG d   1       9.457  10.052  -5.880  0.00  0.00    -0.026 C 
ATOM      4  C   LIG d   1       9.597  10.666  -4.487  0.00  0.00     0.056 C 
ATOM      5  H   LIG d   1       8.683  10.490  -3.918  0.00  0.00     0.059 H 
ATOM      6  C   LIG d   1      10.781  10.029  -3.755  0.00  0.00    -0.023 C 
ATOM      7  C   LIG d   1      10.557   8.524  -3.650  0.00  0.00    -0.028 C 
ATOM      8  H   LIG d   1       9.616   8.352  -3.108  0.00  0.00     0.031 H 
ATOM      9  C   LIG d   1      11.691   7.871  -2.861  0.00  0.00     0.005 C 
ATOM     10  C   LIG d   1      11.383   6.380  -2.692  0.00  0.00     0.174 C 
ATOM     11  C   LIG d   1      11.245   5.715  -4.056  0.00  0.00     0.020 C 
ATOM     12  H   LIG d   1      12.200   5.838  -4.580  0.00  0.00     0.036 H 
ATOM     13  C   LIG d   1      10.156   6.393  -4.878  0.00  0.00    -0.027 C 
ATOM     14  H   LIG d   1       9.194   6.271  -4.367  0.00  0.00     0.031 H 
ATOM     15  C   LIG d   1      10.073   5.730  -6.255  0.00  0.00    -0.049 C 
ATOM     16  C   LIG d   1       9.705   4.258  -6.079  0.00  0.00    -0.042 C 
ATOM     17  C   LIG d   1      10.767   3.521  -5.265  0.00  0.00     0.025 C 
ATOM     18  C   LIG d   1      11.015   4.229  -3.921  0.00  0.00    -0.023 C 
ATOM     19  H   LIG d   1      11.891   3.783  -3.446  0.00  0.00     0.031 H 
ATOM     20  C   LIG d   1       9.767   3.877  -3.093  0.00  0.00    -0.044 C 
ATOM     21  C   LIG d   1       9.477   2.404  -3.475  0.00  0.00     0.002 C 
ATOM     22  C   LIG d   1      10.148   2.171  -4.832  0.00  0.00     0.176 C 
ATOM     23  O   LIG d   1       9.190   1.733  -5.807  0.00  0.00    -0.346 OA
ATOM     24  C   LIG d   1       9.112   0.304  -5.580  0.00  0.00     0.074 C 
ATOM     25  C   LIG d   1      10.561  -0.067  -5.191  0.00  0.00     0.074 C 
ATOM     26  O   LIG d   1      11.158   1.165  -4.746  0.00  0.00    -0.346 OA
ATOM     27  O   LIG d   1      12.449   5.763  -1.944  0.00  0.00    -0.346 OA
ATOM     28  C   LIG d   1      12.093   6.090  -0.571  0.00  0.00     0.074 C 
ATOM     29  C   LIG d   1      10.566   5.819  -0.597  0.00  0.00     0.074 C 
ATOM     30  O   LIG d   1      10.179   6.241  -1.924  0.00  0.00    -0.346 OA
ATOM     31  H   LIG d   1       9.198   8.119  -6.783  0.00  0.00     0.027 H 
ATOM     32  H   LIG d   1       8.337   8.328  -5.241  0.00  0.00     0.027 H 
ATOM     33  H   LIG d   1      10.335  10.288  -6.478  0.00  0.00     0.029 H 
ATOM     34  H   LIG d   1       8.581  10.489  -6.371  0.00  0.00     0.029 H 
ATOM     35  H   LIG d   1      10.842  10.454  -2.748  0.00  0.00     0.029 H 
ATOM     36  H   LIG d   1      11.705  10.252  -4.280  0.00  0.00     0.029 H 
ATOM     37  H   LIG d   1      11.749   8.335  -1.872  0.00  0.00     0.032 H 
ATOM     38  H   LIG d   1      12.643   7.999  -3.364  0.00  0.00     0.032 H 
ATOM     39  H   LIG d   1      11.023   5.799  -6.779  0.00  0.00     0.027 H 
ATOM     40  H   LIG d   1       9.298   6.218  -6.850  0.00  0.00     0.027 H 
ATOM     41  H   LIG d   1       9.618   3.795  -7.063  0.00  0.00     0.027 H 
ATOM     42  H   LIG d   1       8.743   4.191  -5.568  0.00  0.00     0.027 H 
ATOM     43  H   LIG d   1       8.928   4.515  -3.363  0.00  0.00     0.027 H 
ATOM     44  H   LIG d   1       9.979   3.951  -2.026  0.00  0.00     0.027 H 
ATOM     45  H   LIG d   1       8.402   2.244  -3.554  0.00  0.00     0.032 H 
ATOM     46  H   LIG d   1       9.902   1.735  -2.727  0.00  0.00     0.032 H 
ATOM     47  H   LIG d   1       8.811  -0.215  -6.490  0.00  0.00     0.058 H 
ATOM     48  H   LIG d   1       8.425   0.079  -4.764  0.00  0.00     0.058 H 
ATOM     49  H   LIG d   1      11.096  -0.457  -6.057  0.00  0.00     0.058 H 
ATOM     50  H   LIG d   1      10.561  -0.801  -4.386  0.00  0.00     0.058 H 
ATOM     51  H   LIG d   1      12.305   7.134  -0.352  0.00  0.00     0.058 H 
ATOM     52  H   LIG d   1      12.597   5.424   0.127  0.00  0.00     0.058 H 
ATOM     53  H   LIG d   1      10.060   6.426   0.155  0.00  0.00     0.058 H 
ATOM     54  H   LIG d   1      10.358   4.764  -0.442  0.00  0.00     0.058 H 
ENDROOT
BRANCH   1  55
ATOM     55  C   LIG d   1      11.720   8.106  -5.836  0.00  0.00    -0.059 C 
ATOM     56  H   LIG d   1      11.635   7.603  -6.799  0.00  0.00     0.024 H 
ATOM     57  H   LIG d   1      11.874   9.173  -5.995  0.00  0.00     0.024 H 
ATOM     58  H   LIG d   1      12.565   7.695  -5.284  0.00  0.00     0.024 H 
ENDBRANCH   1  55
BRANCH  17  59
ATOM     59  C   LIG d   1      12.060   3.317  -6.054  0.00  0.00    -0.054 C 
ATOM     60  H   LIG d   1      12.852   2.992  -5.378  0.00  0.00     0.024 H 
ATOM     61  H   LIG d   1      11.904   2.558  -6.820  0.00  0.00     0.024 H 
ATOM     62  H   LIG d   1      12.350   4.256  -6.526  0.00  0.00     0.024 H 
ENDBRANCH  17  59
BRANCH   4  63
ATOM     63  O   LIG d   1       9.815  12.074  -4.606  0.00  0.00    -0.392 OA
ATOM     64  H   LIG d   1      10.330  12.329  -5.384  0.00  0.00     0.210 HD
ENDBRANCH   4  63
TORSDOF 3
ENDMDL
