MODEL 1
REMARK VINA RESULT:      -5.5      0.000      0.000
REMARK  3 active torsions:
REMARK  status: ('A' for Active; 'I' for Inactive)
REMARK    1  A    between atoms: CB_1  and  CA_2 
REMARK       I    between atoms: CA_2  and  C_4 
REMARK       I    between atoms: CA_2  and  N_6 
REMARK       I    between atoms: N_6  and  C_7 
REMARK       I    between atoms: C_7  and  CA_9 
REMARK    2  A    between atoms: CA_9  and  CB_11 
REMARK       I    between atoms: CA_9  and  N_24 
REMARK    3  A    between atoms: CB_11  and  CG_12 
ROOT
ATOM      1  CA  ALA d   2       4.835  -3.540  -6.055  0.00  0.00     0.060 C 
ATOM      2  HA  ALA d   2       5.857  -3.688  -5.703  0.00  0.00     0.056 H 
ATOM      3  C   ALA d   2       4.299  -4.839  -6.600  0.00  0.00     0.062 C 
ATOM      4  O   ALA d   2       3.315  -5.339  -6.110  0.00  0.00    -0.548 OA
ATOM      5  N   ALA d   2       3.994  -3.094  -4.943  0.00  0.00    -0.303 N 
ATOM      6  H   ALA d   2       3.070  -3.383  -4.887  0.00  0.00     0.149 HD
ATOM      7  OXT ALA d   2       4.914  -5.439  -7.632  0.00  0.00    -0.548 OA
ATOM      8  C   ASP d   1       4.506  -2.285  -3.993  0.00  0.00     0.262 C 
ATOM      9  O   ASP d   1       5.662  -1.928  -4.060  0.00  0.00    -0.270 OA
ATOM     10  CA  ASP d   1       3.640  -1.826  -2.848  0.00  0.00     0.058 C 
ATOM     11  HA  ASP d   1       3.009  -2.650  -2.516  0.00  0.00     0.095 H 
ATOM     12  H1  ASP d   1       5.089  -0.619  -2.019  0.00  0.00     0.200 HD
ATOM     13  H2  ASP d   1       3.938  -1.131  -0.934  0.00  0.00     0.200 HD
ATOM     14  N   ASP d   1       4.507  -1.405  -1.733  0.00  0.00     0.228 N 
ATOM     15  H3  ASP d   1       5.112  -2.188  -1.461  0.00  0.00     0.200 HD
ENDROOT
BRANCH  10  16
ATOM     16  CB  ASP d   1       2.760  -0.663  -3.309  0.00  0.00     0.038 C 
ATOM     17  HB1 ASP d   1       2.523  -0.782  -4.367  0.00  0.00     0.038 H 
ATOM     18  HB2 ASP d   1       1.837  -0.653  -2.729  0.00  0.00     0.038 H 
BRANCH  16  19
ATOM     19  CG  ASP d   1       3.497   0.636  -3.102  0.00  0.00     0.048 C 
ATOM     20  OD1 ASP d   1       4.228   1.060  -3.964  0.00  0.00    -0.550 OA
ATOM     21  OD2 ASP d   1       3.338   1.322  -1.959  0.00  0.00    -0.550 OA
ENDBRANCH  16  19
ENDBRANCH  10  16
BRANCH   1  22
ATOM     22  CB  ALA d   2       4.826  -2.482  -7.160  0.00  0.00    -0.041 C 
ATOM     23  HB1 ALA d   2       4.255  -2.849  -8.011  0.00  0.00     0.025 H 
ATOM     24  HB2 ALA d   2       4.368  -1.566  -6.782  0.00  0.00     0.025 H 
ATOM     25  HB3 ALA d   2       5.850  -2.273  -7.471  0.00  0.00     0.025 H 
ENDBRANCH   1  22
TORSDOF 7
ENDMDL
MODEL 2
REMARK VINA RESULT:      -5.0      3.291      4.370
REMARK  3 active torsions:
REMARK  status: ('A' for Active; 'I' for Inactive)
REMARK    1  A    between atoms: CB_1  and  CA_2 
REMARK       I    between atoms: CA_2  and  C_4 
REMARK       I    between atoms: CA_2  and  N_6 
REMARK       I    between atoms: N_6  and  C_7 
REMARK       I    between atoms: C_7  and  CA_9 
REMARK    2  A    between atoms: CA_9  and  CB_11 
REMARK       I    between atoms: CA_9  and  N_24 
REMARK    3  A    between atoms: CB_11  and  CG_12 
ROOT
ATOM      1  CA  ALA d   2       4.188   0.483  -8.161  0.00  0.00     0.060 C 
ATOM      2  HA  ALA d   2       3.769  -0.430  -8.585  0.00  0.00     0.056 H 
ATOM      3  C   ALA d   2       3.454   1.678  -8.715  0.00  0.00     0.062 C 
ATOM      4  O   ALA d   2       2.873   2.428  -7.968  0.00  0.00    -0.548 OA
ATOM      5  N   ALA d   2       4.045   0.456  -6.704  0.00  0.00    -0.303 N 
ATOM      6  H   ALA d   2       3.870   1.276  -6.217  0.00  0.00     0.149 HD
ATOM      7  OXT ALA d   2       3.448   1.908 -10.037  0.00  0.00    -0.548 OA
ATOM      8  C   ASP d   1       4.154  -0.712  -6.038  0.00  0.00     0.262 C 
ATOM      9  O   ASP d   1       4.369  -1.738  -6.646  0.00  0.00    -0.270 OA
ATOM     10  CA  ASP d   1       4.007  -0.740  -4.538  0.00  0.00     0.058 C 
ATOM     11  HA  ASP d   1       3.204  -0.066  -4.239  0.00  0.00     0.095 H 
ATOM     12  H1  ASP d   1       4.416  -2.751  -4.370  0.00  0.00     0.200 HD
ATOM     13  H2  ASP d   1       3.520  -2.140  -3.110  0.00  0.00     0.200 HD
ATOM     14  N   ASP d   1       3.665  -2.110  -4.117  0.00  0.00     0.228 N 
ATOM     15  H3  ASP d   1       2.802  -2.403  -4.589  0.00  0.00     0.200 HD
ENDROOT
BRANCH  10  16
ATOM     16  CB  ASP d   1       5.318  -0.293  -3.889  0.00  0.00     0.038 C 
ATOM     17  HB1 ASP d   1       5.993  -1.145  -3.808  0.00  0.00     0.038 H 
ATOM     18  HB2 ASP d   1       5.782   0.480  -4.502  0.00  0.00     0.038 H 
BRANCH  16  19
ATOM     19  CG  ASP d   1       5.036   0.258  -2.515  0.00  0.00     0.048 C 
ATOM     20  OD1 ASP d   1       5.399   1.372  -2.225  0.00  0.00    -0.550 OA
ATOM     21  OD2 ASP d   1       4.379  -0.491  -1.615  0.00  0.00    -0.550 OA
ENDBRANCH  16  19
ENDBRANCH  10  16
BRANCH   1  22
ATOM     22  CB  ALA d   2       5.670   0.581  -8.528  0.00  0.00    -0.041 C 
ATOM     23  HB1 ALA d   2       6.206   1.110  -7.740  0.00  0.00     0.025 H 
ATOM     24  HB2 ALA d   2       6.084  -0.423  -8.639  0.00  0.00     0.025 H 
ATOM     25  HB3 ALA d   2       5.777   1.123  -9.468  0.00  0.00     0.025 H 
ENDBRANCH   1  22
TORSDOF 7
ENDMDL
MODEL 3
REMARK VINA RESULT:      -4.9      3.458      3.893
REMARK  3 active torsions:
REMARK  status: ('A' for Active; 'I' for Inactive)
REMARK    1  A    between atoms: CB_1  and  CA_2 
REMARK       I    between atoms: CA_2  and  C_4 
REMARK       I    between atoms: CA_2  and  N_6 
REMARK       I    between atoms: N_6  and  C_7 
REMARK       I    between atoms: C_7  and  CA_9 
REMARK    2  A    between atoms: CA_9  and  CB_11 
REMARK       I    between atoms: CA_9  and  N_24 
REMARK    3  A    between atoms: CB_11  and  CG_12 
ROOT
ATOM      1  CA  ALA d   2       3.329   0.285  -8.615  0.00  0.00     0.060 C 
ATOM      2  HA  ALA d   2       4.383   0.112  -8.833  0.00  0.00     0.056 H 
ATOM      3  C   ALA d   2       2.481  -0.426  -9.639  0.00  0.00     0.062 C 
ATOM      4  O   ALA d   2       1.696  -1.274  -9.288  0.00  0.00    -0.548 OA
ATOM      5  N   ALA d   2       3.016  -0.229  -7.280  0.00  0.00    -0.303 N 
ATOM      6  H   ALA d   2       2.150  -0.629  -7.105  0.00  0.00     0.149 HD
ATOM      7  OXT ALA d   2       2.598  -0.116 -10.939  0.00  0.00    -0.548 OA
ATOM      8  C   ASP d   1       3.932  -0.149  -6.295  0.00  0.00     0.262 C 
ATOM      9  O   ASP d   1       5.016   0.348  -6.514  0.00  0.00    -0.270 OA
ATOM     10  CA  ASP d   1       3.609  -0.677  -4.921  0.00  0.00     0.058 C 
ATOM     11  HA  ASP d   1       3.053  -1.610  -5.012  0.00  0.00     0.095 H 
ATOM     12  H1  ASP d   1       5.392  -0.071  -4.087  0.00  0.00     0.200 HD
ATOM     13  H2  ASP d   1       4.670  -1.336  -3.284  0.00  0.00     0.200 HD
ATOM     14  N   ASP d   1       4.868  -0.937  -4.201  0.00  0.00     0.228 N 
ATOM     15  H3  ASP d   1       5.434  -1.602  -4.740  0.00  0.00     0.200 HD
ENDROOT
BRANCH  10  16
ATOM     16  CB  ASP d   1       2.765   0.351  -4.165  0.00  0.00     0.038 C 
ATOM     17  HB1 ASP d   1       2.438   1.130  -4.853  0.00  0.00     0.038 H 
ATOM     18  HB2 ASP d   1       1.893  -0.142  -3.735  0.00  0.00     0.038 H 
BRANCH  16  19
ATOM     19  CG  ASP d   1       3.590   0.965  -3.062  0.00  0.00     0.048 C 
ATOM     20  OD1 ASP d   1       3.402   0.639  -1.915  0.00  0.00    -0.550 OA
ATOM     21  OD2 ASP d   1       4.534   1.872  -3.358  0.00  0.00    -0.550 OA
ENDBRANCH  16  19
ENDBRANCH  10  16
BRANCH   1  22
ATOM     22  CB  ALA d   2       3.038   1.786  -8.667  0.00  0.00    -0.041 C 
ATOM     23  HB1 ALA d   2       2.358   2.053  -7.859  0.00  0.00     0.025 H 
ATOM     24  HB2 ALA d   2       3.971   2.341  -8.556  0.00  0.00     0.025 H 
ATOM     25  HB3 ALA d   2       2.580   2.035  -9.625  0.00  0.00     0.025 H 
ENDBRANCH   1  22
TORSDOF 7
ENDMDL
MODEL 4
REMARK VINA RESULT:      -4.9      3.203      5.975
REMARK  3 active torsions:
REMARK  status: ('A' for Active; 'I' for Inactive)
REMARK    1  A    between atoms: CB_1  and  CA_2 
REMARK       I    between atoms: CA_2  and  C_4 
REMARK       I    between atoms: CA_2  and  N_6 
REMARK       I    between atoms: N_6  and  C_7 
REMARK       I    between atoms: C_7  and  CA_9 
REMARK    2  A    between atoms: CA_9  and  CB_11 
REMARK       I    between atoms: CA_9  and  N_24 
REMARK    3  A    between atoms: CB_11  and  CG_12 
ROOT
ATOM      1  CA  ALA d   2       4.043  -0.194  -3.640  0.00  0.00     0.060 C 
ATOM      2  HA  ALA d   2       4.875  -0.895  -3.575  0.00  0.00     0.056 H 
ATOM      3  C   ALA d   2       4.318   0.997  -2.758  0.00  0.00     0.062 C 
ATOM      4  O   ALA d   2       4.377   2.103  -3.239  0.00  0.00    -0.548 OA
ATOM      5  N   ALA d   2       3.887   0.251  -5.026  0.00  0.00    -0.303 N 
ATOM      6  H   ALA d   2       3.609   1.161  -5.216  0.00  0.00     0.149 HD
ATOM      7  OXT ALA d   2       4.496   0.828  -1.439  0.00  0.00    -0.548 OA
ATOM      8  C   ASP d   1       4.134  -0.602  -6.040  0.00  0.00     0.262 C 
ATOM      9  O   ASP d   1       4.485  -1.738  -5.804  0.00  0.00    -0.270 OA
ATOM     10  CA  ASP d   1       3.973  -0.144  -7.467  0.00  0.00     0.058 C 
ATOM     11  HA  ASP d   1       4.351   0.874  -7.567  0.00  0.00     0.095 H 
ATOM     12  H1  ASP d   1       4.399  -1.987  -8.282  0.00  0.00     0.200 HD
ATOM     13  H2  ASP d   1       4.691  -0.713  -9.310  0.00  0.00     0.200 HD
ATOM     14  N   ASP d   1       4.753  -1.034  -8.345  0.00  0.00     0.228 N 
ATOM     15  H3  ASP d   1       5.736  -1.022  -8.051  0.00  0.00     0.200 HD
ENDROOT
BRANCH  10  16
ATOM     16  CB  ASP d   1       2.493  -0.179  -7.850  0.00  0.00     0.038 C 
ATOM     17  HB1 ASP d   1       1.962  -0.865  -7.190  0.00  0.00     0.038 H 
ATOM     18  HB2 ASP d   1       2.068   0.820  -7.753  0.00  0.00     0.038 H 
BRANCH  16  19
ATOM     19  CG  ASP d   1       2.355  -0.646  -9.277  0.00  0.00     0.048 C 
ATOM     20  OD1 ASP d   1       1.943  -1.757  -9.512  0.00  0.00    -0.550 OA
ATOM     21  OD2 ASP d   1       2.688   0.174 -10.286  0.00  0.00    -0.550 OA
ENDBRANCH  16  19
ENDBRANCH  10  16
BRANCH   1  22
ATOM     22  CB  ALA d   2       2.758  -0.884  -3.178  0.00  0.00    -0.041 C 
ATOM     23  HB1 ALA d   2       2.046  -0.919  -4.002  0.00  0.00     0.025 H 
ATOM     24  HB2 ALA d   2       2.988  -1.900  -2.852  0.00  0.00     0.025 H 
ATOM     25  HB3 ALA d   2       2.325  -0.327  -2.346  0.00  0.00     0.025 H 
ENDBRANCH   1  22
TORSDOF 7
ENDMDL
MODEL 5
REMARK VINA RESULT:      -4.8      2.138      2.428
REMARK  3 active torsions:
REMARK  status: ('A' for Active; 'I' for Inactive)
REMARK    1  A    between atoms: CB_1  and  CA_2 
REMARK       I    between atoms: CA_2  and  C_4 
REMARK       I    between atoms: CA_2  and  N_6 
REMARK       I    between atoms: N_6  and  C_7 
REMARK       I    between atoms: C_7  and  CA_9 
REMARK    2  A    between atoms: CA_9  and  CB_11 
REMARK       I    between atoms: CA_9  and  N_24 
REMARK    3  A    between atoms: CB_11  and  CG_12 
ROOT
ATOM      1  CA  ALA d   2       3.886  -1.398  -7.911  0.00  0.00     0.060 C 
ATOM      2  HA  ALA d   2       4.795  -0.936  -8.297  0.00  0.00     0.056 H 
ATOM      3  C   ALA d   2       3.703  -2.753  -8.545  0.00  0.00     0.062 C 
ATOM      4  O   ALA d   2       3.666  -3.743  -7.853  0.00  0.00    -0.548 OA
ATOM      5  N   ALA d   2       3.992  -1.548  -6.459  0.00  0.00    -0.303 N 
ATOM      6  H   ALA d   2       3.600  -2.320  -6.020  0.00  0.00     0.149 HD
ATOM      7  OXT ALA d   2       3.582  -2.861  -9.877  0.00  0.00    -0.548 OA
ATOM      8  C   ASP d   1       4.639  -0.616  -5.730  0.00  0.00     0.262 C 
ATOM      9  O   ASP d   1       5.132   0.346  -6.278  0.00  0.00    -0.270 OA
ATOM     10  CA  ASP d   1       4.748  -0.771  -4.235  0.00  0.00     0.058 C 
ATOM     11  HA  ASP d   1       4.937  -1.817  -3.991  0.00  0.00     0.095 H 
ATOM     12  H1  ASP d   1       5.705   1.030  -3.952  0.00  0.00     0.200 HD
ATOM     13  H2  ASP d   1       5.991  -0.080  -2.747  0.00  0.00     0.200 HD
ATOM     14  N   ASP d   1       5.875   0.046  -3.751  0.00  0.00     0.228 N 
ATOM     15  H3  ASP d   1       6.735  -0.249  -4.228  0.00  0.00     0.200 HD
ENDROOT
BRANCH  10  16
ATOM     16  CB  ASP d   1       3.442  -0.321  -3.579  0.00  0.00     0.038 C 
ATOM     17  HB1 ASP d   1       2.663  -0.241  -4.337  0.00  0.00     0.038 H 
ATOM     18  HB2 ASP d   1       3.143  -1.051  -2.827  0.00  0.00     0.038 H 
BRANCH  16  19
ATOM     19  CG  ASP d   1       3.646   1.021  -2.923  0.00  0.00     0.048 C 
ATOM     20  OD1 ASP d   1       3.494   2.035  -3.561  0.00  0.00    -0.550 OA
ATOM     21  OD2 ASP d   1       3.995   1.088  -1.629  0.00  0.00    -0.550 OA
ENDBRANCH  16  19
ENDBRANCH  10  16
BRANCH   1  22
ATOM     22  CB  ALA d   2       2.683  -0.513  -8.247  0.00  0.00    -0.041 C 
ATOM     23  HB1 ALA d   2       2.983   0.534  -8.221  0.00  0.00     0.025 H 
ATOM     24  HB2 ALA d   2       2.316  -0.762  -9.243  0.00  0.00     0.025 H 
ATOM     25  HB3 ALA d   2       1.892  -0.683  -7.516  0.00  0.00     0.025 H 
ENDBRANCH   1  22
TORSDOF 7
ENDMDL
MODEL 6
REMARK VINA RESULT:      -4.7      3.522      5.428
REMARK  3 active torsions:
REMARK  status: ('A' for Active; 'I' for Inactive)
REMARK    1  A    between atoms: CB_1  and  CA_2 
REMARK       I    between atoms: CA_2  and  C_4 
REMARK       I    between atoms: CA_2  and  N_6 
REMARK       I    between atoms: N_6  and  C_7 
REMARK       I    between atoms: C_7  and  CA_9 
REMARK    2  A    between atoms: CA_9  and  CB_11 
REMARK       I    between atoms: CA_9  and  N_24 
REMARK    3  A    between atoms: CB_11  and  CG_12 
ROOT
ATOM      1  CA  ALA d   2       4.264  -1.268  -4.328  0.00  0.00     0.060 C 
ATOM      2  HA  ALA d   2       5.156  -0.652  -4.218  0.00  0.00     0.056 H 
ATOM      3  C   ALA d   2       3.525  -1.321  -3.016  0.00  0.00     0.062 C 
ATOM      4  O   ALA d   2       2.388  -0.918  -2.946  0.00  0.00    -0.548 OA
ATOM      5  N   ALA d   2       3.394  -0.690  -5.355  0.00  0.00    -0.303 N 
ATOM      6  H   ALA d   2       2.430  -0.741  -5.260  0.00  0.00     0.149 HD
ATOM      7  OXT ALA d   2       4.129  -1.818  -1.925  0.00  0.00    -0.548 OA
ATOM      8  C   ASP d   1       3.933  -0.082  -6.430  0.00  0.00     0.262 C 
ATOM      9  O   ASP d   1       5.138  -0.013  -6.548  0.00  0.00    -0.270 OA
ATOM     10  CA  ASP d   1       3.038   0.514  -7.487  0.00  0.00     0.058 C 
ATOM     11  HA  ASP d   1       2.188   1.001  -7.010  0.00  0.00     0.095 H 
ATOM     12  H1  ASP d   1       4.589   1.073  -8.721  0.00  0.00     0.200 HD
ATOM     13  H2  ASP d   1       3.200   1.961  -8.942  0.00  0.00     0.200 HD
ATOM     14  N   ASP d   1       3.802   1.517  -8.250  0.00  0.00     0.228 N 
ATOM     15  H3  ASP d   1       4.157   2.232  -7.606  0.00  0.00     0.200 HD
ENDROOT
BRANCH  10  16
ATOM     16  CB  ASP d   1       2.537  -0.595  -8.414  0.00  0.00     0.038 C 
ATOM     17  HB1 ASP d   1       2.672  -1.563  -7.930  0.00  0.00     0.038 H 
ATOM     18  HB2 ASP d   1       1.480  -0.440  -8.627  0.00  0.00     0.038 H 
BRANCH  16  19
ATOM     19  CG  ASP d   1       3.319  -0.563  -9.703  0.00  0.00     0.048 C 
ATOM     20  OD1 ASP d   1       4.391  -1.114  -9.772  0.00  0.00    -0.550 OA
ATOM     21  OD2 ASP d   1       2.821   0.077 -10.773  0.00  0.00    -0.550 OA
ENDBRANCH  16  19
ENDBRANCH  10  16
BRANCH   1  22
ATOM     22  CB  ALA d   2       4.671  -2.684  -4.742  0.00  0.00    -0.041 C 
ATOM     23  HB1 ALA d   2       4.774  -3.307  -3.854  0.00  0.00     0.025 H 
ATOM     24  HB2 ALA d   2       3.906  -3.106  -5.395  0.00  0.00     0.025 H 
ATOM     25  HB3 ALA d   2       5.622  -2.648  -5.273  0.00  0.00     0.025 H 
ENDBRANCH   1  22
TORSDOF 7
ENDMDL
MODEL 7
REMARK VINA RESULT:      -4.6      3.238      3.946
REMARK  3 active torsions:
REMARK  status: ('A' for Active; 'I' for Inactive)
REMARK    1  A    between atoms: CB_1  and  CA_2 
REMARK       I    between atoms: CA_2  and  C_4 
REMARK       I    between atoms: CA_2  and  N_6 
REMARK       I    between atoms: N_6  and  C_7 
REMARK       I    between atoms: C_7  and  CA_9 
REMARK    2  A    between atoms: CA_9  and  CB_11 
REMARK       I    between atoms: CA_9  and  N_24 
REMARK    3  A    between atoms: CB_11  and  CG_12 
ROOT
ATOM      1  CA  ALA d   2       8.141  -3.020  -4.185  0.00  0.00     0.060 C 
ATOM      2  HA  ALA d   2       8.703  -2.462  -4.934  0.00  0.00     0.056 H 
ATOM      3  C   ALA d   2       9.089  -3.861  -3.369  0.00  0.00     0.062 C 
ATOM      4  O   ALA d   2       9.166  -3.696  -2.175  0.00  0.00    -0.548 OA
ATOM      5  N   ALA d   2       7.436  -2.086  -3.306  0.00  0.00    -0.303 N 
ATOM      6  H   ALA d   2       7.327  -2.293  -2.364  0.00  0.00     0.149 HD
ATOM      7  OXT ALA d   2       9.845  -4.794  -3.969  0.00  0.00    -0.548 OA
ATOM      8  C   ASP d   1       6.942  -0.934  -3.803  0.00  0.00     0.262 C 
ATOM      9  O   ASP d   1       7.081  -0.672  -4.979  0.00  0.00    -0.270 OA
ATOM     10  CA  ASP d   1       6.217   0.028  -2.897  0.00  0.00     0.058 C 
ATOM     11  HA  ASP d   1       6.727   0.077  -1.936  0.00  0.00     0.095 H 
ATOM     12  H1  ASP d   1       5.734   1.344  -4.406  0.00  0.00     0.200 HD
ATOM     13  H2  ASP d   1       5.778   2.039  -2.897  0.00  0.00     0.200 HD
ATOM     14  N   ASP d   1       6.227   1.366  -3.515  0.00  0.00     0.228 N 
ATOM     15  H3  ASP d   1       7.198   1.655  -3.677  0.00  0.00     0.200 HD
ENDROOT
BRANCH  10  16
ATOM     16  CB  ASP d   1       4.779  -0.453  -2.689  0.00  0.00     0.038 C 
ATOM     17  HB1 ASP d   1       4.559  -1.256  -3.392  0.00  0.00     0.038 H 
ATOM     18  HB2 ASP d   1       4.664  -0.821  -1.670  0.00  0.00     0.038 H 
BRANCH  16  19
ATOM     19  CG  ASP d   1       3.828   0.694  -2.919  0.00  0.00     0.048 C 
ATOM     20  OD1 ASP d   1       3.492   1.394  -1.995  0.00  0.00    -0.550 OA
ATOM     21  OD2 ASP d   1       3.357   0.936  -4.153  0.00  0.00    -0.550 OA
ENDBRANCH  16  19
ENDBRANCH  10  16
BRANCH   1  22
ATOM     22  CB  ALA d   2       7.126  -3.929  -4.884  0.00  0.00    -0.041 C 
ATOM     23  HB1 ALA d   2       7.511  -4.947  -4.915  0.00  0.00     0.025 H 
ATOM     24  HB2 ALA d   2       6.184  -3.912  -4.334  0.00  0.00     0.025 H 
ATOM     25  HB3 ALA d   2       6.958  -3.572  -5.900  0.00  0.00     0.025 H 
ENDBRANCH   1  22
TORSDOF 7
ENDMDL
MODEL 8
REMARK VINA RESULT:      -4.5      3.657      4.107
REMARK  3 active torsions:
REMARK  status: ('A' for Active; 'I' for Inactive)
REMARK    1  A    between atoms: CB_1  and  CA_2 
REMARK       I    between atoms: CA_2  and  C_4 
REMARK       I    between atoms: CA_2  and  N_6 
REMARK       I    between atoms: N_6  and  C_7 
REMARK       I    between atoms: C_7  and  CA_9 
REMARK    2  A    between atoms: CA_9  and  CB_11 
REMARK       I    between atoms: CA_9  and  N_24 
REMARK    3  A    between atoms: CB_11  and  CG_12 
ROOT
ATOM      1  CA  ALA d   2       4.036  -4.258  -8.064  0.00  0.00     0.060 C 
ATOM      2  HA  ALA d   2       5.076  -4.276  -8.390  0.00  0.00     0.056 H 
ATOM      3  C   ALA d   2       3.774  -5.431  -7.154  0.00  0.00     0.062 C 
ATOM      4  O   ALA d   2       3.404  -5.244  -6.020  0.00  0.00    -0.548 OA
ATOM      5  N   ALA d   2       3.771  -3.012  -7.342  0.00  0.00    -0.303 N 
ATOM      6  H   ALA d   2       3.160  -3.008  -6.589  0.00  0.00     0.149 HD
ATOM      7  OXT ALA d   2       3.951  -6.683  -7.606  0.00  0.00    -0.548 OA
ATOM      8  C   ASP d   1       4.381  -1.871  -7.720  0.00  0.00     0.262 C 
ATOM      9  O   ASP d   1       5.149  -1.876  -8.659  0.00  0.00    -0.270 OA
ATOM     10  CA  ASP d   1       4.109  -0.589  -6.977  0.00  0.00     0.058 C 
ATOM     11  HA  ASP d   1       4.050  -0.794  -5.908  0.00  0.00     0.095 H 
ATOM     12  H1  ASP d   1       5.270   0.573  -8.219  0.00  0.00     0.200 HD
ATOM     13  H2  ASP d   1       5.069   1.210  -6.697  0.00  0.00     0.200 HD
ATOM     14  N   ASP d   1       5.215   0.352  -7.226  0.00  0.00     0.228 N 
ATOM     15  H3  ASP d   1       6.098  -0.079  -6.929  0.00  0.00     0.200 HD
ENDROOT
BRANCH  10  16
ATOM     16  CB  ASP d   1       2.783   0.007  -7.457  0.00  0.00     0.038 C 
ATOM     17  HB1 ASP d   1       2.233  -0.742  -8.025  0.00  0.00     0.038 H 
ATOM     18  HB2 ASP d   1       2.191   0.316  -6.595  0.00  0.00     0.038 H 
BRANCH  16  19
ATOM     19  CG  ASP d   1       3.058   1.203  -8.332  0.00  0.00     0.048 C 
ATOM     20  OD1 ASP d   1       2.901   2.318  -7.898  0.00  0.00    -0.550 OA
ATOM     21  OD2 ASP d   1       3.480   1.026  -9.595  0.00  0.00    -0.550 OA
ENDBRANCH  16  19
ENDBRANCH  10  16
BRANCH   1  22
ATOM     22  CB  ALA d   2       3.118  -4.346  -9.285  0.00  0.00    -0.041 C 
ATOM     23  HB1 ALA d   2       2.080  -4.381  -8.958  0.00  0.00     0.025 H 
ATOM     24  HB2 ALA d   2       3.271  -3.471  -9.919  0.00  0.00     0.025 H 
ATOM     25  HB3 ALA d   2       3.352  -5.248  -9.851  0.00  0.00     0.025 H 
ENDBRANCH   1  22
TORSDOF 7
ENDMDL
MODEL 9
REMARK VINA RESULT:      -4.2     12.122     14.450
REMARK  3 active torsions:
REMARK  status: ('A' for Active; 'I' for Inactive)
REMARK    1  A    between atoms: CB_1  and  CA_2 
REMARK       I    between atoms: CA_2  and  C_4 
REMARK       I    between atoms: CA_2  and  N_6 
REMARK       I    between atoms: N_6  and  C_7 
REMARK       I    between atoms: C_7  and  CA_9 
REMARK    2  A    between atoms: CA_9  and  CB_11 
REMARK       I    between atoms: CA_9  and  N_24 
REMARK    3  A    between atoms: CB_11  and  CG_12 
ROOT
ATOM      1  CA  ALA d   2      10.222   9.078  -1.075  0.00  0.00     0.060 C 
ATOM      2  HA  ALA d   2      10.146   9.695  -0.179  0.00  0.00     0.056 H 
ATOM      3  C   ALA d   2       9.731   7.686  -0.770  0.00  0.00     0.062 C 
ATOM      4  O   ALA d   2       8.795   7.229  -1.382  0.00  0.00    -0.548 OA
ATOM      5  N   ALA d   2       9.406   9.661  -2.141  0.00  0.00    -0.303 N 
ATOM      6  H   ALA d   2       8.943   9.084  -2.769  0.00  0.00     0.149 HD
ATOM      7  OXT ALA d   2      10.334   6.955   0.181  0.00  0.00    -0.548 OA
ATOM      8  C   ASP d   1       9.295  11.000  -2.250  0.00  0.00     0.262 C 
ATOM      9  O   ASP d   1       9.871  11.722  -1.464  0.00  0.00    -0.270 OA
ATOM     10  CA  ASP d   1       8.455  11.600  -3.348  0.00  0.00     0.058 C 
ATOM     11  HA  ASP d   1       7.547  11.011  -3.474  0.00  0.00     0.095 H 
ATOM     12  H1  ASP d   1       8.925  13.548  -2.871  0.00  0.00     0.200 HD
ATOM     13  H2  ASP d   1       7.483  13.384  -3.682  0.00  0.00     0.200 HD
ATOM     14  N   ASP d   1       8.088  12.977  -2.971  0.00  0.00     0.228 N 
ATOM     15  H3  ASP d   1       7.586  12.959  -2.075  0.00  0.00     0.200 HD
ENDROOT
BRANCH  10  16
ATOM     16  CB  ASP d   1       9.250  11.600  -4.656  0.00  0.00     0.038 C 
ATOM     17  HB1 ASP d   1      10.041  10.853  -4.600  0.00  0.00     0.038 H 
ATOM     18  HB2 ASP d   1       8.584  11.362  -5.485  0.00  0.00     0.038 H 
BRANCH  16  19
ATOM     19  CG  ASP d   1       9.857  12.962  -4.874  0.00  0.00     0.048 C 
ATOM     20  OD1 ASP d   1       9.374  13.716  -5.684  0.00  0.00    -0.550 OA
ATOM     21  OD2 ASP d   1      10.935  13.336  -4.167  0.00  0.00    -0.550 OA
ENDBRANCH  16  19
ENDBRANCH  10  16
BRANCH   1  22
ATOM     22  CB  ALA d   2      11.684   9.015  -1.525  0.00  0.00    -0.041 C 
ATOM     23  HB1 ALA d   2      11.804   9.580  -2.449  0.00  0.00     0.025 H 
ATOM     24  HB2 ALA d   2      12.322   9.443  -0.751  0.00  0.00     0.025 H 
ATOM     25  HB3 ALA d   2      11.967   7.976  -1.695  0.00  0.00     0.025 H 
ENDBRANCH   1  22
TORSDOF 7
ENDMDL
