MODEL 1
REMARK VINA RESULT:      -6.2      0.000      0.000
REMARK  1 active torsions:
REMARK  status: ('A' for Active; 'I' for Inactive)
REMARK    1  A    between atoms: CB_1  and  CA_2 
REMARK       I    between atoms: N_9  and  C_16 
REMARK       I    between atoms: C_16  and  N_18 
ROOT
ATOM      1  CA  ALA d   2       5.133   0.185  -2.236  0.00  0.00     0.097 C 
ATOM      2  HA  ALA d   2       5.796   0.505  -1.433  0.00  0.00     0.059 H 
ATOM      3  C   ALA d   2       5.948  -0.215  -3.441  0.00  0.00     0.236 C 
ATOM      4  O   ALA d   2       7.136  -0.443  -3.355  0.00  0.00    -0.274 OA
ATOM      5  N   ALA d   2       4.245   1.297  -2.620  0.00  0.00    -0.303 N 
ATOM      6  H   ALA d   2       4.143   2.083  -2.060  0.00  0.00     0.149 HD
ATOM      7  N   UNK d   1       5.286  -0.306  -4.638  0.00  0.00    -0.285 N 
ATOM      8  C   UNK d   1       6.065  -0.559  -5.833  0.00  0.00     0.031 C 
ATOM      9  C   UNK d   1       5.222  -0.928  -7.039  0.00  0.00     0.032 C 
ATOM     10  N   UNK d   1       3.977  -0.167  -7.048  0.00  0.00    -0.282 N 
ATOM     11  C   UNK d   1       3.104  -0.147  -5.886  0.00  0.00     0.043 C 
ATOM     12  C   UNK d   1       3.854  -0.085  -4.588  0.00  0.00     0.118 C 
ATOM     13  H   UNK d   1       3.455  -0.893  -3.974  0.00  0.00     0.061 H 
ATOM     14  C   UNK d   1       3.571   1.170  -3.800  0.00  0.00     0.236 C 
ATOM     15  O   UNK d   1       2.793   2.014  -4.192  0.00  0.00    -0.274 OA
ATOM     16  C   UNK d   1       3.632   0.527  -8.150  0.00  0.00     0.305 C 
ATOM     17  O   UNK d   1       2.714   1.323  -8.105  0.00  0.00    -0.252 OA
ATOM     18  N   UNK d   1       4.306   0.341  -9.303  0.00  0.00    -0.281 N 
ATOM     19  C   UNK d   1       5.093  -0.881  -9.531  0.00  0.00     0.040 C 
ATOM     20  C   UNK d   1       4.686  -1.466 -10.893  0.00  0.00     0.064 C 
ATOM     21  O   UNK d   1       4.792  -0.448 -11.891  0.00  0.00    -0.377 OA
ATOM     22  C   UNK d   1       3.918   0.665 -11.687  0.00  0.00     0.064 C 
ATOM     23  C   UNK d   1       4.280   1.357 -10.368  0.00  0.00     0.040 C 
ATOM     24  H   UNK d   1       6.760  -1.375  -5.631  0.00  0.00     0.048 H 
ATOM     25  H   UNK d   1       6.639   0.336  -6.070  0.00  0.00     0.048 H 
ATOM     26  H   UNK d   1       4.990  -1.993  -7.003  0.00  0.00     0.048 H 
ATOM     27  H   UNK d   1       5.781  -0.713  -7.949  0.00  0.00     0.048 H 
ATOM     28  H   UNK d   1       2.450   0.722  -5.954  0.00  0.00     0.049 H 
ATOM     29  H   UNK d   1       2.491  -1.048  -5.893  0.00  0.00     0.049 H 
ATOM     30  H   UNK d   1       6.156  -0.638  -9.536  0.00  0.00     0.049 H 
ATOM     31  H   UNK d   1       4.886  -1.605  -8.743  0.00  0.00     0.049 H 
ATOM     32  H   UNK d   1       3.658  -1.824 -10.846  0.00  0.00     0.058 H 
ATOM     33  H   UNK d   1       5.350  -2.294 -11.146  0.00  0.00     0.058 H 
ATOM     34  H   UNK d   1       2.886   0.315 -11.642  0.00  0.00     0.058 H 
ATOM     35  H   UNK d   1       4.028   1.370 -12.510  0.00  0.00     0.058 H 
ATOM     36  H   UNK d   1       3.535   2.115 -10.134  0.00  0.00     0.049 H 
ATOM     37  H   UNK d   1       5.262   1.821 -10.455  0.00  0.00     0.049 H 
ENDROOT
BRANCH   1  38
ATOM     38  CB  ALA d   2       4.293  -1.005  -1.767  0.00  0.00    -0.038 C 
ATOM     39  HB1 ALA d   2       3.402  -0.642  -1.253  0.00  0.00     0.025 H 
ATOM     40  HB2 ALA d   2       3.997  -1.603  -2.629  0.00  0.00     0.025 H 
ATOM     41  HB3 ALA d   2       4.881  -1.618  -1.084  0.00  0.00     0.025 H 
ENDBRANCH   1  38
TORSDOF 1
ENDMDL
MODEL 2
REMARK VINA RESULT:      -6.1      2.583      3.568
REMARK  1 active torsions:
REMARK  status: ('A' for Active; 'I' for Inactive)
REMARK    1  A    between atoms: CB_1  and  CA_2 
REMARK       I    between atoms: N_9  and  C_16 
REMARK       I    between atoms: C_16  and  N_18 
ROOT
ATOM      1  CA  ALA d   2       3.542   0.566  -2.718  0.00  0.00     0.097 C 
ATOM      2  HA  ALA d   2       2.855   1.154  -2.111  0.00  0.00     0.059 H 
ATOM      3  C   ALA d   2       3.218   0.754  -4.180  0.00  0.00     0.236 C 
ATOM      4  O   ALA d   2       2.526   1.673  -4.562  0.00  0.00    -0.274 OA
ATOM      5  N   ALA d   2       3.399  -0.863  -2.387  0.00  0.00    -0.303 N 
ATOM      6  H   ALA d   2       2.933  -1.156  -1.588  0.00  0.00     0.149 HD
ATOM      7  N   UNK d   1       3.739  -0.163  -5.056  0.00  0.00    -0.285 N 
ATOM      8  C   UNK d   1       3.338  -0.085  -6.446  0.00  0.00     0.031 C 
ATOM      9  C   UNK d   1       4.182  -0.944  -7.368  0.00  0.00     0.032 C 
ATOM     10  N   UNK d   1       4.545  -2.197  -6.715  0.00  0.00    -0.282 N 
ATOM     11  C   UNK d   1       5.175  -2.202  -5.405  0.00  0.00     0.043 C 
ATOM     12  C   UNK d   1       4.613  -1.165  -4.478  0.00  0.00     0.118 C 
ATOM     13  H   UNK d   1       5.471  -0.616  -4.091  0.00  0.00     0.061 H 
ATOM     14  C   UNK d   1       3.954  -1.757  -3.257  0.00  0.00     0.236 C 
ATOM     15  O   UNK d   1       3.918  -2.954  -3.061  0.00  0.00    -0.274 OA
ATOM     16  C   UNK d   1       4.293  -3.366  -7.336  0.00  0.00     0.305 C 
ATOM     17  O   UNK d   1       4.399  -4.413  -6.726  0.00  0.00    -0.252 OA
ATOM     18  N   UNK d   1       3.922  -3.376  -8.632  0.00  0.00    -0.281 N 
ATOM     19  C   UNK d   1       4.204  -2.229  -9.509  0.00  0.00     0.040 C 
ATOM     20  C   UNK d   1       4.884  -2.756 -10.783  0.00  0.00     0.064 C 
ATOM     21  O   UNK d   1       4.084  -3.800 -11.343  0.00  0.00    -0.377 OA
ATOM     22  C   UNK d   1       3.940  -4.944 -10.497  0.00  0.00     0.064 C 
ATOM     23  C   UNK d   1       3.218  -4.532  -9.209  0.00  0.00     0.040 C 
ATOM     24  H   UNK d   1       3.410   0.952  -6.773  0.00  0.00     0.048 H 
ATOM     25  H   UNK d   1       2.299  -0.404  -6.527  0.00  0.00     0.048 H 
ATOM     26  H   UNK d   1       5.090  -0.402  -7.633  0.00  0.00     0.048 H 
ATOM     27  H   UNK d   1       3.618  -1.163  -8.275  0.00  0.00     0.048 H 
ATOM     28  H   UNK d   1       5.038  -3.185  -4.955  0.00  0.00     0.049 H 
ATOM     29  H   UNK d   1       6.242  -2.020  -5.529  0.00  0.00     0.049 H 
ATOM     30  H   UNK d   1       3.273  -1.726  -9.767  0.00  0.00     0.049 H 
ATOM     31  H   UNK d   1       4.869  -1.531  -8.999  0.00  0.00     0.049 H 
ATOM     32  H   UNK d   1       5.872  -3.145 -10.538  0.00  0.00     0.058 H 
ATOM     33  H   UNK d   1       4.980  -1.944 -11.505  0.00  0.00     0.058 H 
ATOM     34  H   UNK d   1       4.925  -5.341 -10.250  0.00  0.00     0.058 H 
ATOM     35  H   UNK d   1       3.357  -5.707 -11.013  0.00  0.00     0.058 H 
ATOM     36  H   UNK d   1       3.228  -5.359  -8.501  0.00  0.00     0.049 H 
ATOM     37  H   UNK d   1       2.188  -4.257  -9.438  0.00  0.00     0.049 H 
ENDROOT
BRANCH   1  38
ATOM     38  CB  ALA d   2       4.980   1.015  -2.450  0.00  0.00    -0.038 C 
ATOM     39  HB1 ALA d   2       5.486   0.268  -1.837  0.00  0.00     0.025 H 
ATOM     40  HB2 ALA d   2       5.508   1.125  -3.398  0.00  0.00     0.025 H 
ATOM     41  HB3 ALA d   2       4.971   1.970  -1.925  0.00  0.00     0.025 H 
ENDBRANCH   1  38
TORSDOF 1
ENDMDL
MODEL 3
REMARK VINA RESULT:      -6.1      3.408      4.523
REMARK  1 active torsions:
REMARK  status: ('A' for Active; 'I' for Inactive)
REMARK    1  A    between atoms: CB_1  and  CA_2 
REMARK       I    between atoms: N_9  and  C_16 
REMARK       I    between atoms: C_16  and  N_18 
ROOT
ATOM      1  CA  ALA d   2       3.421  -0.534  -2.688  0.00  0.00     0.097 C 
ATOM      2  HA  ALA d   2       2.638  -0.202  -2.007  0.00  0.00     0.059 H 
ATOM      3  C   ALA d   2       4.646   0.332  -2.516  0.00  0.00     0.236 C 
ATOM      4  O   ALA d   2       4.791   1.036  -1.540  0.00  0.00    -0.274 OA
ATOM      5  N   ALA d   2       2.953  -0.412  -4.080  0.00  0.00    -0.303 N 
ATOM      6  H   ALA d   2       2.016  -0.282  -4.291  0.00  0.00     0.149 HD
ATOM      7  N   UNK d   1       5.583   0.288  -3.515  0.00  0.00    -0.285 N 
ATOM      8  C   UNK d   1       6.704   1.205  -3.441  0.00  0.00     0.031 C 
ATOM      9  C   UNK d   1       7.816   0.879  -4.420  0.00  0.00     0.032 C 
ATOM     10  N   UNK d   1       7.267   0.396  -5.682  0.00  0.00    -0.282 N 
ATOM     11  C   UNK d   1       6.317  -0.704  -5.711  0.00  0.00     0.043 C 
ATOM     12  C   UNK d   1       5.325  -0.653  -4.586  0.00  0.00     0.118 C 
ATOM     13  H   UNK d   1       5.351  -1.639  -4.122  0.00  0.00     0.061 H 
ATOM     14  C   UNK d   1       3.901  -0.491  -5.059  0.00  0.00     0.236 C 
ATOM     15  O   UNK d   1       3.617  -0.432  -6.237  0.00  0.00    -0.274 OA
ATOM     16  C   UNK d   1       7.647   0.976  -6.837  0.00  0.00     0.305 C 
ATOM     17  O   UNK d   1       7.051   0.727  -7.867  0.00  0.00    -0.252 OA
ATOM     18  N   UNK d   1       8.685   1.835  -6.850  0.00  0.00    -0.281 N 
ATOM     19  C   UNK d   1       9.687   1.830  -5.773  0.00  0.00     0.040 C 
ATOM     20  C   UNK d   1      11.082   1.767  -6.415  0.00  0.00     0.064 C 
ATOM     21  O   UNK d   1      11.199   2.812  -7.384  0.00  0.00    -0.377 OA
ATOM     22  C   UNK d   1      10.281   2.704  -8.474  0.00  0.00     0.064 C 
ATOM     23  C   UNK d   1       8.848   2.810  -7.941  0.00  0.00     0.040 C 
ATOM     24  H   UNK d   1       7.110   1.179  -2.430  0.00  0.00     0.048 H 
ATOM     25  H   UNK d   1       6.343   2.212  -3.646  0.00  0.00     0.048 H 
ATOM     26  H   UNK d   1       8.459   0.111  -3.991  0.00  0.00     0.048 H 
ATOM     27  H   UNK d   1       8.406   1.777  -4.606  0.00  0.00     0.048 H 
ATOM     28  H   UNK d   1       5.775  -0.674  -6.656  0.00  0.00     0.049 H 
ATOM     29  H   UNK d   1       6.865  -1.643  -5.651  0.00  0.00     0.049 H 
ATOM     30  H   UNK d   1       9.593   2.739  -5.179  0.00  0.00     0.049 H 
ATOM     31  H   UNK d   1       9.536   0.958  -5.135  0.00  0.00     0.049 H 
ATOM     32  H   UNK d   1      11.219   0.802  -6.902  0.00  0.00     0.058 H 
ATOM     33  H   UNK d   1      11.843   1.898  -5.645  0.00  0.00     0.058 H 
ATOM     34  H   UNK d   1      10.414   1.742  -8.969  0.00  0.00     0.058 H 
ATOM     35  H   UNK d   1      10.465   3.509  -9.186  0.00  0.00     0.058 H 
ATOM     36  H   UNK d   1       8.141   2.589  -8.739  0.00  0.00     0.049 H 
ATOM     37  H   UNK d   1       8.671   3.817  -7.562  0.00  0.00     0.049 H 
ENDROOT
BRANCH   1  38
ATOM     38  CB  ALA d   2       3.779  -1.992  -2.391  0.00  0.00    -0.038 C 
ATOM     39  HB1 ALA d   2       4.722  -2.241  -2.877  0.00  0.00     0.025 H 
ATOM     40  HB2 ALA d   2       3.878  -2.129  -1.314  0.00  0.00     0.025 H 
ATOM     41  HB3 ALA d   2       2.991  -2.643  -2.770  0.00  0.00     0.025 H 
ENDBRANCH   1  38
TORSDOF 1
ENDMDL
MODEL 4
REMARK VINA RESULT:      -6.1      2.464      3.318
REMARK  1 active torsions:
REMARK  status: ('A' for Active; 'I' for Inactive)
REMARK    1  A    between atoms: CB_1  and  CA_2 
REMARK       I    between atoms: N_9  and  C_16 
REMARK       I    between atoms: C_16  and  N_18 
ROOT
ATOM      1  CA  ALA d   2       4.617  -0.569  -3.002  0.00  0.00     0.097 C 
ATOM      2  HA  ALA d   2       4.250  -0.248  -2.028  0.00  0.00     0.059 H 
ATOM      3  C   ALA d   2       3.861   0.148  -4.094  0.00  0.00     0.236 C 
ATOM      4  O   ALA d   2       3.209   1.144  -3.863  0.00  0.00    -0.274 OA
ATOM      5  N   ALA d   2       4.404  -2.019  -3.160  0.00  0.00    -0.303 N 
ATOM      6  H   ALA d   2       4.191  -2.586  -2.404  0.00  0.00     0.149 HD
ATOM      7  N   UNK d   1       3.942  -0.379  -5.357  0.00  0.00    -0.285 N 
ATOM      8  C   UNK d   1       3.123   0.211  -6.397  0.00  0.00     0.031 C 
ATOM      9  C   UNK d   1       3.499  -0.246  -7.794  0.00  0.00     0.032 C 
ATOM     10  N   UNK d   1       3.888  -1.652  -7.789  0.00  0.00    -0.282 N 
ATOM     11  C   UNK d   1       4.905  -2.143  -6.874  0.00  0.00     0.043 C 
ATOM     12  C   UNK d   1       4.817  -1.523  -5.510  0.00  0.00     0.118 C 
ATOM     13  H   UNK d   1       5.819  -1.158  -5.285  0.00  0.00     0.061 H 
ATOM     14  C   UNK d   1       4.522  -2.526  -4.422  0.00  0.00     0.236 C 
ATOM     15  O   UNK d   1       4.395  -3.710  -4.655  0.00  0.00    -0.274 OA
ATOM     16  C   UNK d   1       3.296  -2.507  -8.646  0.00  0.00     0.305 C 
ATOM     17  O   UNK d   1       3.456  -3.705  -8.516  0.00  0.00    -0.252 OA
ATOM     18  N   UNK d   1       2.524  -2.034  -9.645  0.00  0.00    -0.281 N 
ATOM     19  C   UNK d   1       2.652  -0.644 -10.108  0.00  0.00     0.040 C 
ATOM     20  C   UNK d   1       2.803  -0.661 -11.638  0.00  0.00     0.064 C 
ATOM     21  O   UNK d   1       1.734  -1.423 -12.206  0.00  0.00    -0.377 OA
ATOM     22  C   UNK d   1       1.725  -2.798 -11.817  0.00  0.00     0.064 C 
ATOM     23  C   UNK d   1       1.524  -2.893 -10.300  0.00  0.00     0.040 C 
ATOM     24  H   UNK d   1       3.220   1.295  -6.346  0.00  0.00     0.048 H 
ATOM     25  H   UNK d   1       2.082  -0.055  -6.212  0.00  0.00     0.048 H 
ATOM     26  H   UNK d   1       4.334   0.355  -8.156  0.00  0.00     0.048 H 
ATOM     27  H   UNK d   1       2.646  -0.112  -8.459  0.00  0.00     0.048 H 
ATOM     28  H   UNK d   1       4.794  -3.223  -6.775  0.00  0.00     0.049 H 
ATOM     29  H   UNK d   1       5.887  -1.929  -7.293  0.00  0.00     0.049 H 
ATOM     30  H   UNK d   1       1.762  -0.080  -9.830  0.00  0.00     0.049 H 
ATOM     31  H   UNK d   1       3.533  -0.186  -9.657  0.00  0.00     0.049 H 
ATOM     32  H   UNK d   1       3.757  -1.114 -11.908  0.00  0.00     0.058 H 
ATOM     33  H   UNK d   1       2.764   0.361 -12.018  0.00  0.00     0.058 H 
ATOM     34  H   UNK d   1       2.675  -3.259 -12.087  0.00  0.00     0.058 H 
ATOM     35  H   UNK d   1       0.911  -3.315 -12.325  0.00  0.00     0.058 H 
ATOM     36  H   UNK d   1       1.656  -3.924  -9.976  0.00  0.00     0.049 H 
ATOM     37  H   UNK d   1       0.522  -2.552 -10.041  0.00  0.00     0.049 H 
ENDROOT
BRANCH   1  38
ATOM     38  CB  ALA d   2       6.110  -0.253  -3.120  0.00  0.00    -0.038 C 
ATOM     39  HB1 ALA d   2       6.509  -0.713  -4.024  0.00  0.00     0.025 H 
ATOM     40  HB2 ALA d   2       6.249   0.828  -3.171  0.00  0.00     0.025 H 
ATOM     41  HB3 ALA d   2       6.634  -0.646  -2.249  0.00  0.00     0.025 H 
ENDBRANCH   1  38
TORSDOF 1
ENDMDL
MODEL 5
REMARK VINA RESULT:      -6.0      4.346      7.004
REMARK  1 active torsions:
REMARK  status: ('A' for Active; 'I' for Inactive)
REMARK    1  A    between atoms: CB_1  and  CA_2 
REMARK       I    between atoms: N_9  and  C_16 
REMARK       I    between atoms: C_16  and  N_18 
ROOT
ATOM      1  CA  ALA d   2       7.230  -7.123  -6.127  0.00  0.00     0.097 C 
ATOM      2  HA  ALA d   2       7.756  -8.058  -5.936  0.00  0.00     0.059 H 
ATOM      3  C   ALA d   2       7.904  -5.998  -5.379  0.00  0.00     0.236 C 
ATOM      4  O   ALA d   2       9.027  -6.116  -4.936  0.00  0.00    -0.274 OA
ATOM      5  N   ALA d   2       5.838  -7.231  -5.655  0.00  0.00    -0.303 N 
ATOM      6  H   ALA d   2       5.440  -8.089  -5.440  0.00  0.00     0.149 HD
ATOM      7  N   UNK d   1       7.188  -4.840  -5.221  0.00  0.00    -0.285 N 
ATOM      8  C   UNK d   1       7.756  -3.793  -4.395  0.00  0.00     0.031 C 
ATOM      9  C   UNK d   1       7.035  -2.465  -4.522  0.00  0.00     0.032 C 
ATOM     10  N   UNK d   1       5.598  -2.672  -4.666  0.00  0.00    -0.282 N 
ATOM     11  C   UNK d   1       5.069  -3.562  -5.686  0.00  0.00     0.043 C 
ATOM     12  C   UNK d   1       5.891  -4.804  -5.866  0.00  0.00     0.118 C 
ATOM     13  H   UNK d   1       6.094  -4.875  -6.935  0.00  0.00     0.061 H 
ATOM     14  C   UNK d   1       5.135  -6.067  -5.536  0.00  0.00     0.236 C 
ATOM     15  O   UNK d   1       3.973  -6.050  -5.185  0.00  0.00    -0.274 OA
ATOM     16  C   UNK d   1       4.749  -2.027  -3.841  0.00  0.00     0.305 C 
ATOM     17  O   UNK d   1       3.575  -2.342  -3.812  0.00  0.00    -0.252 OA
ATOM     18  N   UNK d   1       5.201  -1.036  -3.048  0.00  0.00    -0.281 N 
ATOM     19  C   UNK d   1       6.458  -0.336  -3.353  0.00  0.00     0.040 C 
ATOM     20  C   UNK d   1       6.185   1.177  -3.318  0.00  0.00     0.064 C 
ATOM     21  O   UNK d   1       5.559   1.511  -2.076  0.00  0.00    -0.377 OA
ATOM     22  C   UNK d   1       4.283   0.897  -1.881  0.00  0.00     0.064 C 
ATOM     23  C   UNK d   1       4.455  -0.627  -1.847  0.00  0.00     0.040 C 
ATOM     24  H   UNK d   1       8.799  -3.652  -4.679  0.00  0.00     0.048 H 
ATOM     25  H   UNK d   1       7.719  -4.112  -3.354  0.00  0.00     0.048 H 
ATOM     26  H   UNK d   1       7.410  -1.934  -5.397  0.00  0.00     0.048 H 
ATOM     27  H   UNK d   1       7.223  -1.866  -3.632  0.00  0.00     0.048 H 
ATOM     28  H   UNK d   1       4.056  -3.850  -5.408  0.00  0.00     0.049 H 
ATOM     29  H   UNK d   1       5.033  -3.026  -6.634  0.00  0.00     0.049 H 
ATOM     30  H   UNK d   1       7.213  -0.593  -2.609  0.00  0.00     0.049 H 
ATOM     31  H   UNK d   1       6.808  -0.623  -4.345  0.00  0.00     0.049 H 
ATOM     32  H   UNK d   1       5.528   1.451  -4.143  0.00  0.00     0.058 H 
ATOM     33  H   UNK d   1       7.128   1.718  -3.406  0.00  0.00     0.058 H 
ATOM     34  H   UNK d   1       3.618   1.169  -2.702  0.00  0.00     0.058 H 
ATOM     35  H   UNK d   1       3.856   1.236  -0.938  0.00  0.00     0.058 H 
ATOM     36  H   UNK d   1       3.477  -1.107  -1.841  0.00  0.00     0.049 H 
ATOM     37  H   UNK d   1       5.011  -0.913  -0.955  0.00  0.00     0.049 H 
ENDROOT
BRANCH   1  38
ATOM     38  CB  ALA d   2       7.243  -6.821  -7.627  0.00  0.00    -0.038 C 
ATOM     39  HB1 ALA d   2       7.185  -7.755  -8.186  0.00  0.00     0.025 H 
ATOM     40  HB2 ALA d   2       6.388  -6.193  -7.878  0.00  0.00     0.025 H 
ATOM     41  HB3 ALA d   2       8.165  -6.300  -7.885  0.00  0.00     0.025 H 
ENDBRANCH   1  38
TORSDOF 1
ENDMDL
MODEL 6
REMARK VINA RESULT:      -5.9      2.919      6.514
REMARK  1 active torsions:
REMARK  status: ('A' for Active; 'I' for Inactive)
REMARK    1  A    between atoms: CB_1  and  CA_2 
REMARK       I    between atoms: N_9  and  C_16 
REMARK       I    between atoms: C_16  and  N_18 
ROOT
ATOM      1  CA  ALA d   2       2.982  -4.741  -9.878  0.00  0.00     0.097 C 
ATOM      2  HA  ALA d   2       2.456  -5.659 -10.141  0.00  0.00     0.059 H 
ATOM      3  C   ALA d   2       3.497  -4.836  -8.463  0.00  0.00     0.236 C 
ATOM      4  O   ALA d   2       3.576  -5.901  -7.888  0.00  0.00    -0.274 OA
ATOM      5  N   ALA d   2       2.057  -3.597  -9.964  0.00  0.00    -0.303 N 
ATOM      6  H   ALA d   2       1.201  -3.668 -10.415  0.00  0.00     0.149 HD
ATOM      7  N   UNK d   1       3.867  -3.665  -7.855  0.00  0.00    -0.285 N 
ATOM      8  C   UNK d   1       4.240  -3.709  -6.455  0.00  0.00     0.031 C 
ATOM      9  C   UNK d   1       4.902  -2.435  -5.966  0.00  0.00     0.032 C 
ATOM     10  N   UNK d   1       4.294  -1.265  -6.590  0.00  0.00    -0.282 N 
ATOM     11  C   UNK d   1       4.165  -1.171  -8.035  0.00  0.00     0.043 C 
ATOM     12  C   UNK d   1       3.796  -2.474  -8.679  0.00  0.00     0.118 C 
ATOM     13  H   UNK d   1       4.522  -2.628  -9.477  0.00  0.00     0.061 H 
ATOM     14  C   UNK d   1       2.461  -2.431  -9.379  0.00  0.00     0.236 C 
ATOM     15  O   UNK d   1       1.787  -1.424  -9.420  0.00  0.00    -0.274 OA
ATOM     16  C   UNK d   1       3.845  -0.258  -5.815  0.00  0.00     0.305 C 
ATOM     17  O   UNK d   1       3.157   0.620  -6.299  0.00  0.00    -0.252 OA
ATOM     18  N   UNK d   1       4.156  -0.226  -4.504  0.00  0.00    -0.281 N 
ATOM     19  C   UNK d   1       5.306  -0.978  -3.980  0.00  0.00     0.040 C 
ATOM     20  C   UNK d   1       6.161  -0.019  -3.136  0.00  0.00     0.064 C 
ATOM     21  O   UNK d   1       5.328   0.623  -2.167  0.00  0.00    -0.377 OA
ATOM     22  C   UNK d   1       4.298   1.438  -2.729  0.00  0.00     0.064 C 
ATOM     23  C   UNK d   1       3.351   0.559  -3.554  0.00  0.00     0.040 C 
ATOM     24  H   UNK d   1       4.927  -4.541  -6.303  0.00  0.00     0.048 H 
ATOM     25  H   UNK d   1       3.342  -3.885  -5.862  0.00  0.00     0.048 H 
ATOM     26  H   UNK d   1       5.963  -2.463  -6.216  0.00  0.00     0.048 H 
ATOM     27  H   UNK d   1       4.791  -2.363  -4.884  0.00  0.00     0.048 H 
ATOM     28  H   UNK d   1       3.397  -0.434  -8.270  0.00  0.00     0.049 H 
ATOM     29  H   UNK d   1       5.114  -0.832  -8.449  0.00  0.00     0.049 H 
ATOM     30  H   UNK d   1       4.954  -1.803  -3.360  0.00  0.00     0.049 H 
ATOM     31  H   UNK d   1       5.899  -1.367  -4.808  0.00  0.00     0.049 H 
ATOM     32  H   UNK d   1       6.614   0.734  -3.781  0.00  0.00     0.058 H 
ATOM     33  H   UNK d   1       6.944  -0.583  -2.627  0.00  0.00     0.058 H 
ATOM     34  H   UNK d   1       4.744   2.196  -3.374  0.00  0.00     0.058 H 
ATOM     35  H   UNK d   1       3.740   1.924  -1.929  0.00  0.00     0.058 H 
ATOM     36  H   UNK d   1       2.648   1.187  -4.100  0.00  0.00     0.049 H 
ATOM     37  H   UNK d   1       2.805  -0.114  -2.893  0.00  0.00     0.049 H 
ENDROOT
BRANCH   1  38
ATOM     38  CB  ALA d   2       4.155  -4.527 -10.837  0.00  0.00    -0.038 C 
ATOM     39  HB1 ALA d   2       4.579  -5.492 -11.115  0.00  0.00     0.025 H 
ATOM     40  HB2 ALA d   2       3.803  -4.014 -11.733  0.00  0.00     0.025 H 
ATOM     41  HB3 ALA d   2       4.918  -3.922 -10.348  0.00  0.00     0.025 H 
ENDBRANCH   1  38
TORSDOF 1
ENDMDL
MODEL 7
REMARK VINA RESULT:      -5.7      1.817      6.896
REMARK  1 active torsions:
REMARK  status: ('A' for Active; 'I' for Inactive)
REMARK    1  A    between atoms: CB_1  and  CA_2 
REMARK       I    between atoms: N_9  and  C_16 
REMARK       I    between atoms: C_16  and  N_18 
ROOT
ATOM      1  CA  ALA d   2       4.310   0.194 -11.743  0.00  0.00     0.097 C 
ATOM      2  HA  ALA d   2       4.604   0.904 -12.515  0.00  0.00     0.059 H 
ATOM      3  C   ALA d   2       3.888   0.939 -10.500  0.00  0.00     0.236 C 
ATOM      4  O   ALA d   2       3.619   2.121 -10.531  0.00  0.00    -0.274 OA
ATOM      5  N   ALA d   2       5.454  -0.672 -11.403  0.00  0.00    -0.303 N 
ATOM      6  H   ALA d   2       6.239  -0.721 -11.969  0.00  0.00     0.149 HD
ATOM      7  N   UNK d   1       3.825   0.220  -9.335  0.00  0.00    -0.285 N 
ATOM      8  C   UNK d   1       3.551   0.935  -8.104  0.00  0.00     0.031 C 
ATOM      9  C   UNK d   1       3.217   0.025  -6.937  0.00  0.00     0.032 C 
ATOM     10  N   UNK d   1       4.020  -1.192  -6.987  0.00  0.00    -0.282 N 
ATOM     11  C   UNK d   1       4.064  -2.009  -8.188  0.00  0.00     0.043 C 
ATOM     12  C   UNK d   1       4.094  -1.199  -9.451  0.00  0.00     0.118 C 
ATOM     13  H   UNK d   1       3.298  -1.597 -10.080  0.00  0.00     0.061 H 
ATOM     14  C   UNK d   1       5.355  -1.403 -10.254  0.00  0.00     0.236 C 
ATOM     15  O   UNK d   1       6.227  -2.169  -9.901  0.00  0.00    -0.274 OA
ATOM     16  C   UNK d   1       4.730  -1.563  -5.904  0.00  0.00     0.305 C 
ATOM     17  O   UNK d   1       5.556  -2.451  -5.994  0.00  0.00    -0.252 OA
ATOM     18  N   UNK d   1       4.526  -0.949  -4.722  0.00  0.00    -0.281 N 
ATOM     19  C   UNK d   1       3.280  -0.216  -4.453  0.00  0.00     0.040 C 
ATOM     20  C   UNK d   1       2.715  -0.705  -3.110  0.00  0.00     0.064 C 
ATOM     21  O   UNK d   1       3.734  -0.610  -2.111  0.00  0.00    -0.377 OA
ATOM     22  C   UNK d   1       4.874  -1.435  -2.359  0.00  0.00     0.064 C 
ATOM     23  C   UNK d   1       5.547  -0.989  -3.662  0.00  0.00     0.040 C 
ATOM     24  H   UNK d   1       2.712   1.610  -8.272  0.00  0.00     0.048 H 
ATOM     25  H   UNK d   1       4.428   1.528  -7.844  0.00  0.00     0.048 H 
ATOM     26  H   UNK d   1       2.160  -0.240  -6.980  0.00  0.00     0.048 H 
ATOM     27  H   UNK d   1       3.417   0.549  -6.003  0.00  0.00     0.048 H 
ATOM     28  H   UNK d   1       4.955  -2.636  -8.153  0.00  0.00     0.049 H 
ATOM     29  H   UNK d   1       3.185  -2.653  -8.207  0.00  0.00     0.049 H 
ATOM     30  H   UNK d   1       3.487   0.854  -4.401  0.00  0.00     0.049 H 
ATOM     31  H   UNK d   1       2.560  -0.412  -5.248  0.00  0.00     0.049 H 
ATOM     32  H   UNK d   1       2.392  -1.741  -3.203  0.00  0.00     0.058 H 
ATOM     33  H   UNK d   1       1.867  -0.082  -2.825  0.00  0.00     0.058 H 
ATOM     34  H   UNK d   1       4.559  -2.475  -2.450  0.00  0.00     0.058 H 
ATOM     35  H   UNK d   1       5.579  -1.339  -1.533  0.00  0.00     0.058 H 
ATOM     36  H   UNK d   1       6.330  -1.697  -3.932  0.00  0.00     0.049 H 
ATOM     37  H   UNK d   1       5.979   0.003  -3.531  0.00  0.00     0.049 H 
ENDROOT
BRANCH   1  38
ATOM     38  CB  ALA d   2       3.147  -0.663 -12.246  0.00  0.00    -0.038 C 
ATOM     39  HB1 ALA d   2       3.272  -0.856 -13.312  0.00  0.00     0.025 H 
ATOM     40  HB2 ALA d   2       3.134  -1.610 -11.705  0.00  0.00     0.025 H 
ATOM     41  HB3 ALA d   2       2.208  -0.136 -12.080  0.00  0.00     0.025 H 
ENDBRANCH   1  38
TORSDOF 1
ENDMDL
MODEL 8
REMARK VINA RESULT:      -5.7     10.388     12.423
REMARK  1 active torsions:
REMARK  status: ('A' for Active; 'I' for Inactive)
REMARK    1  A    between atoms: CB_1  and  CA_2 
REMARK       I    between atoms: N_9  and  C_16 
REMARK       I    between atoms: C_16  and  N_18 
ROOT
ATOM      1  CA  ALA d   2      11.331   4.375  -2.353  0.00  0.00     0.097 C 
ATOM      2  HA  ALA d   2      12.092   3.615  -2.527  0.00  0.00     0.059 H 
ATOM      3  C   ALA d   2      11.677   5.628  -3.120  0.00  0.00     0.236 C 
ATOM      4  O   ALA d   2      12.487   5.614  -4.022  0.00  0.00    -0.274 OA
ATOM      5  N   ALA d   2      11.279   4.704  -0.917  0.00  0.00    -0.303 N 
ATOM      6  H   ALA d   2      11.702   4.141  -0.251  0.00  0.00     0.149 HD
ATOM      7  N   UNK d   1      11.036   6.781  -2.749  0.00  0.00    -0.285 N 
ATOM      8  C   UNK d   1      11.443   8.022  -3.378  0.00  0.00     0.031 C 
ATOM      9  C   UNK d   1      10.489   9.172  -3.118  0.00  0.00     0.032 C 
ATOM     10  N   UNK d   1       9.961   9.106  -1.761  0.00  0.00    -0.282 N 
ATOM     11  C   UNK d   1       9.336   7.892  -1.260  0.00  0.00     0.043 C 
ATOM     12  C   UNK d   1      10.035   6.643  -1.711  0.00  0.00     0.118 C 
ATOM     13  H   UNK d   1       9.259   6.005  -2.135  0.00  0.00     0.061 H 
ATOM     14  C   UNK d   1      10.608   5.841  -0.569  0.00  0.00     0.236 C 
ATOM     15  O   UNK d   1      10.481   6.185   0.588  0.00  0.00    -0.274 OA
ATOM     16  C   UNK d   1      10.051  10.186  -0.959  0.00  0.00     0.305 C 
ATOM     17  O   UNK d   1       9.805  10.085   0.227  0.00  0.00    -0.252 OA
ATOM     18  N   UNK d   1      10.416  11.377  -1.473  0.00  0.00    -0.281 N 
ATOM     19  C   UNK d   1      10.292  11.653  -2.912  0.00  0.00     0.040 C 
ATOM     20  C   UNK d   1       9.546  12.986  -3.083  0.00  0.00     0.064 C 
ATOM     21  O   UNK d   1      10.196  13.990  -2.300  0.00  0.00    -0.377 OA
ATOM     22  C   UNK d   1      10.185  13.733  -0.894  0.00  0.00     0.064 C 
ATOM     23  C   UNK d   1      10.957  12.440  -0.610  0.00  0.00     0.040 C 
ATOM     24  H   UNK d   1      11.512   7.862  -4.454  0.00  0.00     0.048 H 
ATOM     25  H   UNK d   1      12.429   8.295  -3.003  0.00  0.00     0.048 H 
ATOM     26  H   UNK d   1       9.663   9.122  -3.828  0.00  0.00     0.048 H 
ATOM     27  H   UNK d   1      11.018  10.116  -3.252  0.00  0.00     0.048 H 
ATOM     28  H   UNK d   1       9.339   7.921  -0.171  0.00  0.00     0.049 H 
ATOM     29  H   UNK d   1       8.304   7.861  -1.606  0.00  0.00     0.049 H 
ATOM     30  H   UNK d   1      11.283  11.723  -3.361  0.00  0.00     0.049 H 
ATOM     31  H   UNK d   1       9.728  10.852  -3.392  0.00  0.00     0.049 H 
ATOM     32  H   UNK d   1       8.515  12.875  -2.749  0.00  0.00     0.058 H 
ATOM     33  H   UNK d   1       9.561  13.278  -4.134  0.00  0.00     0.058 H 
ATOM     34  H   UNK d   1       9.156  13.624  -0.551  0.00  0.00     0.058 H 
ATOM     35  H   UNK d   1      10.658  14.563  -0.368  0.00  0.00     0.058 H 
ATOM     36  H   UNK d   1      10.836  12.161   0.436  0.00  0.00     0.049 H 
ATOM     37  H   UNK d   1      12.015  12.588  -0.829  0.00  0.00     0.049 H 
ENDROOT
BRANCH   1  38
ATOM     38  CB  ALA d   2       9.968   3.853  -2.811  0.00  0.00    -0.038 C 
ATOM     39  HB1 ALA d   2       9.559   4.521  -3.569  0.00  0.00     0.025 H 
ATOM     40  HB2 ALA d   2      10.084   2.854  -3.232  0.00  0.00     0.025 H 
ATOM     41  HB3 ALA d   2       9.290   3.812  -1.958  0.00  0.00     0.025 H 
ENDBRANCH   1  38
TORSDOF 1
ENDMDL
MODEL 9
REMARK VINA RESULT:      -5.4      9.425     11.171
REMARK  1 active torsions:
REMARK  status: ('A' for Active; 'I' for Inactive)
REMARK    1  A    between atoms: CB_1  and  CA_2 
REMARK       I    between atoms: N_9  and  C_16 
REMARK       I    between atoms: C_16  and  N_18 
ROOT
ATOM      1  CA  ALA d   2       9.049  11.882  -3.264  0.00  0.00     0.097 C 
ATOM      2  HA  ALA d   2       8.377  12.615  -3.708  0.00  0.00     0.059 H 
ATOM      3  C   ALA d   2       9.426  10.845  -4.294  0.00  0.00     0.236 C 
ATOM      4  O   ALA d   2       9.252  11.038  -5.479  0.00  0.00    -0.274 OA
ATOM      5  N   ALA d   2       8.374  11.204  -2.143  0.00  0.00    -0.303 N 
ATOM      6  H   ALA d   2       7.558  11.556  -1.754  0.00  0.00     0.149 HD
ATOM      7  N   UNK d   1       9.969   9.676  -3.830  0.00  0.00    -0.285 N 
ATOM      8  C   UNK d   1      10.217   8.612  -4.783  0.00  0.00     0.031 C 
ATOM      9  C   UNK d   1      11.076   7.491  -4.228  0.00  0.00     0.032 C 
ATOM     10  N   UNK d   1      10.756   7.244  -2.826  0.00  0.00    -0.282 N 
ATOM     11  C   UNK d   1      10.760   8.326  -1.856  0.00  0.00     0.043 C 
ATOM     12  C   UNK d   1      10.195   9.605  -2.400  0.00  0.00     0.118 C 
ATOM     13  H   UNK d   1      10.936  10.375  -2.183  0.00  0.00     0.061 H 
ATOM     14  C   UNK d   1       8.951  10.058  -1.677  0.00  0.00     0.236 C 
ATOM     15  O   UNK d   1       8.491   9.441  -0.738  0.00  0.00    -0.274 OA
ATOM     16  C   UNK d   1      10.453   5.993  -2.425  0.00  0.00     0.305 C 
ATOM     17  O   UNK d   1       9.989   5.806  -1.317  0.00  0.00    -0.252 OA
ATOM     18  N   UNK d   1      10.663   4.951  -3.253  0.00  0.00    -0.281 N 
ATOM     19  C   UNK d   1      11.601   5.056  -4.381  0.00  0.00     0.040 C 
ATOM     20  C   UNK d   1      12.560   3.855  -4.321  0.00  0.00     0.064 C 
ATOM     21  O   UNK d   1      11.795   2.649  -4.243  0.00  0.00    -0.377 OA
ATOM     22  C   UNK d   1      10.989   2.543  -3.067  0.00  0.00     0.064 C 
ATOM     23  C   UNK d   1       9.956   3.675  -3.058  0.00  0.00     0.040 C 
ATOM     24  H   UNK d   1      10.716   9.034  -5.655  0.00  0.00     0.048 H 
ATOM     25  H   UNK d   1       9.260   8.196  -5.096  0.00  0.00     0.048 H 
ATOM     26  H   UNK d   1      12.127   7.768  -4.312  0.00  0.00     0.048 H 
ATOM     27  H   UNK d   1      10.898   6.583  -4.802  0.00  0.00     0.048 H 
ATOM     28  H   UNK d   1      10.170   8.024  -0.991  0.00  0.00     0.049 H 
ATOM     29  H   UNK d   1      11.785   8.505  -1.535  0.00  0.00     0.049 H 
ATOM     30  H   UNK d   1      11.050   5.043  -5.321  0.00  0.00     0.049 H 
ATOM     31  H   UNK d   1      12.169   5.983  -4.302  0.00  0.00     0.049 H 
ATOM     32  H   UNK d   1      13.198   3.939  -3.442  0.00  0.00     0.058 H 
ATOM     33  H   UNK d   1      13.176   3.837  -5.221  0.00  0.00     0.058 H 
ATOM     34  H   UNK d   1      11.623   2.622  -2.183  0.00  0.00     0.058 H 
ATOM     35  H   UNK d   1      10.476   1.581  -3.063  0.00  0.00     0.058 H 
ATOM     36  H   UNK d   1       9.432   3.687  -2.103  0.00  0.00     0.049 H 
ATOM     37  H   UNK d   1       9.241   3.525  -3.867  0.00  0.00     0.049 H 
ENDROOT
BRANCH   1  38
ATOM     38  CB  ALA d   2      10.312  12.582  -2.756  0.00  0.00    -0.038 C 
ATOM     39  HB1 ALA d   2      10.231  12.743  -1.681  0.00  0.00     0.025 H 
ATOM     40  HB2 ALA d   2      11.182  11.958  -2.965  0.00  0.00     0.025 H 
ATOM     41  HB3 ALA d   2      10.423  13.542  -3.260  0.00  0.00     0.025 H 
ENDBRANCH   1  38
TORSDOF 1
ENDMDL
MODEL 10
REMARK VINA RESULT:      -5.0      8.285      9.719
REMARK  1 active torsions:
REMARK  status: ('A' for Active; 'I' for Inactive)
REMARK    1  A    between atoms: CB_1  and  CA_2 
REMARK       I    between atoms: N_9  and  C_16 
REMARK       I    between atoms: C_16  and  N_18 
ROOT
ATOM      1  CA  ALA d   2      12.424   8.816  -0.039  0.00  0.00     0.097 C 
ATOM      2  HA  ALA d   2      13.364   9.262   0.282  0.00  0.00     0.059 H 
ATOM      3  C   ALA d   2      12.620   7.342  -0.296  0.00  0.00     0.236 C 
ATOM      4  O   ALA d   2      13.590   6.750   0.126  0.00  0.00    -0.274 OA
ATOM      5  N   ALA d   2      11.974   9.454  -1.290  0.00  0.00    -0.303 N 
ATOM      6  H   ALA d   2      12.360  10.286  -1.603  0.00  0.00     0.149 HD
ATOM      7  N   UNK d   1      11.654   6.705  -1.030  0.00  0.00    -0.285 N 
ATOM      8  C   UNK d   1      11.880   5.322  -1.403  0.00  0.00     0.031 C 
ATOM      9  C   UNK d   1      10.644   4.634  -1.951  0.00  0.00     0.032 C 
ATOM     10  N   UNK d   1       9.857   5.557  -2.760  0.00  0.00    -0.282 N 
ATOM     11  C   UNK d   1       9.448   6.850  -2.236  0.00  0.00     0.043 C 
ATOM     12  C   UNK d   1      10.509   7.510  -1.406  0.00  0.00     0.118 C 
ATOM     13  H   UNK d   1      10.025   7.786  -0.468  0.00  0.00     0.061 H 
ATOM     14  C   UNK d   1      10.989   8.816  -1.988  0.00  0.00     0.236 C 
ATOM     15  O   UNK d   1      10.528   9.273  -3.013  0.00  0.00    -0.274 OA
ATOM     16  C   UNK d   1       9.503   5.206  -4.012  0.00  0.00     0.305 C 
ATOM     17  O   UNK d   1       9.030   6.036  -4.765  0.00  0.00    -0.252 OA
ATOM     18  N   UNK d   1       9.676   3.937  -4.431  0.00  0.00    -0.281 N 
ATOM     19  C   UNK d   1       9.813   2.834  -3.468  0.00  0.00     0.040 C 
ATOM     20  C   UNK d   1       8.826   1.724  -3.864  0.00  0.00     0.064 C 
ATOM     21  O   UNK d   1       9.023   1.392  -5.241  0.00  0.00    -0.377 OA
ATOM     22  C   UNK d   1       8.760   2.467  -6.146  0.00  0.00     0.064 C 
ATOM     23  C   UNK d   1       9.738   3.614  -5.866  0.00  0.00     0.040 C 
ATOM     24  H   UNK d   1      12.224   4.775  -0.525  0.00  0.00     0.048 H 
ATOM     25  H   UNK d   1      12.661   5.290  -2.162  0.00  0.00     0.048 H 
ATOM     26  H   UNK d   1      10.034   4.276  -1.120  0.00  0.00     0.048 H 
ATOM     27  H   UNK d   1      10.946   3.786  -2.565  0.00  0.00     0.048 H 
ATOM     28  H   UNK d   1       9.200   7.504  -3.071  0.00  0.00     0.049 H 
ATOM     29  H   UNK d   1       8.558   6.714  -1.623  0.00  0.00     0.049 H 
ATOM     30  H   UNK d   1      10.833   2.448  -3.493  0.00  0.00     0.049 H 
ATOM     31  H   UNK d   1       9.581   3.191  -2.464  0.00  0.00     0.049 H 
ATOM     32  H   UNK d   1       7.804   2.073  -3.717  0.00  0.00     0.058 H 
ATOM     33  H   UNK d   1       9.004   0.842  -3.248  0.00  0.00     0.058 H 
ATOM     34  H   UNK d   1       7.738   2.819  -6.006  0.00  0.00     0.058 H 
ATOM     35  H   UNK d   1       8.890   2.120  -7.171  0.00  0.00     0.058 H 
ATOM     36  H   UNK d   1       9.456   4.488  -6.451  0.00  0.00     0.049 H 
ATOM     37  H   UNK d   1      10.750   3.306  -6.129  0.00  0.00     0.049 H 
ENDROOT
BRANCH   1  38
ATOM     38  CB  ALA d   2      11.364   9.011   1.047  0.00  0.00    -0.038 C 
ATOM     39  HB1 ALA d   2      11.748   8.647   2.000  0.00  0.00     0.025 H 
ATOM     40  HB2 ALA d   2      11.124  10.072   1.134  0.00  0.00     0.025 H 
ATOM     41  HB3 ALA d   2      10.465   8.456   0.781  0.00  0.00     0.025 H 
ENDBRANCH   1  38
TORSDOF 1
ENDMDL
