MODEL 1
REMARK VINA RESULT:      -5.1      0.000      0.000
REMARK  5 active torsions:
REMARK  status: ('A' for Active; 'I' for Inactive)
REMARK    1  A    between atoms: C_1  and  C_2 
REMARK    2  A    between atoms: C_2  and  C_4 
REMARK    3  A    between atoms: C_2  and  O_6 
REMARK    4  A    between atoms: C_4  and  O_5 
REMARK    5  A    between atoms: O_6  and  C_7 
ROOT
ATOM      1  O   LIG d   1       4.159  -3.105  -3.629  0.00  0.00    -0.487 OA
ENDROOT
BRANCH   1   2
ATOM      2  C   LIG d   1       4.873  -3.319  -4.848  0.00  0.00     0.120 C 
ATOM      3  H   LIG d   1       4.556  -2.583  -5.588  0.00  0.00     0.075 H 
BRANCH   2   4
ATOM      4  C   LIG d   1       6.374  -3.170  -4.594  0.00  0.00    -0.026 C 
ATOM      5  H   LIG d   1       6.536  -2.464  -3.780  0.00  0.00     0.027 H 
ATOM      6  H   LIG d   1       6.795  -4.139  -4.324  0.00  0.00     0.027 H 
ATOM      7  H   LIG d   1       6.861  -2.801  -5.497  0.00  0.00     0.027 H 
ENDBRANCH   2   4
BRANCH   2   8
ATOM      8  C   LIG d   1       4.581  -4.726  -5.371  0.00  0.00     0.081 C 
ATOM      9  H   LIG d   1       5.432  -5.083  -5.951  0.00  0.00     0.059 H 
ATOM     10  H   LIG d   1       4.408  -5.398  -4.529  0.00  0.00     0.059 H 
BRANCH   8  11
ATOM     11  O   LIG d   1       3.418  -4.695  -6.200  0.00  0.00    -0.391 OA
ATOM     12  H   LIG d   1       3.273  -5.505  -6.707  0.00  0.00     0.210 HD
ENDBRANCH   8  11
ENDBRANCH   2   8
ENDBRANCH   1   2
BRANCH   1  13
ATOM     13  C   LIG d   1       3.992  -1.817  -3.228  0.00  0.00     0.121 A 
ATOM     14  C   LIG d   1       4.577  -1.376  -2.050  0.00  0.00    -0.020 A 
ATOM     15  C   LIG d   1       4.406  -0.066  -1.645  0.00  0.00    -0.058 A 
ATOM     16  H   LIG d   1       5.165  -2.055  -1.450  0.00  0.00     0.065 H 
ATOM     17  C   LIG d   1       3.654   0.804  -2.412  0.00  0.00    -0.061 A 
ATOM     18  H   LIG d   1       4.861   0.279  -0.728  0.00  0.00     0.062 H 
ATOM     19  C   LIG d   1       3.071   0.366  -3.586  0.00  0.00    -0.058 A 
ATOM     20  H   LIG d   1       3.522   1.828  -2.094  0.00  0.00     0.062 H 
ATOM     21  C   LIG d   1       3.243  -0.942  -3.999  0.00  0.00    -0.020 A 
ATOM     22  H   LIG d   1       2.482   1.047  -4.184  0.00  0.00     0.062 H 
ATOM     23  H   LIG d   1       2.790  -1.281  -4.919  0.00  0.00     0.065 H 
ENDBRANCH   1  13
TORSDOF 5
ENDMDL
MODEL 2
REMARK VINA RESULT:      -5.1      0.081      1.448
REMARK  5 active torsions:
REMARK  status: ('A' for Active; 'I' for Inactive)
REMARK    1  A    between atoms: C_1  and  C_2 
REMARK    2  A    between atoms: C_2  and  C_4 
REMARK    3  A    between atoms: C_2  and  O_6 
REMARK    4  A    between atoms: C_4  and  O_5 
REMARK    5  A    between atoms: O_6  and  C_7 
ROOT
ATOM      1  O   LIG d   1       4.097  -3.031  -3.651  0.00  0.00    -0.487 OA
ENDROOT
BRANCH   1   2
ATOM      2  C   LIG d   1       4.863  -3.257  -4.836  0.00  0.00     0.120 C 
ATOM      3  H   LIG d   1       4.575  -2.531  -5.597  0.00  0.00     0.075 H 
BRANCH   2   4
ATOM      4  C   LIG d   1       6.351  -3.100  -4.519  0.00  0.00    -0.026 C 
ATOM      5  H   LIG d   1       6.741  -4.042  -4.134  0.00  0.00     0.027 H 
ATOM      6  H   LIG d   1       6.889  -2.827  -5.427  0.00  0.00     0.027 H 
ATOM      7  H   LIG d   1       6.482  -2.319  -3.769  0.00  0.00     0.027 H 
ENDBRANCH   2   4
BRANCH   2   8
ATOM      8  C   LIG d   1       4.597  -4.672  -5.353  0.00  0.00     0.081 C 
ATOM      9  H   LIG d   1       5.470  -5.029  -5.899  0.00  0.00     0.059 H 
ATOM     10  H   LIG d   1       4.399  -5.335  -4.511  0.00  0.00     0.059 H 
BRANCH   8  11
ATOM     11  O   LIG d   1       3.464  -4.656  -6.223  0.00  0.00    -0.391 OA
ATOM     12  H   LIG d   1       2.614  -4.664  -5.762  0.00  0.00     0.210 HD
ENDBRANCH   8  11
ENDBRANCH   2   8
ENDBRANCH   1   2
BRANCH   1  13
ATOM     13  C   LIG d   1       3.962  -1.743  -3.238  0.00  0.00     0.121 A 
ATOM     14  C   LIG d   1       3.222  -0.846  -3.994  0.00  0.00    -0.020 A 
ATOM     15  C   LIG d   1       3.087   0.464  -3.572  0.00  0.00    -0.058 A 
ATOM     16  H   LIG d   1       2.752  -1.169  -4.911  0.00  0.00     0.065 H 
ATOM     17  C   LIG d   1       3.688   0.879  -2.399  0.00  0.00    -0.061 A 
ATOM     18  H   LIG d   1       2.510   1.163  -4.161  0.00  0.00     0.062 H 
ATOM     19  C   LIG d   1       4.426  -0.014  -1.644  0.00  0.00    -0.058 A 
ATOM     20  H   LIG d   1       3.580   1.902  -2.071  0.00  0.00     0.062 H 
ATOM     21  C   LIG d   1       4.560  -1.325  -2.059  0.00  0.00    -0.020 A 
ATOM     22  H   LIG d   1       4.896   0.312  -0.728  0.00  0.00     0.062 H 
ATOM     23  H   LIG d   1       5.133  -2.023  -1.466  0.00  0.00     0.065 H 
ENDBRANCH   1  13
TORSDOF 5
ENDMDL
MODEL 3
REMARK VINA RESULT:      -4.8      2.813      3.604
REMARK  5 active torsions:
REMARK  status: ('A' for Active; 'I' for Inactive)
REMARK    1  A    between atoms: C_1  and  C_2 
REMARK    2  A    between atoms: C_2  and  C_4 
REMARK    3  A    between atoms: C_2  and  O_6 
REMARK    4  A    between atoms: C_4  and  O_5 
REMARK    5  A    between atoms: O_6  and  C_7 
ROOT
ATOM      1  O   LIG d   1       3.538   0.444  -5.353  0.00  0.00    -0.487 OA
ENDROOT
BRANCH   1   2
ATOM      2  C   LIG d   1       3.742  -0.427  -6.467  0.00  0.00     0.120 C 
ATOM      3  H   LIG d   1       3.583  -1.459  -6.155  0.00  0.00     0.075 H 
BRANCH   2   4
ATOM      4  C   LIG d   1       2.754  -0.073  -7.579  0.00  0.00    -0.026 C 
ATOM      5  H   LIG d   1       1.748  -0.366  -7.278  0.00  0.00     0.027 H 
ATOM      6  H   LIG d   1       2.780   1.001  -7.762  0.00  0.00     0.027 H 
ATOM      7  H   LIG d   1       3.028  -0.604  -8.491  0.00  0.00     0.027 H 
ENDBRANCH   2   4
BRANCH   2   8
ATOM      8  C   LIG d   1       5.172  -0.265  -6.985  0.00  0.00     0.081 C 
ATOM      9  H   LIG d   1       5.868  -0.293  -6.147  0.00  0.00     0.059 H 
ATOM     10  H   LIG d   1       5.403  -1.076  -7.676  0.00  0.00     0.059 H 
BRANCH   8  11
ATOM     11  O   LIG d   1       5.294   0.987  -7.664  0.00  0.00    -0.391 OA
ATOM     12  H   LIG d   1       4.735   1.065  -8.449  0.00  0.00     0.210 HD
ENDBRANCH   8  11
ENDBRANCH   2   8
ENDBRANCH   1   2
BRANCH   1  13
ATOM     13  C   LIG d   1       3.832  -0.049  -4.121  0.00  0.00     0.121 A 
ATOM     14  C   LIG d   1       4.270   0.803  -3.118  0.00  0.00    -0.020 A 
ATOM     15  C   LIG d   1       4.569   0.299  -1.867  0.00  0.00    -0.058 A 
ATOM     16  H   LIG d   1       4.377   1.860  -3.315  0.00  0.00     0.065 H 
ATOM     17  C   LIG d   1       4.433  -1.053  -1.614  0.00  0.00    -0.061 A 
ATOM     18  H   LIG d   1       4.909   0.963  -1.085  0.00  0.00     0.062 H 
ATOM     19  C   LIG d   1       3.997  -1.904  -2.612  0.00  0.00    -0.058 A 
ATOM     20  H   LIG d   1       4.666  -1.445  -0.635  0.00  0.00     0.062 H 
ATOM     21  C   LIG d   1       3.691  -1.404  -3.864  0.00  0.00    -0.020 A 
ATOM     22  H   LIG d   1       3.891  -2.961  -2.413  0.00  0.00     0.062 H 
ATOM     23  H   LIG d   1       3.347  -2.070  -4.642  0.00  0.00     0.065 H 
ENDBRANCH   1  13
TORSDOF 5
ENDMDL
MODEL 4
REMARK VINA RESULT:      -4.5      2.523      3.176
REMARK  5 active torsions:
REMARK  status: ('A' for Active; 'I' for Inactive)
REMARK    1  A    between atoms: C_1  and  C_2 
REMARK    2  A    between atoms: C_2  and  C_4 
REMARK    3  A    between atoms: C_2  and  O_6 
REMARK    4  A    between atoms: C_4  and  O_5 
REMARK    5  A    between atoms: O_6  and  C_7 
ROOT
ATOM      1  O   LIG d   1       2.495  -0.039  -5.190  0.00  0.00    -0.487 OA
ENDROOT
BRANCH   1   2
ATOM      2  C   LIG d   1       3.301   0.214  -6.342  0.00  0.00     0.120 C 
ATOM      3  H   LIG d   1       3.614   1.259  -6.344  0.00  0.00     0.075 H 
BRANCH   2   4
ATOM      4  C   LIG d   1       4.537  -0.687  -6.309  0.00  0.00    -0.026 C 
ATOM      5  H   LIG d   1       5.208  -0.353  -5.518  0.00  0.00     0.027 H 
ATOM      6  H   LIG d   1       4.232  -1.716  -6.118  0.00  0.00     0.027 H 
ATOM      7  H   LIG d   1       5.052  -0.632  -7.268  0.00  0.00     0.027 H 
ENDBRANCH   2   4
BRANCH   2   8
ATOM      8  C   LIG d   1       2.490  -0.078  -7.606  0.00  0.00     0.081 C 
ATOM      9  H   LIG d   1       1.430  -0.122  -7.356  0.00  0.00     0.059 H 
ATOM     10  H   LIG d   1       2.659   0.713  -8.337  0.00  0.00     0.059 H 
BRANCH   8  11
ATOM     11  O   LIG d   1       2.902  -1.331  -8.157  0.00  0.00    -0.391 OA
ATOM     12  H   LIG d   1       3.188  -1.280  -9.080  0.00  0.00     0.210 HD
ENDBRANCH   8  11
ENDBRANCH   2   8
ENDBRANCH   1   2
BRANCH   1  13
ATOM     13  C   LIG d   1       3.132  -0.090  -3.990  0.00  0.00     0.121 A 
ATOM     14  C   LIG d   1       3.392  -1.316  -3.395  0.00  0.00    -0.020 A 
ATOM     15  C   LIG d   1       4.039  -1.366  -2.175  0.00  0.00    -0.058 A 
ATOM     16  H   LIG d   1       3.088  -2.230  -3.883  0.00  0.00     0.065 H 
ATOM     17  C   LIG d   1       4.428  -0.197  -1.548  0.00  0.00    -0.061 A 
ATOM     18  H   LIG d   1       4.242  -2.320  -1.711  0.00  0.00     0.062 H 
ATOM     19  C   LIG d   1       4.170   1.026  -2.140  0.00  0.00    -0.058 A 
ATOM     20  H   LIG d   1       4.934  -0.238  -0.596  0.00  0.00     0.062 H 
ATOM     21  C   LIG d   1       3.527   1.081  -3.363  0.00  0.00    -0.020 A 
ATOM     22  H   LIG d   1       4.474   1.939  -1.649  0.00  0.00     0.062 H 
ATOM     23  H   LIG d   1       3.330   2.037  -3.826  0.00  0.00     0.065 H 
ENDBRANCH   1  13
TORSDOF 5
ENDMDL
MODEL 5
REMARK VINA RESULT:      -4.5      3.093      3.907
REMARK  5 active torsions:
REMARK  status: ('A' for Active; 'I' for Inactive)
REMARK    1  A    between atoms: C_1  and  C_2 
REMARK    2  A    between atoms: C_2  and  C_4 
REMARK    3  A    between atoms: C_2  and  O_6 
REMARK    4  A    between atoms: C_4  and  O_5 
REMARK    5  A    between atoms: O_6  and  C_7 
ROOT
ATOM      1  O   LIG d   1       4.027   0.199  -6.359  0.00  0.00    -0.487 OA
ENDROOT
BRANCH   1   2
ATOM      2  C   LIG d   1       2.933   0.190  -7.278  0.00  0.00     0.120 C 
ATOM      3  H   LIG d   1       1.996   0.114  -6.726  0.00  0.00     0.075 H 
BRANCH   2   4
ATOM      4  C   LIG d   1       2.941   1.484  -8.093  0.00  0.00    -0.026 C 
ATOM      5  H   LIG d   1       3.457   1.315  -9.038  0.00  0.00     0.027 H 
ATOM      6  H   LIG d   1       1.915   1.796  -8.290  0.00  0.00     0.027 H 
ATOM      7  H   LIG d   1       3.457   2.264  -7.532  0.00  0.00     0.027 H 
ENDBRANCH   2   4
BRANCH   2   8
ATOM      8  C   LIG d   1       3.068  -1.007  -8.220  0.00  0.00     0.081 C 
ATOM      9  H   LIG d   1       4.123  -1.217  -8.394  0.00  0.00     0.059 H 
ATOM     10  H   LIG d   1       2.593  -1.880  -7.770  0.00  0.00     0.059 H 
BRANCH   8  11
ATOM     11  O   LIG d   1       2.430  -0.709  -9.464  0.00  0.00    -0.391 OA
ATOM     12  H   LIG d   1       3.040  -0.632 -10.210  0.00  0.00     0.210 HD
ENDBRANCH   8  11
ENDBRANCH   2   8
ENDBRANCH   1   2
BRANCH   1  13
ATOM     13  C   LIG d   1       3.833  -0.418  -5.163  0.00  0.00     0.121 A 
ATOM     14  C   LIG d   1       4.630  -1.493  -4.800  0.00  0.00    -0.020 A 
ATOM     15  C   LIG d   1       4.431  -2.118  -3.583  0.00  0.00    -0.058 A 
ATOM     16  H   LIG d   1       5.404  -1.843  -5.467  0.00  0.00     0.065 H 
ATOM     17  C   LIG d   1       3.440  -1.672  -2.729  0.00  0.00    -0.061 A 
ATOM     18  H   LIG d   1       5.052  -2.956  -3.299  0.00  0.00     0.062 H 
ATOM     19  C   LIG d   1       2.645  -0.600  -3.089  0.00  0.00    -0.058 A 
ATOM     20  H   LIG d   1       3.287  -2.162  -1.778  0.00  0.00     0.062 H 
ATOM     21  C   LIG d   1       2.843   0.032  -4.302  0.00  0.00    -0.020 A 
ATOM     22  H   LIG d   1       1.871  -0.253  -2.420  0.00  0.00     0.062 H 
ATOM     23  H   LIG d   1       2.224   0.872  -4.580  0.00  0.00     0.065 H 
ENDBRANCH   1  13
TORSDOF 5
ENDMDL
MODEL 6
REMARK VINA RESULT:      -4.2      2.302      3.090
REMARK  5 active torsions:
REMARK  status: ('A' for Active; 'I' for Inactive)
REMARK    1  A    between atoms: C_1  and  C_2 
REMARK    2  A    between atoms: C_2  and  C_4 
REMARK    3  A    between atoms: C_2  and  O_6 
REMARK    4  A    between atoms: C_4  and  O_5 
REMARK    5  A    between atoms: O_6  and  C_7 
ROOT
ATOM      1  O   LIG d   1       6.794  -1.445  -4.380  0.00  0.00    -0.487 OA
ENDROOT
BRANCH   1   2
ATOM      2  C   LIG d   1       6.856  -2.862  -4.210  0.00  0.00     0.120 C 
ATOM      3  H   LIG d   1       6.214  -3.157  -3.380  0.00  0.00     0.075 H 
BRANCH   2   4
ATOM      4  C   LIG d   1       6.382  -3.551  -5.490  0.00  0.00    -0.026 C 
ATOM      5  H   LIG d   1       7.174  -3.513  -6.238  0.00  0.00     0.027 H 
ATOM      6  H   LIG d   1       6.135  -4.590  -5.274  0.00  0.00     0.027 H 
ATOM      7  H   LIG d   1       5.498  -3.039  -5.872  0.00  0.00     0.027 H 
ENDBRANCH   2   4
BRANCH   2   8
ATOM      8  C   LIG d   1       8.298  -3.277  -3.911  0.00  0.00     0.081 C 
ATOM      9  H   LIG d   1       8.450  -3.314  -2.832  0.00  0.00     0.059 H 
ATOM     10  H   LIG d   1       8.489  -4.262  -4.339  0.00  0.00     0.059 H 
BRANCH   8  11
ATOM     11  O   LIG d   1       9.196  -2.326  -4.487  0.00  0.00    -0.391 OA
ATOM     12  H   LIG d   1       8.957  -1.405  -4.316  0.00  0.00     0.210 HD
ENDBRANCH   8  11
ENDBRANCH   2   8
ENDBRANCH   1   2
BRANCH   1  13
ATOM     13  C   LIG d   1       5.995  -0.755  -3.523  0.00  0.00     0.121 A 
ATOM     14  C   LIG d   1       6.055   0.630  -3.482  0.00  0.00    -0.020 A 
ATOM     15  C   LIG d   1       5.242   1.330  -2.610  0.00  0.00    -0.058 A 
ATOM     16  H   LIG d   1       6.736   1.162  -4.131  0.00  0.00     0.065 H 
ATOM     17  C   LIG d   1       4.371   0.651  -1.780  0.00  0.00    -0.061 A 
ATOM     18  H   LIG d   1       5.288   2.409  -2.578  0.00  0.00     0.062 H 
ATOM     19  C   LIG d   1       4.310  -0.730  -1.819  0.00  0.00    -0.058 A 
ATOM     20  H   LIG d   1       3.736   1.199  -1.100  0.00  0.00     0.062 H 
ATOM     21  C   LIG d   1       5.117  -1.434  -2.693  0.00  0.00    -0.020 A 
ATOM     22  H   LIG d   1       3.629  -1.260  -1.169  0.00  0.00     0.062 H 
ATOM     23  H   LIG d   1       5.065  -2.512  -2.725  0.00  0.00     0.065 H 
ENDBRANCH   1  13
TORSDOF 5
ENDMDL
MODEL 7
REMARK VINA RESULT:      -4.1      5.097      6.443
REMARK  5 active torsions:
REMARK  status: ('A' for Active; 'I' for Inactive)
REMARK    1  A    between atoms: C_1  and  C_2 
REMARK    2  A    between atoms: C_2  and  C_4 
REMARK    3  A    between atoms: C_2  and  O_6 
REMARK    4  A    between atoms: C_4  and  O_5 
REMARK    5  A    between atoms: O_6  and  C_7 
ROOT
ATOM      1  O   LIG d   1       3.031   1.232  -6.945  0.00  0.00    -0.487 OA
ENDROOT
BRANCH   1   2
ATOM      2  C   LIG d   1       2.996   0.080  -6.100  0.00  0.00     0.120 C 
ATOM      3  H   LIG d   1       2.387  -0.694  -6.568  0.00  0.00     0.075 H 
BRANCH   2   4
ATOM      4  C   LIG d   1       4.418  -0.446  -5.895  0.00  0.00    -0.026 C 
ATOM      5  H   LIG d   1       5.124   0.206  -6.408  0.00  0.00     0.027 H 
ATOM      6  H   LIG d   1       4.648  -0.464  -4.829  0.00  0.00     0.027 H 
ATOM      7  H   LIG d   1       4.494  -1.455  -6.301  0.00  0.00     0.027 H 
ENDBRANCH   2   4
BRANCH   2   8
ATOM      8  C   LIG d   1       2.391   0.457  -4.747  0.00  0.00     0.081 C 
ATOM      9  H   LIG d   1       1.372   0.816  -4.892  0.00  0.00     0.059 H 
ATOM     10  H   LIG d   1       2.378  -0.419  -4.098  0.00  0.00     0.059 H 
BRANCH   8  11
ATOM     11  O   LIG d   1       3.178   1.486  -4.143  0.00  0.00    -0.391 OA
ATOM     12  H   LIG d   1       3.962   1.161  -3.680  0.00  0.00     0.210 HD
ENDBRANCH   8  11
ENDBRANCH   2   8
ENDBRANCH   1   2
BRANCH   1  13
ATOM     13  C   LIG d   1       3.139   1.015  -8.282  0.00  0.00     0.121 A 
ATOM     14  C   LIG d   1       2.443  -0.029  -8.874  0.00  0.00    -0.020 A 
ATOM     15  C   LIG d   1       2.555  -0.248 -10.234  0.00  0.00    -0.058 A 
ATOM     16  H   LIG d   1       1.815  -0.670  -8.273  0.00  0.00     0.065 H 
ATOM     17  C   LIG d   1       3.358   0.572 -11.004  0.00  0.00    -0.061 A 
ATOM     18  H   LIG d   1       2.012  -1.060 -10.696  0.00  0.00     0.062 H 
ATOM     19  C   LIG d   1       4.053   1.613 -10.416  0.00  0.00    -0.058 A 
ATOM     20  H   LIG d   1       3.443   0.400 -12.067  0.00  0.00     0.062 H 
ATOM     21  C   LIG d   1       3.940   1.839  -9.057  0.00  0.00    -0.020 A 
ATOM     22  H   LIG d   1       4.681   2.252 -11.019  0.00  0.00     0.062 H 
ATOM     23  H   LIG d   1       4.480   2.655  -8.599  0.00  0.00     0.065 H 
ENDBRANCH   1  13
TORSDOF 5
ENDMDL
MODEL 8
REMARK VINA RESULT:      -4.1      3.113      3.738
REMARK  5 active torsions:
REMARK  status: ('A' for Active; 'I' for Inactive)
REMARK    1  A    between atoms: C_1  and  C_2 
REMARK    2  A    between atoms: C_2  and  C_4 
REMARK    3  A    between atoms: C_2  and  O_6 
REMARK    4  A    between atoms: C_4  and  O_5 
REMARK    5  A    between atoms: O_6  and  C_7 
ROOT
ATOM      1  O   LIG d   1       4.994   0.250  -5.686  0.00  0.00    -0.487 OA
ENDROOT
BRANCH   1   2
ATOM      2  C   LIG d   1       5.729  -0.505  -6.651  0.00  0.00     0.120 C 
ATOM      3  H   LIG d   1       6.157  -1.386  -6.173  0.00  0.00     0.075 H 
BRANCH   2   4
ATOM      4  C   LIG d   1       4.793  -0.941  -7.779  0.00  0.00    -0.026 C 
ATOM      5  H   LIG d   1       4.378  -0.060  -8.267  0.00  0.00     0.027 H 
ATOM      6  H   LIG d   1       5.350  -1.531  -8.506  0.00  0.00     0.027 H 
ATOM      7  H   LIG d   1       3.983  -1.543  -7.366  0.00  0.00     0.027 H 
ENDBRANCH   2   4
BRANCH   2   8
ATOM      8  C   LIG d   1       6.853   0.360  -7.226  0.00  0.00     0.081 C 
ATOM      9  H   LIG d   1       7.715  -0.267  -7.454  0.00  0.00     0.059 H 
ATOM     10  H   LIG d   1       6.506   0.847  -8.138  0.00  0.00     0.059 H 
BRANCH   8  11
ATOM     11  O   LIG d   1       7.226   1.354  -6.269  0.00  0.00    -0.391 OA
ATOM     12  H   LIG d   1       7.895   1.975  -6.588  0.00  0.00     0.210 HD
ENDBRANCH   8  11
ENDBRANCH   2   8
ENDBRANCH   1   2
BRANCH   1  13
ATOM     13  C   LIG d   1       4.551  -0.418  -4.588  0.00  0.00     0.121 A 
ATOM     14  C   LIG d   1       5.416  -1.237  -3.878  0.00  0.00    -0.020 A 
ATOM     15  C   LIG d   1       4.963  -1.914  -2.761  0.00  0.00    -0.058 A 
ATOM     16  H   LIG d   1       6.442  -1.346  -4.196  0.00  0.00     0.065 H 
ATOM     17  C   LIG d   1       3.650  -1.776  -2.352  0.00  0.00    -0.061 A 
ATOM     18  H   LIG d   1       5.636  -2.553  -2.208  0.00  0.00     0.062 H 
ATOM     19  C   LIG d   1       2.786  -0.960  -3.059  0.00  0.00    -0.058 A 
ATOM     20  H   LIG d   1       3.298  -2.305  -1.480  0.00  0.00     0.062 H 
ATOM     21  C   LIG d   1       3.235  -0.276  -4.173  0.00  0.00    -0.020 A 
ATOM     22  H   LIG d   1       1.760  -0.853  -2.739  0.00  0.00     0.062 H 
ATOM     23  H   LIG d   1       2.561   0.365  -4.721  0.00  0.00     0.065 H 
ENDBRANCH   1  13
TORSDOF 5
ENDMDL
MODEL 9
REMARK VINA RESULT:      -4.1      1.847      4.632
REMARK  5 active torsions:
REMARK  status: ('A' for Active; 'I' for Inactive)
REMARK    1  A    between atoms: C_1  and  C_2 
REMARK    2  A    between atoms: C_2  and  C_4 
REMARK    3  A    between atoms: C_2  and  O_6 
REMARK    4  A    between atoms: C_4  and  O_5 
REMARK    5  A    between atoms: O_6  and  C_7 
ROOT
ATOM      1  O   LIG d   1       3.938  -1.265  -3.140  0.00  0.00    -0.487 OA
ENDROOT
BRANCH   1   2
ATOM      2  C   LIG d   1       3.829   0.095  -3.565  0.00  0.00     0.120 C 
ATOM      3  H   LIG d   1       4.736   0.381  -4.098  0.00  0.00     0.075 H 
BRANCH   2   4
ATOM      4  C   LIG d   1       2.624   0.244  -4.495  0.00  0.00    -0.026 C 
ATOM      5  H   LIG d   1       1.721  -0.069  -3.971  0.00  0.00     0.027 H 
ATOM      6  H   LIG d   1       2.526   1.286  -4.798  0.00  0.00     0.027 H 
ATOM      7  H   LIG d   1       2.766  -0.380  -5.377  0.00  0.00     0.027 H 
ENDBRANCH   2   4
BRANCH   2   8
ATOM      8  C   LIG d   1       3.647   0.998  -2.344  0.00  0.00     0.081 C 
ATOM      9  H   LIG d   1       3.269   1.969  -2.663  0.00  0.00     0.059 H 
ATOM     10  H   LIG d   1       2.937   0.540  -1.655  0.00  0.00     0.059 H 
BRANCH   8  11
ATOM     11  O   LIG d   1       4.904   1.168  -1.686  0.00  0.00    -0.391 OA
ATOM     12  H   LIG d   1       5.528   1.728  -2.168  0.00  0.00     0.210 HD
ENDBRANCH   8  11
ENDBRANCH   2   8
ENDBRANCH   1   2
BRANCH   1  13
ATOM     13  C   LIG d   1       5.000  -1.975  -3.604  0.00  0.00     0.121 A 
ATOM     14  C   LIG d   1       6.289  -1.609  -3.245  0.00  0.00    -0.020 A 
ATOM     15  C   LIG d   1       7.368  -2.332  -3.718  0.00  0.00    -0.058 A 
ATOM     16  H   LIG d   1       6.450  -0.760  -2.597  0.00  0.00     0.065 H 
ATOM     17  C   LIG d   1       7.163  -3.418  -4.548  0.00  0.00    -0.061 A 
ATOM     18  H   LIG d   1       8.372  -2.048  -3.439  0.00  0.00     0.062 H 
ATOM     19  C   LIG d   1       5.879  -3.784  -4.907  0.00  0.00    -0.058 A 
ATOM     20  H   LIG d   1       8.007  -3.982  -4.916  0.00  0.00     0.062 H 
ATOM     21  C   LIG d   1       4.797  -3.068  -4.432  0.00  0.00    -0.020 A 
ATOM     22  H   LIG d   1       5.720  -4.633  -5.556  0.00  0.00     0.062 H 
ATOM     23  H   LIG d   1       3.794  -3.358  -4.710  0.00  0.00     0.065 H 
ENDBRANCH   1  13
TORSDOF 5
ENDMDL
MODEL 10
REMARK VINA RESULT:      -4.1      2.491      2.828
REMARK  5 active torsions:
REMARK  status: ('A' for Active; 'I' for Inactive)
REMARK    1  A    between atoms: C_1  and  C_2 
REMARK    2  A    between atoms: C_2  and  C_4 
REMARK    3  A    between atoms: C_2  and  O_6 
REMARK    4  A    between atoms: C_4  and  O_5 
REMARK    5  A    between atoms: O_6  and  C_7 
ROOT
ATOM      1  O   LIG d   1       6.323  -1.141  -4.995  0.00  0.00    -0.487 OA
ENDROOT
BRANCH   1   2
ATOM      2  C   LIG d   1       5.855  -0.641  -6.249  0.00  0.00     0.120 C 
ATOM      3  H   LIG d   1       5.452   0.363  -6.112  0.00  0.00     0.075 H 
BRANCH   2   4
ATOM      4  C   LIG d   1       7.016  -0.593  -7.244  0.00  0.00    -0.026 C 
ATOM      5  H   LIG d   1       6.622  -0.503  -8.256  0.00  0.00     0.027 H 
ATOM      6  H   LIG d   1       7.649   0.266  -7.023  0.00  0.00     0.027 H 
ATOM      7  H   LIG d   1       7.603  -1.508  -7.162  0.00  0.00     0.027 H 
ENDBRANCH   2   4
BRANCH   2   8
ATOM      8  C   LIG d   1       4.758  -1.561  -6.789  0.00  0.00     0.081 C 
ATOM      9  H   LIG d   1       4.900  -1.707  -7.860  0.00  0.00     0.059 H 
ATOM     10  H   LIG d   1       4.810  -2.525  -6.281  0.00  0.00     0.059 H 
BRANCH   8  11
ATOM     11  O   LIG d   1       3.480  -0.967  -6.553  0.00  0.00    -0.391 OA
ATOM     12  H   LIG d   1       3.195  -0.359  -7.249  0.00  0.00     0.210 HD
ENDBRANCH   8  11
ENDBRANCH   2   8
ENDBRANCH   1   2
BRANCH   1  13
ATOM     13  C   LIG d   1       5.697  -0.687  -3.877  0.00  0.00     0.121 A 
ATOM     14  C   LIG d   1       5.762   0.658  -3.544  0.00  0.00    -0.020 A 
ATOM     15  C   LIG d   1       5.125   1.118  -2.407  0.00  0.00    -0.058 A 
ATOM     16  H   LIG d   1       6.309   1.345  -4.173  0.00  0.00     0.065 H 
ATOM     17  C   LIG d   1       4.425   0.239  -1.602  0.00  0.00    -0.061 A 
ATOM     18  H   LIG d   1       5.175   2.166  -2.147  0.00  0.00     0.062 H 
ATOM     19  C   LIG d   1       4.360  -1.102  -1.932  0.00  0.00    -0.058 A 
ATOM     20  H   LIG d   1       3.928   0.601  -0.714  0.00  0.00     0.062 H 
ATOM     21  C   LIG d   1       4.990  -1.566  -3.071  0.00  0.00    -0.020 A 
ATOM     22  H   LIG d   1       3.813  -1.787  -1.301  0.00  0.00     0.062 H 
ATOM     23  H   LIG d   1       4.935  -2.613  -3.330  0.00  0.00     0.065 H 
ENDBRANCH   1  13
TORSDOF 5
ENDMDL
