MODEL 1
REMARK VINA RESULT:      -5.6      0.000      0.000
REMARK  4 active torsions:
REMARK  status: ('A' for Active; 'I' for Inactive)
REMARK    1  A    between atoms: C_4  and  C_7 
REMARK    2  A    between atoms: C_7  and  O_9 
REMARK    3  A    between atoms: O_9  and  C_10 
REMARK    4  A    between atoms: C_10  and  C_11 
ROOT
ATOM      1  C   LIG d   1       4.493  -0.961  -1.580  0.00  0.00    -0.062 A 
ATOM      2  C   LIG d   1       3.804  -1.737  -2.496  0.00  0.00    -0.061 A 
ATOM      3  C   LIG d   1       3.205  -1.148  -3.590  0.00  0.00    -0.048 A 
ATOM      4  C   LIG d   1       3.295   0.233  -3.772  0.00  0.00     0.059 A 
ATOM      5  C   LIG d   1       3.994   1.009  -2.845  0.00  0.00    -0.048 A 
ATOM      6  C   LIG d   1       4.584   0.408  -1.753  0.00  0.00    -0.061 A 
ATOM      7  H   LIG d   1       4.959  -1.428  -0.725  0.00  0.00     0.062 H 
ATOM      8  H   LIG d   1       3.736  -2.805  -2.355  0.00  0.00     0.062 H 
ATOM      9  H   LIG d   1       2.669  -1.754  -4.306  0.00  0.00     0.063 H 
ATOM     10  H   LIG d   1       4.071   2.078  -2.982  0.00  0.00     0.063 H 
ATOM     11  H   LIG d   1       5.123   1.007  -1.034  0.00  0.00     0.062 H 
ENDROOT
BRANCH   4  12
ATOM     12  C   LIG d   1       2.656   0.871  -4.942  0.00  0.00     0.340 C 
ATOM     13  O   LIG d   1       2.393   2.057  -4.919  0.00  0.00    -0.245 OA
BRANCH  12  14
ATOM     14  O   LIG d   1       2.366   0.138  -6.033  0.00  0.00    -0.454 OA
BRANCH  14  15
ATOM     15  C   LIG d   1       3.358   0.112  -7.093  0.00  0.00     0.147 C 
ATOM     16  H   LIG d   1       4.253   0.353  -6.717  0.00  0.00     0.077 H 
ATOM     17  H   LIG d   1       3.403  -0.888  -7.525  0.00  0.00     0.077 H 
BRANCH  15  18
ATOM     18  C   LIG d   1       2.978   1.104  -8.162  0.00  0.00     0.158 C 
ATOM     19  O   LIG d   1       3.673   2.071  -8.363  0.00  0.00    -0.297 OA
ATOM     20  H   LIG d   1       2.084   0.950  -8.749  0.00  0.00     0.106 H 
ENDBRANCH  15  18
ENDBRANCH  14  15
ENDBRANCH  12  14
ENDBRANCH   4  12
TORSDOF 4
ENDMDL
MODEL 2
REMARK VINA RESULT:      -5.2      3.021      4.143
REMARK  4 active torsions:
REMARK  status: ('A' for Active; 'I' for Inactive)
REMARK    1  A    between atoms: C_4  and  C_7 
REMARK    2  A    between atoms: C_7  and  O_9 
REMARK    3  A    between atoms: O_9  and  C_10 
REMARK    4  A    between atoms: C_10  and  C_11 
ROOT
ATOM      1  C   LIG d   1       3.792   1.407  -2.303  0.00  0.00    -0.062 A 
ATOM      2  C   LIG d   1       4.528   0.437  -1.644  0.00  0.00    -0.061 A 
ATOM      3  C   LIG d   1       4.684  -0.813  -2.204  0.00  0.00    -0.048 A 
ATOM      4  C   LIG d   1       4.097  -1.100  -3.439  0.00  0.00     0.059 A 
ATOM      5  C   LIG d   1       3.359  -0.116  -4.099  0.00  0.00    -0.048 A 
ATOM      6  C   LIG d   1       3.207   1.129  -3.525  0.00  0.00    -0.061 A 
ATOM      7  H   LIG d   1       3.673   2.384  -1.859  0.00  0.00     0.062 H 
ATOM      8  H   LIG d   1       4.981   0.661  -0.690  0.00  0.00     0.062 H 
ATOM      9  H   LIG d   1       5.259  -1.569  -1.690  0.00  0.00     0.063 H 
ATOM     10  H   LIG d   1       2.907  -0.330  -5.056  0.00  0.00     0.063 H 
ATOM     11  H   LIG d   1       2.634   1.890  -4.034  0.00  0.00     0.062 H 
ENDROOT
BRANCH   4  12
ATOM     12  C   LIG d   1       4.261  -2.437  -4.045  0.00  0.00     0.340 C 
ATOM     13  O   LIG d   1       4.120  -3.434  -3.365  0.00  0.00    -0.245 OA
BRANCH  12  14
ATOM     14  O   LIG d   1       4.566  -2.551  -5.352  0.00  0.00    -0.454 OA
BRANCH  14  15
ATOM     15  C   LIG d   1       5.164  -3.802  -5.783  0.00  0.00     0.147 C 
ATOM     16  H   LIG d   1       5.993  -3.610  -6.308  0.00  0.00     0.077 H 
ATOM     17  H   LIG d   1       5.420  -4.404  -4.909  0.00  0.00     0.077 H 
BRANCH  15  18
ATOM     18  C   LIG d   1       4.186  -4.557  -6.644  0.00  0.00     0.158 C 
ATOM     19  O   LIG d   1       3.377  -5.296  -6.135  0.00  0.00    -0.297 OA
ATOM     20  H   LIG d   1       4.208  -4.439  -7.718  0.00  0.00     0.106 H 
ENDBRANCH  15  18
ENDBRANCH  14  15
ENDBRANCH  12  14
ENDBRANCH   4  12
TORSDOF 4
ENDMDL
MODEL 3
REMARK VINA RESULT:      -4.8      1.223      1.615
REMARK  4 active torsions:
REMARK  status: ('A' for Active; 'I' for Inactive)
REMARK    1  A    between atoms: C_4  and  C_7 
REMARK    2  A    between atoms: C_7  and  O_9 
REMARK    3  A    between atoms: O_9  and  C_10 
REMARK    4  A    between atoms: C_10  and  C_11 
ROOT
ATOM      1  C   LIG d   1       4.558  -0.760  -1.574  0.00  0.00    -0.062 A 
ATOM      2  C   LIG d   1       3.959  -1.805  -2.256  0.00  0.00    -0.061 A 
ATOM      3  C   LIG d   1       3.795  -1.736  -3.624  0.00  0.00    -0.048 A 
ATOM      4  C   LIG d   1       4.235  -0.608  -4.320  0.00  0.00     0.059 A 
ATOM      5  C   LIG d   1       4.842   0.441  -3.626  0.00  0.00    -0.048 A 
ATOM      6  C   LIG d   1       4.995   0.360  -2.258  0.00  0.00    -0.061 A 
ATOM      7  H   LIG d   1       4.683  -0.820  -0.503  0.00  0.00     0.062 H 
ATOM      8  H   LIG d   1       3.620  -2.676  -1.716  0.00  0.00     0.062 H 
ATOM      9  H   LIG d   1       3.328  -2.552  -4.155  0.00  0.00     0.063 H 
ATOM     10  H   LIG d   1       5.189   1.314  -4.159  0.00  0.00     0.063 H 
ATOM     11  H   LIG d   1       5.462   1.172  -1.719  0.00  0.00     0.062 H 
ENDROOT
BRANCH   4  12
ATOM     12  C   LIG d   1       4.063  -0.527  -5.785  0.00  0.00     0.340 C 
ATOM     13  O   LIG d   1       4.685  -1.276  -6.512  0.00  0.00    -0.245 OA
BRANCH  12  14
ATOM     14  O   LIG d   1       3.217   0.377  -6.315  0.00  0.00    -0.454 OA
BRANCH  14  15
ATOM     15  C   LIG d   1       2.804   0.167  -7.691  0.00  0.00     0.147 C 
ATOM     16  H   LIG d   1       3.389  -0.527  -8.112  0.00  0.00     0.077 H 
ATOM     17  H   LIG d   1       1.767  -0.172  -7.712  0.00  0.00     0.077 H 
BRANCH  15  18
ATOM     18  C   LIG d   1       2.926   1.459  -8.456  0.00  0.00     0.158 C 
ATOM     19  O   LIG d   1       2.793   2.514  -7.884  0.00  0.00    -0.297 OA
ATOM     20  H   LIG d   1       3.131   1.442  -9.516  0.00  0.00     0.106 H 
ENDBRANCH  15  18
ENDBRANCH  14  15
ENDBRANCH  12  14
ENDBRANCH   4  12
TORSDOF 4
ENDMDL
MODEL 4
REMARK VINA RESULT:      -4.8      4.173      5.091
REMARK  4 active torsions:
REMARK  status: ('A' for Active; 'I' for Inactive)
REMARK    1  A    between atoms: C_4  and  C_7 
REMARK    2  A    between atoms: C_7  and  O_9 
REMARK    3  A    between atoms: O_9  and  C_10 
REMARK    4  A    between atoms: C_10  and  C_11 
ROOT
ATOM      1  C   LIG d   1       4.207  -0.873  -1.838  0.00  0.00    -0.062 A 
ATOM      2  C   LIG d   1       4.398   0.498  -1.847  0.00  0.00    -0.061 A 
ATOM      3  C   LIG d   1       5.409   1.051  -2.604  0.00  0.00    -0.048 A 
ATOM      4  C   LIG d   1       6.241   0.225  -3.364  0.00  0.00     0.059 A 
ATOM      5  C   LIG d   1       6.039  -1.157  -3.354  0.00  0.00    -0.048 A 
ATOM      6  C   LIG d   1       5.027  -1.697  -2.588  0.00  0.00    -0.061 A 
ATOM      7  H   LIG d   1       3.414  -1.300  -1.243  0.00  0.00     0.062 H 
ATOM      8  H   LIG d   1       3.755   1.135  -1.259  0.00  0.00     0.062 H 
ATOM      9  H   LIG d   1       5.558   2.121  -2.611  0.00  0.00     0.063 H 
ATOM     10  H   LIG d   1       6.675  -1.801  -3.943  0.00  0.00     0.063 H 
ATOM     11  H   LIG d   1       4.872  -2.766  -2.577  0.00  0.00     0.062 H 
ENDROOT
BRANCH   4  12
ATOM     12  C   LIG d   1       7.325   0.811  -4.178  0.00  0.00     0.340 C 
ATOM     13  O   LIG d   1       8.113   0.086  -4.752  0.00  0.00    -0.245 OA
BRANCH  12  14
ATOM     14  O   LIG d   1       7.440   2.148  -4.285  0.00  0.00    -0.454 OA
BRANCH  14  15
ATOM     15  C   LIG d   1       8.744   2.671  -4.651  0.00  0.00     0.147 C 
ATOM     16  H   LIG d   1       9.203   2.025  -5.261  0.00  0.00     0.077 H 
ATOM     17  H   LIG d   1       8.623   3.628  -5.160  0.00  0.00     0.077 H 
BRANCH  15  18
ATOM     18  C   LIG d   1       9.575   2.865  -3.409  0.00  0.00     0.158 C 
ATOM     19  O   LIG d   1       9.522   3.909  -2.804  0.00  0.00    -0.297 OA
ATOM     20  H   LIG d   1      10.217   2.071  -3.059  0.00  0.00     0.106 H 
ENDBRANCH  15  18
ENDBRANCH  14  15
ENDBRANCH  12  14
ENDBRANCH   4  12
TORSDOF 4
ENDMDL
MODEL 5
REMARK VINA RESULT:      -4.6      3.453      4.651
REMARK  4 active torsions:
REMARK  status: ('A' for Active; 'I' for Inactive)
REMARK    1  A    between atoms: C_4  and  C_7 
REMARK    2  A    between atoms: C_7  and  O_9 
REMARK    3  A    between atoms: O_9  and  C_10 
REMARK    4  A    between atoms: C_10  and  C_11 
ROOT
ATOM      1  C   LIG d   1       3.696   1.311  -2.384  0.00  0.00    -0.062 A 
ATOM      2  C   LIG d   1       4.453   0.406  -1.661  0.00  0.00    -0.061 A 
ATOM      3  C   LIG d   1       4.773  -0.821  -2.206  0.00  0.00    -0.048 A 
ATOM      4  C   LIG d   1       4.329  -1.149  -3.489  0.00  0.00     0.059 A 
ATOM      5  C   LIG d   1       3.569  -0.229  -4.214  0.00  0.00    -0.048 A 
ATOM      6  C   LIG d   1       3.253   0.992  -3.655  0.00  0.00    -0.061 A 
ATOM      7  H   LIG d   1       3.448   2.269  -1.953  0.00  0.00     0.062 H 
ATOM      8  H   LIG d   1       4.796   0.660  -0.670  0.00  0.00     0.062 H 
ATOM      9  H   LIG d   1       5.365  -1.526  -1.642  0.00  0.00     0.063 H 
ATOM     10  H   LIG d   1       3.226  -0.474  -5.208  0.00  0.00     0.063 H 
ATOM     11  H   LIG d   1       2.661   1.703  -4.214  0.00  0.00     0.062 H 
ENDROOT
BRANCH   4  12
ATOM     12  C   LIG d   1       4.668  -2.460  -4.078  0.00  0.00     0.340 C 
ATOM     13  O   LIG d   1       4.142  -3.470  -3.655  0.00  0.00    -0.245 OA
BRANCH  12  14
ATOM     14  O   LIG d   1       5.559  -2.536  -5.085  0.00  0.00    -0.454 OA
BRANCH  14  15
ATOM     15  C   LIG d   1       6.956  -2.333  -4.745  0.00  0.00     0.147 C 
ATOM     16  H   LIG d   1       7.420  -1.876  -5.505  0.00  0.00     0.077 H 
ATOM     17  H   LIG d   1       7.027  -1.712  -3.851  0.00  0.00     0.077 H 
BRANCH  15  18
ATOM     18  C   LIG d   1       7.610  -3.665  -4.485  0.00  0.00     0.158 C 
ATOM     19  O   LIG d   1       8.528  -3.745  -3.705  0.00  0.00    -0.297 OA
ATOM     20  H   LIG d   1       7.258  -4.548  -4.997  0.00  0.00     0.106 H 
ENDBRANCH  15  18
ENDBRANCH  14  15
ENDBRANCH  12  14
ENDBRANCH   4  12
TORSDOF 4
ENDMDL
MODEL 6
REMARK VINA RESULT:      -4.6      2.252      2.596
REMARK  4 active torsions:
REMARK  status: ('A' for Active; 'I' for Inactive)
REMARK    1  A    between atoms: C_4  and  C_7 
REMARK    2  A    between atoms: C_7  and  O_9 
REMARK    3  A    between atoms: O_9  and  C_10 
REMARK    4  A    between atoms: C_10  and  C_11 
ROOT
ATOM      1  C   LIG d   1       4.334  -0.654  -1.594  0.00  0.00    -0.062 A 
ATOM      2  C   LIG d   1       4.473  -1.781  -2.385  0.00  0.00    -0.061 A 
ATOM      3  C   LIG d   1       5.073  -1.688  -3.623  0.00  0.00    -0.048 A 
ATOM      4  C   LIG d   1       5.541  -0.453  -4.078  0.00  0.00     0.059 A 
ATOM      5  C   LIG d   1       5.401   0.679  -3.272  0.00  0.00    -0.048 A 
ATOM      6  C   LIG d   1       4.794   0.572  -2.039  0.00  0.00    -0.061 A 
ATOM      7  H   LIG d   1       3.862  -0.733  -0.625  0.00  0.00     0.062 H 
ATOM      8  H   LIG d   1       4.111  -2.735  -2.032  0.00  0.00     0.062 H 
ATOM      9  H   LIG d   1       5.182  -2.568  -4.240  0.00  0.00     0.063 H 
ATOM     10  H   LIG d   1       5.765   1.636  -3.616  0.00  0.00     0.063 H 
ATOM     11  H   LIG d   1       4.682   1.448  -1.416  0.00  0.00     0.062 H 
ENDROOT
BRANCH   4  12
ATOM     12  C   LIG d   1       6.185  -0.346  -5.403  0.00  0.00     0.340 C 
ATOM     13  O   LIG d   1       7.328  -0.729  -5.555  0.00  0.00    -0.245 OA
BRANCH  12  14
ATOM     14  O   LIG d   1       5.506   0.177  -6.442  0.00  0.00    -0.454 OA
BRANCH  14  15
ATOM     15  C   LIG d   1       4.423  -0.620  -6.989  0.00  0.00     0.147 C 
ATOM     16  H   LIG d   1       4.624  -0.844  -7.943  0.00  0.00     0.077 H 
ATOM     17  H   LIG d   1       4.322  -1.541  -6.414  0.00  0.00     0.077 H 
BRANCH  15  18
ATOM     18  C   LIG d   1       3.137   0.161  -6.917  0.00  0.00     0.158 C 
ATOM     19  O   LIG d   1       2.928   0.894  -5.980  0.00  0.00    -0.297 OA
ATOM     20  H   LIG d   1       2.402   0.066  -7.702  0.00  0.00     0.106 H 
ENDBRANCH  15  18
ENDBRANCH  14  15
ENDBRANCH  12  14
ENDBRANCH   4  12
TORSDOF 4
ENDMDL
MODEL 7
REMARK VINA RESULT:      -4.5      4.713      6.031
REMARK  4 active torsions:
REMARK  status: ('A' for Active; 'I' for Inactive)
REMARK    1  A    between atoms: C_4  and  C_7 
REMARK    2  A    between atoms: C_7  and  O_9 
REMARK    3  A    between atoms: O_9  and  C_10 
REMARK    4  A    between atoms: C_10  and  C_11 
ROOT
ATOM      1  C   LIG d   1       4.582   0.727  -2.070  0.00  0.00    -0.062 A 
ATOM      2  C   LIG d   1       4.159  -0.577  -1.884  0.00  0.00    -0.061 A 
ATOM      3  C   LIG d   1       4.861  -1.621  -2.449  0.00  0.00    -0.048 A 
ATOM      4  C   LIG d   1       6.002  -1.359  -3.211  0.00  0.00     0.059 A 
ATOM      5  C   LIG d   1       6.426  -0.040  -3.391  0.00  0.00    -0.048 A 
ATOM      6  C   LIG d   1       5.711   0.994  -2.824  0.00  0.00    -0.061 A 
ATOM      7  H   LIG d   1       4.028   1.540  -1.625  0.00  0.00     0.062 H 
ATOM      8  H   LIG d   1       3.277  -0.778  -1.294  0.00  0.00     0.062 H 
ATOM      9  H   LIG d   1       4.532  -2.638  -2.302  0.00  0.00     0.063 H 
ATOM     10  H   LIG d   1       7.310   0.169  -3.976  0.00  0.00     0.063 H 
ATOM     11  H   LIG d   1       6.036   2.015  -2.966  0.00  0.00     0.062 H 
ENDROOT
BRANCH   4  12
ATOM     12  C   LIG d   1       6.760  -2.471  -3.819  0.00  0.00     0.340 C 
ATOM     13  O   LIG d   1       6.190  -3.283  -4.520  0.00  0.00    -0.245 OA
BRANCH  12  14
ATOM     14  O   LIG d   1       8.083  -2.585  -3.596  0.00  0.00    -0.454 OA
BRANCH  14  15
ATOM     15  C   LIG d   1       8.655  -3.917  -3.685  0.00  0.00     0.147 C 
ATOM     16  H   LIG d   1       7.920  -4.596  -3.674  0.00  0.00     0.077 H 
ATOM     17  H   LIG d   1       9.220  -4.010  -4.613  0.00  0.00     0.077 H 
BRANCH  15  18
ATOM     18  C   LIG d   1       9.572  -4.150  -2.512  0.00  0.00     0.158 C 
ATOM     19  O   LIG d   1       9.678  -5.257  -2.040  0.00  0.00    -0.297 OA
ATOM     20  H   LIG d   1      10.134  -3.329  -2.094  0.00  0.00     0.106 H 
ENDBRANCH  15  18
ENDBRANCH  14  15
ENDBRANCH  12  14
ENDBRANCH   4  12
TORSDOF 4
ENDMDL
MODEL 8
REMARK VINA RESULT:      -4.4      2.658      2.991
REMARK  4 active torsions:
REMARK  status: ('A' for Active; 'I' for Inactive)
REMARK    1  A    between atoms: C_4  and  C_7 
REMARK    2  A    between atoms: C_7  and  O_9 
REMARK    3  A    between atoms: O_9  and  C_10 
REMARK    4  A    between atoms: C_10  and  C_11 
ROOT
ATOM      1  C   LIG d   1       4.384  -1.009  -1.665  0.00  0.00    -0.062 A 
ATOM      2  C   LIG d   1       4.000  -2.061  -2.479  0.00  0.00    -0.061 A 
ATOM      3  C   LIG d   1       4.130  -1.960  -3.848  0.00  0.00    -0.048 A 
ATOM      4  C   LIG d   1       4.650  -0.793  -4.413  0.00  0.00     0.059 A 
ATOM      5  C   LIG d   1       5.039   0.262  -3.586  0.00  0.00    -0.048 A 
ATOM      6  C   LIG d   1       4.899   0.149  -2.218  0.00  0.00    -0.061 A 
ATOM      7  H   LIG d   1       4.279  -1.094  -0.594  0.00  0.00     0.062 H 
ATOM      8  H   LIG d   1       3.598  -2.962  -2.041  0.00  0.00     0.062 H 
ATOM      9  H   LIG d   1       3.831  -2.781  -4.483  0.00  0.00     0.063 H 
ATOM     10  H   LIG d   1       5.446   1.165  -4.016  0.00  0.00     0.063 H 
ATOM     11  H   LIG d   1       5.197   0.967  -1.577  0.00  0.00     0.062 H 
ENDROOT
BRANCH   4  12
ATOM     12  C   LIG d   1       4.792  -0.678  -5.879  0.00  0.00     0.340 C 
ATOM     13  O   LIG d   1       4.251  -1.486  -6.607  0.00  0.00    -0.245 OA
BRANCH  12  14
ATOM     14  O   LIG d   1       5.523   0.322  -6.408  0.00  0.00    -0.454 OA
BRANCH  14  15
ATOM     15  C   LIG d   1       6.836  -0.022  -6.923  0.00  0.00     0.147 C 
ATOM     16  H   LIG d   1       7.019  -0.989  -6.749  0.00  0.00     0.077 H 
ATOM     17  H   LIG d   1       6.867   0.165  -7.997  0.00  0.00     0.077 H 
BRANCH  15  18
ATOM     18  C   LIG d   1       7.881   0.819  -6.237  0.00  0.00     0.158 C 
ATOM     19  O   LIG d   1       7.549   1.770  -5.570  0.00  0.00    -0.297 OA
ATOM     20  H   LIG d   1       8.927   0.572  -6.341  0.00  0.00     0.106 H 
ENDBRANCH  15  18
ENDBRANCH  14  15
ENDBRANCH  12  14
ENDBRANCH   4  12
TORSDOF 4
ENDMDL
MODEL 9
REMARK VINA RESULT:      -4.3      2.695      3.119
REMARK  4 active torsions:
REMARK  status: ('A' for Active; 'I' for Inactive)
REMARK    1  A    between atoms: C_4  and  C_7 
REMARK    2  A    between atoms: C_7  and  O_9 
REMARK    3  A    between atoms: O_9  and  C_10 
REMARK    4  A    between atoms: C_10  and  C_11 
ROOT
ATOM      1  C   LIG d   1       2.845  -1.240  -2.687  0.00  0.00    -0.062 A 
ATOM      2  C   LIG d   1       2.837  -0.293  -3.696  0.00  0.00    -0.061 A 
ATOM      3  C   LIG d   1       4.020   0.098  -4.288  0.00  0.00    -0.048 A 
ATOM      4  C   LIG d   1       5.227  -0.463  -3.866  0.00  0.00     0.059 A 
ATOM      5  C   LIG d   1       5.227  -1.421  -2.850  0.00  0.00    -0.048 A 
ATOM      6  C   LIG d   1       4.037  -1.800  -2.264  0.00  0.00    -0.061 A 
ATOM      7  H   LIG d   1       1.916  -1.542  -2.227  0.00  0.00     0.062 H 
ATOM      8  H   LIG d   1       1.903   0.140  -4.022  0.00  0.00     0.062 H 
ATOM      9  H   LIG d   1       4.013   0.836  -5.076  0.00  0.00     0.063 H 
ATOM     10  H   LIG d   1       6.156  -1.863  -2.522  0.00  0.00     0.063 H 
ATOM     11  H   LIG d   1       4.036  -2.538  -1.476  0.00  0.00     0.062 H 
ENDROOT
BRANCH   4  12
ATOM     12  C   LIG d   1       6.498  -0.050  -4.496  0.00  0.00     0.340 C 
ATOM     13  O   LIG d   1       7.555  -0.304  -3.954  0.00  0.00    -0.245 OA
BRANCH  12  14
ATOM     14  O   LIG d   1       6.484   0.610  -5.670  0.00  0.00    -0.454 OA
BRANCH  14  15
ATOM     15  C   LIG d   1       6.705  -0.176  -6.870  0.00  0.00     0.147 C 
ATOM     16  H   LIG d   1       7.520   0.160  -7.343  0.00  0.00     0.077 H 
ATOM     17  H   LIG d   1       6.850  -1.223  -6.599  0.00  0.00     0.077 H 
BRANCH  15  18
ATOM     18  C   LIG d   1       5.510  -0.053  -7.779  0.00  0.00     0.158 C 
ATOM     19  O   LIG d   1       4.853   0.960  -7.779  0.00  0.00    -0.297 OA
ATOM     20  H   LIG d   1       5.240  -0.871  -8.431  0.00  0.00     0.106 H 
ENDBRANCH  15  18
ENDBRANCH  14  15
ENDBRANCH  12  14
ENDBRANCH   4  12
TORSDOF 4
ENDMDL
