MODEL 1
REMARK VINA RESULT:      -5.5      0.000      0.000
REMARK  8 active torsions:
REMARK  status: ('A' for Active; 'I' for Inactive)
REMARK    1  A    between atoms: C_1  and  C_2 
REMARK    2  A    between atoms: C_2  and  O_3 
REMARK    3  A    between atoms: O_3  and  P_4 
REMARK    4  A    between atoms: P_4  and  O_6 
REMARK    5  A    between atoms: P_4  and  O_9 
REMARK    6  A    between atoms: O_6  and  C_7 
REMARK    7  A    between atoms: C_7  and  C_8 
REMARK    8  A    between atoms: O_9  and  C_10 
ROOT
ATOM      1  P   LIG d   1       3.742  -0.080  -5.139  0.00  0.00     0.534 P 
ATOM      2  O   LIG d   1       2.289   0.203  -5.137  0.00  0.00    -0.215 OA
ENDROOT
BRANCH   1   3
ATOM      3  O   LIG d   1       3.986  -1.635  -4.803  0.00  0.00    -0.277 OA
BRANCH   3   4
ATOM      4  C   LIG d   1       4.768  -2.077  -3.691  0.00  0.00     0.057 C 
ATOM      5  H   LIG d   1       5.509  -1.317  -3.442  0.00  0.00     0.056 H 
ATOM      6  H   LIG d   1       5.276  -3.007  -3.951  0.00  0.00     0.056 H 
BRANCH   4   7
ATOM      7  C   LIG d   1       3.855  -2.314  -2.487  0.00  0.00    -0.041 C 
ATOM      8  H   LIG d   1       3.017  -2.942  -2.785  0.00  0.00     0.025 H 
ATOM      9  H   LIG d   1       4.418  -2.810  -1.696  0.00  0.00     0.025 H 
ATOM     10  H   LIG d   1       3.481  -1.357  -2.122  0.00  0.00     0.025 H 
ENDBRANCH   4   7
ENDBRANCH   3   4
ENDBRANCH   1   3
BRANCH   1  11
ATOM     11  O   LIG d   1       4.467   0.831  -4.026  0.00  0.00    -0.277 OA
BRANCH  11  12
ATOM     12  C   LIG d   1       3.770   1.412  -2.922  0.00  0.00     0.057 C 
ATOM     13  H   LIG d   1       3.729   2.495  -3.048  0.00  0.00     0.056 H 
ATOM     14  H   LIG d   1       2.757   1.012  -2.880  0.00  0.00     0.056 H 
BRANCH  12  15
ATOM     15  C   LIG d   1       4.505   1.077  -1.622  0.00  0.00    -0.041 C 
ATOM     16  H   LIG d   1       5.257   0.312  -1.817  0.00  0.00     0.025 H 
ATOM     17  H   LIG d   1       4.990   1.974  -1.238  0.00  0.00     0.025 H 
ATOM     18  H   LIG d   1       3.791   0.706  -0.887  0.00  0.00     0.025 H 
ENDBRANCH  12  15
ENDBRANCH  11  12
ENDBRANCH   1  11
BRANCH   1  19
ATOM     19  O   LIG d   1       4.353   0.259  -6.590  0.00  0.00    -0.384 OA
BRANCH  19  20
ATOM     20  C   LIG d   1       3.649  -0.273  -7.621  0.00  0.00     0.245 A 
ATOM     21  N   LIG d   1       3.722  -1.571  -7.864  0.00  0.00    -0.198 NA
ATOM     22  C   LIG d   1       3.050  -2.130  -8.854  0.00  0.00     0.151 A 
ATOM     23  C   LIG d   1       2.247  -1.369  -9.683  0.00  0.00     0.079 A 
ATOM     24 CL   LIG d   1       3.180  -3.841  -9.119  0.00  0.00    -0.060 Cl
ATOM     25  C   LIG d   1       2.147  -0.002  -9.464  0.00  0.00    -0.017 A 
ATOM     26 CL   LIG d   1       1.372  -2.116 -10.984  0.00  0.00    -0.080 Cl
ATOM     27  C   LIG d   1       2.861   0.553  -8.415  0.00  0.00     0.104 A 
ATOM     28  H   LIG d   1       1.526   0.616 -10.097  0.00  0.00     0.065 H 
ATOM     29 CL   LIG d   1       2.773   2.257  -8.094  0.00  0.00    -0.078 Cl
ENDBRANCH  19  20
ENDBRANCH   1  19
TORSDOF 8
ENDMDL
MODEL 2
REMARK VINA RESULT:      -5.3      1.744      3.506
REMARK  8 active torsions:
REMARK  status: ('A' for Active; 'I' for Inactive)
REMARK    1  A    between atoms: C_1  and  C_2 
REMARK    2  A    between atoms: C_2  and  O_3 
REMARK    3  A    between atoms: O_3  and  P_4 
REMARK    4  A    between atoms: P_4  and  O_6 
REMARK    5  A    between atoms: P_4  and  O_9 
REMARK    6  A    between atoms: O_6  and  C_7 
REMARK    7  A    between atoms: C_7  and  C_8 
REMARK    8  A    between atoms: O_9  and  C_10 
ROOT
ATOM      1  P   LIG d   1       5.355  -0.525  -5.000  0.00  0.00     0.534 P 
ATOM      2  O   LIG d   1       6.457  -0.477  -5.987  0.00  0.00    -0.215 OA
ENDROOT
BRANCH   1   3
ATOM      3  O   LIG d   1       5.308   0.859  -4.180  0.00  0.00    -0.277 OA
BRANCH   3   4
ATOM      4  C   LIG d   1       5.545   0.940  -2.773  0.00  0.00     0.057 C 
ATOM      5  H   LIG d   1       6.234   1.759  -2.566  0.00  0.00     0.056 H 
ATOM      6  H   LIG d   1       5.980   0.002  -2.424  0.00  0.00     0.056 H 
BRANCH   4   7
ATOM      7  C   LIG d   1       4.222   1.190  -2.046  0.00  0.00    -0.041 C 
ATOM      8  H   LIG d   1       4.425   1.556  -1.040  0.00  0.00     0.025 H 
ATOM      9  H   LIG d   1       3.642   1.932  -2.593  0.00  0.00     0.025 H 
ATOM     10  H   LIG d   1       3.658   0.259  -1.987  0.00  0.00     0.025 H 
ENDBRANCH   4   7
ENDBRANCH   3   4
ENDBRANCH   1   3
BRANCH   1  11
ATOM     11  O   LIG d   1       5.604  -1.746  -3.978  0.00  0.00    -0.277 OA
BRANCH  11  12
ATOM     12  C   LIG d   1       4.614  -2.737  -3.695  0.00  0.00     0.057 C 
ATOM     13  H   LIG d   1       3.947  -2.840  -4.551  0.00  0.00     0.056 H 
ATOM     14  H   LIG d   1       5.102  -3.691  -3.497  0.00  0.00     0.056 H 
BRANCH  12  15
ATOM     15  C   LIG d   1       3.805  -2.313  -2.467  0.00  0.00    -0.041 C 
ATOM     16  H   LIG d   1       4.351  -2.582  -1.562  0.00  0.00     0.025 H 
ATOM     17  H   LIG d   1       3.648  -1.234  -2.490  0.00  0.00     0.025 H 
ATOM     18  H   LIG d   1       2.841  -2.821  -2.474  0.00  0.00     0.025 H 
ENDBRANCH  12  15
ENDBRANCH  11  12
ENDBRANCH   1  11
BRANCH   1  19
ATOM     19  O   LIG d   1       3.956  -0.744  -5.766  0.00  0.00    -0.384 OA
BRANCH  19  20
ATOM     20  C   LIG d   1       3.995  -0.428  -7.085  0.00  0.00     0.245 A 
ATOM     21  N   LIG d   1       3.952   0.840  -7.458  0.00  0.00    -0.198 NA
ATOM     22  C   LIG d   1       3.994   1.190  -8.730  0.00  0.00     0.151 A 
ATOM     23  C   LIG d   1       4.075   0.235  -9.726  0.00  0.00     0.079 A 
ATOM     24 CL   LIG d   1       3.941   2.873  -9.158  0.00  0.00    -0.060 Cl
ATOM     25  C   LIG d   1       4.118  -1.108  -9.376  0.00  0.00    -0.017 A 
ATOM     26 CL   LIG d   1       4.124   0.709 -11.396  0.00  0.00    -0.080 Cl
ATOM     27  C   LIG d   1       4.078  -1.443  -8.033  0.00  0.00     0.104 A 
ATOM     28  H   LIG d   1       4.183  -1.875 -10.134  0.00  0.00     0.065 H 
ATOM     29 CL   LIG d   1       4.129  -3.106  -7.538  0.00  0.00    -0.078 Cl
ENDBRANCH  19  20
ENDBRANCH   1  19
TORSDOF 8
ENDMDL
MODEL 3
REMARK VINA RESULT:      -5.0      3.508      5.894
REMARK  8 active torsions:
REMARK  status: ('A' for Active; 'I' for Inactive)
REMARK    1  A    between atoms: C_1  and  C_2 
REMARK    2  A    between atoms: C_2  and  O_3 
REMARK    3  A    between atoms: O_3  and  P_4 
REMARK    4  A    between atoms: P_4  and  O_6 
REMARK    5  A    between atoms: P_4  and  O_9 
REMARK    6  A    between atoms: O_6  and  C_7 
REMARK    7  A    between atoms: C_7  and  C_8 
REMARK    8  A    between atoms: O_9  and  C_10 
ROOT
ATOM      1  P   LIG d   1       4.995  -0.659  -7.991  0.00  0.00     0.534 P 
ATOM      2  O   LIG d   1       5.589  -1.061  -9.285  0.00  0.00    -0.215 OA
ENDROOT
BRANCH   1   3
ATOM      3  O   LIG d   1       3.468  -1.163  -7.923  0.00  0.00    -0.277 OA
BRANCH   3   4
ATOM      4  C   LIG d   1       2.353  -0.304  -8.172  0.00  0.00     0.057 C 
ATOM      5  H   LIG d   1       2.609   0.717  -7.887  0.00  0.00     0.056 H 
ATOM      6  H   LIG d   1       1.496  -0.641  -7.586  0.00  0.00     0.056 H 
BRANCH   4   7
ATOM      7  C   LIG d   1       2.000  -0.344  -9.660  0.00  0.00    -0.041 C 
ATOM      8  H   LIG d   1       1.349  -1.196  -9.856  0.00  0.00     0.025 H 
ATOM      9  H   LIG d   1       1.487   0.576  -9.937  0.00  0.00     0.025 H 
ATOM     10  H   LIG d   1       2.913  -0.443 -10.247  0.00  0.00     0.025 H 
ENDBRANCH   4   7
ENDBRANCH   3   4
ENDBRANCH   1   3
BRANCH   1  11
ATOM     11  O   LIG d   1       5.037   0.946  -7.856  0.00  0.00    -0.277 OA
BRANCH  11  12
ATOM     12  C   LIG d   1       5.369   1.809  -8.946  0.00  0.00     0.057 C 
ATOM     13  H   LIG d   1       6.224   2.427  -8.672  0.00  0.00     0.056 H 
ATOM     14  H   LIG d   1       5.617   1.210  -9.822  0.00  0.00     0.056 H 
BRANCH  12  15
ATOM     15  C   LIG d   1       4.171   2.708  -9.266  0.00  0.00    -0.041 C 
ATOM     16  H   LIG d   1       4.192   3.585  -8.618  0.00  0.00     0.025 H 
ATOM     17  H   LIG d   1       4.223   3.023 -10.308  0.00  0.00     0.025 H 
ATOM     18  H   LIG d   1       3.248   2.155  -9.098  0.00  0.00     0.025 H 
ENDBRANCH  12  15
ENDBRANCH  11  12
ENDBRANCH   1  11
BRANCH   1  19
ATOM     19  O   LIG d   1       5.833  -1.321  -6.786  0.00  0.00    -0.384 OA
BRANCH  19  20
ATOM     20  C   LIG d   1       5.566  -0.784  -5.569  0.00  0.00     0.245 A 
ATOM     21  N   LIG d   1       4.390  -0.997  -5.002  0.00  0.00    -0.198 NA
ATOM     22  C   LIG d   1       4.091  -0.498  -3.817  0.00  0.00     0.151 A 
ATOM     23  C   LIG d   1       5.002   0.280  -3.125  0.00  0.00     0.079 A 
ATOM     24 CL   LIG d   1       2.534  -0.819  -3.120  0.00  0.00    -0.060 Cl
ATOM     25  C   LIG d   1       6.246   0.530  -3.689  0.00  0.00    -0.017 A 
ATOM     26 CL   LIG d   1       4.594   0.934  -1.570  0.00  0.00    -0.080 Cl
ATOM     27  C   LIG d   1       6.530  -0.011  -4.931  0.00  0.00     0.104 A 
ATOM     28  H   LIG d   1       6.976   1.135  -3.170  0.00  0.00     0.065 H 
ATOM     29 CL   LIG d   1       8.070   0.270  -5.682  0.00  0.00    -0.078 Cl
ENDBRANCH  19  20
ENDBRANCH   1  19
TORSDOF 8
ENDMDL
MODEL 4
REMARK VINA RESULT:      -4.9      2.121      3.121
REMARK  8 active torsions:
REMARK  status: ('A' for Active; 'I' for Inactive)
REMARK    1  A    between atoms: C_1  and  C_2 
REMARK    2  A    between atoms: C_2  and  O_3 
REMARK    3  A    between atoms: O_3  and  P_4 
REMARK    4  A    between atoms: P_4  and  O_6 
REMARK    5  A    between atoms: P_4  and  O_9 
REMARK    6  A    between atoms: O_6  and  C_7 
REMARK    7  A    between atoms: C_7  and  C_8 
REMARK    8  A    between atoms: O_9  and  C_10 
ROOT
ATOM      1  P   LIG d   1       5.255  -0.481  -4.952  0.00  0.00     0.534 P 
ATOM      2  O   LIG d   1       3.887  -0.614  -5.500  0.00  0.00    -0.215 OA
ENDROOT
BRANCH   1   3
ATOM      3  O   LIG d   1       5.557  -1.713  -3.960  0.00  0.00    -0.277 OA
BRANCH   3   4
ATOM      4  C   LIG d   1       4.587  -2.713  -3.643  0.00  0.00     0.057 C 
ATOM      5  H   LIG d   1       5.089  -3.664  -3.465  0.00  0.00     0.056 H 
ATOM      6  H   LIG d   1       3.890  -2.820  -4.475  0.00  0.00     0.056 H 
BRANCH   4   7
ATOM      7  C   LIG d   1       3.819  -2.299  -2.386  0.00  0.00    -0.041 C 
ATOM      8  H   LIG d   1       3.721  -3.157  -1.722  0.00  0.00     0.025 H 
ATOM      9  H   LIG d   1       4.361  -1.504  -1.874  0.00  0.00     0.025 H 
ATOM     10  H   LIG d   1       2.828  -1.942  -2.666  0.00  0.00     0.025 H 
ENDBRANCH   4   7
ENDBRANCH   3   4
ENDBRANCH   1   3
BRANCH   1  11
ATOM     11  O   LIG d   1       5.375   0.905  -4.140  0.00  0.00    -0.277 OA
BRANCH  11  12
ATOM     12  C   LIG d   1       5.362   0.973  -2.713  0.00  0.00     0.057 C 
ATOM     13  H   LIG d   1       5.685   0.017  -2.300  0.00  0.00     0.056 H 
ATOM     14  H   LIG d   1       6.039   1.761  -2.381  0.00  0.00     0.056 H 
BRANCH  12  15
ATOM     15  C   LIG d   1       3.943   1.284  -2.230  0.00  0.00    -0.041 C 
ATOM     16  H   LIG d   1       3.843   0.993  -1.184  0.00  0.00     0.025 H 
ATOM     17  H   LIG d   1       3.751   2.353  -2.331  0.00  0.00     0.025 H 
ATOM     18  H   LIG d   1       3.225   0.727  -2.832  0.00  0.00     0.025 H 
ENDBRANCH  12  15
ENDBRANCH  11  12
ENDBRANCH   1  11
BRANCH   1  19
ATOM     19  O   LIG d   1       6.321  -0.490  -6.159  0.00  0.00    -0.384 OA
BRANCH  19  20
ATOM     20  C   LIG d   1       5.775  -0.250  -7.378  0.00  0.00     0.245 A 
ATOM     21  N   LIG d   1       5.379   0.972  -7.690  0.00  0.00    -0.198 NA
ATOM     22  C   LIG d   1       4.848   1.250  -8.866  0.00  0.00     0.151 A 
ATOM     23  C   LIG d   1       4.677   0.261  -9.818  0.00  0.00     0.079 A 
ATOM     24 CL   LIG d   1       4.354   2.876  -9.222  0.00  0.00    -0.060 Cl
ATOM     25  C   LIG d   1       5.077  -1.037  -9.527  0.00  0.00    -0.017 A 
ATOM     26 CL   LIG d   1       3.973   0.638 -11.359  0.00  0.00    -0.080 Cl
ATOM     27  C   LIG d   1       5.634  -1.294  -8.285  0.00  0.00     0.104 A 
ATOM     28  H   LIG d   1       4.955  -1.828 -10.252  0.00  0.00     0.065 H 
ATOM     29 CL   LIG d   1       6.151  -2.898  -7.868  0.00  0.00    -0.078 Cl
ENDBRANCH  19  20
ENDBRANCH   1  19
TORSDOF 8
ENDMDL
MODEL 5
REMARK VINA RESULT:      -4.8      2.303      3.383
REMARK  8 active torsions:
REMARK  status: ('A' for Active; 'I' for Inactive)
REMARK    1  A    between atoms: C_1  and  C_2 
REMARK    2  A    between atoms: C_2  and  O_3 
REMARK    3  A    between atoms: O_3  and  P_4 
REMARK    4  A    between atoms: P_4  and  O_6 
REMARK    5  A    between atoms: P_4  and  O_9 
REMARK    6  A    between atoms: O_6  and  C_7 
REMARK    7  A    between atoms: C_7  and  C_8 
REMARK    8  A    between atoms: O_9  and  C_10 
ROOT
ATOM      1  P   LIG d   1       5.861  -0.851  -4.322  0.00  0.00     0.534 P 
ATOM      2  O   LIG d   1       6.088   0.540  -4.772  0.00  0.00    -0.215 OA
ENDROOT
BRANCH   1   3
ATOM      3  O   LIG d   1       5.703  -0.877  -2.720  0.00  0.00    -0.277 OA
BRANCH   3   4
ATOM      4  C   LIG d   1       4.477  -0.566  -2.053  0.00  0.00     0.057 C 
ATOM      5  H   LIG d   1       4.398  -1.159  -1.142  0.00  0.00     0.056 H 
ATOM      6  H   LIG d   1       3.638  -0.797  -2.710  0.00  0.00     0.056 H 
BRANCH   4   7
ATOM      7  C   LIG d   1       4.453   0.922  -1.697  0.00  0.00    -0.041 C 
ATOM      8  H   LIG d   1       3.893   1.064  -0.773  0.00  0.00     0.025 H 
ATOM      9  H   LIG d   1       5.473   1.280  -1.563  0.00  0.00     0.025 H 
ATOM     10  H   LIG d   1       3.973   1.480  -2.502  0.00  0.00     0.025 H 
ENDBRANCH   4   7
ENDBRANCH   3   4
ENDBRANCH   1   3
BRANCH   1  11
ATOM     11  O   LIG d   1       7.115  -1.765  -4.753  0.00  0.00    -0.277 OA
BRANCH  11  12
ATOM     12  C   LIG d   1       7.194  -3.162  -4.464  0.00  0.00     0.057 C 
ATOM     13  H   LIG d   1       6.350  -3.453  -3.839  0.00  0.00     0.056 H 
ATOM     14  H   LIG d   1       7.170  -3.728  -5.395  0.00  0.00     0.056 H 
BRANCH  12  15
ATOM     15  C   LIG d   1       8.501  -3.456  -3.723  0.00  0.00    -0.041 C 
ATOM     16  H   LIG d   1       8.299  -4.107  -2.873  0.00  0.00     0.025 H 
ATOM     17  H   LIG d   1       9.200  -3.947  -4.401  0.00  0.00     0.025 H 
ATOM     18  H   LIG d   1       8.935  -2.521  -3.369  0.00  0.00     0.025 H 
ENDBRANCH  12  15
ENDBRANCH  11  12
ENDBRANCH   1  11
BRANCH   1  19
ATOM     19  O   LIG d   1       4.519  -1.424  -5.003  0.00  0.00    -0.384 OA
BRANCH  19  20
ATOM     20  C   LIG d   1       4.227  -0.862  -6.202  0.00  0.00     0.245 A 
ATOM     21  N   LIG d   1       4.921  -1.206  -7.274  0.00  0.00    -0.198 NA
ATOM     22  C   LIG d   1       4.666  -0.687  -8.461  0.00  0.00     0.151 A 
ATOM     23  C   LIG d   1       3.661   0.249  -8.625  0.00  0.00     0.079 A 
ATOM     24 CL   LIG d   1       5.606  -1.183  -9.834  0.00  0.00    -0.060 Cl
ATOM     25  C   LIG d   1       2.912   0.640  -7.522  0.00  0.00    -0.017 A 
ATOM     26 CL   LIG d   1       3.339   0.928 -10.190  0.00  0.00    -0.080 Cl
ATOM     27  C   LIG d   1       3.202   0.073  -6.292  0.00  0.00     0.104 A 
ATOM     28  H   LIG d   1       2.121   1.369  -7.622  0.00  0.00     0.065 H 
ATOM     29 CL   LIG d   1       2.297   0.525  -4.881  0.00  0.00    -0.078 Cl
ENDBRANCH  19  20
ENDBRANCH   1  19
TORSDOF 8
ENDMDL
MODEL 6
REMARK VINA RESULT:      -4.7      2.537      3.242
REMARK  8 active torsions:
REMARK  status: ('A' for Active; 'I' for Inactive)
REMARK    1  A    between atoms: C_1  and  C_2 
REMARK    2  A    between atoms: C_2  and  O_3 
REMARK    3  A    between atoms: O_3  and  P_4 
REMARK    4  A    between atoms: P_4  and  O_6 
REMARK    5  A    between atoms: P_4  and  O_9 
REMARK    6  A    between atoms: O_6  and  C_7 
REMARK    7  A    between atoms: C_7  and  C_8 
REMARK    8  A    between atoms: O_9  and  C_10 
ROOT
ATOM      1  P   LIG d   1       5.372  -1.004  -4.263  0.00  0.00     0.534 P 
ATOM      2  O   LIG d   1       6.483  -1.965  -4.084  0.00  0.00    -0.215 OA
ENDROOT
BRANCH   1   3
ATOM      3  O   LIG d   1       5.963   0.419  -4.729  0.00  0.00    -0.277 OA
BRANCH   3   4
ATOM      4  C   LIG d   1       7.363   0.674  -4.862  0.00  0.00     0.057 C 
ATOM      5  H   LIG d   1       7.573   1.037  -5.868  0.00  0.00     0.056 H 
ATOM      6  H   LIG d   1       7.919  -0.247  -4.685  0.00  0.00     0.056 H 
BRANCH   4   7
ATOM      7  C   LIG d   1       7.788   1.731  -3.840  0.00  0.00    -0.041 C 
ATOM      8  H   LIG d   1       8.633   2.296  -4.233  0.00  0.00     0.025 H 
ATOM      9  H   LIG d   1       6.956   2.407  -3.649  0.00  0.00     0.025 H 
ATOM     10  H   LIG d   1       8.080   1.241  -2.911  0.00  0.00     0.025 H 
ENDBRANCH   4   7
ENDBRANCH   3   4
ENDBRANCH   1   3
BRANCH   1  11
ATOM     11  O   LIG d   1       4.585  -0.828  -2.869  0.00  0.00    -0.277 OA
BRANCH  11  12
ATOM     12  C   LIG d   1       4.800   0.276  -1.988  0.00  0.00     0.057 C 
ATOM     13  H   LIG d   1       4.717  -0.061  -0.955  0.00  0.00     0.056 H 
ATOM     14  H   LIG d   1       5.795   0.687  -2.158  0.00  0.00     0.056 H 
BRANCH  12  15
ATOM     15  C   LIG d   1       3.749   1.356  -2.259  0.00  0.00    -0.041 C 
ATOM     16  H   LIG d   1       3.738   2.066  -1.432  0.00  0.00     0.025 H 
ATOM     17  H   LIG d   1       3.995   1.877  -3.184  0.00  0.00     0.025 H 
ATOM     18  H   LIG d   1       2.768   0.891  -2.352  0.00  0.00     0.025 H 
ENDBRANCH  12  15
ENDBRANCH  11  12
ENDBRANCH   1  11
BRANCH   1  19
ATOM     19  O   LIG d   1       4.358  -1.558  -5.385  0.00  0.00    -0.384 OA
BRANCH  19  20
ATOM     20  C   LIG d   1       4.204  -0.727  -6.446  0.00  0.00     0.245 A 
ATOM     21  N   LIG d   1       5.057  -0.786  -7.455  0.00  0.00    -0.198 NA
ATOM     22  C   LIG d   1       4.940   0.001  -8.509  0.00  0.00     0.151 A 
ATOM     23  C   LIG d   1       3.918   0.928  -8.591  0.00  0.00     0.079 A 
ATOM     24 CL   LIG d   1       6.087  -0.128  -9.806  0.00  0.00    -0.060 Cl
ATOM     25  C   LIG d   1       3.004   1.024  -7.550  0.00  0.00    -0.017 A 
ATOM     26 CL   LIG d   1       3.778   1.960  -9.980  0.00  0.00    -0.080 Cl
ATOM     27  C   LIG d   1       3.151   0.181  -6.461  0.00  0.00     0.104 A 
ATOM     28  H   LIG d   1       2.195   1.740  -7.589  0.00  0.00     0.065 H 
ATOM     29 CL   LIG d   1       2.037   0.258  -5.132  0.00  0.00    -0.078 Cl
ENDBRANCH  19  20
ENDBRANCH   1  19
TORSDOF 8
ENDMDL
MODEL 7
REMARK VINA RESULT:      -4.7      4.135      6.018
REMARK  8 active torsions:
REMARK  status: ('A' for Active; 'I' for Inactive)
REMARK    1  A    between atoms: C_1  and  C_2 
REMARK    2  A    between atoms: C_2  and  O_3 
REMARK    3  A    between atoms: O_3  and  P_4 
REMARK    4  A    between atoms: P_4  and  O_6 
REMARK    5  A    between atoms: P_4  and  O_9 
REMARK    6  A    between atoms: O_6  and  C_7 
REMARK    7  A    between atoms: C_7  and  C_8 
REMARK    8  A    between atoms: O_9  and  C_10 
ROOT
ATOM      1  P   LIG d   1       4.312  -2.077  -3.649  0.00  0.00     0.534 P 
ATOM      2  O   LIG d   1       3.121  -1.907  -2.788  0.00  0.00    -0.215 OA
ENDROOT
BRANCH   1   3
ATOM      3  O   LIG d   1       4.203  -1.091  -4.917  0.00  0.00    -0.277 OA
BRANCH   3   4
ATOM      4  C   LIG d   1       3.182  -0.098  -5.045  0.00  0.00     0.057 C 
ATOM      5  H   LIG d   1       3.494   0.813  -4.533  0.00  0.00     0.056 H 
ATOM      6  H   LIG d   1       2.258  -0.467  -4.598  0.00  0.00     0.056 H 
BRANCH   4   7
ATOM      7  C   LIG d   1       2.947   0.204  -6.526  0.00  0.00    -0.041 C 
ATOM      8  H   LIG d   1       2.479  -0.657  -7.002  0.00  0.00     0.025 H 
ATOM      9  H   LIG d   1       2.295   1.072  -6.621  0.00  0.00     0.025 H 
ATOM     10  H   LIG d   1       3.901   0.412  -7.010  0.00  0.00     0.025 H 
ENDBRANCH   4   7
ENDBRANCH   3   4
ENDBRANCH   1   3
BRANCH   1  11
ATOM     11  O   LIG d   1       4.390  -3.602  -4.161  0.00  0.00    -0.277 OA
BRANCH  11  12
ATOM     12  C   LIG d   1       4.887  -3.966  -5.450  0.00  0.00     0.057 C 
ATOM     13  H   LIG d   1       4.308  -4.803  -5.840  0.00  0.00     0.056 H 
ATOM     14  H   LIG d   1       4.798  -3.115  -6.127  0.00  0.00     0.056 H 
BRANCH  12  15
ATOM     15  C   LIG d   1       6.358  -4.373  -5.334  0.00  0.00    -0.041 C 
ATOM     16  H   LIG d   1       6.688  -4.815  -6.274  0.00  0.00     0.025 H 
ATOM     17  H   LIG d   1       6.961  -3.492  -5.114  0.00  0.00     0.025 H 
ATOM     18  H   LIG d   1       6.470  -5.101  -4.531  0.00  0.00     0.025 H 
ENDBRANCH  12  15
ENDBRANCH  11  12
ENDBRANCH   1  11
BRANCH   1  19
ATOM     19  O   LIG d   1       5.639  -1.725  -2.808  0.00  0.00    -0.384 OA
BRANCH  19  20
ATOM     20  C   LIG d   1       6.395  -0.741  -3.358  0.00  0.00     0.245 A 
ATOM     21  N   LIG d   1       7.352  -1.053  -4.216  0.00  0.00    -0.198 NA
ATOM     22  C   LIG d   1       8.106  -0.127  -4.778  0.00  0.00     0.151 A 
ATOM     23  C   LIG d   1       7.928   1.212  -4.479  0.00  0.00     0.079 A 
ATOM     24 CL   LIG d   1       9.342  -0.596  -5.904  0.00  0.00    -0.060 Cl
ATOM     25  C   LIG d   1       6.936   1.578  -3.579  0.00  0.00    -0.017 A 
ATOM     26 CL   LIG d   1       8.930   2.419  -5.222  0.00  0.00    -0.080 Cl
ATOM     27  C   LIG d   1       6.158   0.584  -3.010  0.00  0.00     0.104 A 
ATOM     28  H   LIG d   1       6.775   2.617  -3.328  0.00  0.00     0.065 H 
ATOM     29 CL   LIG d   1       4.905   0.986  -1.879  0.00  0.00    -0.078 Cl
ENDBRANCH  19  20
ENDBRANCH   1  19
TORSDOF 8
ENDMDL
MODEL 8
REMARK VINA RESULT:      -4.7      2.260      3.617
REMARK  8 active torsions:
REMARK  status: ('A' for Active; 'I' for Inactive)
REMARK    1  A    between atoms: C_1  and  C_2 
REMARK    2  A    between atoms: C_2  and  O_3 
REMARK    3  A    between atoms: O_3  and  P_4 
REMARK    4  A    between atoms: P_4  and  O_6 
REMARK    5  A    between atoms: P_4  and  O_9 
REMARK    6  A    between atoms: O_6  and  C_7 
REMARK    7  A    between atoms: C_7  and  C_8 
REMARK    8  A    between atoms: O_9  and  C_10 
ROOT
ATOM      1  P   LIG d   1       5.447  -0.516  -4.895  0.00  0.00     0.534 P 
ATOM      2  O   LIG d   1       5.695  -1.625  -3.948  0.00  0.00    -0.215 OA
ENDROOT
BRANCH   1   3
ATOM      3  O   LIG d   1       6.641  -0.455  -5.974  0.00  0.00    -0.277 OA
BRANCH   3   4
ATOM      4  C   LIG d   1       7.567   0.630  -6.050  0.00  0.00     0.057 C 
ATOM      5  H   LIG d   1       8.570   0.270  -5.818  0.00  0.00     0.056 H 
ATOM      6  H   LIG d   1       7.283   1.401  -5.332  0.00  0.00     0.056 H 
BRANCH   4   7
ATOM      7  C   LIG d   1       7.550   1.218  -7.462  0.00  0.00    -0.041 C 
ATOM      8  H   LIG d   1       8.569   1.274  -7.844  0.00  0.00     0.025 H 
ATOM      9  H   LIG d   1       6.952   0.582  -8.113  0.00  0.00     0.025 H 
ATOM     10  H   LIG d   1       7.118   2.218  -7.434  0.00  0.00     0.025 H 
ENDBRANCH   4   7
ENDBRANCH   3   4
ENDBRANCH   1   3
BRANCH   1  11
ATOM     11  O   LIG d   1       5.383   0.876  -4.087  0.00  0.00    -0.277 OA
BRANCH  11  12
ATOM     12  C   LIG d   1       5.283   0.944  -2.664  0.00  0.00     0.057 C 
ATOM     13  H   LIG d   1       5.679   0.027  -2.227  0.00  0.00     0.056 H 
ATOM     14  H   LIG d   1       5.856   1.798  -2.300  0.00  0.00     0.056 H 
BRANCH  12  15
ATOM     15  C   LIG d   1       3.815   1.108  -2.263  0.00  0.00    -0.041 C 
ATOM     16  H   LIG d   1       3.291   1.680  -3.029  0.00  0.00     0.025 H 
ATOM     17  H   LIG d   1       3.354   0.125  -2.164  0.00  0.00     0.025 H 
ATOM     18  H   LIG d   1       3.755   1.636  -1.312  0.00  0.00     0.025 H 
ENDBRANCH  12  15
ENDBRANCH  11  12
ENDBRANCH   1  11
BRANCH   1  19
ATOM     19  O   LIG d   1       4.049  -0.761  -5.655  0.00  0.00    -0.384 OA
BRANCH  19  20
ATOM     20  C   LIG d   1       4.082  -0.464  -6.979  0.00  0.00     0.245 A 
ATOM     21  N   LIG d   1       3.995   0.796  -7.371  0.00  0.00    -0.198 NA
ATOM     22  C   LIG d   1       4.028   1.129  -8.648  0.00  0.00     0.151 A 
ATOM     23  C   LIG d   1       4.148   0.162  -9.629  0.00  0.00     0.079 A 
ATOM     24 CL   LIG d   1       3.917   2.801  -9.101  0.00  0.00    -0.060 Cl
ATOM     25  C   LIG d   1       4.238  -1.173  -9.258  0.00  0.00    -0.017 A 
ATOM     26 CL   LIG d   1       4.186   0.612 -11.306  0.00  0.00    -0.080 Cl
ATOM     27  C   LIG d   1       4.204  -1.489  -7.910  0.00  0.00     0.104 A 
ATOM     28  H   LIG d   1       4.332  -1.949 -10.005  0.00  0.00     0.065 H 
ATOM     29 CL   LIG d   1       4.313  -3.142  -7.391  0.00  0.00    -0.078 Cl
ENDBRANCH  19  20
ENDBRANCH   1  19
TORSDOF 8
ENDMDL
MODEL 9
REMARK VINA RESULT:      -4.6      2.225      2.642
REMARK  8 active torsions:
REMARK  status: ('A' for Active; 'I' for Inactive)
REMARK    1  A    between atoms: C_1  and  C_2 
REMARK    2  A    between atoms: C_2  and  O_3 
REMARK    3  A    between atoms: O_3  and  P_4 
REMARK    4  A    between atoms: P_4  and  O_6 
REMARK    5  A    between atoms: P_4  and  O_9 
REMARK    6  A    between atoms: O_6  and  C_7 
REMARK    7  A    between atoms: C_7  and  C_8 
REMARK    8  A    between atoms: O_9  and  C_10 
ROOT
ATOM      1  P   LIG d   1       5.298  -1.778  -4.190  0.00  0.00     0.534 P 
ATOM      2  O   LIG d   1       4.097  -2.598  -4.461  0.00  0.00    -0.215 OA
ENDROOT
BRANCH   1   3
ATOM      3  O   LIG d   1       6.614  -2.587  -4.643  0.00  0.00    -0.277 OA
BRANCH   3   4
ATOM      4  C   LIG d   1       6.583  -3.956  -5.052  0.00  0.00     0.057 C 
ATOM      5  H   LIG d   1       5.574  -4.350  -4.928  0.00  0.00     0.056 H 
ATOM      6  H   LIG d   1       7.277  -4.534  -4.440  0.00  0.00     0.056 H 
BRANCH   4   7
ATOM      7  C   LIG d   1       6.993  -4.059  -6.523  0.00  0.00    -0.041 C 
ATOM      8  H   LIG d   1       6.728  -3.136  -7.039  0.00  0.00     0.025 H 
ATOM      9  H   LIG d   1       8.069  -4.216  -6.590  0.00  0.00     0.025 H 
ATOM     10  H   LIG d   1       6.473  -4.897  -6.987  0.00  0.00     0.025 H 
ENDBRANCH   4   7
ENDBRANCH   3   4
ENDBRANCH   1   3
BRANCH   1  11
ATOM     11  O   LIG d   1       5.382  -1.455  -2.614  0.00  0.00    -0.277 OA
BRANCH  11  12
ATOM     12  C   LIG d   1       4.310  -0.856  -1.885  0.00  0.00     0.057 C 
ATOM     13  H   LIG d   1       3.373  -1.013  -2.420  0.00  0.00     0.056 H 
ATOM     14  H   LIG d   1       4.245  -1.311  -0.896  0.00  0.00     0.056 H 
BRANCH  12  15
ATOM     15  C   LIG d   1       4.568   0.645  -1.739  0.00  0.00    -0.041 C 
ATOM     16  H   LIG d   1       3.925   1.050  -0.957  0.00  0.00     0.025 H 
ATOM     17  H   LIG d   1       5.612   0.810  -1.472  0.00  0.00     0.025 H 
ATOM     18  H   LIG d   1       4.350   1.144  -2.682  0.00  0.00     0.025 H 
ENDBRANCH  12  15
ENDBRANCH  11  12
ENDBRANCH   1  11
BRANCH   1  19
ATOM     19  O   LIG d   1       5.205  -0.399  -5.017  0.00  0.00    -0.384 OA
BRANCH  19  20
ATOM     20  C   LIG d   1       4.510  -0.498  -6.178  0.00  0.00     0.245 A 
ATOM     21  N   LIG d   1       5.065  -1.086  -7.225  0.00  0.00    -0.198 NA
ATOM     22  C   LIG d   1       4.422  -1.209  -8.371  0.00  0.00     0.151 A 
ATOM     23  C   LIG d   1       3.139  -0.715  -8.522  0.00  0.00     0.079 A 
ATOM     24 CL   LIG d   1       5.199  -1.998  -9.709  0.00  0.00    -0.060 Cl
ATOM     25  C   LIG d   1       2.524  -0.087  -7.447  0.00  0.00    -0.017 A 
ATOM     26 CL   LIG d   1       2.307  -0.879 -10.037  0.00  0.00    -0.080 Cl
ATOM     27  C   LIG d   1       3.223   0.022  -6.256  0.00  0.00     0.104 A 
ATOM     28  H   LIG d   1       1.522   0.308  -7.537  0.00  0.00     0.065 H 
ATOM     29 CL   LIG d   1       2.502   0.797  -4.880  0.00  0.00    -0.078 Cl
ENDBRANCH  19  20
ENDBRANCH   1  19
TORSDOF 8
ENDMDL
MODEL 10
REMARK VINA RESULT:      -4.6      1.442      2.498
REMARK  8 active torsions:
REMARK  status: ('A' for Active; 'I' for Inactive)
REMARK    1  A    between atoms: C_1  and  C_2 
REMARK    2  A    between atoms: C_2  and  O_3 
REMARK    3  A    between atoms: O_3  and  P_4 
REMARK    4  A    between atoms: P_4  and  O_6 
REMARK    5  A    between atoms: P_4  and  O_9 
REMARK    6  A    between atoms: O_6  and  C_7 
REMARK    7  A    between atoms: C_7  and  C_8 
REMARK    8  A    between atoms: O_9  and  C_10 
ROOT
ATOM      1  P   LIG d   1       4.263  -0.433  -6.065  0.00  0.00     0.534 P 
ATOM      2  O   LIG d   1       5.356   0.141  -6.881  0.00  0.00    -0.215 OA
ENDROOT
BRANCH   1   3
ATOM      3  O   LIG d   1       4.226   0.295  -4.630  0.00  0.00    -0.277 OA
BRANCH   3   4
ATOM      4  C   LIG d   1       3.027   0.454  -3.869  0.00  0.00     0.057 C 
ATOM      5  H   LIG d   1       2.189   0.633  -4.543  0.00  0.00     0.056 H 
ATOM      6  H   LIG d   1       3.136   1.302  -3.192  0.00  0.00     0.056 H 
BRANCH   4   7
ATOM      7  C   LIG d   1       2.765  -0.816  -3.057  0.00  0.00    -0.041 C 
ATOM      8  H   LIG d   1       3.299  -0.757  -2.109  0.00  0.00     0.025 H 
ATOM      9  H   LIG d   1       1.696  -0.911  -2.866  0.00  0.00     0.025 H 
ATOM     10  H   LIG d   1       3.113  -1.683  -3.617  0.00  0.00     0.025 H 
ENDBRANCH   4   7
ENDBRANCH   3   4
ENDBRANCH   1   3
BRANCH   1  11
ATOM     11  O   LIG d   1       4.519  -2.011  -5.861  0.00  0.00    -0.277 OA
BRANCH  11  12
ATOM     12  C   LIG d   1       5.821  -2.571  -5.683  0.00  0.00     0.057 C 
ATOM     13  H   LIG d   1       5.845  -3.577  -6.103  0.00  0.00     0.056 H 
ATOM     14  H   LIG d   1       6.558  -1.947  -6.191  0.00  0.00     0.056 H 
BRANCH  12  15
ATOM     15  C   LIG d   1       6.150  -2.634  -4.190  0.00  0.00    -0.041 C 
ATOM     16  H   LIG d   1       7.212  -2.843  -4.060  0.00  0.00     0.025 H 
ATOM     17  H   LIG d   1       5.907  -1.679  -3.724  0.00  0.00     0.025 H 
ATOM     18  H   LIG d   1       5.564  -3.426  -3.723  0.00  0.00     0.025 H 
ENDBRANCH  12  15
ENDBRANCH  11  12
ENDBRANCH   1  11
BRANCH   1  19
ATOM     19  O   LIG d   1       2.857  -0.211  -6.817  0.00  0.00    -0.384 OA
BRANCH  19  20
ATOM     20  C   LIG d   1       2.917  -0.385  -8.161  0.00  0.00     0.245 A 
ATOM     21  N   LIG d   1       2.981  -1.608  -8.661  0.00  0.00    -0.198 NA
ATOM     22  C   LIG d   1       3.036  -1.822  -9.962  0.00  0.00     0.151 A 
ATOM     23  C   LIG d   1       3.037  -0.767 -10.856  0.00  0.00     0.079 A 
ATOM     24 CL   LIG d   1       3.111  -3.451 -10.560  0.00  0.00    -0.060 Cl
ATOM     25  C   LIG d   1       2.975   0.533 -10.369  0.00  0.00    -0.017 A 
ATOM     26 CL   LIG d   1       3.114  -1.062 -12.565  0.00  0.00    -0.080 Cl
ATOM     27  C   LIG d   1       2.914   0.724  -8.999  0.00  0.00     0.104 A 
ATOM     28  H   LIG d   1       2.974   1.376 -11.045  0.00  0.00     0.065 H 
ATOM     29 CL   LIG d   1       2.835   2.327  -8.337  0.00  0.00    -0.078 Cl
ENDBRANCH  19  20
ENDBRANCH   1  19
TORSDOF 8
ENDMDL
