MODEL 1
REMARK VINA RESULT:      -5.5      0.000      0.000
REMARK  7 active torsions:
REMARK  status: ('A' for Active; 'I' for Inactive)
REMARK    1  A    between atoms: C_1  and  C_2 
REMARK    2  A    between atoms: C_2  and  C_3 
REMARK    3  A    between atoms: C_3  and  C_4 
REMARK    4  A    between atoms: C_4  and  C_5 
REMARK    5  A    between atoms: C_5  and  C_6 
REMARK    6  A    between atoms: C_10  and  O_18 
REMARK    7  A    between atoms: C_12  and  O_17 
ROOT
ATOM      1  C   LIG d   1       3.173  -0.538  -7.654  0.00  0.00     0.110 A 
ATOM      2  C   LIG d   1       2.832   0.249  -6.626  0.00  0.00    -0.015 A 
ATOM      3  C   LIG d   1       3.413  -0.009  -5.303  0.00  0.00    -0.001 A 
ATOM      4  C   LIG d   1       3.101   0.771  -4.195  0.00  0.00    -0.012 A 
ATOM      5  C   LIG d   1       3.680   0.480  -2.970  0.00  0.00     0.121 A 
ATOM      6  C   LIG d   1       4.571  -0.580  -2.838  0.00  0.00     0.022 A 
ATOM      7  C   LIG d   1       4.895  -1.368  -3.927  0.00  0.00     0.135 A 
ATOM      8  C   LIG d   1       4.319  -1.089  -5.173  0.00  0.00     0.108 A 
ATOM      9  C   LIG d   1       4.620  -1.883  -6.364  0.00  0.00     0.348 A 
ATOM     10  O   LIG d   1       5.392  -2.821  -6.301  0.00  0.00    -0.244 OA
ATOM     11  O   LIG d   1       4.028  -1.566  -7.531  0.00  0.00    -0.427 OA
ATOM     12  H   LIG d   1       2.137   1.064  -6.769  0.00  0.00     0.066 H 
ATOM     13  H   LIG d   1       2.411   1.595  -4.288  0.00  0.00     0.066 H 
ATOM     14  H   LIG d   1       5.013  -0.791  -1.875  0.00  0.00     0.069 H 
ENDROOT
BRANCH   1  15
ATOM     15  C   LIG d   1       2.568  -0.262  -9.007  0.00  0.00     0.006 C 
ATOM     16  H   LIG d   1       1.570  -0.696  -9.053  0.00  0.00     0.034 H 
ATOM     17  H   LIG d   1       3.193  -0.704  -9.781  0.00  0.00     0.034 H 
BRANCH  15  18
ATOM     18  C   LIG d   1       2.478   1.250  -9.226  0.00  0.00    -0.046 C 
ATOM     19  H   LIG d   1       2.501   1.758  -8.262  0.00  0.00     0.027 H 
ATOM     20  H   LIG d   1       1.546   1.487  -9.739  0.00  0.00     0.027 H 
BRANCH  18  21
ATOM     21  C   LIG d   1       3.661   1.714 -10.077  0.00  0.00    -0.053 C 
ATOM     22  H   LIG d   1       4.224   0.846 -10.420  0.00  0.00     0.026 H 
ATOM     23  H   LIG d   1       3.293   2.273 -10.938  0.00  0.00     0.026 H 
BRANCH  21  24
ATOM     24  C   LIG d   1       4.571   2.613  -9.238  0.00  0.00    -0.056 C 
ATOM     25  H   LIG d   1       4.768   3.538  -9.779  0.00  0.00     0.026 H 
ATOM     26  H   LIG d   1       4.082   2.843  -8.291  0.00  0.00     0.026 H 
BRANCH  24  27
ATOM     27  C   LIG d   1       5.893   1.890  -8.967  0.00  0.00    -0.065 C 
ATOM     28  H   LIG d   1       6.685   2.346  -9.563  0.00  0.00     0.023 H 
ATOM     29  H   LIG d   1       6.140   1.970  -7.910  0.00  0.00     0.023 H 
ATOM     30  H   LIG d   1       5.794   0.839  -9.239  0.00  0.00     0.023 H 
ENDBRANCH  24  27
ENDBRANCH  21  24
ENDBRANCH  18  21
ENDBRANCH  15  18
ENDBRANCH   1  15
BRANCH   7  31
ATOM     31  O   LIG d   1       5.764  -2.401  -3.791  0.00  0.00    -0.506 OA
ATOM     32  H   LIG d   1       6.693  -2.131  -3.762  0.00  0.00     0.292 HD
ENDBRANCH   7  31
BRANCH   5  33
ATOM     33  O   LIG d   1       3.376   1.240  -1.887  0.00  0.00    -0.507 OA
ATOM     34  H   LIG d   1       3.453   2.191  -2.040  0.00  0.00     0.292 HD
ENDBRANCH   5  33
TORSDOF 7
ENDMDL
MODEL 2
REMARK VINA RESULT:      -5.5      2.129      5.363
REMARK  7 active torsions:
REMARK  status: ('A' for Active; 'I' for Inactive)
REMARK    1  A    between atoms: C_1  and  C_2 
REMARK    2  A    between atoms: C_2  and  C_3 
REMARK    3  A    between atoms: C_3  and  C_4 
REMARK    4  A    between atoms: C_4  and  C_5 
REMARK    5  A    between atoms: C_5  and  C_6 
REMARK    6  A    between atoms: C_10  and  O_18 
REMARK    7  A    between atoms: C_12  and  O_17 
ROOT
ATOM      1  C   LIG d   1       4.466  -2.071  -5.055  0.00  0.00     0.110 A 
ATOM      2  C   LIG d   1       3.962  -0.870  -5.371  0.00  0.00    -0.015 A 
ATOM      3  C   LIG d   1       3.691  -0.555  -6.778  0.00  0.00    -0.001 A 
ATOM      4  C   LIG d   1       3.169   0.671  -7.173  0.00  0.00    -0.012 A 
ATOM      5  C   LIG d   1       2.934   0.914  -8.517  0.00  0.00     0.121 A 
ATOM      6  C   LIG d   1       3.212  -0.057  -9.474  0.00  0.00     0.022 A 
ATOM      7  C   LIG d   1       3.732  -1.283  -9.103  0.00  0.00     0.135 A 
ATOM      8  C   LIG d   1       3.977  -1.546  -7.749  0.00  0.00     0.108 A 
ATOM      9  C   LIG d   1       4.524  -2.822  -7.290  0.00  0.00     0.348 A 
ATOM     10  O   LIG d   1       4.785  -3.703  -8.088  0.00  0.00    -0.244 OA
ATOM     11  O   LIG d   1       4.742  -3.008  -5.976  0.00  0.00    -0.427 OA
ATOM     12  H   LIG d   1       3.759  -0.143  -4.598  0.00  0.00     0.066 H 
ATOM     13  H   LIG d   1       2.950   1.431  -6.437  0.00  0.00     0.066 H 
ATOM     14  H   LIG d   1       3.021   0.150 -10.517  0.00  0.00     0.069 H 
ENDROOT
BRANCH   1  15
ATOM     15  C   LIG d   1       4.740  -2.380  -3.606  0.00  0.00     0.006 C 
ATOM     16  H   LIG d   1       5.756  -2.077  -3.355  0.00  0.00     0.034 H 
ATOM     17  H   LIG d   1       4.628  -3.450  -3.436  0.00  0.00     0.034 H 
BRANCH  15  18
ATOM     18  C   LIG d   1       3.749  -1.617  -2.725  0.00  0.00    -0.046 C 
ATOM     19  H   LIG d   1       3.037  -2.317  -2.287  0.00  0.00     0.027 H 
ATOM     20  H   LIG d   1       3.212  -0.886  -3.330  0.00  0.00     0.027 H 
BRANCH  18  21
ATOM     21  C   LIG d   1       4.508  -0.896  -1.609  0.00  0.00    -0.053 C 
ATOM     22  H   LIG d   1       3.882  -0.847  -0.718  0.00  0.00     0.026 H 
ATOM     23  H   LIG d   1       5.423  -1.442  -1.381  0.00  0.00     0.026 H 
BRANCH  21  24
ATOM     24  C   LIG d   1       4.858   0.522  -2.064  0.00  0.00    -0.056 C 
ATOM     25  H   LIG d   1       5.387   1.040  -1.263  0.00  0.00     0.026 H 
ATOM     26  H   LIG d   1       5.494   0.473  -2.947  0.00  0.00     0.026 H 
BRANCH  24  27
ATOM     27  C   LIG d   1       3.573   1.281  -2.401  0.00  0.00    -0.065 C 
ATOM     28  H   LIG d   1       3.524   2.194  -1.807  0.00  0.00     0.023 H 
ATOM     29  H   LIG d   1       3.570   1.536  -3.460  0.00  0.00     0.023 H 
ATOM     30  H   LIG d   1       2.710   0.653  -2.175  0.00  0.00     0.023 H 
ENDBRANCH  24  27
ENDBRANCH  21  24
ENDBRANCH  18  21
ENDBRANCH  15  18
ENDBRANCH   1  15
BRANCH   7  31
ATOM     31  O   LIG d   1       4.001  -2.225 -10.042  0.00  0.00    -0.506 OA
ATOM     32  H   LIG d   1       3.370  -2.240 -10.775  0.00  0.00     0.292 HD
ENDBRANCH   7  31
BRANCH   5  33
ATOM     33  O   LIG d   1       2.424   2.111  -8.904  0.00  0.00    -0.507 OA
ATOM     34  H   LIG d   1       1.940   2.081  -9.740  0.00  0.00     0.292 HD
ENDBRANCH   5  33
TORSDOF 7
ENDMDL
MODEL 3
REMARK VINA RESULT:      -5.4      2.422      6.204
REMARK  7 active torsions:
REMARK  status: ('A' for Active; 'I' for Inactive)
REMARK    1  A    between atoms: C_1  and  C_2 
REMARK    2  A    between atoms: C_2  and  C_3 
REMARK    3  A    between atoms: C_3  and  C_4 
REMARK    4  A    between atoms: C_4  and  C_5 
REMARK    5  A    between atoms: C_5  and  C_6 
REMARK    6  A    between atoms: C_10  and  O_18 
REMARK    7  A    between atoms: C_12  and  O_17 
ROOT
ATOM      1  C   LIG d   1       4.000  -0.089  -6.858  0.00  0.00     0.110 A 
ATOM      2  C   LIG d   1       2.875  -0.552  -7.417  0.00  0.00    -0.015 A 
ATOM      3  C   LIG d   1       2.737  -0.523  -8.877  0.00  0.00    -0.001 A 
ATOM      4  C   LIG d   1       1.596  -0.989  -9.521  0.00  0.00    -0.012 A 
ATOM      5  C   LIG d   1       1.521  -0.936 -10.904  0.00  0.00     0.121 A 
ATOM      6  C   LIG d   1       2.575  -0.426 -11.655  0.00  0.00     0.022 A 
ATOM      7  C   LIG d   1       3.719   0.043 -11.034  0.00  0.00     0.135 A 
ATOM      8  C   LIG d   1       3.812  -0.002  -9.638  0.00  0.00     0.108 A 
ATOM      9  C   LIG d   1       4.994   0.476  -8.921  0.00  0.00     0.348 A 
ATOM     10  O   LIG d   1       5.942   0.933  -9.532  0.00  0.00    -0.244 OA
ATOM     11  O   LIG d   1       5.018   0.411  -7.577  0.00  0.00    -0.427 OA
ATOM     12  H   LIG d   1       2.079  -0.942  -6.800  0.00  0.00     0.066 H 
ATOM     13  H   LIG d   1       0.772  -1.387  -8.947  0.00  0.00     0.066 H 
ATOM     14  H   LIG d   1       2.499  -0.394 -12.732  0.00  0.00     0.069 H 
ENDROOT
BRANCH   1  15
ATOM     15  C   LIG d   1       4.127  -0.124  -5.356  0.00  0.00     0.006 C 
ATOM     16  H   LIG d   1       4.859   0.618  -5.036  0.00  0.00     0.034 H 
ATOM     17  H   LIG d   1       4.455  -1.115  -5.043  0.00  0.00     0.034 H 
BRANCH  15  18
ATOM     18  C   LIG d   1       2.771   0.190  -4.722  0.00  0.00    -0.046 C 
ATOM     19  H   LIG d   1       2.013  -0.472  -5.140  0.00  0.00     0.027 H 
ATOM     20  H   LIG d   1       2.503   1.226  -4.929  0.00  0.00     0.027 H 
BRANCH  18  21
ATOM     21  C   LIG d   1       2.854  -0.022  -3.208  0.00  0.00    -0.053 C 
ATOM     22  H   LIG d   1       1.852  -0.174  -2.808  0.00  0.00     0.026 H 
ATOM     23  H   LIG d   1       3.468  -0.898  -2.997  0.00  0.00     0.026 H 
BRANCH  21  24
ATOM     24  C   LIG d   1       3.482   1.211  -2.555  0.00  0.00    -0.056 C 
ATOM     25  H   LIG d   1       3.844   1.888  -3.330  0.00  0.00     0.026 H 
ATOM     26  H   LIG d   1       2.735   1.721  -1.947  0.00  0.00     0.026 H 
BRANCH  24  27
ATOM     27  C   LIG d   1       4.653   0.778  -1.670  0.00  0.00    -0.065 C 
ATOM     28  H   LIG d   1       5.443   0.356  -2.293  0.00  0.00     0.023 H 
ATOM     29  H   LIG d   1       5.038   1.642  -1.130  0.00  0.00     0.023 H 
ATOM     30  H   LIG d   1       4.311   0.026  -0.958  0.00  0.00     0.023 H 
ENDBRANCH  24  27
ENDBRANCH  21  24
ENDBRANCH  18  21
ENDBRANCH  15  18
ENDBRANCH   1  15
BRANCH   7  31
ATOM     31  O   LIG d   1       4.743   0.540 -11.772  0.00  0.00    -0.506 OA
ATOM     32  H   LIG d   1       4.462   1.123 -12.492  0.00  0.00     0.292 HD
ENDBRANCH   7  31
BRANCH   5  33
ATOM     33  O   LIG d   1       0.407  -1.390 -11.533  0.00  0.00    -0.507 OA
ATOM     34  H   LIG d   1       0.578  -2.085 -12.183  0.00  0.00     0.292 HD
ENDBRANCH   5  33
TORSDOF 7
ENDMDL
MODEL 4
REMARK VINA RESULT:      -5.3      2.357      6.004
REMARK  7 active torsions:
REMARK  status: ('A' for Active; 'I' for Inactive)
REMARK    1  A    between atoms: C_1  and  C_2 
REMARK    2  A    between atoms: C_2  and  C_3 
REMARK    3  A    between atoms: C_3  and  C_4 
REMARK    4  A    between atoms: C_4  and  C_5 
REMARK    5  A    between atoms: C_5  and  C_6 
REMARK    6  A    between atoms: C_10  and  O_18 
REMARK    7  A    between atoms: C_12  and  O_17 
ROOT
ATOM      1  C   LIG d   1       5.039  -0.900  -5.195  0.00  0.00     0.110 A 
ATOM      2  C   LIG d   1       5.030  -2.063  -5.860  0.00  0.00    -0.015 A 
ATOM      3  C   LIG d   1       4.257  -2.171  -7.103  0.00  0.00    -0.001 A 
ATOM      4  C   LIG d   1       4.205  -3.348  -7.841  0.00  0.00    -0.012 A 
ATOM      5  C   LIG d   1       3.458  -3.392  -9.007  0.00  0.00     0.121 A 
ATOM      6  C   LIG d   1       2.763  -2.271  -9.449  0.00  0.00     0.022 A 
ATOM      7  C   LIG d   1       2.801  -1.090  -8.730  0.00  0.00     0.135 A 
ATOM      8  C   LIG d   1       3.550  -1.027  -7.549  0.00  0.00     0.108 A 
ATOM      9  C   LIG d   1       3.633   0.190  -6.743  0.00  0.00     0.348 A 
ATOM     10  O   LIG d   1       3.042   1.197  -7.086  0.00  0.00    -0.244 OA
ATOM     11  O   LIG d   1       4.365   0.182  -5.614  0.00  0.00    -0.427 OA
ATOM     12  H   LIG d   1       5.584  -2.911  -5.485  0.00  0.00     0.066 H 
ATOM     13  H   LIG d   1       4.742  -4.224  -7.505  0.00  0.00     0.066 H 
ATOM     14  H   LIG d   1       2.187  -2.324 -10.361  0.00  0.00     0.069 H 
ENDROOT
BRANCH   1  15
ATOM     15  C   LIG d   1       5.837  -0.805  -3.920  0.00  0.00     0.006 C 
ATOM     16  H   LIG d   1       5.792   0.216  -3.539  0.00  0.00     0.034 H 
ATOM     17  H   LIG d   1       6.874  -1.072  -4.119  0.00  0.00     0.034 H 
BRANCH  15  18
ATOM     18  C   LIG d   1       5.253  -1.763  -2.880  0.00  0.00    -0.046 C 
ATOM     19  H   LIG d   1       6.060  -2.176  -2.274  0.00  0.00     0.027 H 
ATOM     20  H   LIG d   1       4.728  -2.574  -3.386  0.00  0.00     0.027 H 
BRANCH  18  21
ATOM     21  C   LIG d   1       4.274  -1.005  -1.980  0.00  0.00    -0.053 C 
ATOM     22  H   LIG d   1       3.278  -1.040  -2.419  0.00  0.00     0.026 H 
ATOM     23  H   LIG d   1       4.255  -1.469  -0.993  0.00  0.00     0.026 H 
BRANCH  21  24
ATOM     24  C   LIG d   1       4.724   0.451  -1.850  0.00  0.00    -0.056 C 
ATOM     25  H   LIG d   1       4.946   0.671  -0.806  0.00  0.00     0.026 H 
ATOM     26  H   LIG d   1       5.618   0.610  -2.453  0.00  0.00     0.026 H 
BRANCH  24  27
ATOM     27  C   LIG d   1       3.607   1.375  -2.341  0.00  0.00    -0.065 C 
ATOM     28  H   LIG d   1       3.011   0.857  -3.093  0.00  0.00     0.023 H 
ATOM     29  H   LIG d   1       2.971   1.652  -1.501  0.00  0.00     0.023 H 
ATOM     30  H   LIG d   1       4.044   2.272  -2.779  0.00  0.00     0.023 H 
ENDBRANCH  24  27
ENDBRANCH  21  24
ENDBRANCH  18  21
ENDBRANCH  15  18
ENDBRANCH   1  15
BRANCH   7  31
ATOM     31  O   LIG d   1       2.120  -0.001  -9.166  0.00  0.00    -0.506 OA
ATOM     32  H   LIG d   1       2.686   0.752  -9.389  0.00  0.00     0.292 HD
ENDBRANCH   7  31
BRANCH   5  33
ATOM     33  O   LIG d   1       3.407  -4.541  -9.728  0.00  0.00    -0.507 OA
ATOM     34  H   LIG d   1       3.204  -5.327  -9.202  0.00  0.00     0.292 HD
ENDBRANCH   5  33
TORSDOF 7
ENDMDL
MODEL 5
REMARK VINA RESULT:      -5.2      2.010      6.036
REMARK  7 active torsions:
REMARK  status: ('A' for Active; 'I' for Inactive)
REMARK    1  A    between atoms: C_1  and  C_2 
REMARK    2  A    between atoms: C_2  and  C_3 
REMARK    3  A    between atoms: C_3  and  C_4 
REMARK    4  A    between atoms: C_4  and  C_5 
REMARK    5  A    between atoms: C_5  and  C_6 
REMARK    6  A    between atoms: C_10  and  O_18 
REMARK    7  A    between atoms: C_12  and  O_17 
ROOT
ATOM      1  C   LIG d   1       4.327  -1.811  -5.115  0.00  0.00     0.110 A 
ATOM      2  C   LIG d   1       4.688  -2.371  -6.276  0.00  0.00    -0.015 A 
ATOM      3  C   LIG d   1       4.369  -1.683  -7.533  0.00  0.00    -0.001 A 
ATOM      4  C   LIG d   1       4.716  -2.209  -8.772  0.00  0.00    -0.012 A 
ATOM      5  C   LIG d   1       4.389  -1.516  -9.926  0.00  0.00     0.121 A 
ATOM      6  C   LIG d   1       3.720  -0.297  -9.858  0.00  0.00     0.022 A 
ATOM      7  C   LIG d   1       3.365   0.244  -8.636  0.00  0.00     0.135 A 
ATOM      8  C   LIG d   1       3.688  -0.444  -7.459  0.00  0.00     0.108 A 
ATOM      9  C   LIG d   1       3.342   0.074  -6.136  0.00  0.00     0.348 A 
ATOM     10  O   LIG d   1       2.756   1.135  -6.023  0.00  0.00    -0.244 OA
ATOM     11  O   LIG d   1       3.675  -0.639  -5.044  0.00  0.00    -0.427 OA
ATOM     12  H   LIG d   1       5.208  -3.318  -6.288  0.00  0.00     0.066 H 
ATOM     13  H   LIG d   1       5.236  -3.154  -8.835  0.00  0.00     0.066 H 
ATOM     14  H   LIG d   1       3.474   0.230 -10.768  0.00  0.00     0.069 H 
ENDROOT
BRANCH   1  15
ATOM     15  C   LIG d   1       4.660  -2.529  -3.833  0.00  0.00     0.006 C 
ATOM     16  H   LIG d   1       5.307  -3.379  -4.050  0.00  0.00     0.034 H 
ATOM     17  H   LIG d   1       3.742  -2.882  -3.365  0.00  0.00     0.034 H 
BRANCH  15  18
ATOM     18  C   LIG d   1       5.380  -1.570  -2.883  0.00  0.00    -0.046 C 
ATOM     19  H   LIG d   1       5.829  -0.759  -3.457  0.00  0.00     0.027 H 
ATOM     20  H   LIG d   1       6.160  -2.109  -2.344  0.00  0.00     0.027 H 
BRANCH  18  21
ATOM     21  C   LIG d   1       4.376  -0.992  -1.883  0.00  0.00    -0.053 C 
ATOM     22  H   LIG d   1       3.366  -1.116  -2.271  0.00  0.00     0.026 H 
ATOM     23  H   LIG d   1       4.469  -1.516  -0.931  0.00  0.00     0.026 H 
BRANCH  21  24
ATOM     24  C   LIG d   1       4.663   0.496  -1.675  0.00  0.00    -0.056 C 
ATOM     25  H   LIG d   1       4.653   0.723  -0.609  0.00  0.00     0.026 H 
ATOM     26  H   LIG d   1       5.642   0.739  -2.088  0.00  0.00     0.026 H 
BRANCH  24  27
ATOM     27  C   LIG d   1       3.590   1.326  -2.384  0.00  0.00    -0.065 C 
ATOM     28  H   LIG d   1       3.718   1.239  -3.463  0.00  0.00     0.023 H 
ATOM     29  H   LIG d   1       2.604   0.959  -2.104  0.00  0.00     0.023 H 
ATOM     30  H   LIG d   1       3.687   2.371  -2.090  0.00  0.00     0.023 H 
ENDBRANCH  24  27
ENDBRANCH  21  24
ENDBRANCH  18  21
ENDBRANCH  15  18
ENDBRANCH   1  15
BRANCH   7  31
ATOM     31  O   LIG d   1       2.712   1.432  -8.577  0.00  0.00    -0.506 OA
ATOM     32  H   LIG d   1       2.577   1.848  -9.440  0.00  0.00     0.292 HD
ENDBRANCH   7  31
BRANCH   5  33
ATOM     33  O   LIG d   1       4.727  -2.029 -11.136  0.00  0.00    -0.507 OA
ATOM     34  H   LIG d   1       4.229  -2.821 -11.380  0.00  0.00     0.292 HD
ENDBRANCH   5  33
TORSDOF 7
ENDMDL
MODEL 6
REMARK VINA RESULT:      -5.2      2.374      5.563
REMARK  7 active torsions:
REMARK  status: ('A' for Active; 'I' for Inactive)
REMARK    1  A    between atoms: C_1  and  C_2 
REMARK    2  A    between atoms: C_2  and  C_3 
REMARK    3  A    between atoms: C_3  and  C_4 
REMARK    4  A    between atoms: C_4  and  C_5 
REMARK    5  A    between atoms: C_5  and  C_6 
REMARK    6  A    between atoms: C_10  and  O_18 
REMARK    7  A    between atoms: C_12  and  O_17 
ROOT
ATOM      1  C   LIG d   1       5.105  -1.486  -4.691  0.00  0.00     0.110 A 
ATOM      2  C   LIG d   1       4.596  -1.126  -5.876  0.00  0.00    -0.015 A 
ATOM      3  C   LIG d   1       5.374  -0.241  -6.750  0.00  0.00    -0.001 A 
ATOM      4  C   LIG d   1       4.905   0.170  -7.992  0.00  0.00    -0.012 A 
ATOM      5  C   LIG d   1       5.684   1.007  -8.775  0.00  0.00     0.121 A 
ATOM      6  C   LIG d   1       6.932   1.437  -8.333  0.00  0.00     0.022 A 
ATOM      7  C   LIG d   1       7.417   1.040  -7.101  0.00  0.00     0.135 A 
ATOM      8  C   LIG d   1       6.644   0.194  -6.296  0.00  0.00     0.108 A 
ATOM      9  C   LIG d   1       7.100  -0.263  -4.984  0.00  0.00     0.348 A 
ATOM     10  O   LIG d   1       8.183   0.086  -4.552  0.00  0.00    -0.244 OA
ATOM     11  O   LIG d   1       6.305  -1.069  -4.257  0.00  0.00    -0.427 OA
ATOM     12  H   LIG d   1       3.624  -1.482  -6.184  0.00  0.00     0.066 H 
ATOM     13  H   LIG d   1       3.938  -0.158  -8.343  0.00  0.00     0.066 H 
ATOM     14  H   LIG d   1       7.525   2.088  -8.958  0.00  0.00     0.069 H 
ENDROOT
BRANCH   1  15
ATOM     15  C   LIG d   1       4.293  -2.395  -3.803  0.00  0.00     0.006 C 
ATOM     16  H   LIG d   1       4.856  -3.307  -3.605  0.00  0.00     0.034 H 
ATOM     17  H   LIG d   1       3.357  -2.647  -4.300  0.00  0.00     0.034 H 
BRANCH  15  18
ATOM     18  C   LIG d   1       3.994  -1.684  -2.482  0.00  0.00    -0.046 C 
ATOM     19  H   LIG d   1       4.897  -1.190  -2.122  0.00  0.00     0.027 H 
ATOM     20  H   LIG d   1       3.660  -2.413  -1.744  0.00  0.00     0.027 H 
BRANCH  18  21
ATOM     21  C   LIG d   1       2.895  -0.641  -2.701  0.00  0.00    -0.053 C 
ATOM     22  H   LIG d   1       2.493  -0.744  -3.709  0.00  0.00     0.026 H 
ATOM     23  H   LIG d   1       2.098  -0.795  -1.973  0.00  0.00     0.026 H 
BRANCH  21  24
ATOM     24  C   LIG d   1       3.481   0.761  -2.526  0.00  0.00    -0.056 C 
ATOM     25  H   LIG d   1       3.817   1.138  -3.493  0.00  0.00     0.026 H 
ATOM     26  H   LIG d   1       2.718   1.427  -2.123  0.00  0.00     0.026 H 
BRANCH  24  27
ATOM     27  C   LIG d   1       4.668   0.701  -1.562  0.00  0.00    -0.065 C 
ATOM     28  H   LIG d   1       4.977   1.714  -1.303  0.00  0.00     0.023 H 
ATOM     29  H   LIG d   1       4.374   0.168  -0.658  0.00  0.00     0.023 H 
ATOM     30  H   LIG d   1       5.497   0.179  -2.039  0.00  0.00     0.023 H 
ENDBRANCH  24  27
ENDBRANCH  21  24
ENDBRANCH  18  21
ENDBRANCH  15  18
ENDBRANCH   1  15
BRANCH   7  31
ATOM     31  O   LIG d   1       8.634   1.463  -6.676  0.00  0.00    -0.506 OA
ATOM     32  H   LIG d   1       9.023   0.909  -5.984  0.00  0.00     0.292 HD
ENDBRANCH   7  31
BRANCH   5  33
ATOM     33  O   LIG d   1       5.226   1.410  -9.988  0.00  0.00    -0.507 OA
ATOM     34  H   LIG d   1       5.666   2.199 -10.332  0.00  0.00     0.292 HD
ENDBRANCH   5  33
TORSDOF 7
ENDMDL
MODEL 7
REMARK VINA RESULT:      -5.2      2.951      6.037
REMARK  7 active torsions:
REMARK  status: ('A' for Active; 'I' for Inactive)
REMARK    1  A    between atoms: C_1  and  C_2 
REMARK    2  A    between atoms: C_2  and  C_3 
REMARK    3  A    between atoms: C_3  and  C_4 
REMARK    4  A    between atoms: C_4  and  C_5 
REMARK    5  A    between atoms: C_5  and  C_6 
REMARK    6  A    between atoms: C_10  and  O_18 
REMARK    7  A    between atoms: C_12  and  O_17 
ROOT
ATOM      1  C   LIG d   1       4.918  -2.762  -5.052  0.00  0.00     0.110 A 
ATOM      2  C   LIG d   1       4.939  -1.975  -6.136  0.00  0.00    -0.015 A 
ATOM      3  C   LIG d   1       4.431  -2.497  -7.409  0.00  0.00    -0.001 A 
ATOM      4  C   LIG d   1       4.423  -1.733  -8.571  0.00  0.00    -0.012 A 
ATOM      5  C   LIG d   1       3.932  -2.279  -9.746  0.00  0.00     0.121 A 
ATOM      6  C   LIG d   1       3.444  -3.582  -9.775  0.00  0.00     0.022 A 
ATOM      7  C   LIG d   1       3.443  -4.360  -8.632  0.00  0.00     0.135 A 
ATOM      8  C   LIG d   1       3.936  -3.824  -7.435  0.00  0.00     0.108 A 
ATOM      9  C   LIG d   1       3.961  -4.593  -6.191  0.00  0.00     0.348 A 
ATOM     10  O   LIG d   1       3.547  -5.737  -6.165  0.00  0.00    -0.244 OA
ATOM     11  O   LIG d   1       4.454  -4.022  -5.077  0.00  0.00    -0.427 OA
ATOM     12  H   LIG d   1       5.324  -0.968  -6.072  0.00  0.00     0.066 H 
ATOM     13  H   LIG d   1       4.800  -0.721  -8.558  0.00  0.00     0.066 H 
ATOM     14  H   LIG d   1       3.065  -3.991 -10.700  0.00  0.00     0.069 H 
ENDROOT
BRANCH   1  15
ATOM     15  C   LIG d   1       5.443  -2.212  -3.751  0.00  0.00     0.006 C 
ATOM     16  H   LIG d   1       5.758  -1.178  -3.894  0.00  0.00     0.034 H 
ATOM     17  H   LIG d   1       6.294  -2.808  -3.422  0.00  0.00     0.034 H 
BRANCH  15  18
ATOM     18  C   LIG d   1       4.341  -2.268  -2.691  0.00  0.00    -0.046 C 
ATOM     19  H   LIG d   1       4.552  -3.075  -1.990  0.00  0.00     0.027 H 
ATOM     20  H   LIG d   1       3.380  -2.448  -3.175  0.00  0.00     0.027 H 
BRANCH  18  21
ATOM     21  C   LIG d   1       4.290  -0.937  -1.937  0.00  0.00    -0.053 C 
ATOM     22  H   LIG d   1       3.965  -1.114  -0.912  0.00  0.00     0.026 H 
ATOM     23  H   LIG d   1       5.281  -0.484  -1.933  0.00  0.00     0.026 H 
BRANCH  21  24
ATOM     24  C   LIG d   1       3.302   0.003  -2.629  0.00  0.00    -0.056 C 
ATOM     25  H   LIG d   1       3.291  -0.205  -3.699  0.00  0.00     0.026 H 
ATOM     26  H   LIG d   1       2.304  -0.151  -2.219  0.00  0.00     0.026 H 
BRANCH  24  27
ATOM     27  C   LIG d   1       3.731   1.454  -2.396  0.00  0.00    -0.065 C 
ATOM     28  H   LIG d   1       3.465   1.753  -1.382  0.00  0.00     0.023 H 
ATOM     29  H   LIG d   1       4.808   1.540  -2.530  0.00  0.00     0.023 H 
ATOM     30  H   LIG d   1       3.222   2.102  -3.111  0.00  0.00     0.023 H 
ENDBRANCH  24  27
ENDBRANCH  21  24
ENDBRANCH  18  21
ENDBRANCH  15  18
ENDBRANCH   1  15
BRANCH   7  31
ATOM     31  O   LIG d   1       2.966  -5.629  -8.668  0.00  0.00    -0.506 OA
ATOM     32  H   LIG d   1       2.371  -5.846  -7.936  0.00  0.00     0.292 HD
ENDBRANCH   7  31
BRANCH   5  33
ATOM     33  O   LIG d   1       3.925  -1.535 -10.880  0.00  0.00    -0.507 OA
ATOM     34  H   LIG d   1       3.040  -1.299 -11.191  0.00  0.00     0.292 HD
ENDBRANCH   5  33
TORSDOF 7
ENDMDL
MODEL 8
REMARK VINA RESULT:      -5.0      1.718      2.896
REMARK  7 active torsions:
REMARK  status: ('A' for Active; 'I' for Inactive)
REMARK    1  A    between atoms: C_1  and  C_2 
REMARK    2  A    between atoms: C_2  and  C_3 
REMARK    3  A    between atoms: C_3  and  C_4 
REMARK    4  A    between atoms: C_4  and  C_5 
REMARK    5  A    between atoms: C_5  and  C_6 
REMARK    6  A    between atoms: C_10  and  O_18 
REMARK    7  A    between atoms: C_12  and  O_17 
ROOT
ATOM      1  C   LIG d   1       3.347  -0.026  -6.479  0.00  0.00     0.110 A 
ATOM      2  C   LIG d   1       4.631  -0.399  -6.567  0.00  0.00    -0.015 A 
ATOM      3  C   LIG d   1       5.333  -0.837  -5.356  0.00  0.00    -0.001 A 
ATOM      4  C   LIG d   1       6.665  -1.237  -5.378  0.00  0.00    -0.012 A 
ATOM      5  C   LIG d   1       7.278  -1.640  -4.202  0.00  0.00     0.121 A 
ATOM      6  C   LIG d   1       6.575  -1.652  -3.001  0.00  0.00     0.022 A 
ATOM      7  C   LIG d   1       5.250  -1.257  -2.957  0.00  0.00     0.135 A 
ATOM      8  C   LIG d   1       4.614  -0.847  -4.135  0.00  0.00     0.108 A 
ATOM      9  C   LIG d   1       3.216  -0.419  -4.157  0.00  0.00     0.348 A 
ATOM     10  O   LIG d   1       2.558  -0.410  -3.133  0.00  0.00    -0.244 OA
ATOM     11  O   LIG d   1       2.666  -0.030  -5.321  0.00  0.00    -0.427 OA
ATOM     12  H   LIG d   1       5.142  -0.377  -7.518  0.00  0.00     0.066 H 
ATOM     13  H   LIG d   1       7.219  -1.231  -6.305  0.00  0.00     0.066 H 
ATOM     14  H   LIG d   1       7.069  -1.970  -2.095  0.00  0.00     0.069 H 
ENDROOT
BRANCH   1  15
ATOM     15  C   LIG d   1       2.638   0.422  -7.731  0.00  0.00     0.006 C 
ATOM     16  H   LIG d   1       2.366   1.473  -7.638  0.00  0.00     0.034 H 
ATOM     17  H   LIG d   1       1.738  -0.175  -7.872  0.00  0.00     0.034 H 
BRANCH  15  18
ATOM     18  C   LIG d   1       3.565   0.240  -8.935  0.00  0.00    -0.046 C 
ATOM     19  H   LIG d   1       3.279  -0.659  -9.481  0.00  0.00     0.027 H 
ATOM     20  H   LIG d   1       4.595   0.143  -8.590  0.00  0.00     0.027 H 
BRANCH  18  21
ATOM     21  C   LIG d   1       3.449   1.456  -9.857  0.00  0.00    -0.053 C 
ATOM     22  H   LIG d   1       3.818   1.195 -10.849  0.00  0.00     0.026 H 
ATOM     23  H   LIG d   1       2.405   1.761  -9.925  0.00  0.00     0.026 H 
BRANCH  21  24
ATOM     24  C   LIG d   1       4.282   2.606  -9.290  0.00  0.00    -0.056 C 
ATOM     25  H   LIG d   1       4.288   3.434 -10.000  0.00  0.00     0.026 H 
ATOM     26  H   LIG d   1       3.848   2.940  -8.348  0.00  0.00     0.026 H 
BRANCH  24  27
ATOM     27  C   LIG d   1       5.716   2.128  -9.051  0.00  0.00    -0.065 C 
ATOM     28  H   LIG d   1       5.820   1.103  -9.407  0.00  0.00     0.023 H 
ATOM     29  H   LIG d   1       6.408   2.773  -9.591  0.00  0.00     0.023 H 
ATOM     30  H   LIG d   1       5.938   2.167  -7.985  0.00  0.00     0.023 H 
ENDBRANCH  24  27
ENDBRANCH  21  24
ENDBRANCH  18  21
ENDBRANCH  15  18
ENDBRANCH   1  15
BRANCH   7  31
ATOM     31  O   LIG d   1       4.571  -1.271  -1.782  0.00  0.00    -0.506 OA
ATOM     32  H   LIG d   1       3.816  -1.877  -1.773  0.00  0.00     0.292 HD
ENDBRANCH   7  31
BRANCH   5  33
ATOM     33  O   LIG d   1       8.577  -2.030  -4.222  0.00  0.00    -0.507 OA
ATOM     34  H   LIG d   1       9.208  -1.298  -4.200  0.00  0.00     0.292 HD
ENDBRANCH   5  33
TORSDOF 7
ENDMDL
MODEL 9
REMARK VINA RESULT:      -5.0      2.158      5.867
REMARK  7 active torsions:
REMARK  status: ('A' for Active; 'I' for Inactive)
REMARK    1  A    between atoms: C_1  and  C_2 
REMARK    2  A    between atoms: C_2  and  C_3 
REMARK    3  A    between atoms: C_3  and  C_4 
REMARK    4  A    between atoms: C_4  and  C_5 
REMARK    5  A    between atoms: C_5  and  C_6 
REMARK    6  A    between atoms: C_10  and  O_18 
REMARK    7  A    between atoms: C_12  and  O_17 
ROOT
ATOM      1  C   LIG d   1       5.349  -1.406  -5.524  0.00  0.00     0.110 A 
ATOM      2  C   LIG d   1       6.378  -0.736  -6.059  0.00  0.00    -0.015 A 
ATOM      3  C   LIG d   1       6.129   0.187  -7.172  0.00  0.00    -0.001 A 
ATOM      4  C   LIG d   1       7.152   0.913  -7.773  0.00  0.00    -0.012 A 
ATOM      5  C   LIG d   1       6.859   1.770  -8.822  0.00  0.00     0.121 A 
ATOM      6  C   LIG d   1       5.552   1.913  -9.278  0.00  0.00     0.022 A 
ATOM      7  C   LIG d   1       4.520   1.201  -8.696  0.00  0.00     0.135 A 
ATOM      8  C   LIG d   1       4.798   0.330  -7.634  0.00  0.00     0.108 A 
ATOM      9  C   LIG d   1       3.753  -0.451  -6.974  0.00  0.00     0.348 A 
ATOM     10  O   LIG d   1       2.595  -0.362  -7.337  0.00  0.00    -0.244 OA
ATOM     11  O   LIG d   1       4.088  -1.275  -5.965  0.00  0.00    -0.427 OA
ATOM     12  H   LIG d   1       7.378  -0.874  -5.676  0.00  0.00     0.066 H 
ATOM     13  H   LIG d   1       8.169   0.808  -7.425  0.00  0.00     0.066 H 
ATOM     14  H   LIG d   1       5.342   2.587 -10.096  0.00  0.00     0.069 H 
ENDROOT
BRANCH   1  15
ATOM     15  C   LIG d   1       5.619  -2.350  -4.381  0.00  0.00     0.006 C 
ATOM     16  H   LIG d   1       6.559  -2.874  -4.557  0.00  0.00     0.034 H 
ATOM     17  H   LIG d   1       4.808  -3.074  -4.308  0.00  0.00     0.034 H 
BRANCH  15  18
ATOM     18  C   LIG d   1       5.715  -1.558  -3.075  0.00  0.00    -0.046 C 
ATOM     19  H   LIG d   1       5.918  -0.511  -3.300  0.00  0.00     0.027 H 
ATOM     20  H   LIG d   1       6.522  -1.961  -2.463  0.00  0.00     0.027 H 
BRANCH  18  21
ATOM     21  C   LIG d   1       4.392  -1.669  -2.313  0.00  0.00    -0.053 C 
ATOM     22  H   LIG d   1       3.775  -2.442  -2.769  0.00  0.00     0.026 H 
ATOM     23  H   LIG d   1       4.594  -1.929  -1.273  0.00  0.00     0.026 H 
BRANCH  21  24
ATOM     24  C   LIG d   1       3.657  -0.330  -2.370  0.00  0.00    -0.056 C 
ATOM     25  H   LIG d   1       3.434  -0.081  -3.408  0.00  0.00     0.026 H 
ATOM     26  H   LIG d   1       2.727  -0.401  -1.806  0.00  0.00     0.026 H 
BRANCH  24  27
ATOM     27  C   LIG d   1       4.540   0.763  -1.763  0.00  0.00    -0.065 C 
ATOM     28  H   LIG d   1       5.584   0.451  -1.805  0.00  0.00     0.023 H 
ATOM     29  H   LIG d   1       4.413   1.687  -2.327  0.00  0.00     0.023 H 
ATOM     30  H   LIG d   1       4.251   0.928  -0.725  0.00  0.00     0.023 H 
ENDBRANCH  24  27
ENDBRANCH  21  24
ENDBRANCH  18  21
ENDBRANCH  15  18
ENDBRANCH   1  15
BRANCH   7  31
ATOM     31  O   LIG d   1       3.248   1.345  -9.146  0.00  0.00    -0.506 OA
ATOM     32  H   LIG d   1       3.035   0.785  -9.906  0.00  0.00     0.292 HD
ENDBRANCH   7  31
BRANCH   5  33
ATOM     33  O   LIG d   1       7.856   2.478  -9.409  0.00  0.00    -0.507 OA
ATOM     34  H   LIG d   1       8.744   2.193  -9.154  0.00  0.00     0.292 HD
ENDBRANCH   5  33
TORSDOF 7
ENDMDL
MODEL 10
REMARK VINA RESULT:      -5.0      3.659      5.819
REMARK  7 active torsions:
REMARK  status: ('A' for Active; 'I' for Inactive)
REMARK    1  A    between atoms: C_1  and  C_2 
REMARK    2  A    between atoms: C_2  and  C_3 
REMARK    3  A    between atoms: C_3  and  C_4 
REMARK    4  A    between atoms: C_4  and  C_5 
REMARK    5  A    between atoms: C_5  and  C_6 
REMARK    6  A    between atoms: C_10  and  O_18 
REMARK    7  A    between atoms: C_12  and  O_17 
ROOT
ATOM      1  C   LIG d   1       6.287  -1.006  -4.622  0.00  0.00     0.110 A 
ATOM      2  C   LIG d   1       6.858  -0.086  -3.832  0.00  0.00    -0.015 A 
ATOM      3  C   LIG d   1       7.648   0.990  -4.442  0.00  0.00    -0.001 A 
ATOM      4  C   LIG d   1       8.265   1.976  -3.681  0.00  0.00    -0.012 A 
ATOM      5  C   LIG d   1       9.000   2.968  -4.311  0.00  0.00     0.121 A 
ATOM      6  C   LIG d   1       9.123   2.989  -5.698  0.00  0.00     0.022 A 
ATOM      7  C   LIG d   1       8.517   2.017  -6.473  0.00  0.00     0.135 A 
ATOM      8  C   LIG d   1       7.771   1.007  -5.853  0.00  0.00     0.108 A 
ATOM      9  C   LIG d   1       7.105  -0.048  -6.616  0.00  0.00     0.348 A 
ATOM     10  O   LIG d   1       7.184  -0.074  -7.830  0.00  0.00    -0.244 OA
ATOM     11  O   LIG d   1       6.409  -0.993  -5.958  0.00  0.00    -0.427 OA
ATOM     12  H   LIG d   1       6.738  -0.136  -2.760  0.00  0.00     0.066 H 
ATOM     13  H   LIG d   1       8.175   1.968  -2.605  0.00  0.00     0.066 H 
ATOM     14  H   LIG d   1       9.699   3.770  -6.171  0.00  0.00     0.069 H 
ENDROOT
BRANCH   1  15
ATOM     15  C   LIG d   1       5.479  -2.105  -3.981  0.00  0.00     0.006 C 
ATOM     16  H   LIG d   1       6.089  -3.005  -3.903  0.00  0.00     0.034 H 
ATOM     17  H   LIG d   1       4.601  -2.313  -4.591  0.00  0.00     0.034 H 
BRANCH  15  18
ATOM     18  C   LIG d   1       5.037  -1.665  -2.584  0.00  0.00    -0.046 C 
ATOM     19  H   LIG d   1       5.335  -0.630  -2.417  0.00  0.00     0.027 H 
ATOM     20  H   LIG d   1       5.508  -2.303  -1.836  0.00  0.00     0.027 H 
BRANCH  18  21
ATOM     21  C   LIG d   1       3.516  -1.783  -2.469  0.00  0.00    -0.053 C 
ATOM     22  H   LIG d   1       3.174  -2.640  -3.049  0.00  0.00     0.026 H 
ATOM     23  H   LIG d   1       3.240  -1.917  -1.423  0.00  0.00     0.026 H 
BRANCH  21  24
ATOM     24  C   LIG d   1       2.864  -0.509  -3.009  0.00  0.00    -0.056 C 
ATOM     25  H   LIG d   1       2.972  -0.477  -4.094  0.00  0.00     0.026 H 
ATOM     26  H   LIG d   1       1.805  -0.504  -2.750  0.00  0.00     0.026 H 
BRANCH  24  27
ATOM     27  C   LIG d   1       3.547   0.714  -2.392  0.00  0.00    -0.065 C 
ATOM     28  H   LIG d   1       4.554   0.811  -2.799  0.00  0.00     0.023 H 
ATOM     29  H   LIG d   1       2.971   1.608  -2.628  0.00  0.00     0.023 H 
ATOM     30  H   LIG d   1       3.602   0.591  -1.310  0.00  0.00     0.023 H 
ENDBRANCH  24  27
ENDBRANCH  21  24
ENDBRANCH  18  21
ENDBRANCH  15  18
ENDBRANCH   1  15
BRANCH   7  31
ATOM     31  O   LIG d   1       8.642   2.044  -7.824  0.00  0.00    -0.506 OA
ATOM     32  H   LIG d   1       8.093   2.713  -8.256  0.00  0.00     0.292 HD
ENDBRANCH   7  31
BRANCH   5  33
ATOM     33  O   LIG d   1       9.604   3.930  -3.569  0.00  0.00    -0.507 OA
ATOM     34  H   LIG d   1      10.329   4.379  -4.023  0.00  0.00     0.292 HD
ENDBRANCH   5  33
TORSDOF 7
ENDMDL
