MODEL 1
REMARK VINA RESULT:      -6.2      0.000      0.000
REMARK  6 active torsions:
REMARK  status: ('A' for Active; 'I' for Inactive)
REMARK    1  A    between atoms: C_1  and  C_2 
REMARK    2  A    between atoms: C_3  and  S_8 
REMARK    3  A    between atoms: C_4  and  C_7 
REMARK    4  A    between atoms: S_8  and  N_11 
REMARK    5  A    between atoms: N_11  and  C_12 
REMARK    6  A    between atoms: CA_23  and  CB_27 
ROOT
ATOM      1  C   UNK d   1       4.784  -2.239  -6.472  0.00  0.00     0.032 C 
ATOM      2  H   UNK d   1       3.862  -2.499  -5.951  0.00  0.00     0.048 H 
ATOM      3  C   UNK d   1       4.597  -0.917  -7.235  0.00  0.00    -0.020 C 
ATOM      4  C   UNK d   1       3.290  -1.020  -8.021  0.00  0.00     0.017 C 
ATOM      5  N   UNK d   1       3.232  -2.258  -8.784  0.00  0.00    -0.288 N 
ATOM      6  C   UNK d   1       4.096  -3.408  -8.591  0.00  0.00     0.104 C 
ATOM      7  H   UNK d   1       4.666  -3.511  -9.515  0.00  0.00     0.060 H 
ATOM      8  C   UNK d   1       5.110  -3.328  -7.484  0.00  0.00    -0.009 C 
ATOM      9  C   UNK d   1       3.249  -4.653  -8.493  0.00  0.00     0.234 C 
ATOM     10  O   UNK d   1       3.435  -5.490  -7.635  0.00  0.00    -0.274 OA
ATOM     11  H   UNK d   1       5.430  -0.765  -7.920  0.00  0.00     0.030 H 
ATOM     12  H   UNK d   1       4.540  -0.089  -6.530  0.00  0.00     0.030 H 
ATOM     13  H   UNK d   1       2.451  -0.990  -7.325  0.00  0.00     0.046 H 
ATOM     14  H   UNK d   1       3.217  -0.174  -8.704  0.00  0.00     0.046 H 
ATOM     15  H   UNK d   1       5.164  -4.294  -6.983  0.00  0.00     0.030 H 
ATOM     16  H   UNK d   1       6.085  -3.098  -7.914  0.00  0.00     0.030 H 
ATOM     17  N   ALA d   2       2.262  -4.784  -9.427  0.00  0.00    -0.303 N 
ATOM     18  CA  ALA d   2       2.156  -3.720 -10.442  0.00  0.00     0.097 C 
ATOM     19  HA  ALA d   2       2.964  -3.822 -11.167  0.00  0.00     0.059 H 
ATOM     20  C   ALA d   2       2.263  -2.381  -9.742  0.00  0.00     0.236 C 
ATOM     21  O   ALA d   2       1.525  -1.460 -10.020  0.00  0.00    -0.274 OA
ATOM     22  H   ALA d   2       1.657  -5.543  -9.422  0.00  0.00     0.149 HD
ENDROOT
BRANCH   1  23
ATOM     23  N   UNK d   1       5.880  -2.105  -5.509  0.00  0.00    -0.187 N 
ATOM     24  H   UNK d   1       6.798  -2.075  -5.821  0.00  0.00     0.148 HD
BRANCH  23  25
ATOM     25  S   UNK d   1       5.551  -2.006  -3.890  0.00  0.00     0.064 S 
ATOM     26  O   UNK d   1       4.411  -2.821  -3.656  0.00  0.00    -0.153 OA
ATOM     27  O   UNK d   1       6.784  -2.209  -3.211  0.00  0.00    -0.153 OA
BRANCH  25  28
ATOM     28  C   UNK d   1       5.062  -0.347  -3.557  0.00  0.00     0.169 A 
ATOM     29  C   UNK d   1       3.762   0.140  -3.288  0.00  0.00     0.107 A 
ATOM     30  N   UNK d   1       3.882   1.424  -3.103  0.00  0.00    -0.081 NA
ATOM     31  O   UNK d   1       5.030   1.786  -3.222  0.00  0.00    -0.358 OA
ATOM     32  C   UNK d   1       5.843   0.759  -3.506  0.00  0.00     0.161 A 
BRANCH  29  33
ATOM     33  C   UNK d   1       2.491  -0.666  -3.226  0.00  0.00    -0.017 C 
ATOM     34  H   UNK d   1       2.489  -1.270  -2.318  0.00  0.00     0.029 H 
ATOM     35  H   UNK d   1       1.634   0.007  -3.216  0.00  0.00     0.029 H 
ATOM     36  H   UNK d   1       2.431  -1.318  -4.097  0.00  0.00     0.029 H 
ENDBRANCH  29  33
BRANCH  32  37
ATOM     37  C   UNK d   1       7.333   0.822  -3.725  0.00  0.00    -0.002 C 
ATOM     38  H   UNK d   1       7.829   0.129  -3.047  0.00  0.00     0.031 H 
ATOM     39  H   UNK d   1       7.560   0.547  -4.756  0.00  0.00     0.031 H 
ATOM     40  H   UNK d   1       7.687   1.834  -3.533  0.00  0.00     0.031 H 
ENDBRANCH  32  37
ENDBRANCH  25  28
ENDBRANCH  23  25
ENDBRANCH   1  23
BRANCH  18  41
ATOM     41  CB  ALA d   2       0.807  -3.823 -11.157  0.00  0.00    -0.038 C 
ATOM     42  HB1 ALA d   2       0.068  -3.223 -10.625  0.00  0.00     0.025 H 
ATOM     43  HB2 ALA d   2       0.908  -3.454 -12.177  0.00  0.00     0.025 H 
ATOM     44  HB3 ALA d   2       0.485  -4.864 -11.177  0.00  0.00     0.025 H 
ENDBRANCH  18  41
TORSDOF 6
ENDMDL
MODEL 2
REMARK VINA RESULT:      -6.2      2.768      3.947
REMARK  6 active torsions:
REMARK  status: ('A' for Active; 'I' for Inactive)
REMARK    1  A    between atoms: C_1  and  C_2 
REMARK    2  A    between atoms: C_3  and  S_8 
REMARK    3  A    between atoms: C_4  and  C_7 
REMARK    4  A    between atoms: S_8  and  N_11 
REMARK    5  A    between atoms: N_11  and  C_12 
REMARK    6  A    between atoms: CA_23  and  CB_27 
ROOT
ATOM      1  C   UNK d   1       3.936  -1.327  -7.807  0.00  0.00     0.032 C 
ATOM      2  H   UNK d   1       4.949  -0.940  -7.916  0.00  0.00     0.048 H 
ATOM      3  C   UNK d   1       3.878  -2.782  -8.299  0.00  0.00    -0.020 C 
ATOM      4  C   UNK d   1       4.562  -2.834  -9.665  0.00  0.00     0.017 C 
ATOM      5  N   UNK d   1       4.048  -1.798 -10.549  0.00  0.00    -0.288 N 
ATOM      6  C   UNK d   1       3.264  -0.650 -10.135  0.00  0.00     0.104 C 
ATOM      7  H   UNK d   1       2.289  -0.767 -10.612  0.00  0.00     0.060 H 
ATOM      8  C   UNK d   1       2.990  -0.498  -8.664  0.00  0.00    -0.009 C 
ATOM      9  C   UNK d   1       3.862   0.601 -10.730  0.00  0.00     0.234 C 
ATOM     10  O   UNK d   1       4.036   1.605 -10.073  0.00  0.00    -0.274 OA
ATOM     11  H   UNK d   1       2.840  -3.099  -8.392  0.00  0.00     0.030 H 
ATOM     12  H   UNK d   1       4.403  -3.430  -7.598  0.00  0.00     0.030 H 
ATOM     13  H   UNK d   1       5.635  -2.692  -9.533  0.00  0.00     0.046 H 
ATOM     14  H   UNK d   1       4.384  -3.810 -10.116  0.00  0.00     0.046 H 
ATOM     15  H   UNK d   1       3.073   0.555  -8.395  0.00  0.00     0.030 H 
ATOM     16  H   UNK d   1       1.975  -0.836  -8.457  0.00  0.00     0.030 H 
ATOM     17  N   ALA d   2       4.195   0.537 -12.052  0.00  0.00    -0.303 N 
ATOM     18  CA  ALA d   2       3.903  -0.725 -12.756  0.00  0.00     0.097 C 
ATOM     19  HA  ALA d   2       2.831  -0.803 -12.941  0.00  0.00     0.059 H 
ATOM     20  C   ALA d   2       4.355  -1.875 -11.880  0.00  0.00     0.236 C 
ATOM     21  O   ALA d   2       4.960  -2.822 -12.338  0.00  0.00    -0.274 OA
ATOM     22  H   ALA d   2       4.606   1.289 -12.508  0.00  0.00     0.149 HD
ENDROOT
BRANCH   1  23
ATOM     23  N   UNK d   1       3.526  -1.261  -6.402  0.00  0.00    -0.187 N 
ATOM     24  H   UNK d   1       2.917  -1.925  -6.043  0.00  0.00     0.148 HD
BRANCH  23  25
ATOM     25  S   UNK d   1       4.102  -0.053  -5.427  0.00  0.00     0.064 S 
ATOM     26  O   UNK d   1       5.419   0.238  -5.876  0.00  0.00    -0.153 OA
ATOM     27  O   UNK d   1       3.084   0.937  -5.362  0.00  0.00    -0.153 OA
BRANCH  25  28
ATOM     28  C   UNK d   1       4.258  -0.721  -3.805  0.00  0.00     0.169 A 
ATOM     29  C   UNK d   1       4.094  -0.055  -2.569  0.00  0.00     0.107 A 
ATOM     30  N   UNK d   1       4.303  -0.944  -1.641  0.00  0.00    -0.081 NA
ATOM     31  O   UNK d   1       4.570  -2.026  -2.113  0.00  0.00    -0.358 OA
ATOM     32  C   UNK d   1       4.568  -1.992  -3.452  0.00  0.00     0.161 A 
BRANCH  29  33
ATOM     33  C   UNK d   1       3.744   1.397  -2.366  0.00  0.00    -0.017 C 
ATOM     34  H   UNK d   1       4.285   2.005  -3.090  0.00  0.00     0.029 H 
ATOM     35  H   UNK d   1       2.672   1.535  -2.504  0.00  0.00     0.029 H 
ATOM     36  H   UNK d   1       4.022   1.700  -1.357  0.00  0.00     0.029 H 
ENDBRANCH  29  33
BRANCH  32  37
ATOM     37  C   UNK d   1       4.855  -3.142  -4.384  0.00  0.00    -0.002 C 
ATOM     38  H   UNK d   1       4.940  -4.063  -3.809  0.00  0.00     0.031 H 
ATOM     39  H   UNK d   1       4.041  -3.237  -5.104  0.00  0.00     0.031 H 
ATOM     40  H   UNK d   1       5.789  -2.957  -4.914  0.00  0.00     0.031 H 
ENDBRANCH  32  37
ENDBRANCH  25  28
ENDBRANCH  23  25
ENDBRANCH   1  23
BRANCH  18  41
ATOM     41  CB  ALA d   2       4.659  -0.761 -14.086  0.00  0.00    -0.038 C 
ATOM     42  HB1 ALA d   2       5.732  -0.754 -13.894  0.00  0.00     0.025 H 
ATOM     43  HB2 ALA d   2       4.393  -1.666 -14.631  0.00  0.00     0.025 H 
ATOM     44  HB3 ALA d   2       4.391   0.113 -14.680  0.00  0.00     0.025 H 
ENDBRANCH  18  41
TORSDOF 6
ENDMDL
MODEL 3
REMARK VINA RESULT:      -6.1      1.828      2.802
REMARK  6 active torsions:
REMARK  status: ('A' for Active; 'I' for Inactive)
REMARK    1  A    between atoms: C_1  and  C_2 
REMARK    2  A    between atoms: C_3  and  S_8 
REMARK    3  A    between atoms: C_4  and  C_7 
REMARK    4  A    between atoms: S_8  and  N_11 
REMARK    5  A    between atoms: N_11  and  C_12 
REMARK    6  A    between atoms: CA_23  and  CB_27 
ROOT
ATOM      1  C   UNK d   1       5.249  -2.431  -6.046  0.00  0.00     0.032 C 
ATOM      2  H   UNK d   1       6.098  -2.283  -6.713  0.00  0.00     0.048 H 
ATOM      3  C   UNK d   1       4.453  -3.671  -6.484  0.00  0.00    -0.020 C 
ATOM      4  C   UNK d   1       4.218  -3.561  -7.990  0.00  0.00     0.017 C 
ATOM      5  N   UNK d   1       3.685  -2.253  -8.343  0.00  0.00    -0.288 N 
ATOM      6  C   UNK d   1       3.688  -1.082  -7.485  0.00  0.00     0.104 C 
ATOM      7  H   UNK d   1       2.639  -0.847  -7.298  0.00  0.00     0.060 H 
ATOM      8  C   UNK d   1       4.329  -1.222  -6.133  0.00  0.00    -0.009 C 
ATOM      9  C   UNK d   1       4.239   0.094  -8.253  0.00  0.00     0.234 C 
ATOM     10  O   UNK d   1       5.065   0.843  -7.775  0.00  0.00    -0.274 OA
ATOM     11  H   UNK d   1       3.498  -3.700  -5.961  0.00  0.00     0.030 H 
ATOM     12  H   UNK d   1       5.024  -4.573  -6.264  0.00  0.00     0.030 H 
ATOM     13  H   UNK d   1       5.164  -3.714  -8.511  0.00  0.00     0.046 H 
ATOM     14  H   UNK d   1       3.511  -4.330  -8.298  0.00  0.00     0.046 H 
ATOM     15  H   UNK d   1       4.889  -0.314  -5.910  0.00  0.00     0.030 H 
ATOM     16  H   UNK d   1       3.548  -1.347  -5.382  0.00  0.00     0.030 H 
ATOM     17  N   ALA d   2       3.754   0.267  -9.517  0.00  0.00    -0.303 N 
ATOM     18  CA  ALA d   2       2.727  -0.685  -9.976  0.00  0.00     0.097 C 
ATOM     19  HA  ALA d   2       1.775  -0.459  -9.495  0.00  0.00     0.059 H 
ATOM     20  C   ALA d   2       3.170  -2.083  -9.599  0.00  0.00     0.236 C 
ATOM     21  O   ALA d   2       3.072  -3.011 -10.375  0.00  0.00    -0.274 OA
ATOM     22  H   ALA d   2       4.072   0.985 -10.088  0.00  0.00     0.149 HD
ENDROOT
BRANCH   1  23
ATOM     23  N   UNK d   1       5.721  -2.604  -4.669  0.00  0.00    -0.187 N 
ATOM     24  H   UNK d   1       5.303  -3.262  -4.093  0.00  0.00     0.148 HD
BRANCH  23  25
ATOM     25  S   UNK d   1       6.967  -1.675  -4.099  0.00  0.00     0.064 S 
ATOM     26  O   UNK d   1       7.621  -2.443  -3.098  0.00  0.00    -0.153 OA
ATOM     27  O   UNK d   1       7.650  -1.168  -5.237  0.00  0.00    -0.153 OA
BRANCH  25  28
ATOM     28  C   UNK d   1       6.252  -0.287  -3.282  0.00  0.00     0.169 A 
ATOM     29  C   UNK d   1       5.145  -0.270  -2.403  0.00  0.00     0.107 A 
ATOM     30  N   UNK d   1       4.980   0.971  -2.045  0.00  0.00    -0.081 NA
ATOM     31  O   UNK d   1       5.795   1.697  -2.566  0.00  0.00    -0.358 OA
ATOM     32  C   UNK d   1       6.632   1.011  -3.355  0.00  0.00     0.161 A 
BRANCH  29  33
ATOM     33  C   UNK d   1       4.321  -1.453  -1.965  0.00  0.00    -0.017 C 
ATOM     34  H   UNK d   1       4.536  -1.678  -0.921  0.00  0.00     0.029 H 
ATOM     35  H   UNK d   1       3.262  -1.220  -2.076  0.00  0.00     0.029 H 
ATOM     36  H   UNK d   1       4.569  -2.317  -2.582  0.00  0.00     0.029 H 
ENDBRANCH  29  33
BRANCH  32  37
ATOM     37  C   UNK d   1       7.773   1.572  -4.166  0.00  0.00    -0.002 C 
ATOM     38  H   UNK d   1       7.923   2.619  -3.905  0.00  0.00     0.031 H 
ATOM     39  H   UNK d   1       8.682   1.010  -3.950  0.00  0.00     0.031 H 
ATOM     40  H   UNK d   1       7.539   1.492  -5.227  0.00  0.00     0.031 H 
ENDBRANCH  32  37
ENDBRANCH  25  28
ENDBRANCH  23  25
ENDBRANCH   1  23
BRANCH  18  41
ATOM     41  CB  ALA d   2       2.573  -0.584 -11.495  0.00  0.00    -0.038 C 
ATOM     42  HB1 ALA d   2       2.798  -1.550 -11.948  0.00  0.00     0.025 H 
ATOM     43  HB2 ALA d   2       1.550  -0.298 -11.738  0.00  0.00     0.025 H 
ATOM     44  HB3 ALA d   2       3.261   0.168 -11.881  0.00  0.00     0.025 H 
ENDBRANCH  18  41
TORSDOF 6
ENDMDL
MODEL 4
REMARK VINA RESULT:      -6.1      2.379      3.297
REMARK  6 active torsions:
REMARK  status: ('A' for Active; 'I' for Inactive)
REMARK    1  A    between atoms: C_1  and  C_2 
REMARK    2  A    between atoms: C_3  and  S_8 
REMARK    3  A    between atoms: C_4  and  C_7 
REMARK    4  A    between atoms: S_8  and  N_11 
REMARK    5  A    between atoms: N_11  and  C_12 
REMARK    6  A    between atoms: CA_23  and  CB_27 
ROOT
ATOM      1  C   UNK d   1       4.225  -1.038  -7.458  0.00  0.00     0.032 C 
ATOM      2  H   UNK d   1       5.252  -0.752  -7.685  0.00  0.00     0.048 H 
ATOM      3  C   UNK d   1       3.981  -2.492  -7.894  0.00  0.00    -0.020 C 
ATOM      4  C   UNK d   1       4.508  -2.641  -9.321  0.00  0.00     0.017 C 
ATOM      5  N   UNK d   1       4.001  -1.581 -10.180  0.00  0.00    -0.288 N 
ATOM      6  C   UNK d   1       3.374  -0.355  -9.725  0.00  0.00     0.104 C 
ATOM      7  H   UNK d   1       2.348  -0.389 -10.094  0.00  0.00     0.060 H 
ATOM      8  C   UNK d   1       3.273  -0.144  -8.240  0.00  0.00    -0.009 C 
ATOM      9  C   UNK d   1       4.018   0.820 -10.420  0.00  0.00     0.234 C 
ATOM     10  O   UNK d   1       4.352   1.818  -9.818  0.00  0.00    -0.274 OA
ATOM     11  H   UNK d   1       2.914  -2.712  -7.869  0.00  0.00     0.030 H 
ATOM     12  H   UNK d   1       4.515  -3.171  -7.230  0.00  0.00     0.030 H 
ATOM     13  H   UNK d   1       5.598  -2.598  -9.306  0.00  0.00     0.046 H 
ATOM     14  H   UNK d   1       4.194  -3.605  -9.719  0.00  0.00     0.046 H 
ATOM     15  H   UNK d   1       3.481   0.902  -8.016  0.00  0.00     0.030 H 
ATOM     16  H   UNK d   1       2.259  -0.379  -7.917  0.00  0.00     0.030 H 
ATOM     17  N   ALA d   2       4.201   0.695 -11.767  0.00  0.00    -0.303 N 
ATOM     18  CA  ALA d   2       3.721  -0.550 -12.395  0.00  0.00     0.097 C 
ATOM     19  HA  ALA d   2       2.634  -0.530 -12.465  0.00  0.00     0.059 H 
ATOM     20  C   ALA d   2       4.156  -1.717 -11.533  0.00  0.00     0.236 C 
ATOM     21  O   ALA d   2       4.619  -2.727 -12.020  0.00  0.00    -0.274 OA
ATOM     22  H   ALA d   2       4.629   1.393 -12.287  0.00  0.00     0.149 HD
ENDROOT
BRANCH   1  23
ATOM     23  N   UNK d   1       3.974  -0.902  -6.021  0.00  0.00    -0.187 N 
ATOM     24  H   UNK d   1       3.090  -0.659  -5.704  0.00  0.00     0.148 HD
BRANCH  23  25
ATOM     25  S   UNK d   1       5.200  -1.163  -4.939  0.00  0.00     0.064 S 
ATOM     26  O   UNK d   1       5.027  -2.483  -4.441  0.00  0.00    -0.153 OA
ATOM     27  O   UNK d   1       6.399  -0.740  -5.573  0.00  0.00    -0.153 OA
BRANCH  25  28
ATOM     28  C   UNK d   1       4.937  -0.073  -3.580  0.00  0.00     0.169 A 
ATOM     29  C   UNK d   1       3.795   0.028  -2.753  0.00  0.00     0.107 A 
ATOM     30  N   UNK d   1       4.051   0.964  -1.885  0.00  0.00    -0.081 NA
ATOM     31  O   UNK d   1       5.149   1.443  -2.058  0.00  0.00    -0.358 OA
ATOM     32  C   UNK d   1       5.781   0.866  -3.089  0.00  0.00     0.161 A 
BRANCH  29  33
ATOM     33  C   UNK d   1       2.532  -0.788  -2.855  0.00  0.00    -0.017 C 
ATOM     34  H   UNK d   1       1.791  -0.398  -2.157  0.00  0.00     0.029 H 
ATOM     35  H   UNK d   1       2.141  -0.726  -3.871  0.00  0.00     0.029 H 
ATOM     36  H   UNK d   1       2.750  -1.827  -2.612  0.00  0.00     0.029 H 
ENDBRANCH  29  33
BRANCH  32  37
ATOM     37  C   UNK d   1       7.159   1.197  -3.602  0.00  0.00    -0.002 C 
ATOM     38  H   UNK d   1       7.477   2.157  -3.197  0.00  0.00     0.031 H 
ATOM     39  H   UNK d   1       7.859   0.421  -3.289  0.00  0.00     0.031 H 
ATOM     40  H   UNK d   1       7.139   1.250  -4.690  0.00  0.00     0.031 H 
ENDBRANCH  32  37
ENDBRANCH  25  28
ENDBRANCH  23  25
ENDBRANCH   1  23
BRANCH  18  41
ATOM     41  CB  ALA d   2       4.326  -0.688 -13.794  0.00  0.00    -0.038 C 
ATOM     42  HB1 ALA d   2       4.959  -1.574 -13.830  0.00  0.00     0.025 H 
ATOM     43  HB2 ALA d   2       3.525  -0.782 -14.527  0.00  0.00     0.025 H 
ATOM     44  HB3 ALA d   2       4.923   0.196 -14.020  0.00  0.00     0.025 H 
ENDBRANCH  18  41
TORSDOF 6
ENDMDL
MODEL 5
REMARK VINA RESULT:      -6.0      1.658      2.650
REMARK  6 active torsions:
REMARK  status: ('A' for Active; 'I' for Inactive)
REMARK    1  A    between atoms: C_1  and  C_2 
REMARK    2  A    between atoms: C_3  and  S_8 
REMARK    3  A    between atoms: C_4  and  C_7 
REMARK    4  A    between atoms: S_8  and  N_11 
REMARK    5  A    between atoms: N_11  and  C_12 
REMARK    6  A    between atoms: CA_23  and  CB_27 
ROOT
ATOM      1  C   UNK d   1       5.007  -0.443  -6.768  0.00  0.00     0.032 C 
ATOM      2  H   UNK d   1       4.257  -0.828  -6.077  0.00  0.00     0.048 H 
ATOM      3  C   UNK d   1       4.401   0.686  -7.618  0.00  0.00    -0.020 C 
ATOM      4  C   UNK d   1       3.061   0.187  -8.159  0.00  0.00     0.017 C 
ATOM      5  N   UNK d   1       3.200  -1.125  -8.774  0.00  0.00    -0.288 N 
ATOM      6  C   UNK d   1       4.334  -2.016  -8.613  0.00  0.00     0.104 C 
ATOM      7  H   UNK d   1       4.779  -2.115  -9.604  0.00  0.00     0.060 H 
ATOM      8  C   UNK d   1       5.443  -1.559  -7.705  0.00  0.00    -0.009 C 
ATOM      9  C   UNK d   1       3.837  -3.393  -8.249  0.00  0.00     0.234 C 
ATOM     10  O   UNK d   1       4.337  -4.041  -7.355  0.00  0.00    -0.274 OA
ATOM     11  H   UNK d   1       5.068   0.925  -8.445  0.00  0.00     0.030 H 
ATOM     12  H   UNK d   1       4.244   1.570  -7.000  0.00  0.00     0.030 H 
ATOM     13  H   UNK d   1       2.345   0.124  -7.339  0.00  0.00     0.046 H 
ATOM     14  H   UNK d   1       2.692   0.892  -8.903  0.00  0.00     0.046 H 
ATOM     15  H   UNK d   1       5.799  -2.411  -7.126  0.00  0.00     0.030 H 
ATOM     16  H   UNK d   1       6.264  -1.179  -8.313  0.00  0.00     0.030 H 
ATOM     17  N   ALA d   2       2.791  -3.868  -8.986  0.00  0.00    -0.303 N 
ATOM     18  CA  ALA d   2       2.290  -3.005 -10.072  0.00  0.00     0.097 C 
ATOM     19  HA  ALA d   2       2.990  -3.023 -10.907  0.00  0.00     0.059 H 
ATOM     20  C   ALA d   2       2.166  -1.593  -9.538  0.00  0.00     0.236 C 
ATOM     21  O   ALA d   2       1.195  -0.907  -9.780  0.00  0.00    -0.274 OA
ATOM     22  H   ALA d   2       2.395  -4.735  -8.804  0.00  0.00     0.149 HD
ENDROOT
BRANCH   1  23
ATOM     23  N   UNK d   1       6.161   0.064  -6.021  0.00  0.00    -0.187 N 
ATOM     24  H   UNK d   1       6.916   0.446  -6.495  0.00  0.00     0.148 HD
BRANCH  23  25
ATOM     25  S   UNK d   1       6.176  -0.016  -4.367  0.00  0.00     0.064 S 
ATOM     26  O   UNK d   1       7.486  -0.419  -3.992  0.00  0.00    -0.153 OA
ATOM     27  O   UNK d   1       5.585   1.188  -3.897  0.00  0.00    -0.153 OA
BRANCH  25  28
ATOM     28  C   UNK d   1       5.093  -1.324  -3.899  0.00  0.00     0.169 A 
ATOM     29  C   UNK d   1       5.281  -2.714  -4.072  0.00  0.00     0.107 A 
ATOM     30  N   UNK d   1       4.226  -3.293  -3.574  0.00  0.00    -0.081 NA
ATOM     31  O   UNK d   1       3.438  -2.484  -3.138  0.00  0.00    -0.358 OA
ATOM     32  C   UNK d   1       3.885  -1.230  -3.293  0.00  0.00     0.161 A 
BRANCH  29  33
ATOM     33  C   UNK d   1       6.467  -3.393  -4.707  0.00  0.00    -0.017 C 
ATOM     34  H   UNK d   1       7.309  -3.373  -4.015  0.00  0.00     0.029 H 
ATOM     35  H   UNK d   1       6.212  -4.426  -4.940  0.00  0.00     0.029 H 
ATOM     36  H   UNK d   1       6.737  -2.870  -5.624  0.00  0.00     0.029 H 
ENDBRANCH  29  33
BRANCH  32  37
ATOM     37  C   UNK d   1       3.181   0.036  -2.875  0.00  0.00    -0.002 C 
ATOM     38  H   UNK d   1       3.578   0.876  -3.443  0.00  0.00     0.031 H 
ATOM     39  H   UNK d   1       2.112  -0.062  -3.070  0.00  0.00     0.031 H 
ATOM     40  H   UNK d   1       3.342   0.208  -1.811  0.00  0.00     0.031 H 
ENDBRANCH  32  37
ENDBRANCH  25  28
ENDBRANCH  23  25
ENDBRANCH   1  23
BRANCH  18  41
ATOM     41  CB  ALA d   2       0.920  -3.504 -10.536  0.00  0.00    -0.038 C 
ATOM     42  HB1 ALA d   2       0.303  -3.733  -9.667  0.00  0.00     0.025 H 
ATOM     43  HB2 ALA d   2       0.436  -2.731 -11.133  0.00  0.00     0.025 H 
ATOM     44  HB3 ALA d   2       1.046  -4.403 -11.140  0.00  0.00     0.025 H 
ENDBRANCH  18  41
TORSDOF 6
ENDMDL
MODEL 6
REMARK VINA RESULT:      -6.0      3.212      6.517
REMARK  6 active torsions:
REMARK  status: ('A' for Active; 'I' for Inactive)
REMARK    1  A    between atoms: C_1  and  C_2 
REMARK    2  A    between atoms: C_3  and  S_8 
REMARK    3  A    between atoms: C_4  and  C_7 
REMARK    4  A    between atoms: S_8  and  N_11 
REMARK    5  A    between atoms: N_11  and  C_12 
REMARK    6  A    between atoms: CA_23  and  CB_27 
ROOT
ATOM      1  C   UNK d   1       4.261  -0.981  -7.710  0.00  0.00     0.032 C 
ATOM      2  H   UNK d   1       5.016  -0.194  -7.712  0.00  0.00     0.048 H 
ATOM      3  C   UNK d   1       2.878  -0.374  -7.421  0.00  0.00    -0.020 C 
ATOM      4  C   UNK d   1       3.020   0.537  -6.202  0.00  0.00     0.017 C 
ATOM      5  N   UNK d   1       3.702  -0.147  -5.113  0.00  0.00    -0.288 N 
ATOM      6  C   UNK d   1       4.460  -1.378  -5.234  0.00  0.00     0.104 C 
ATOM      7  H   UNK d   1       3.930  -2.115  -4.629  0.00  0.00     0.060 H 
ATOM      8  C   UNK d   1       4.581  -1.979  -6.607  0.00  0.00    -0.009 C 
ATOM      9  C   UNK d   1       5.805  -1.201  -4.575  0.00  0.00     0.234 C 
ATOM     10  O   UNK d   1       6.833  -1.562  -5.106  0.00  0.00    -0.274 OA
ATOM     11  H   UNK d   1       2.163  -1.169  -7.208  0.00  0.00     0.030 H 
ATOM     12  H   UNK d   1       2.542   0.206  -8.280  0.00  0.00     0.030 H 
ATOM     13  H   UNK d   1       3.591   1.422  -6.482  0.00  0.00     0.046 H 
ATOM     14  H   UNK d   1       2.029   0.842  -5.867  0.00  0.00     0.046 H 
ATOM     15  H   UNK d   1       5.592  -2.363  -6.738  0.00  0.00     0.030 H 
ATOM     16  H   UNK d   1       3.876  -2.805  -6.695  0.00  0.00     0.030 H 
ATOM     17  N   ALA d   2       5.798  -0.610  -3.344  0.00  0.00    -0.303 N 
ATOM     18  CA  ALA d   2       4.484  -0.247  -2.784  0.00  0.00     0.097 C 
ATOM     19  HA  ALA d   2       3.968  -1.145  -2.443  0.00  0.00     0.059 H 
ATOM     20  C   ALA d   2       3.672   0.427  -3.871  0.00  0.00     0.236 C 
ATOM     21  O   ALA d   2       3.023   1.428  -3.650  0.00  0.00    -0.274 OA
ATOM     22  H   ALA d   2       6.621  -0.437  -2.860  0.00  0.00     0.149 HD
ENDROOT
BRANCH   1  23
ATOM     23  N   UNK d   1       4.244  -1.658  -9.010  0.00  0.00    -0.187 N 
ATOM     24  H   UNK d   1       4.023  -2.601  -9.062  0.00  0.00     0.148 HD
BRANCH  23  25
ATOM     25  S   UNK d   1       4.601  -0.813 -10.388  0.00  0.00     0.064 S 
ATOM     26  O   UNK d   1       5.518  -1.609 -11.126  0.00  0.00    -0.153 OA
ATOM     27  O   UNK d   1       3.362  -0.377 -10.931  0.00  0.00    -0.153 OA
BRANCH  25  28
ATOM     28  C   UNK d   1       5.474   0.637  -9.899  0.00  0.00     0.169 A 
ATOM     29  C   UNK d   1       6.855   0.775  -9.634  0.00  0.00     0.107 A 
ATOM     30  N   UNK d   1       7.045   2.021  -9.310  0.00  0.00    -0.081 NA
ATOM     31  O   UNK d   1       6.012   2.650  -9.330  0.00  0.00    -0.358 OA
ATOM     32  C   UNK d   1       4.975   1.879  -9.685  0.00  0.00     0.161 A 
BRANCH  29  33
ATOM     33  C   UNK d   1       7.901  -0.307  -9.713  0.00  0.00    -0.017 C 
ATOM     34  H   UNK d   1       7.496  -1.166 -10.247  0.00  0.00     0.029 H 
ATOM     35  H   UNK d   1       8.776   0.071 -10.242  0.00  0.00     0.029 H 
ATOM     36  H   UNK d   1       8.190  -0.608  -8.706  0.00  0.00     0.029 H 
ENDBRANCH  29  33
BRANCH  32  37
ATOM     37  C   UNK d   1       3.535   2.308  -9.818  0.00  0.00    -0.002 C 
ATOM     38  H   UNK d   1       3.109   1.873 -10.721  0.00  0.00     0.031 H 
ATOM     39  H   UNK d   1       2.972   1.964  -8.950  0.00  0.00     0.031 H 
ATOM     40  H   UNK d   1       3.484   3.394  -9.878  0.00  0.00     0.031 H 
ENDBRANCH  32  37
ENDBRANCH  25  28
ENDBRANCH  23  25
ENDBRANCH   1  23
BRANCH  18  41
ATOM     41  CB  ALA d   2       4.672   0.716  -1.609  0.00  0.00    -0.038 C 
ATOM     42  HB1 ALA d   2       3.698   1.064  -1.265  0.00  0.00     0.025 H 
ATOM     43  HB2 ALA d   2       5.183   0.201  -0.796  0.00  0.00     0.025 H 
ATOM     44  HB3 ALA d   2       5.270   1.569  -1.931  0.00  0.00     0.025 H 
ENDBRANCH  18  41
TORSDOF 6
ENDMDL
MODEL 7
REMARK VINA RESULT:      -5.9      3.252      6.453
REMARK  6 active torsions:
REMARK  status: ('A' for Active; 'I' for Inactive)
REMARK    1  A    between atoms: C_1  and  C_2 
REMARK    2  A    between atoms: C_3  and  S_8 
REMARK    3  A    between atoms: C_4  and  C_7 
REMARK    4  A    between atoms: S_8  and  N_11 
REMARK    5  A    between atoms: N_11  and  C_12 
REMARK    6  A    between atoms: CA_23  and  CB_27 
ROOT
ATOM      1  C   UNK d   1       6.897  -0.315  -4.948  0.00  0.00     0.032 C 
ATOM      2  H   UNK d   1       6.090   0.315  -5.322  0.00  0.00     0.048 H 
ATOM      3  C   UNK d   1       7.503   0.312  -3.682  0.00  0.00    -0.020 C 
ATOM      4  C   UNK d   1       7.774   1.786  -3.982  0.00  0.00     0.017 C 
ATOM      5  N   UNK d   1       8.504   1.941  -5.232  0.00  0.00    -0.288 N 
ATOM      6  C   UNK d   1       8.665   0.916  -6.247  0.00  0.00     0.104 C 
ATOM      7  H   UNK d   1       9.734   0.705  -6.290  0.00  0.00     0.060 H 
ATOM      8  C   UNK d   1       7.990  -0.405  -6.002  0.00  0.00    -0.009 C 
ATOM      9  C   UNK d   1       8.309   1.492  -7.595  0.00  0.00     0.234 C 
ATOM     10  O   UNK d   1       7.599   0.899  -8.379  0.00  0.00    -0.274 OA
ATOM     11  H   UNK d   1       8.436  -0.192  -3.430  0.00  0.00     0.030 H 
ATOM     12  H   UNK d   1       6.800   0.227  -2.855  0.00  0.00     0.030 H 
ATOM     13  H   UNK d   1       6.825   2.317  -4.054  0.00  0.00     0.046 H 
ATOM     14  H   UNK d   1       8.362   2.213  -3.170  0.00  0.00     0.046 H 
ATOM     15  H   UNK d   1       7.571  -0.767  -6.941  0.00  0.00     0.030 H 
ATOM     16  H   UNK d   1       8.732  -1.121  -5.649  0.00  0.00     0.030 H 
ATOM     17  N   ALA d   2       8.833   2.719  -7.882  0.00  0.00    -0.303 N 
ATOM     18  CA  ALA d   2       9.712   3.326  -6.866  0.00  0.00     0.097 C 
ATOM     19  HA  ALA d   2      10.680   2.824  -6.870  0.00  0.00     0.059 H 
ATOM     20  C   ALA d   2       9.057   3.161  -5.510  0.00  0.00     0.236 C 
ATOM     21  O   ALA d   2       9.026   4.070  -4.706  0.00  0.00    -0.274 OA
ATOM     22  H   ALA d   2       8.636   3.172  -8.717  0.00  0.00     0.149 HD
ENDROOT
BRANCH   1  23
ATOM     23  N   UNK d   1       6.385  -1.653  -4.642  0.00  0.00    -0.187 N 
ATOM     24  H   UNK d   1       6.942  -2.432  -4.794  0.00  0.00     0.148 HD
BRANCH  23  25
ATOM     25  S   UNK d   1       4.854  -1.835  -4.038  0.00  0.00     0.064 S 
ATOM     26  O   UNK d   1       4.302  -2.984  -4.668  0.00  0.00    -0.153 OA
ATOM     27  O   UNK d   1       4.957  -1.717  -2.626  0.00  0.00    -0.153 OA
BRANCH  25  28
ATOM     28  C   UNK d   1       3.908  -0.455  -4.590  0.00  0.00     0.169 A 
ATOM     29  C   UNK d   1       3.518  -0.140  -5.912  0.00  0.00     0.107 A 
ATOM     30  N   UNK d   1       2.833   0.966  -5.839  0.00  0.00    -0.081 NA
ATOM     31  O   UNK d   1       2.754   1.367  -4.701  0.00  0.00    -0.358 OA
ATOM     32  C   UNK d   1       3.391   0.553  -3.847  0.00  0.00     0.161 A 
BRANCH  29  33
ATOM     33  C   UNK d   1       3.830  -0.928  -7.158  0.00  0.00    -0.017 C 
ATOM     34  H   UNK d   1       3.640  -0.310  -8.035  0.00  0.00     0.029 H 
ATOM     35  H   UNK d   1       4.878  -1.228  -7.144  0.00  0.00     0.029 H 
ATOM     36  H   UNK d   1       3.199  -1.815  -7.194  0.00  0.00     0.029 H 
ENDBRANCH  29  33
BRANCH  32  37
ATOM     37  C   UNK d   1       3.509   0.725  -2.354  0.00  0.00    -0.002 C 
ATOM     38  H   UNK d   1       4.559   0.828  -2.082  0.00  0.00     0.031 H 
ATOM     39  H   UNK d   1       2.965   1.620  -2.048  0.00  0.00     0.031 H 
ATOM     40  H   UNK d   1       3.087  -0.145  -1.853  0.00  0.00     0.031 H 
ENDBRANCH  32  37
ENDBRANCH  25  28
ENDBRANCH  23  25
ENDBRANCH   1  23
BRANCH  18  41
ATOM     41  CB  ALA d   2       9.902   4.814  -7.170  0.00  0.00    -0.038 C 
ATOM     42  HB1 ALA d   2      10.848   4.960  -7.693  0.00  0.00     0.025 H 
ATOM     43  HB2 ALA d   2       9.082   5.163  -7.797  0.00  0.00     0.025 H 
ATOM     44  HB3 ALA d   2       9.911   5.377  -6.237  0.00  0.00     0.025 H 
ENDBRANCH  18  41
TORSDOF 6
ENDMDL
MODEL 8
REMARK VINA RESULT:      -5.7      3.252      7.196
REMARK  6 active torsions:
REMARK  status: ('A' for Active; 'I' for Inactive)
REMARK    1  A    between atoms: C_1  and  C_2 
REMARK    2  A    between atoms: C_3  and  S_8 
REMARK    3  A    between atoms: C_4  and  C_7 
REMARK    4  A    between atoms: S_8  and  N_11 
REMARK    5  A    between atoms: N_11  and  C_12 
REMARK    6  A    between atoms: CA_23  and  CB_27 
ROOT
ATOM      1  C   UNK d   1       7.538  -1.366  -4.986  0.00  0.00     0.032 C 
ATOM      2  H   UNK d   1       7.737  -1.446  -3.917  0.00  0.00     0.048 H 
ATOM      3  C   UNK d   1       8.661  -2.055  -5.778  0.00  0.00    -0.020 C 
ATOM      4  C   UNK d   1       9.993  -1.556  -5.219  0.00  0.00     0.017 C 
ATOM      5  N   UNK d   1      10.015  -0.103  -5.136  0.00  0.00    -0.288 N 
ATOM      6  C   UNK d   1       8.855   0.764  -5.226  0.00  0.00     0.104 C 
ATOM      7  H   UNK d   1       9.000   1.365  -6.125  0.00  0.00     0.060 H 
ATOM      8  C   UNK d   1       7.513   0.103  -5.381  0.00  0.00    -0.009 C 
ATOM      9  C   UNK d   1       8.874   1.741  -4.076  0.00  0.00     0.234 C 
ATOM     10  O   UNK d   1       7.885   1.973  -3.413  0.00  0.00    -0.274 OA
ATOM     11  H   UNK d   1       8.582  -1.796  -6.833  0.00  0.00     0.030 H 
ATOM     12  H   UNK d   1       8.591  -3.136  -5.654  0.00  0.00     0.030 H 
ATOM     13  H   UNK d   1      10.142  -1.973  -4.223  0.00  0.00     0.046 H 
ATOM     14  H   UNK d   1      10.801  -1.889  -5.870  0.00  0.00     0.046 H 
ATOM     15  H   UNK d   1       6.783   0.638  -4.773  0.00  0.00     0.030 H 
ATOM     16  H   UNK d   1       7.210   0.159  -6.426  0.00  0.00     0.030 H 
ATOM     17  N   ALA d   2      10.070   2.349  -3.825  0.00  0.00    -0.303 N 
ATOM     18  CA  ALA d   2      11.192   2.016  -4.720  0.00  0.00     0.097 C 
ATOM     19  HA  ALA d   2      11.053   2.508  -5.683  0.00  0.00     0.059 H 
ATOM     20  C   ALA d   2      11.216   0.513  -4.914  0.00  0.00     0.236 C 
ATOM     21  O   ALA d   2      12.254  -0.114  -4.877  0.00  0.00    -0.274 OA
ATOM     22  H   ALA d   2      10.176   2.974  -3.089  0.00  0.00     0.149 HD
ENDROOT
BRANCH   1  23
ATOM     23  N   UNK d   1       6.251  -1.992  -5.303  0.00  0.00    -0.187 N 
ATOM     24  H   UNK d   1       6.126  -2.437  -6.155  0.00  0.00     0.148 HD
BRANCH  23  25
ATOM     25  S   UNK d   1       5.013  -1.938  -4.205  0.00  0.00     0.064 S 
ATOM     26  O   UNK d   1       4.205  -3.082  -4.447  0.00  0.00    -0.153 OA
ATOM     27  O   UNK d   1       5.604  -1.678  -2.938  0.00  0.00    -0.153 OA
BRANCH  25  28
ATOM     28  C   UNK d   1       4.028  -0.532  -4.598  0.00  0.00     0.169 A 
ATOM     29  C   UNK d   1       3.553  -0.129  -5.867  0.00  0.00     0.107 A 
ATOM     30  N   UNK d   1       2.869   0.962  -5.675  0.00  0.00    -0.081 NA
ATOM     31  O   UNK d   1       2.860   1.282  -4.508  0.00  0.00    -0.358 OA
ATOM     32  C   UNK d   1       3.554   0.417  -3.756  0.00  0.00     0.161 A 
BRANCH  29  33
ATOM     33  C   UNK d   1       3.789  -0.826  -7.182  0.00  0.00    -0.017 C 
ATOM     34  H   UNK d   1       4.669  -0.401  -7.665  0.00  0.00     0.029 H 
ATOM     35  H   UNK d   1       3.950  -1.890  -7.006  0.00  0.00     0.029 H 
ATOM     36  H   UNK d   1       2.920  -0.693  -7.826  0.00  0.00     0.029 H 
ENDBRANCH  29  33
BRANCH  32  37
ATOM     37  C   UNK d   1       3.766   0.487  -2.265  0.00  0.00    -0.002 C 
ATOM     38  H   UNK d   1       3.251   1.359  -1.864  0.00  0.00     0.031 H 
ATOM     39  H   UNK d   1       3.367  -0.416  -1.799  0.00  0.00     0.031 H 
ATOM     40  H   UNK d   1       4.832   0.564  -2.052  0.00  0.00     0.031 H 
ENDBRANCH  32  37
ENDBRANCH  25  28
ENDBRANCH  23  25
ENDBRANCH   1  23
BRANCH  18  41
ATOM     41  CB  ALA d   2      12.509   2.476  -4.090  0.00  0.00    -0.038 C 
ATOM     42  HB1 ALA d   2      12.301   3.014  -3.165  0.00  0.00     0.025 H 
ATOM     43  HB2 ALA d   2      13.131   1.607  -3.875  0.00  0.00     0.025 H 
ATOM     44  HB3 ALA d   2      13.033   3.134  -4.784  0.00  0.00     0.025 H 
ENDBRANCH  18  41
TORSDOF 6
ENDMDL
MODEL 9
REMARK VINA RESULT:      -5.6      9.824     11.688
REMARK  6 active torsions:
REMARK  status: ('A' for Active; 'I' for Inactive)
REMARK    1  A    between atoms: C_1  and  C_2 
REMARK    2  A    between atoms: C_3  and  S_8 
REMARK    3  A    between atoms: C_4  and  C_7 
REMARK    4  A    between atoms: S_8  and  N_11 
REMARK    5  A    between atoms: N_11  and  C_12 
REMARK    6  A    between atoms: CA_23  and  CB_27 
ROOT
ATOM      1  C   UNK d   1      10.257   7.646  -3.783  0.00  0.00     0.032 C 
ATOM      2  H   UNK d   1       9.249   7.237  -3.716  0.00  0.00     0.048 H 
ATOM      3  C   UNK d   1      10.218   9.018  -4.475  0.00  0.00    -0.020 C 
ATOM      4  C   UNK d   1       9.379   8.871  -5.744  0.00  0.00     0.017 C 
ATOM      5  N   UNK d   1       9.815   7.726  -6.531  0.00  0.00    -0.288 N 
ATOM      6  C   UNK d   1      10.673   6.656  -6.058  0.00  0.00     0.104 C 
ATOM      7  H   UNK d   1      11.582   6.715  -6.659  0.00  0.00     0.060 H 
ATOM      8  C   UNK d   1      11.119   6.716  -4.623  0.00  0.00    -0.009 C 
ATOM      9  C   UNK d   1      10.044   5.327  -6.399  0.00  0.00     0.234 C 
ATOM     10  O   UNK d   1       9.975   4.424  -5.594  0.00  0.00    -0.274 OA
ATOM     11  H   UNK d   1      11.229   9.330  -4.734  0.00  0.00     0.030 H 
ATOM     12  H   UNK d   1       9.761   9.753  -3.813  0.00  0.00     0.030 H 
ATOM     13  H   UNK d   1       8.333   8.737  -5.467  0.00  0.00     0.046 H 
ATOM     14  H   UNK d   1       9.477   9.775  -6.344  0.00  0.00     0.046 H 
ATOM     15  H   UNK d   1      11.097   5.710  -4.204  0.00  0.00     0.030 H 
ATOM     16  H   UNK d   1      12.142   7.090  -4.587  0.00  0.00     0.030 H 
ATOM     17  N   ALA d   2       9.558   5.202  -7.669  0.00  0.00    -0.303 N 
ATOM     18  CA  ALA d   2       9.732   6.355  -8.570  0.00  0.00     0.097 C 
ATOM     19  HA  ALA d   2      10.772   6.418  -8.890  0.00  0.00     0.059 H 
ATOM     20  C   ALA d   2       9.354   7.612  -7.814  0.00  0.00     0.236 C 
ATOM     21  O   ALA d   2       8.674   8.478  -8.324  0.00  0.00    -0.274 OA
ATOM     22  H   ALA d   2       9.117   4.389  -7.964  0.00  0.00     0.149 HD
ENDROOT
BRANCH   1  23
ATOM     23  N   UNK d   1      10.830   7.783  -2.441  0.00  0.00    -0.187 N 
ATOM     24  H   UNK d   1      11.650   8.284  -2.313  0.00  0.00     0.148 HD
BRANCH  23  25
ATOM     25  S   UNK d   1      10.075   7.082  -1.144  0.00  0.00     0.064 S 
ATOM     26  O   UNK d   1       8.727   7.531  -1.167  0.00  0.00    -0.153 OA
ATOM     27  O   UNK d   1      10.419   5.703  -1.170  0.00  0.00    -0.153 OA
BRANCH  25  28
ATOM     28  C   UNK d   1      10.806   7.755   0.311  0.00  0.00     0.169 A 
ATOM     29  C   UNK d   1      11.173   9.097   0.560  0.00  0.00     0.107 A 
ATOM     30  N   UNK d   1      11.671   9.125   1.763  0.00  0.00    -0.081 NA
ATOM     31  O   UNK d   1      11.668   8.027   2.271  0.00  0.00    -0.358 OA
ATOM     32  C   UNK d   1      11.151   7.105   1.449  0.00  0.00     0.161 A 
BRANCH  29  33
ATOM     33  C   UNK d   1      11.018  10.265  -0.380  0.00  0.00    -0.017 C 
ATOM     34  H   UNK d   1      10.382  11.020   0.081  0.00  0.00     0.029 H 
ATOM     35  H   UNK d   1      11.997  10.694  -0.591  0.00  0.00     0.029 H 
ATOM     36  H   UNK d   1      10.563   9.925  -1.310  0.00  0.00     0.029 H 
ENDBRANCH  29  33
BRANCH  32  37
ATOM     37  C   UNK d   1      10.985   5.634   1.732  0.00  0.00    -0.002 C 
ATOM     38  H   UNK d   1      10.546   5.144   0.864  0.00  0.00     0.031 H 
ATOM     39  H   UNK d   1      11.959   5.193   1.945  0.00  0.00     0.031 H 
ATOM     40  H   UNK d   1      10.330   5.501   2.594  0.00  0.00     0.031 H 
ENDBRANCH  32  37
ENDBRANCH  25  28
ENDBRANCH  23  25
ENDBRANCH   1  23
BRANCH  18  41
ATOM     41  CB  ALA d   2       8.825   6.196  -9.793  0.00  0.00    -0.038 C 
ATOM     42  HB1 ALA d   2       8.040   6.952  -9.763  0.00  0.00     0.025 H 
ATOM     43  HB2 ALA d   2       9.416   6.319 -10.700  0.00  0.00     0.025 H 
ATOM     44  HB3 ALA d   2       8.375   5.203  -9.784  0.00  0.00     0.025 H 
ENDBRANCH  18  41
TORSDOF 6
ENDMDL
