MODEL 1
REMARK VINA RESULT:      -5.1      0.000      0.000
REMARK  4 active torsions:
REMARK  status: ('A' for Active; 'I' for Inactive)
REMARK    1  A    between atoms: C_1  and  N_2 
REMARK       I    between atoms: N_2  and  C_3 
REMARK    2  A    between atoms: N_2  and  O_13 
REMARK       I    between atoms: C_3  and  N_5 
REMARK    3  A    between atoms: N_5  and  C_6 
REMARK    4  A    between atoms: O_13  and  C_14 
ROOT
ATOM      1  N   LIG d   1       4.821  -5.221  -5.938  0.00  0.00    -0.168 N 
ATOM      2  C   LIG d   1       5.008  -4.117  -5.189  0.00  0.00     0.329 C 
ATOM      3  O   LIG d   1       6.102  -3.884  -4.711  0.00  0.00    -0.250 OA
ATOM      4  N   LIG d   1       3.983  -3.270  -4.968  0.00  0.00    -0.268 N 
ATOM      5  H   LIG d   1       3.129  -3.419  -5.403  0.00  0.00     0.156 HD
ENDROOT
BRANCH   4   6
ATOM      6  C   LIG d   1       4.151  -2.175  -4.111  0.00  0.00     0.035 A 
ATOM      7  C   LIG d   1       4.027  -2.341  -2.738  0.00  0.00    -0.039 A 
ATOM      8  C   LIG d   1       4.200  -1.260  -1.895  0.00  0.00    -0.042 A 
ATOM      9  H   LIG d   1       3.802  -3.315  -2.329  0.00  0.00     0.064 H 
ATOM     10  C   LIG d   1       4.482  -0.011  -2.418  0.00  0.00     0.041 A 
ATOM     11  H   LIG d   1       4.108  -1.390  -0.827  0.00  0.00     0.063 H 
ATOM     12  C   LIG d   1       4.600   0.157  -3.787  0.00  0.00    -0.042 A 
ATOM     13 CL   LIG d   1       4.690   1.347  -1.357  0.00  0.00    -0.084 Cl
ATOM     14  C   LIG d   1       4.435  -0.921  -4.634  0.00  0.00    -0.039 A 
ATOM     15  H   LIG d   1       4.822   1.134  -4.193  0.00  0.00     0.063 H 
ATOM     16  H   LIG d   1       4.528  -0.789  -5.702  0.00  0.00     0.064 H 
ENDBRANCH   4   6
BRANCH   1  17
ATOM     17  C   LIG d   1       5.936  -6.142  -6.177  0.00  0.00     0.032 C 
ATOM     18  H   LIG d   1       6.346  -6.471  -5.223  0.00  0.00     0.045 H 
ATOM     19  H   LIG d   1       5.577  -7.006  -6.738  0.00  0.00     0.045 H 
ATOM     20  H   LIG d   1       6.710  -5.633  -6.751  0.00  0.00     0.045 H 
ENDBRANCH   1  17
BRANCH   1  21
ATOM     21  O   LIG d   1       3.547  -5.491  -6.494  0.00  0.00    -0.280 OA
BRANCH  21  22
ATOM     22  C   LIG d   1       3.501  -5.399  -7.919  0.00  0.00     0.062 C 
ATOM     23  H   LIG d   1       4.176  -6.136  -8.352  0.00  0.00     0.055 H 
ATOM     24  H   LIG d   1       2.485  -5.589  -8.263  0.00  0.00     0.055 H 
ATOM     25  H   LIG d   1       3.808  -4.400  -8.229  0.00  0.00     0.055 H 
ENDBRANCH  21  22
ENDBRANCH   1  21
TORSDOF 4
ENDMDL
MODEL 2
REMARK VINA RESULT:      -4.9      3.958      4.664
REMARK  4 active torsions:
REMARK  status: ('A' for Active; 'I' for Inactive)
REMARK    1  A    between atoms: C_1  and  N_2 
REMARK       I    between atoms: N_2  and  C_3 
REMARK    2  A    between atoms: N_2  and  O_13 
REMARK       I    between atoms: C_3  and  N_5 
REMARK    3  A    between atoms: N_5  and  C_6 
REMARK    4  A    between atoms: O_13  and  C_14 
ROOT
ATOM      1  N   LIG d   1       2.936   0.082  -9.360  0.00  0.00    -0.168 N 
ATOM      2  C   LIG d   1       3.300   0.380  -8.098  0.00  0.00     0.329 C 
ATOM      3  O   LIG d   1       4.073   1.294  -7.888  0.00  0.00    -0.250 OA
ATOM      4  N   LIG d   1       2.807  -0.336  -7.067  0.00  0.00    -0.268 N 
ATOM      5  H   LIG d   1       2.139  -1.020  -7.228  0.00  0.00     0.156 HD
ENDROOT
BRANCH   4   6
ATOM      6  C   LIG d   1       3.258  -0.090  -5.765  0.00  0.00     0.035 A 
ATOM      7  C   LIG d   1       2.527   0.734  -4.919  0.00  0.00    -0.039 A 
ATOM      8  C   LIG d   1       2.971   0.969  -3.632  0.00  0.00    -0.042 A 
ATOM      9  H   LIG d   1       1.608   1.184  -5.264  0.00  0.00     0.064 H 
ATOM     10  C   LIG d   1       4.152   0.398  -3.191  0.00  0.00     0.041 A 
ATOM     11  H   LIG d   1       2.400   1.606  -2.973  0.00  0.00     0.063 H 
ATOM     12  C   LIG d   1       4.885  -0.419  -4.035  0.00  0.00    -0.042 A 
ATOM     13 CL   LIG d   1       4.712   0.702  -1.577  0.00  0.00    -0.084 Cl
ATOM     14  C   LIG d   1       4.442  -0.663  -5.320  0.00  0.00    -0.039 A 
ATOM     15  H   LIG d   1       5.805  -0.865  -3.687  0.00  0.00     0.063 H 
ATOM     16  H   LIG d   1       5.014  -1.300  -5.977  0.00  0.00     0.064 H 
ENDBRANCH   4   6
BRANCH   1  17
ATOM     17  C   LIG d   1       3.473   0.859 -10.481  0.00  0.00     0.032 C 
ATOM     18  H   LIG d   1       3.435   1.921 -10.238  0.00  0.00     0.045 H 
ATOM     19  H   LIG d   1       4.507   0.563 -10.664  0.00  0.00     0.045 H 
ATOM     20  H   LIG d   1       2.877   0.668 -11.373  0.00  0.00     0.045 H 
ENDBRANCH   1  17
BRANCH   1  21
ATOM     21  O   LIG d   1       2.035  -0.983  -9.604  0.00  0.00    -0.280 OA
BRANCH  21  22
ATOM     22  C   LIG d   1       1.542  -1.034 -10.945  0.00  0.00     0.062 C 
ATOM     23  H   LIG d   1       2.359  -0.841 -11.639  0.00  0.00     0.055 H 
ATOM     24  H   LIG d   1       1.124  -2.021 -11.140  0.00  0.00     0.055 H 
ATOM     25  H   LIG d   1       0.768  -0.279 -11.076  0.00  0.00     0.055 H 
ENDBRANCH  21  22
ENDBRANCH   1  21
TORSDOF 4
ENDMDL
MODEL 3
REMARK VINA RESULT:      -4.7      4.335      5.224
REMARK  4 active torsions:
REMARK  status: ('A' for Active; 'I' for Inactive)
REMARK    1  A    between atoms: C_1  and  N_2 
REMARK       I    between atoms: N_2  and  C_3 
REMARK    2  A    between atoms: N_2  and  O_13 
REMARK       I    between atoms: C_3  and  N_5 
REMARK    3  A    between atoms: N_5  and  C_6 
REMARK    4  A    between atoms: O_13  and  C_14 
ROOT
ATOM      1  N   LIG d   1       2.779   0.740  -9.244  0.00  0.00    -0.168 N 
ATOM      2  C   LIG d   1       2.994   0.048  -8.108  0.00  0.00     0.329 C 
ATOM      3  O   LIG d   1       2.956  -1.167  -8.120  0.00  0.00    -0.250 OA
ATOM      4  N   LIG d   1       3.251   0.702  -6.958  0.00  0.00    -0.268 N 
ATOM      5  H   LIG d   1       3.348   1.668  -6.961  0.00  0.00     0.156 HD
ENDROOT
BRANCH   4   6
ATOM      6  C   LIG d   1       3.380  -0.011  -5.760  0.00  0.00     0.035 A 
ATOM      7  C   LIG d   1       2.428   0.135  -4.758  0.00  0.00    -0.039 A 
ATOM      8  C   LIG d   1       2.554  -0.575  -3.580  0.00  0.00    -0.042 A 
ATOM      9  H   LIG d   1       1.588   0.798  -4.903  0.00  0.00     0.064 H 
ATOM     10  C   LIG d   1       3.634  -1.419  -3.391  0.00  0.00     0.041 A 
ATOM     11  H   LIG d   1       1.813  -0.465  -2.803  0.00  0.00     0.063 H 
ATOM     12  C   LIG d   1       4.586  -1.561  -4.386  0.00  0.00    -0.042 A 
ATOM     13 CL   LIG d   1       3.794  -2.303  -1.906  0.00  0.00    -0.084 Cl
ATOM     14  C   LIG d   1       4.462  -0.859  -5.569  0.00  0.00    -0.039 A 
ATOM     15  H   LIG d   1       5.428  -2.222  -4.237  0.00  0.00     0.063 H 
ATOM     16  H   LIG d   1       5.205  -0.970  -6.344  0.00  0.00     0.064 H 
ENDBRANCH   4   6
BRANCH   1  17
ATOM     17  C   LIG d   1       2.498   0.028 -10.493  0.00  0.00     0.032 C 
ATOM     18  H   LIG d   1       2.009  -0.920 -10.270  0.00  0.00     0.045 H 
ATOM     19  H   LIG d   1       1.844   0.637 -11.118  0.00  0.00     0.045 H 
ATOM     20  H   LIG d   1       3.433  -0.160 -11.022  0.00  0.00     0.045 H 
ENDBRANCH   1  17
BRANCH   1  21
ATOM     21  O   LIG d   1       2.823   2.155  -9.229  0.00  0.00    -0.280 OA
BRANCH  21  22
ATOM     22  C   LIG d   1       4.126   2.700  -9.449  0.00  0.00     0.062 C 
ATOM     23  H   LIG d   1       4.273   2.868 -10.516  0.00  0.00     0.055 H 
ATOM     24  H   LIG d   1       4.218   3.646  -8.916  0.00  0.00     0.055 H 
ATOM     25  H   LIG d   1       4.878   2.002  -9.084  0.00  0.00     0.055 H 
ENDBRANCH  21  22
ENDBRANCH   1  21
TORSDOF 4
ENDMDL
MODEL 4
REMARK VINA RESULT:      -4.6      4.932      6.721
REMARK  4 active torsions:
REMARK  status: ('A' for Active; 'I' for Inactive)
REMARK    1  A    between atoms: C_1  and  N_2 
REMARK       I    between atoms: N_2  and  C_3 
REMARK    2  A    between atoms: N_2  and  O_13 
REMARK       I    between atoms: C_3  and  N_5 
REMARK    3  A    between atoms: N_5  and  C_6 
REMARK    4  A    between atoms: O_13  and  C_14 
ROOT
ATOM      1  N   LIG d   1       9.085   2.747  -5.454  0.00  0.00    -0.168 N 
ATOM      2  C   LIG d   1       8.150   1.839  -5.113  0.00  0.00     0.329 C 
ATOM      3  O   LIG d   1       7.444   1.342  -5.968  0.00  0.00    -0.250 OA
ATOM      4  N   LIG d   1       7.998   1.480  -3.822  0.00  0.00    -0.268 N 
ATOM      5  H   LIG d   1       8.605   1.824  -3.149  0.00  0.00     0.156 HD
ENDROOT
BRANCH   4   6
ATOM      6  C   LIG d   1       6.965   0.610  -3.454  0.00  0.00     0.035 A 
ATOM      7  C   LIG d   1       7.127  -0.762  -3.596  0.00  0.00    -0.039 A 
ATOM      8  C   LIG d   1       6.108  -1.619  -3.226  0.00  0.00    -0.042 A 
ATOM      9  H   LIG d   1       8.051  -1.159  -3.989  0.00  0.00     0.064 H 
ATOM     10  C   LIG d   1       4.921  -1.110  -2.729  0.00  0.00     0.041 A 
ATOM     11  H   LIG d   1       6.236  -2.685  -3.332  0.00  0.00     0.063 H 
ATOM     12  C   LIG d   1       4.756   0.258  -2.592  0.00  0.00    -0.042 A 
ATOM     13 CL   LIG d   1       3.639  -2.188  -2.273  0.00  0.00    -0.084 Cl
ATOM     14  C   LIG d   1       5.774   1.118  -2.954  0.00  0.00    -0.039 A 
ATOM     15  H   LIG d   1       3.829   0.652  -2.202  0.00  0.00     0.063 H 
ATOM     16  H   LIG d   1       5.644   2.185  -2.847  0.00  0.00     0.064 H 
ENDBRANCH   4   6
BRANCH   1  17
ATOM     17  C   LIG d   1       9.249   3.138  -6.857  0.00  0.00     0.032 C 
ATOM     18  H   LIG d   1       8.381   2.812  -7.430  0.00  0.00     0.045 H 
ATOM     19  H   LIG d   1       9.343   4.222  -6.922  0.00  0.00     0.045 H 
ATOM     20  H   LIG d   1      10.147   2.671  -7.261  0.00  0.00     0.045 H 
ENDBRANCH   1  17
BRANCH   1  21
ATOM     21  O   LIG d   1       9.907   3.325  -4.457  0.00  0.00    -0.280 OA
BRANCH  21  22
ATOM     22  C   LIG d   1       9.680   4.721  -4.252  0.00  0.00     0.062 C 
ATOM     23  H   LIG d   1      10.627   5.256  -4.315  0.00  0.00     0.055 H 
ATOM     24  H   LIG d   1       9.000   5.094  -5.017  0.00  0.00     0.055 H 
ATOM     25  H   LIG d   1       9.240   4.876  -3.267  0.00  0.00     0.055 H 
ENDBRANCH  21  22
ENDBRANCH   1  21
TORSDOF 4
ENDMDL
MODEL 5
REMARK VINA RESULT:      -4.3      4.426      6.057
REMARK  4 active torsions:
REMARK  status: ('A' for Active; 'I' for Inactive)
REMARK    1  A    between atoms: C_1  and  N_2 
REMARK       I    between atoms: N_2  and  C_3 
REMARK    2  A    between atoms: N_2  and  O_13 
REMARK       I    between atoms: C_3  and  N_5 
REMARK    3  A    between atoms: N_5  and  C_6 
REMARK    4  A    between atoms: O_13  and  C_14 
ROOT
ATOM      1  N   LIG d   1       4.675  -0.312  -3.786  0.00  0.00    -0.168 N 
ATOM      2  C   LIG d   1       4.622  -0.271  -5.131  0.00  0.00     0.329 C 
ATOM      3  O   LIG d   1       5.572   0.147  -5.765  0.00  0.00    -0.250 OA
ATOM      4  N   LIG d   1       3.517  -0.695  -5.776  0.00  0.00    -0.268 N 
ATOM      5  H   LIG d   1       2.786  -1.092  -5.276  0.00  0.00     0.156 HD
ENDROOT
BRANCH   4   6
ATOM      6  C   LIG d   1       3.424  -0.564  -7.167  0.00  0.00     0.035 A 
ATOM      7  C   LIG d   1       2.928   0.607  -7.724  0.00  0.00    -0.039 A 
ATOM      8  C   LIG d   1       2.843   0.736  -9.097  0.00  0.00    -0.042 A 
ATOM      9  H   LIG d   1       2.615   1.419  -7.084  0.00  0.00     0.064 H 
ATOM     10  C   LIG d   1       3.238  -0.307  -9.916  0.00  0.00     0.041 A 
ATOM     11  H   LIG d   1       2.462   1.648  -9.530  0.00  0.00     0.063 H 
ATOM     12  C   LIG d   1       3.728  -1.477  -9.363  0.00  0.00    -0.042 A 
ATOM     13 CL   LIG d   1       3.123  -0.145 -11.641  0.00  0.00    -0.084 Cl
ATOM     14  C   LIG d   1       3.821  -1.609  -7.991  0.00  0.00    -0.039 A 
ATOM     15  H   LIG d   1       4.037  -2.289 -10.005  0.00  0.00     0.063 H 
ATOM     16  H   LIG d   1       4.202  -2.522  -7.560  0.00  0.00     0.064 H 
ENDBRANCH   4   6
BRANCH   1  17
ATOM     17  C   LIG d   1       5.876   0.150  -3.085  0.00  0.00     0.032 C 
ATOM     18  H   LIG d   1       6.584  -0.674  -2.993  0.00  0.00     0.045 H 
ATOM     19  H   LIG d   1       6.335   0.963  -3.650  0.00  0.00     0.045 H 
ATOM     20  H   LIG d   1       5.602   0.507  -2.092  0.00  0.00     0.045 H 
ENDBRANCH   1  17
BRANCH   1  21
ATOM     21  O   LIG d   1       3.568  -0.800  -3.048  0.00  0.00    -0.280 OA
BRANCH  21  22
ATOM     22  C   LIG d   1       3.810  -2.044  -2.390  0.00  0.00     0.062 C 
ATOM     23  H   LIG d   1       3.770  -1.897  -1.311  0.00  0.00     0.055 H 
ATOM     24  H   LIG d   1       3.050  -2.766  -2.687  0.00  0.00     0.055 H 
ATOM     25  H   LIG d   1       4.795  -2.418  -2.668  0.00  0.00     0.055 H 
ENDBRANCH  21  22
ENDBRANCH   1  21
TORSDOF 4
ENDMDL
MODEL 6
REMARK VINA RESULT:      -4.1      3.383      3.964
REMARK  4 active torsions:
REMARK  status: ('A' for Active; 'I' for Inactive)
REMARK    1  A    between atoms: C_1  and  N_2 
REMARK       I    between atoms: N_2  and  C_3 
REMARK    2  A    between atoms: N_2  and  O_13 
REMARK       I    between atoms: C_3  and  N_5 
REMARK    3  A    between atoms: N_5  and  C_6 
REMARK    4  A    between atoms: O_13  and  C_14 
ROOT
ATOM      1  N   LIG d   1       9.195  -3.097  -5.370  0.00  0.00    -0.168 N 
ATOM      2  C   LIG d   1       8.114  -2.379  -5.008  0.00  0.00     0.329 C 
ATOM      3  O   LIG d   1       7.292  -2.055  -5.843  0.00  0.00    -0.250 OA
ATOM      4  N   LIG d   1       7.944  -2.018  -3.720  0.00  0.00    -0.268 N 
ATOM      5  H   LIG d   1       8.564  -2.333  -3.043  0.00  0.00     0.156 HD
ENDROOT
BRANCH   4   6
ATOM      6  C   LIG d   1       6.874  -1.191  -3.360  0.00  0.00     0.035 A 
ATOM      7  C   LIG d   1       5.691  -1.748  -2.890  0.00  0.00    -0.039 A 
ATOM      8  C   LIG d   1       4.639  -0.929  -2.529  0.00  0.00    -0.042 A 
ATOM      9  H   LIG d   1       5.597  -2.820  -2.801  0.00  0.00     0.064 H 
ATOM     10  C   LIG d   1       4.757   0.444  -2.649  0.00  0.00     0.041 A 
ATOM     11  H   LIG d   1       3.722  -1.362  -2.160  0.00  0.00     0.063 H 
ATOM     12  C   LIG d   1       5.933   1.001  -3.122  0.00  0.00    -0.042 A 
ATOM     13 CL   LIG d   1       3.430   1.471  -2.203  0.00  0.00    -0.084 Cl
ATOM     14  C   LIG d   1       6.991   0.188  -3.478  0.00  0.00    -0.039 A 
ATOM     15  H   LIG d   1       6.023   2.074  -3.213  0.00  0.00     0.063 H 
ATOM     16  H   LIG d   1       7.907   0.622  -3.847  0.00  0.00     0.064 H 
ENDBRANCH   4   6
BRANCH   1  17
ATOM     17  C   LIG d   1       9.380  -3.488  -6.770  0.00  0.00     0.032 C 
ATOM     18  H   LIG d   1       8.450  -3.334  -7.317  0.00  0.00     0.045 H 
ATOM     19  H   LIG d   1      10.169  -2.880  -7.214  0.00  0.00     0.045 H 
ATOM     20  H   LIG d   1       9.661  -4.540  -6.819  0.00  0.00     0.045 H 
ENDBRANCH   1  17
BRANCH   1  21
ATOM     21  O   LIG d   1      10.153  -3.474  -4.397  0.00  0.00    -0.280 OA
BRANCH  21  22
ATOM     22  C   LIG d   1      10.244  -4.884  -4.184  0.00  0.00     0.062 C 
ATOM     23  H   LIG d   1       9.758  -5.140  -3.243  0.00  0.00     0.055 H 
ATOM     24  H   LIG d   1       9.750  -5.407  -5.003  0.00  0.00     0.055 H 
ATOM     25  H   LIG d   1      11.292  -5.179  -4.144  0.00  0.00     0.055 H 
ENDBRANCH  21  22
ENDBRANCH   1  21
TORSDOF 4
ENDMDL
MODEL 7
REMARK VINA RESULT:      -4.0     10.398     12.105
REMARK  4 active torsions:
REMARK  status: ('A' for Active; 'I' for Inactive)
REMARK    1  A    between atoms: C_1  and  N_2 
REMARK       I    between atoms: N_2  and  C_3 
REMARK    2  A    between atoms: N_2  and  O_13 
REMARK       I    between atoms: C_3  and  N_5 
REMARK    3  A    between atoms: N_5  and  C_6 
REMARK    4  A    between atoms: O_13  and  C_14 
ROOT
ATOM      1  N   LIG d   1       9.764   7.421  -1.038  0.00  0.00    -0.168 N 
ATOM      2  C   LIG d   1      10.001   6.861  -2.240  0.00  0.00     0.329 C 
ATOM      3  O   LIG d   1      11.064   6.313  -2.455  0.00  0.00    -0.250 OA
ATOM      4  N   LIG d   1       9.060   6.909  -3.204  0.00  0.00    -0.268 N 
ATOM      5  H   LIG d   1       8.188   7.287  -3.012  0.00  0.00     0.156 HD
ENDROOT
BRANCH   4   6
ATOM      6  C   LIG d   1       9.342   6.413  -4.483  0.00  0.00     0.035 A 
ATOM      7  C   LIG d   1       9.589   7.290  -5.531  0.00  0.00    -0.039 A 
ATOM      8  C   LIG d   1       9.873   6.797  -6.790  0.00  0.00    -0.042 A 
ATOM      9  H   LIG d   1       9.565   8.356  -5.360  0.00  0.00     0.064 H 
ATOM     10  C   LIG d   1       9.897   5.431  -7.010  0.00  0.00     0.041 A 
ATOM     11  H   LIG d   1      10.070   7.479  -7.603  0.00  0.00     0.063 H 
ATOM     12  C   LIG d   1       9.646   4.556  -5.968  0.00  0.00    -0.042 A 
ATOM     13 CL   LIG d   1      10.247   4.815  -8.595  0.00  0.00    -0.084 Cl
ATOM     14  C   LIG d   1       9.368   5.042  -4.706  0.00  0.00    -0.039 A 
ATOM     15  H   LIG d   1       9.667   3.490  -6.143  0.00  0.00     0.063 H 
ATOM     16  H   LIG d   1       9.172   4.359  -3.894  0.00  0.00     0.064 H 
ENDBRANCH   4   6
BRANCH   1  17
ATOM     17  C   LIG d   1      10.787   7.371   0.010  0.00  0.00     0.032 C 
ATOM     18  H   LIG d   1      11.609   6.733  -0.316  0.00  0.00     0.045 H 
ATOM     19  H   LIG d   1      11.160   8.378   0.201  0.00  0.00     0.045 H 
ATOM     20  H   LIG d   1      10.351   6.965   0.923  0.00  0.00     0.045 H 
ENDBRANCH   1  17
BRANCH   1  21
ATOM     21  O   LIG d   1       8.525   8.061  -0.788  0.00  0.00    -0.280 OA
BRANCH  21  22
ATOM     22  C   LIG d   1       8.607   9.486  -0.727  0.00  0.00     0.062 C 
ATOM     23  H   LIG d   1       7.649   9.891  -0.403  0.00  0.00     0.055 H 
ATOM     24  H   LIG d   1       9.382   9.775  -0.016  0.00  0.00     0.055 H 
ATOM     25  H   LIG d   1       8.854   9.879  -1.712  0.00  0.00     0.055 H 
ENDBRANCH  21  22
ENDBRANCH   1  21
TORSDOF 4
ENDMDL
MODEL 8
REMARK VINA RESULT:      -3.9      6.142      6.819
REMARK  4 active torsions:
REMARK  status: ('A' for Active; 'I' for Inactive)
REMARK    1  A    between atoms: C_1  and  N_2 
REMARK       I    between atoms: N_2  and  C_3 
REMARK    2  A    between atoms: N_2  and  O_13 
REMARK       I    between atoms: C_3  and  N_5 
REMARK    3  A    between atoms: N_5  and  C_6 
REMARK    4  A    between atoms: O_13  and  C_14 
ROOT
ATOM      1  N   LIG d   1       0.678  -4.342 -10.634  0.00  0.00    -0.168 N 
ATOM      2  C   LIG d   1       1.490  -3.293 -10.396  0.00  0.00     0.329 C 
ATOM      3  O   LIG d   1       2.575  -3.470  -9.875  0.00  0.00    -0.250 OA
ATOM      4  N   LIG d   1       1.101  -2.048 -10.735  0.00  0.00    -0.268 N 
ATOM      5  H   LIG d   1       0.267  -1.914 -11.210  0.00  0.00     0.156 HD
ENDROOT
BRANCH   4   6
ATOM      6  C   LIG d   1       1.902  -0.949 -10.401  0.00  0.00     0.035 A 
ATOM      7  C   LIG d   1       1.811  -0.379  -9.138  0.00  0.00    -0.039 A 
ATOM      8  C   LIG d   1       2.606   0.701  -8.810  0.00  0.00    -0.042 A 
ATOM      9  H   LIG d   1       1.122  -0.784  -8.411  0.00  0.00     0.064 H 
ATOM     10  C   LIG d   1       3.484   1.224  -9.743  0.00  0.00     0.041 A 
ATOM     11  H   LIG d   1       2.539   1.141  -7.826  0.00  0.00     0.063 H 
ATOM     12  C   LIG d   1       3.573   0.661 -11.004  0.00  0.00    -0.042 A 
ATOM     13 CL   LIG d   1       4.477   2.587  -9.330  0.00  0.00    -0.084 Cl
ATOM     14  C   LIG d   1       2.785  -0.423 -11.335  0.00  0.00    -0.039 A 
ATOM     15  H   LIG d   1       4.260   1.071 -11.730  0.00  0.00     0.063 H 
ATOM     16  H   LIG d   1       2.854  -0.862 -12.320  0.00  0.00     0.064 H 
ENDBRANCH   4   6
BRANCH   1  17
ATOM     17  C   LIG d   1       1.101  -5.695 -10.264  0.00  0.00     0.032 C 
ATOM     18  H   LIG d   1       1.062  -6.341 -11.141  0.00  0.00     0.045 H 
ATOM     19  H   LIG d   1       2.121  -5.664  -9.880  0.00  0.00     0.045 H 
ATOM     20  H   LIG d   1       0.435  -6.086  -9.495  0.00  0.00     0.045 H 
ENDBRANCH   1  17
BRANCH   1  21
ATOM     21  O   LIG d   1      -0.585  -4.135 -11.240  0.00  0.00    -0.280 OA
BRANCH  21  22
ATOM     22  C   LIG d   1      -1.635  -4.928 -10.683  0.00  0.00     0.062 C 
ATOM     23  H   LIG d   1      -1.818  -5.789 -11.324  0.00  0.00     0.055 H 
ATOM     24  H   LIG d   1      -1.345  -5.269  -9.689  0.00  0.00     0.055 H 
ATOM     25  H   LIG d   1      -2.543  -4.330 -10.610  0.00  0.00     0.055 H 
ENDBRANCH  21  22
ENDBRANCH   1  21
TORSDOF 4
ENDMDL
MODEL 9
REMARK VINA RESULT:      -3.9     15.263     16.208
REMARK  4 active torsions:
REMARK  status: ('A' for Active; 'I' for Inactive)
REMARK    1  A    between atoms: C_1  and  N_2 
REMARK       I    between atoms: N_2  and  C_3 
REMARK    2  A    between atoms: N_2  and  O_13 
REMARK       I    between atoms: C_3  and  N_5 
REMARK    3  A    between atoms: N_5  and  C_6 
REMARK    4  A    between atoms: O_13  and  C_14 
ROOT
ATOM      1  N   LIG d   1      -4.235   4.115 -13.882  0.00  0.00    -0.168 N 
ATOM      2  C   LIG d   1      -3.867   5.267 -14.476  0.00  0.00     0.329 C 
ATOM      3  O   LIG d   1      -3.953   5.384 -15.683  0.00  0.00    -0.250 OA
ATOM      4  N   LIG d   1      -3.404   6.292 -13.732  0.00  0.00    -0.268 N 
ATOM      5  H   LIG d   1      -3.398   6.224 -12.764  0.00  0.00     0.156 HD
ENDROOT
BRANCH   4   6
ATOM      6  C   LIG d   1      -2.932   7.453 -14.356  0.00  0.00     0.035 A 
ATOM      7  C   LIG d   1      -1.587   7.569 -14.684  0.00  0.00    -0.039 A 
ATOM      8  C   LIG d   1      -1.126   8.713 -15.305  0.00  0.00    -0.042 A 
ATOM      9  H   LIG d   1      -0.905   6.763 -14.459  0.00  0.00     0.064 H 
ATOM     10  C   LIG d   1      -1.999   9.749 -15.587  0.00  0.00     0.041 A 
ATOM     11  H   LIG d   1      -0.082   8.802 -15.565  0.00  0.00     0.063 H 
ATOM     12  C   LIG d   1      -3.338   9.637 -15.256  0.00  0.00    -0.042 A 
ATOM     13 CL   LIG d   1      -1.415  11.189 -16.361  0.00  0.00    -0.084 Cl
ATOM     14  C   LIG d   1      -3.806   8.493 -14.641  0.00  0.00    -0.039 A 
ATOM     15  H   LIG d   1      -4.018  10.447 -15.479  0.00  0.00     0.063 H 
ATOM     16  H   LIG d   1      -4.851   8.406 -14.382  0.00  0.00     0.064 H 
ENDBRANCH   4   6
BRANCH   1  17
ATOM     17  C   LIG d   1      -4.737   3.002 -14.691  0.00  0.00     0.032 C 
ATOM     18  H   LIG d   1      -4.710   2.084 -14.104  0.00  0.00     0.045 H 
ATOM     19  H   LIG d   1      -5.764   3.209 -14.996  0.00  0.00     0.045 H 
ATOM     20  H   LIG d   1      -4.112   2.886 -15.577  0.00  0.00     0.045 H 
ENDBRANCH   1  17
BRANCH   1  21
ATOM     21  O   LIG d   1      -4.134   3.980 -12.476  0.00  0.00    -0.280 OA
BRANCH  21  22
ATOM     22  C   LIG d   1      -5.257   3.337 -11.870  0.00  0.00     0.062 C 
ATOM     23  H   LIG d   1      -6.157   3.566 -12.441  0.00  0.00     0.055 H 
ATOM     24  H   LIG d   1      -5.096   2.259 -11.861  0.00  0.00     0.055 H 
ATOM     25  H   LIG d   1      -5.373   3.695 -10.848  0.00  0.00     0.055 H 
ENDBRANCH  21  22
ENDBRANCH   1  21
TORSDOF 4
ENDMDL
MODEL 10
REMARK VINA RESULT:      -3.8      9.533     11.025
REMARK  4 active torsions:
REMARK  status: ('A' for Active; 'I' for Inactive)
REMARK    1  A    between atoms: C_1  and  N_2 
REMARK       I    between atoms: N_2  and  C_3 
REMARK    2  A    between atoms: N_2  and  O_13 
REMARK       I    between atoms: C_3  and  N_5 
REMARK    3  A    between atoms: N_5  and  C_6 
REMARK    4  A    between atoms: O_13  and  C_14 
ROOT
ATOM      1  N   LIG d   1      10.568   3.374  -2.947  0.00  0.00    -0.168 N 
ATOM      2  C   LIG d   1      10.990   4.408  -2.192  0.00  0.00     0.329 C 
ATOM      3  O   LIG d   1      12.178   4.642  -2.091  0.00  0.00    -0.250 OA
ATOM      4  N   LIG d   1      10.093   5.183  -1.549  0.00  0.00    -0.268 N 
ATOM      5  H   LIG d   1       9.144   5.039  -1.683  0.00  0.00     0.156 HD
ENDROOT
BRANCH   4   6
ATOM      6  C   LIG d   1      10.534   6.196  -0.689  0.00  0.00     0.035 A 
ATOM      7  C   LIG d   1      10.644   7.501  -1.150  0.00  0.00    -0.039 A 
ATOM      8  C   LIG d   1      11.072   8.500  -0.297  0.00  0.00    -0.042 A 
ATOM      9  H   LIG d   1      10.389   7.736  -2.173  0.00  0.00     0.064 H 
ATOM     10  C   LIG d   1      11.405   8.198   1.012  0.00  0.00     0.041 A 
ATOM     11  H   LIG d   1      11.154   9.515  -0.654  0.00  0.00     0.063 H 
ATOM     12  C   LIG d   1      11.301   6.896   1.472  0.00  0.00    -0.042 A 
ATOM     13 CL   LIG d   1      11.951   9.453   2.080  0.00  0.00    -0.084 Cl
ATOM     14  C   LIG d   1      10.867   5.895   0.625  0.00  0.00    -0.039 A 
ATOM     15  H   LIG d   1      11.560   6.664   2.495  0.00  0.00     0.063 H 
ATOM     16  H   LIG d   1      10.786   4.880   0.985  0.00  0.00     0.064 H 
ENDBRANCH   4   6
BRANCH   1  17
ATOM     17  C   LIG d   1      11.543   2.532  -3.645  0.00  0.00     0.032 C 
ATOM     18  H   LIG d   1      11.053   2.017  -4.472  0.00  0.00     0.045 H 
ATOM     19  H   LIG d   1      12.350   3.155  -4.031  0.00  0.00     0.045 H 
ATOM     20  H   LIG d   1      11.951   1.798  -2.950  0.00  0.00     0.045 H 
ENDBRANCH   1  17
BRANCH   1  21
ATOM     21  O   LIG d   1       9.183   3.102  -3.065  0.00  0.00    -0.280 OA
BRANCH  21  22
ATOM     22  C   LIG d   1       8.883   1.923  -3.813  0.00  0.00     0.062 C 
ATOM     23  H   LIG d   1       9.142   1.044  -3.224  0.00  0.00     0.055 H 
ATOM     24  H   LIG d   1       7.819   1.903  -4.048  0.00  0.00     0.055 H 
ATOM     25  H   LIG d   1       9.459   1.923  -4.738  0.00  0.00     0.055 H 
ENDBRANCH  21  22
ENDBRANCH   1  21
TORSDOF 4
ENDMDL
