MODEL 1
REMARK VINA RESULT:      -6.7      0.000      0.000
REMARK  2 active torsions:
REMARK  status: ('A' for Active; 'I' for Inactive)
REMARK    1  A    between atoms: C_1  and  C_2 
REMARK    2  A    between atoms: N_21  and  C_24 
ROOT
ATOM      1  C   LIG d   1       2.752   0.300  -7.864  0.00  0.00     0.064 C 
ATOM      2  H   LIG d   1       1.665   0.371  -7.911  0.00  0.00     0.056 H 
ATOM      3  C   LIG d   1       3.188   0.058  -6.437  0.00  0.00     0.041 A 
ATOM      4  C   LIG d   1       4.065  -0.904  -6.077  0.00  0.00    -0.015 A 
ATOM      5  C   LIG d   1       4.229  -0.813  -4.640  0.00  0.00     0.003 A 
ATOM      6  C   LIG d   1       5.001  -1.539  -3.727  0.00  0.00    -0.052 A 
ATOM      7  C   LIG d   1       4.908  -1.171  -2.407  0.00  0.00    -0.061 A 
ATOM      8  C   LIG d   1       4.093  -0.133  -1.989  0.00  0.00    -0.060 A 
ATOM      9  C   LIG d   1       3.320   0.603  -2.871  0.00  0.00    -0.038 A 
ATOM     10  C   LIG d   1       3.394   0.252  -4.217  0.00  0.00     0.047 A 
ATOM     11  N   LIG d   1       2.782   0.754  -5.330  0.00  0.00    -0.356 N 
ATOM     12  H   LIG d   1       2.152   1.494  -5.335  0.00  0.00     0.166 HD
ATOM     13  C   LIG d   1       4.720  -1.868  -7.033  0.00  0.00     0.002 C 
ATOM     14  C   LIG d   1       4.585  -1.320  -8.461  0.00  0.00     0.107 A 
ATOM     15  H   LIG d   1       5.258  -0.469  -8.576  0.00  0.00     0.060 H 
ATOM     16  N   LIG d   1       3.216  -0.850  -8.668  0.00  0.00    -0.280 N 
ATOM     17  C   LIG d   1       2.381  -1.405  -9.547  0.00  0.00     0.234 A 
ATOM     18  O   LIG d   1       1.246  -0.981  -9.591  0.00  0.00    -0.274 OA
ATOM     19  C   LIG d   1       2.747  -2.514 -10.479  0.00  0.00     0.091 A 
ATOM     20  N   LIG d   1       4.140  -2.905 -10.340  0.00  0.00    -0.294 N 
ATOM     21  C   LIG d   1       4.972  -2.377  -9.444  0.00  0.00     0.237 A 
ATOM     22  O   LIG d   1       6.116  -2.781  -9.424  0.00  0.00    -0.274 OA
ATOM     23  H   LIG d   1       5.640  -2.350  -4.046  0.00  0.00     0.062 H 
ATOM     24  H   LIG d   1       5.489  -1.710  -1.673  0.00  0.00     0.062 H 
ATOM     25  H   LIG d   1       4.059   0.112  -0.938  0.00  0.00     0.062 H 
ATOM     26  H   LIG d   1       2.690   1.410  -2.531  0.00  0.00     0.064 H 
ATOM     27  H   LIG d   1       4.227  -2.839  -6.968  0.00  0.00     0.034 H 
ATOM     28  H   LIG d   1       5.775  -1.975  -6.780  0.00  0.00     0.034 H 
ATOM     29  H   LIG d   1       2.571  -2.187 -11.504  0.00  0.00     0.056 H 
ATOM     30  H   LIG d   1       2.115  -3.376 -10.269  0.00  0.00     0.056 H 
ENDROOT
BRANCH   1  31
ATOM     31  C   LIG d   1       3.382   1.592  -8.388  0.00  0.00    -0.041 C 
ATOM     32  H   LIG d   1       3.041   2.433  -7.785  0.00  0.00     0.025 H 
ATOM     33  H   LIG d   1       4.467   1.516  -8.327  0.00  0.00     0.025 H 
ATOM     34  H   LIG d   1       3.086   1.746  -9.426  0.00  0.00     0.025 H 
ENDBRANCH   1  31
BRANCH  20  35
ATOM     35  C   LIG d   1       4.660  -3.939 -11.238  0.00  0.00     0.004 C 
ATOM     36  H   LIG d   1       3.856  -4.627 -11.504  0.00  0.00     0.043 H 
ATOM     37  H   LIG d   1       5.052  -3.472 -12.142  0.00  0.00     0.043 H 
ATOM     38  H   LIG d   1       5.456  -4.489 -10.738  0.00  0.00     0.043 H 
ENDBRANCH  20  35
TORSDOF 2
ENDMDL
MODEL 2
REMARK VINA RESULT:      -6.5      3.252      4.103
REMARK  2 active torsions:
REMARK  status: ('A' for Active; 'I' for Inactive)
REMARK    1  A    between atoms: C_1  and  C_2 
REMARK    2  A    between atoms: N_21  and  C_24 
ROOT
ATOM      1  C   LIG d   1       4.327  -2.784  -6.729  0.00  0.00     0.064 C 
ATOM      2  H   LIG d   1       3.316  -3.067  -7.024  0.00  0.00     0.056 H 
ATOM      3  C   LIG d   1       4.270  -1.827  -5.560  0.00  0.00     0.041 A 
ATOM      4  C   LIG d   1       5.012  -1.972  -4.440  0.00  0.00    -0.015 A 
ATOM      5  C   LIG d   1       4.684  -0.863  -3.568  0.00  0.00     0.003 A 
ATOM      6  C   LIG d   1       5.133  -0.494  -2.296  0.00  0.00    -0.052 A 
ATOM      7  C   LIG d   1       4.591   0.646  -1.754  0.00  0.00    -0.061 A 
ATOM      8  C   LIG d   1       3.645   1.402  -2.427  0.00  0.00    -0.060 A 
ATOM      9  C   LIG d   1       3.185   1.061  -3.686  0.00  0.00    -0.038 A 
ATOM     10  C   LIG d   1       3.716  -0.091  -4.261  0.00  0.00     0.047 A 
ATOM     11  N   LIG d   1       3.492  -0.704  -5.461  0.00  0.00    -0.356 N 
ATOM     12  H   LIG d   1       2.874  -0.391  -6.140  0.00  0.00     0.166 HD
ATOM     13  C   LIG d   1       5.983  -3.098  -4.195  0.00  0.00     0.002 C 
ATOM     14  C   LIG d   1       6.313  -3.770  -5.536  0.00  0.00     0.107 A 
ATOM     15  H   LIG d   1       6.954  -3.104  -6.115  0.00  0.00     0.060 H 
ATOM     16  N   LIG d   1       5.075  -3.979  -6.286  0.00  0.00    -0.280 N 
ATOM     17  C   LIG d   1       4.602  -5.188  -6.589  0.00  0.00     0.234 A 
ATOM     18  O   LIG d   1       3.532  -5.249  -7.156  0.00  0.00    -0.274 OA
ATOM     19  C   LIG d   1       5.299  -6.472  -6.276  0.00  0.00     0.091 A 
ATOM     20  N   LIG d   1       6.579  -6.253  -5.624  0.00  0.00    -0.294 N 
ATOM     21  C   LIG d   1       7.044  -5.051  -5.290  0.00  0.00     0.237 A 
ATOM     22  O   LIG d   1       8.130  -4.991  -4.753  0.00  0.00    -0.274 OA
ATOM     23  H   LIG d   1       5.870  -1.078  -1.765  0.00  0.00     0.062 H 
ATOM     24  H   LIG d   1       4.913   0.962  -0.773  0.00  0.00     0.062 H 
ATOM     25  H   LIG d   1       3.253   2.289  -1.952  0.00  0.00     0.062 H 
ATOM     26  H   LIG d   1       2.448   1.659  -4.200  0.00  0.00     0.064 H 
ATOM     27  H   LIG d   1       5.533  -3.829  -3.523  0.00  0.00     0.034 H 
ATOM     28  H   LIG d   1       6.896  -2.703  -3.750  0.00  0.00     0.034 H 
ATOM     29  H   LIG d   1       5.463  -7.021  -7.204  0.00  0.00     0.056 H 
ATOM     30  H   LIG d   1       4.665  -7.069  -5.620  0.00  0.00     0.056 H 
ENDROOT
BRANCH   1  31
ATOM     31  C   LIG d   1       5.047  -2.124  -7.907  0.00  0.00    -0.041 C 
ATOM     32  H   LIG d   1       6.007  -2.614  -8.067  0.00  0.00     0.025 H 
ATOM     33  H   LIG d   1       4.436  -2.218  -8.805  0.00  0.00     0.025 H 
ATOM     34  H   LIG d   1       5.210  -1.069  -7.688  0.00  0.00     0.025 H 
ENDBRANCH   1  31
BRANCH  20  35
ATOM     35  C   LIG d   1       7.406  -7.422  -5.316  0.00  0.00     0.004 C 
ATOM     36  H   LIG d   1       8.195  -7.137  -4.618  0.00  0.00     0.043 H 
ATOM     37  H   LIG d   1       6.787  -8.198  -4.865  0.00  0.00     0.043 H 
ATOM     38  H   LIG d   1       7.855  -7.802  -6.233  0.00  0.00     0.043 H 
ENDBRANCH  20  35
TORSDOF 2
ENDMDL
MODEL 3
REMARK VINA RESULT:      -6.4      5.619      7.428
REMARK  2 active torsions:
REMARK  status: ('A' for Active; 'I' for Inactive)
REMARK    1  A    between atoms: C_1  and  C_2 
REMARK    2  A    between atoms: N_21  and  C_24 
ROOT
ATOM      1  C   LIG d   1       9.119  -0.263  -5.249  0.00  0.00     0.064 C 
ATOM      2  H   LIG d   1       9.773  -1.075  -4.933  0.00  0.00     0.056 H 
ATOM      3  C   LIG d   1       7.850  -0.277  -4.426  0.00  0.00     0.041 A 
ATOM      4  C   LIG d   1       7.336   0.820  -3.829  0.00  0.00    -0.015 A 
ATOM      5  C   LIG d   1       6.126   0.405  -3.149  0.00  0.00     0.003 A 
ATOM      6  C   LIG d   1       5.187   1.099  -2.378  0.00  0.00    -0.052 A 
ATOM      7  C   LIG d   1       4.138   0.370  -1.875  0.00  0.00    -0.061 A 
ATOM      8  C   LIG d   1       4.005  -0.988  -2.113  0.00  0.00    -0.060 A 
ATOM      9  C   LIG d   1       4.918  -1.699  -2.874  0.00  0.00    -0.038 A 
ATOM     10  C   LIG d   1       5.993  -0.985  -3.397  0.00  0.00     0.047 A 
ATOM     11  N   LIG d   1       7.053  -1.361  -4.173  0.00  0.00    -0.356 N 
ATOM     12  H   LIG d   1       7.216  -2.262  -4.495  0.00  0.00     0.166 HD
ATOM     13  C   LIG d   1       7.949   2.196  -3.890  0.00  0.00     0.002 C 
ATOM     14  C   LIG d   1       8.953   2.241  -5.051  0.00  0.00     0.107 A 
ATOM     15  H   LIG d   1       8.402   2.250  -5.992  0.00  0.00     0.060 H 
ATOM     16  N   LIG d   1       9.781   1.037  -5.017  0.00  0.00    -0.280 N 
ATOM     17  C   LIG d   1      11.096   1.063  -4.795  0.00  0.00     0.234 A 
ATOM     18  O   LIG d   1      11.676   0.001  -4.721  0.00  0.00    -0.274 OA
ATOM     19  C   LIG d   1      11.901   2.310  -4.630  0.00  0.00     0.091 A 
ATOM     20  N   LIG d   1      11.088   3.507  -4.769  0.00  0.00    -0.294 N 
ATOM     21  C   LIG d   1       9.771   3.489  -4.960  0.00  0.00     0.237 A 
ATOM     22  O   LIG d   1       9.198   4.553  -5.066  0.00  0.00    -0.274 OA
ATOM     23  H   LIG d   1       5.284   2.158  -2.188  0.00  0.00     0.062 H 
ATOM     24  H   LIG d   1       3.394   0.871  -1.274  0.00  0.00     0.062 H 
ATOM     25  H   LIG d   1       3.160  -1.511  -1.692  0.00  0.00     0.062 H 
ATOM     26  H   LIG d   1       4.802  -2.757  -3.052  0.00  0.00     0.064 H 
ATOM     27  H   LIG d   1       8.466   2.408  -2.953  0.00  0.00     0.034 H 
ATOM     28  H   LIG d   1       7.167   2.938  -4.053  0.00  0.00     0.034 H 
ATOM     29  H   LIG d   1      12.688   2.326  -5.384  0.00  0.00     0.056 H 
ATOM     30  H   LIG d   1      12.360   2.307  -3.641  0.00  0.00     0.056 H 
ENDROOT
BRANCH   1  31
ATOM     31  C   LIG d   1       8.777  -0.418  -6.733  0.00  0.00    -0.041 C 
ATOM     32  H   LIG d   1       8.418   0.533  -7.125  0.00  0.00     0.025 H 
ATOM     33  H   LIG d   1       9.669  -0.724  -7.280  0.00  0.00     0.025 H 
ATOM     34  H   LIG d   1       8.002  -1.175  -6.851  0.00  0.00     0.025 H 
ENDBRANCH   1  31
BRANCH  20  35
ATOM     35  C   LIG d   1      11.757   4.808  -4.696  0.00  0.00     0.004 C 
ATOM     36  H   LIG d   1      12.543   4.856  -5.450  0.00  0.00     0.043 H 
ATOM     37  H   LIG d   1      11.031   5.601  -4.877  0.00  0.00     0.043 H 
ATOM     38  H   LIG d   1      12.196   4.936  -3.707  0.00  0.00     0.043 H 
ENDBRANCH  20  35
TORSDOF 2
ENDMDL
MODEL 4
REMARK VINA RESULT:      -6.4      1.576      3.168
REMARK  2 active torsions:
REMARK  status: ('A' for Active; 'I' for Inactive)
REMARK    1  A    between atoms: C_1  and  C_2 
REMARK    2  A    between atoms: N_21  and  C_24 
ROOT
ATOM      1  C   LIG d   1       5.111  -2.730  -6.824  0.00  0.00     0.064 C 
ATOM      2  H   LIG d   1       6.176  -2.956  -6.871  0.00  0.00     0.056 H 
ATOM      3  C   LIG d   1       4.824  -1.864  -5.618  0.00  0.00     0.041 A 
ATOM      4  C   LIG d   1       4.086  -0.733  -5.671  0.00  0.00    -0.015 A 
ATOM      5  C   LIG d   1       4.035  -0.198  -4.325  0.00  0.00     0.003 A 
ATOM      6  C   LIG d   1       3.423   0.936  -3.780  0.00  0.00    -0.052 A 
ATOM      7  C   LIG d   1       3.588   1.140  -2.432  0.00  0.00    -0.061 A 
ATOM      8  C   LIG d   1       4.322   0.273  -1.641  0.00  0.00    -0.060 A 
ATOM      9  C   LIG d   1       4.937  -0.856  -2.154  0.00  0.00    -0.038 A 
ATOM     10  C   LIG d   1       4.787  -1.090  -3.519  0.00  0.00     0.047 A 
ATOM     11  N   LIG d   1       5.247  -2.084  -4.335  0.00  0.00    -0.356 N 
ATOM     12  H   LIG d   1       5.793  -2.834  -4.047  0.00  0.00     0.166 HD
ATOM     13  C   LIG d   1       3.458  -0.177  -6.923  0.00  0.00     0.002 C 
ATOM     14  C   LIG d   1       3.413  -1.281  -7.988  0.00  0.00     0.107 A 
ATOM     15  H   LIG d   1       2.648  -2.006  -7.712  0.00  0.00     0.060 H 
ATOM     16  N   LIG d   1       4.703  -1.968  -8.022  0.00  0.00    -0.280 N 
ATOM     17  C   LIG d   1       5.515  -1.942  -9.080  0.00  0.00     0.234 A 
ATOM     18  O   LIG d   1       6.592  -2.491  -8.977  0.00  0.00    -0.274 OA
ATOM     19  C   LIG d   1       5.189  -1.283 -10.380  0.00  0.00     0.091 A 
ATOM     20  N   LIG d   1       3.862  -0.692 -10.374  0.00  0.00    -0.294 N 
ATOM     21  C   LIG d   1       3.058  -0.686  -9.313  0.00  0.00     0.237 A 
ATOM     22  O   LIG d   1       1.969  -0.166  -9.429  0.00  0.00    -0.274 OA
ATOM     23  H   LIG d   1       2.849   1.617  -4.390  0.00  0.00     0.062 H 
ATOM     24  H   LIG d   1       3.131   2.006  -1.975  0.00  0.00     0.062 H 
ATOM     25  H   LIG d   1       4.419   0.484  -0.586  0.00  0.00     0.062 H 
ATOM     26  H   LIG d   1       5.506  -1.525  -1.526  0.00  0.00     0.064 H 
ATOM     27  H   LIG d   1       4.053   0.660  -7.289  0.00  0.00     0.034 H 
ATOM     28  H   LIG d   1       2.445   0.162  -6.704  0.00  0.00     0.034 H 
ATOM     29  H   LIG d   1       5.243  -2.026 -11.177  0.00  0.00     0.056 H 
ATOM     30  H   LIG d   1       5.924  -0.502 -10.575  0.00  0.00     0.056 H 
ENDROOT
BRANCH   1  31
ATOM     31  C   LIG d   1       4.307  -4.029  -6.732  0.00  0.00    -0.041 C 
ATOM     32  H   LIG d   1       3.251  -3.795  -6.604  0.00  0.00     0.025 H 
ATOM     33  H   LIG d   1       4.444  -4.605  -7.648  0.00  0.00     0.025 H 
ATOM     34  H   LIG d   1       4.656  -4.614  -5.880  0.00  0.00     0.025 H 
ENDBRANCH   1  31
BRANCH  20  35
ATOM     35  C   LIG d   1       3.380  -0.066 -11.608  0.00  0.00     0.004 C 
ATOM     36  H   LIG d   1       4.177   0.536 -12.047  0.00  0.00     0.043 H 
ATOM     37  H   LIG d   1       3.078  -0.839 -12.315  0.00  0.00     0.043 H 
ATOM     38  H   LIG d   1       2.527   0.573 -11.382  0.00  0.00     0.043 H 
ENDBRANCH  20  35
TORSDOF 2
ENDMDL
MODEL 5
REMARK VINA RESULT:      -6.3      4.083      4.819
REMARK  2 active torsions:
REMARK  status: ('A' for Active; 'I' for Inactive)
REMARK    1  A    between atoms: C_1  and  C_2 
REMARK    2  A    between atoms: N_21  and  C_24 
ROOT
ATOM      1  C   LIG d   1       7.686  -2.887  -4.879  0.00  0.00     0.064 C 
ATOM      2  H   LIG d   1       8.323  -2.295  -5.535  0.00  0.00     0.056 H 
ATOM      3  C   LIG d   1       6.647  -1.998  -4.233  0.00  0.00     0.041 A 
ATOM      4  C   LIG d   1       5.330  -2.294  -4.197  0.00  0.00    -0.015 A 
ATOM      5  C   LIG d   1       4.671  -1.212  -3.494  0.00  0.00     0.003 A 
ATOM      6  C   LIG d   1       3.334  -0.977  -3.157  0.00  0.00    -0.052 A 
ATOM      7  C   LIG d   1       3.062   0.183  -2.474  0.00  0.00    -0.061 A 
ATOM      8  C   LIG d   1       4.055   1.083  -2.129  0.00  0.00    -0.060 A 
ATOM      9  C   LIG d   1       5.386   0.875  -2.449  0.00  0.00    -0.038 A 
ATOM     10  C   LIG d   1       5.692  -0.293  -3.142  0.00  0.00     0.047 A 
ATOM     11  N   LIG d   1       6.872  -0.802  -3.605  0.00  0.00    -0.356 N 
ATOM     12  H   LIG d   1       7.740  -0.379  -3.503  0.00  0.00     0.166 HD
ATOM     13  C   LIG d   1       4.713  -3.534  -4.793  0.00  0.00     0.002 C 
ATOM     14  C   LIG d   1       5.819  -4.569  -5.039  0.00  0.00     0.107 A 
ATOM     15  H   LIG d   1       6.142  -4.975  -4.080  0.00  0.00     0.060 H 
ATOM     16  N   LIG d   1       6.965  -3.910  -5.665  0.00  0.00    -0.280 N 
ATOM     17  C   LIG d   1       7.385  -4.194  -6.898  0.00  0.00     0.234 A 
ATOM     18  O   LIG d   1       8.303  -3.540  -7.345  0.00  0.00    -0.274 OA
ATOM     19  C   LIG d   1       6.801  -5.260  -7.766  0.00  0.00     0.091 A 
ATOM     20  N   LIG d   1       5.731  -5.982  -7.098  0.00  0.00    -0.294 N 
ATOM     21  C   LIG d   1       5.285  -5.685  -5.879  0.00  0.00     0.237 A 
ATOM     22  O   LIG d   1       4.389  -6.362  -5.422  0.00  0.00    -0.274 OA
ATOM     23  H   LIG d   1       2.553  -1.675  -3.422  0.00  0.00     0.062 H 
ATOM     24  H   LIG d   1       2.040   0.398  -2.197  0.00  0.00     0.062 H 
ATOM     25  H   LIG d   1       3.783   1.980  -1.592  0.00  0.00     0.062 H 
ATOM     26  H   LIG d   1       6.151   1.585  -2.173  0.00  0.00     0.064 H 
ATOM     27  H   LIG d   1       4.231  -3.283  -5.739  0.00  0.00     0.034 H 
ATOM     28  H   LIG d   1       3.975  -3.944  -4.103  0.00  0.00     0.034 H 
ATOM     29  H   LIG d   1       7.588  -5.964  -8.038  0.00  0.00     0.056 H 
ATOM     30  H   LIG d   1       6.407  -4.802  -8.673  0.00  0.00     0.056 H 
ENDROOT
BRANCH   1  31
ATOM     31  C   LIG d   1       8.535  -3.561  -3.799  0.00  0.00    -0.041 C 
ATOM     32  H   LIG d   1       9.516  -3.088  -3.759  0.00  0.00     0.025 H 
ATOM     33  H   LIG d   1       8.042  -3.457  -2.832  0.00  0.00     0.025 H 
ATOM     34  H   LIG d   1       8.652  -4.619  -4.035  0.00  0.00     0.025 H 
ENDBRANCH   1  31
BRANCH  20  35
ATOM     35  C   LIG d   1       5.108  -7.103  -7.806  0.00  0.00     0.004 C 
ATOM     36  H   LIG d   1       5.825  -7.920  -7.896  0.00  0.00     0.043 H 
ATOM     37  H   LIG d   1       4.236  -7.446  -7.249  0.00  0.00     0.043 H 
ATOM     38  H   LIG d   1       4.801  -6.780  -8.800  0.00  0.00     0.043 H 
ENDBRANCH  20  35
TORSDOF 2
ENDMDL
MODEL 6
REMARK VINA RESULT:      -6.3      2.032      2.906
REMARK  2 active torsions:
REMARK  status: ('A' for Active; 'I' for Inactive)
REMARK    1  A    between atoms: C_1  and  C_2 
REMARK    2  A    between atoms: N_21  and  C_24 
ROOT
ATOM      1  C   LIG d   1       6.343  -0.088  -7.678  0.00  0.00     0.064 C 
ATOM      2  H   LIG d   1       6.897   0.836  -7.839  0.00  0.00     0.056 H 
ATOM      3  C   LIG d   1       5.706  -0.072  -6.306  0.00  0.00     0.041 A 
ATOM      4  C   LIG d   1       4.410  -0.378  -6.081  0.00  0.00    -0.015 A 
ATOM      5  C   LIG d   1       4.186  -0.255  -4.655  0.00  0.00     0.003 A 
ATOM      6  C   LIG d   1       3.056  -0.447  -3.854  0.00  0.00    -0.052 A 
ATOM      7  C   LIG d   1       3.209  -0.232  -2.506  0.00  0.00    -0.061 A 
ATOM      8  C   LIG d   1       4.419   0.155  -1.955  0.00  0.00    -0.060 A 
ATOM      9  C   LIG d   1       5.553   0.351  -2.725  0.00  0.00    -0.038 A 
ATOM     10  C   LIG d   1       5.428   0.141  -4.096  0.00  0.00     0.047 A 
ATOM     11  N   LIG d   1       6.322   0.241  -5.124  0.00  0.00    -0.356 N 
ATOM     12  H   LIG d   1       7.254   0.495  -5.029  0.00  0.00     0.166 HD
ATOM     13  C   LIG d   1       3.424  -0.769  -7.152  0.00  0.00     0.002 C 
ATOM     14  C   LIG d   1       4.196  -1.180  -8.413  0.00  0.00     0.107 A 
ATOM     15  H   LIG d   1       4.664  -2.149  -8.239  0.00  0.00     0.060 H 
ATOM     16  N   LIG d   1       5.253  -0.202  -8.669  0.00  0.00    -0.280 N 
ATOM     17  C   LIG d   1       5.277   0.578  -9.750  0.00  0.00     0.234 A 
ATOM     18  O   LIG d   1       6.163   1.402  -9.830  0.00  0.00    -0.274 OA
ATOM     19  C   LIG d   1       4.288   0.508 -10.867  0.00  0.00     0.091 A 
ATOM     20  N   LIG d   1       3.301  -0.538 -10.655  0.00  0.00    -0.294 N 
ATOM     21  C   LIG d   1       3.251  -1.300  -9.565  0.00  0.00     0.237 A 
ATOM     22  O   LIG d   1       2.383  -2.145  -9.502  0.00  0.00    -0.274 OA
ATOM     23  H   LIG d   1       2.109  -0.749  -4.275  0.00  0.00     0.062 H 
ATOM     24  H   LIG d   1       2.358  -0.371  -1.855  0.00  0.00     0.062 H 
ATOM     25  H   LIG d   1       4.481   0.309  -0.888  0.00  0.00     0.062 H 
ATOM     26  H   LIG d   1       6.491   0.652  -2.283  0.00  0.00     0.064 H 
ATOM     27  H   LIG d   1       2.777   0.079  -7.380  0.00  0.00     0.034 H 
ATOM     28  H   LIG d   1       2.820  -1.607  -6.804  0.00  0.00     0.034 H 
ATOM     29  H   LIG d   1       4.819   0.311 -11.798  0.00  0.00     0.056 H 
ATOM     30  H   LIG d   1       3.776   1.467 -10.947  0.00  0.00     0.056 H 
ENDROOT
BRANCH   1  31
ATOM     31  C   LIG d   1       7.285  -1.288  -7.798  0.00  0.00    -0.041 C 
ATOM     32  H   LIG d   1       7.845  -1.405  -6.871  0.00  0.00     0.025 H 
ATOM     33  H   LIG d   1       6.702  -2.189  -7.986  0.00  0.00     0.025 H 
ATOM     34  H   LIG d   1       7.978  -1.125  -8.623  0.00  0.00     0.025 H 
ENDBRANCH   1  31
BRANCH  20  35
ATOM     35  C   LIG d   1       2.303  -0.767 -11.703  0.00  0.00     0.004 C 
ATOM     36  H   LIG d   1       1.925   0.191 -12.063  0.00  0.00     0.043 H 
ATOM     37  H   LIG d   1       2.762  -1.309 -12.531  0.00  0.00     0.043 H 
ATOM     38  H   LIG d   1       1.478  -1.353 -11.298  0.00  0.00     0.043 H 
ENDBRANCH  20  35
TORSDOF 2
ENDMDL
MODEL 7
REMARK VINA RESULT:      -6.3      4.163      5.594
REMARK  2 active torsions:
REMARK  status: ('A' for Active; 'I' for Inactive)
REMARK    1  A    between atoms: C_1  and  C_2 
REMARK    2  A    between atoms: N_21  and  C_24 
ROOT
ATOM      1  C   LIG d   1       5.680  -4.016  -5.757  0.00  0.00     0.064 C 
ATOM      2  H   LIG d   1       5.037  -4.888  -5.641  0.00  0.00     0.056 H 
ATOM      3  C   LIG d   1       5.193  -2.897  -4.864  0.00  0.00     0.041 A 
ATOM      4  C   LIG d   1       6.001  -2.193  -4.042  0.00  0.00    -0.015 A 
ATOM      5  C   LIG d   1       5.171  -1.215  -3.367  0.00  0.00     0.003 A 
ATOM      6  C   LIG d   1       5.452  -0.227  -2.418  0.00  0.00    -0.052 A 
ATOM      7  C   LIG d   1       4.395   0.536  -1.986  0.00  0.00    -0.061 A 
ATOM      8  C   LIG d   1       3.108   0.345  -2.459  0.00  0.00    -0.060 A 
ATOM      9  C   LIG d   1       2.802  -0.625  -3.399  0.00  0.00    -0.038 A 
ATOM     10  C   LIG d   1       3.854  -1.414  -3.856  0.00  0.00     0.047 A 
ATOM     11  N   LIG d   1       3.907  -2.438  -4.759  0.00  0.00    -0.356 N 
ATOM     12  H   LIG d   1       3.147  -2.787  -5.251  0.00  0.00     0.166 HD
ATOM     13  C   LIG d   1       7.483  -2.423  -3.891  0.00  0.00     0.002 C 
ATOM     14  C   LIG d   1       7.982  -3.241  -5.091  0.00  0.00     0.107 A 
ATOM     15  H   LIG d   1       7.989  -2.601  -5.974  0.00  0.00     0.060 H 
ATOM     16  N   LIG d   1       7.058  -4.347  -5.337  0.00  0.00    -0.280 N 
ATOM     17  C   LIG d   1       7.404  -5.628  -5.205  0.00  0.00     0.234 A 
ATOM     18  O   LIG d   1       6.542  -6.465  -5.368  0.00  0.00    -0.274 OA
ATOM     19  C   LIG d   1       8.781  -6.103  -4.870  0.00  0.00     0.091 A 
ATOM     20  N   LIG d   1       9.718  -5.001  -4.731  0.00  0.00    -0.294 N 
ATOM     21  C   LIG d   1       9.374  -3.718  -4.830  0.00  0.00     0.237 A 
ATOM     22  O   LIG d   1      10.245  -2.885  -4.699  0.00  0.00    -0.274 OA
ATOM     23  H   LIG d   1       6.454  -0.071  -2.044  0.00  0.00     0.062 H 
ATOM     24  H   LIG d   1       4.575   1.309  -1.253  0.00  0.00     0.062 H 
ATOM     25  H   LIG d   1       2.315   0.975  -2.083  0.00  0.00     0.062 H 
ATOM     26  H   LIG d   1       1.794  -0.762  -3.760  0.00  0.00     0.064 H 
ATOM     27  H   LIG d   1       7.675  -2.974  -2.970  0.00  0.00     0.034 H 
ATOM     28  H   LIG d   1       8.001  -1.465  -3.861  0.00  0.00     0.034 H 
ATOM     29  H   LIG d   1       9.129  -6.766  -5.662  0.00  0.00     0.056 H 
ATOM     30  H   LIG d   1       8.746  -6.658  -3.933  0.00  0.00     0.056 H 
ENDROOT
BRANCH   1  31
ATOM     31  C   LIG d   1       5.676  -3.556  -7.216  0.00  0.00    -0.041 C 
ATOM     32  H   LIG d   1       6.602  -3.025  -7.433  0.00  0.00     0.025 H 
ATOM     33  H   LIG d   1       5.592  -4.424  -7.869  0.00  0.00     0.025 H 
ATOM     34  H   LIG d   1       4.828  -2.891  -7.385  0.00  0.00     0.025 H 
ENDBRANCH   1  31
BRANCH  20  35
ATOM     35  C   LIG d   1      11.123  -5.319  -4.467  0.00  0.00     0.004 C 
ATOM     36  H   LIG d   1      11.699  -4.396  -4.393  0.00  0.00     0.043 H 
ATOM     37  H   LIG d   1      11.202  -5.871  -3.529  0.00  0.00     0.043 H 
ATOM     38  H   LIG d   1      11.518  -5.927  -5.280  0.00  0.00     0.043 H 
ENDBRANCH  20  35
TORSDOF 2
ENDMDL
MODEL 8
REMARK VINA RESULT:      -5.8     10.797     13.221
REMARK  2 active torsions:
REMARK  status: ('A' for Active; 'I' for Inactive)
REMARK    1  A    between atoms: C_1  and  C_2 
REMARK    2  A    between atoms: N_21  and  C_24 
ROOT
ATOM      1  C   LIG d   1      12.101   6.022  -0.306  0.00  0.00     0.064 C 
ATOM      2  H   LIG d   1      11.845   5.599   0.665  0.00  0.00     0.056 H 
ATOM      3  C   LIG d   1      11.356   5.289  -1.398  0.00  0.00     0.041 A 
ATOM      4  C   LIG d   1      10.666   5.911  -2.378  0.00  0.00    -0.015 A 
ATOM      5  C   LIG d   1      10.105   4.877  -3.224  0.00  0.00     0.003 A 
ATOM      6  C   LIG d   1       9.312   4.921  -4.375  0.00  0.00    -0.052 A 
ATOM      7  C   LIG d   1       8.954   3.716  -4.928  0.00  0.00    -0.061 A 
ATOM      8  C   LIG d   1       9.354   2.509  -4.381  0.00  0.00    -0.060 A 
ATOM      9  C   LIG d   1      10.140   2.435  -3.244  0.00  0.00    -0.038 A 
ATOM     10  C   LIG d   1      10.518   3.642  -2.661  0.00  0.00     0.047 A 
ATOM     11  N   LIG d   1      11.272   3.931  -1.560  0.00  0.00    -0.356 N 
ATOM     12  H   LIG d   1      11.687   3.273  -0.979  0.00  0.00     0.166 HD
ATOM     13  C   LIG d   1      10.534   7.406  -2.518  0.00  0.00     0.002 C 
ATOM     14  C   LIG d   1      11.625   8.081  -1.676  0.00  0.00     0.107 A 
ATOM     15  H   LIG d   1      12.588   7.940  -2.168  0.00  0.00     0.060 H 
ATOM     16  N   LIG d   1      11.685   7.439  -0.363  0.00  0.00    -0.280 N 
ATOM     17  C   LIG d   1      11.390   8.074   0.772  0.00  0.00     0.234 A 
ATOM     18  O   LIG d   1      11.407   7.429   1.798  0.00  0.00    -0.274 OA
ATOM     19  C   LIG d   1      11.039   9.523   0.865  0.00  0.00     0.091 A 
ATOM     20  N   LIG d   1      11.083  10.179  -0.432  0.00  0.00    -0.294 N 
ATOM     21  C   LIG d   1      11.347   9.546  -1.573  0.00  0.00     0.237 A 
ATOM     22  O   LIG d   1      11.361  10.200  -2.594  0.00  0.00    -0.274 OA
ATOM     23  H   LIG d   1       8.996   5.859  -4.808  0.00  0.00     0.062 H 
ATOM     24  H   LIG d   1       8.341   3.711  -5.818  0.00  0.00     0.062 H 
ATOM     25  H   LIG d   1       9.042   1.591  -4.859  0.00  0.00     0.062 H 
ATOM     26  H   LIG d   1      10.445   1.487  -2.829  0.00  0.00     0.064 H 
ATOM     27  H   LIG d   1       9.552   7.721  -2.163  0.00  0.00     0.034 H 
ATOM     28  H   LIG d   1      10.654   7.687  -3.565  0.00  0.00     0.034 H 
ATOM     29  H   LIG d   1      11.742  10.015   1.536  0.00  0.00     0.056 H 
ATOM     30  H   LIG d   1      10.033   9.618   1.275  0.00  0.00     0.056 H 
ENDROOT
BRANCH   1  31
ATOM     31  C   LIG d   1      13.609   5.911  -0.541  0.00  0.00    -0.041 C 
ATOM     32  H   LIG d   1      14.142   6.373   0.290  0.00  0.00     0.025 H 
ATOM     33  H   LIG d   1      13.888   4.859  -0.612  0.00  0.00     0.025 H 
ATOM     34  H   LIG d   1      13.872   6.419  -1.469  0.00  0.00     0.025 H 
ENDBRANCH   1  31
BRANCH  20  35
ATOM     35  C   LIG d   1      10.825  11.619  -0.485  0.00  0.00     0.004 C 
ATOM     36  H   LIG d   1       9.874  11.800  -0.989  0.00  0.00     0.043 H 
ATOM     37  H   LIG d   1      10.780  12.019   0.528  0.00  0.00     0.043 H 
ATOM     38  H   LIG d   1      11.625  12.113  -1.036  0.00  0.00     0.043 H 
ENDBRANCH  20  35
TORSDOF 2
ENDMDL
MODEL 9
REMARK VINA RESULT:      -5.7      4.709      6.263
REMARK  2 active torsions:
REMARK  status: ('A' for Active; 'I' for Inactive)
REMARK    1  A    between atoms: C_1  and  C_2 
REMARK    2  A    between atoms: N_21  and  C_24 
ROOT
ATOM      1  C   LIG d   1       7.051  -3.461  -4.649  0.00  0.00     0.064 C 
ATOM      2  H   LIG d   1       6.976  -4.345  -4.016  0.00  0.00     0.056 H 
ATOM      3  C   LIG d   1       6.208  -2.346  -4.073  0.00  0.00     0.041 A 
ATOM      4  C   LIG d   1       6.658  -1.084  -3.897  0.00  0.00    -0.015 A 
ATOM      5  C   LIG d   1       5.563  -0.318  -3.336  0.00  0.00     0.003 A 
ATOM      6  C   LIG d   1       5.444   1.022  -2.952  0.00  0.00    -0.052 A 
ATOM      7  C   LIG d   1       4.230   1.415  -2.444  0.00  0.00    -0.061 A 
ATOM      8  C   LIG d   1       3.168   0.536  -2.314  0.00  0.00    -0.060 A 
ATOM      9  C   LIG d   1       3.258  -0.794  -2.687  0.00  0.00    -0.038 A 
ATOM     10  C   LIG d   1       4.478  -1.222  -3.206  0.00  0.00     0.047 A 
ATOM     11  N   LIG d   1       4.905  -2.436  -3.662  0.00  0.00    -0.356 N 
ATOM     12  H   LIG d   1       4.365  -3.243  -3.689  0.00  0.00     0.166 HD
ATOM     13  C   LIG d   1       8.049  -0.615  -4.237  0.00  0.00     0.002 C 
ATOM     14  C   LIG d   1       8.698  -1.633  -5.185  0.00  0.00     0.107 A 
ATOM     15  H   LIG d   1       8.235  -1.545  -6.168  0.00  0.00     0.060 H 
ATOM     16  N   LIG d   1       8.450  -2.984  -4.682  0.00  0.00    -0.280 N 
ATOM     17  C   LIG d   1       9.421  -3.796  -4.265  0.00  0.00     0.234 A 
ATOM     18  O   LIG d   1       9.098  -4.870  -3.804  0.00  0.00    -0.274 OA
ATOM     19  C   LIG d   1      10.878  -3.473  -4.324  0.00  0.00     0.091 A 
ATOM     20  N   LIG d   1      11.124  -2.171  -4.921  0.00  0.00    -0.294 N 
ATOM     21  C   LIG d   1      10.159  -1.341  -5.312  0.00  0.00     0.237 A 
ATOM     22  O   LIG d   1      10.486  -0.281  -5.802  0.00  0.00    -0.274 OA
ATOM     23  H   LIG d   1       6.267   1.714  -3.051  0.00  0.00     0.062 H 
ATOM     24  H   LIG d   1       4.101   2.442  -2.137  0.00  0.00     0.062 H 
ATOM     25  H   LIG d   1       2.236   0.901  -1.908  0.00  0.00     0.062 H 
ATOM     26  H   LIG d   1       2.422  -1.468  -2.581  0.00  0.00     0.064 H 
ATOM     27  H   LIG d   1       8.641  -0.536  -3.325  0.00  0.00     0.034 H 
ATOM     28  H   LIG d   1       7.997   0.358  -4.726  0.00  0.00     0.034 H 
ATOM     29  H   LIG d   1      11.387  -4.235  -4.914  0.00  0.00     0.056 H 
ATOM     30  H   LIG d   1      11.284  -3.480  -3.312  0.00  0.00     0.056 H 
ENDROOT
BRANCH   1  31
ATOM     31  C   LIG d   1       6.578  -3.792  -6.066  0.00  0.00    -0.041 C 
ATOM     32  H   LIG d   1       7.180  -4.605  -6.470  0.00  0.00     0.025 H 
ATOM     33  H   LIG d   1       5.531  -4.094  -6.036  0.00  0.00     0.025 H 
ATOM     34  H   LIG d   1       6.683  -2.911  -6.700  0.00  0.00     0.025 H 
ENDBRANCH   1  31
BRANCH  20  35
ATOM     35  C   LIG d   1      12.514  -1.747  -5.105  0.00  0.00     0.004 C 
ATOM     36  H   LIG d   1      13.106  -2.588  -5.469  0.00  0.00     0.043 H 
ATOM     37  H   LIG d   1      12.554  -0.934  -5.830  0.00  0.00     0.043 H 
ATOM     38  H   LIG d   1      12.919  -1.405  -4.152  0.00  0.00     0.043 H 
ENDBRANCH  20  35
TORSDOF 2
ENDMDL
MODEL 10
REMARK VINA RESULT:      -5.5      2.051      6.459
REMARK  2 active torsions:
REMARK  status: ('A' for Active; 'I' for Inactive)
REMARK    1  A    between atoms: C_1  and  C_2 
REMARK    2  A    between atoms: N_21  and  C_24 
ROOT
ATOM      1  C   LIG d   1       5.436  -1.825  -7.738  0.00  0.00     0.064 C 
ATOM      2  H   LIG d   1       5.800  -2.849  -7.650  0.00  0.00     0.056 H 
ATOM      3  C   LIG d   1       4.434  -1.732  -8.866  0.00  0.00     0.041 A 
ATOM      4  C   LIG d   1       3.228  -1.136  -8.746  0.00  0.00    -0.015 A 
ATOM      5  C   LIG d   1       2.571  -1.244 -10.033  0.00  0.00     0.003 A 
ATOM      6  C   LIG d   1       1.324  -0.816 -10.499  0.00  0.00    -0.052 A 
ATOM      7  C   LIG d   1       1.022  -1.098 -11.808  0.00  0.00    -0.061 A 
ATOM      8  C   LIG d   1       1.901  -1.775 -12.637  0.00  0.00    -0.060 A 
ATOM      9  C   LIG d   1       3.141  -2.209 -12.203  0.00  0.00    -0.038 A 
ATOM     10  C   LIG d   1       3.476  -1.936 -10.878  0.00  0.00     0.047 A 
ATOM     11  N   LIG d   1       4.590  -2.214 -10.139  0.00  0.00    -0.356 N 
ATOM     12  H   LIG d   1       5.375  -2.682 -10.466  0.00  0.00     0.166 HD
ATOM     13  C   LIG d   1       2.711  -0.494  -7.484  0.00  0.00     0.002 C 
ATOM     14  C   LIG d   1       3.892  -0.240  -6.537  0.00  0.00     0.107 A 
ATOM     15  H   LIG d   1       4.485   0.587  -6.927  0.00  0.00     0.060 H 
ATOM     16  N   LIG d   1       4.739  -1.431  -6.495  0.00  0.00    -0.280 N 
ATOM     17  C   LIG d   1       4.913  -2.164  -5.395  0.00  0.00     0.234 A 
ATOM     18  O   LIG d   1       5.584  -3.170  -5.488  0.00  0.00    -0.274 OA
ATOM     19  C   LIG d   1       4.338  -1.831  -4.057  0.00  0.00     0.091 A 
ATOM     20  N   LIG d   1       3.583  -0.589  -4.082  0.00  0.00    -0.294 N 
ATOM     21  C   LIG d   1       3.379   0.132  -5.183  0.00  0.00     0.237 A 
ATOM     22  O   LIG d   1       2.736   1.155  -5.080  0.00  0.00    -0.274 OA
ATOM     23  H   LIG d   1       0.633  -0.287  -9.859  0.00  0.00     0.062 H 
ATOM     24  H   LIG d   1       0.067  -0.783 -12.204  0.00  0.00     0.062 H 
ATOM     25  H   LIG d   1       1.610  -1.970 -13.659  0.00  0.00     0.062 H 
ATOM     26  H   LIG d   1       3.818  -2.734 -12.859  0.00  0.00     0.064 H 
ATOM     27  H   LIG d   1       1.994  -1.160  -7.003  0.00  0.00     0.034 H 
ATOM     28  H   LIG d   1       2.227   0.452  -7.727  0.00  0.00     0.034 H 
ATOM     29  H   LIG d   1       5.150  -1.737  -3.336  0.00  0.00     0.056 H 
ATOM     30  H   LIG d   1       3.678  -2.640  -3.744  0.00  0.00     0.056 H 
ENDROOT
BRANCH   1  31
ATOM     31  C   LIG d   1       6.608  -0.878  -8.003  0.00  0.00    -0.041 C 
ATOM     32  H   LIG d   1       6.344  -0.189  -8.805  0.00  0.00     0.025 H 
ATOM     33  H   LIG d   1       6.829  -0.313  -7.097  0.00  0.00     0.025 H 
ATOM     34  H   LIG d   1       7.485  -1.456  -8.294  0.00  0.00     0.025 H 
ENDBRANCH   1  31
BRANCH  20  35
ATOM     35  C   LIG d   1       3.014  -0.102  -2.823  0.00  0.00     0.004 C 
ATOM     36  H   LIG d   1       1.934   0.004  -2.929  0.00  0.00     0.043 H 
ATOM     37  H   LIG d   1       3.233  -0.813  -2.026  0.00  0.00     0.043 H 
ATOM     38  H   LIG d   1       3.451   0.866  -2.577  0.00  0.00     0.043 H 
ENDBRANCH  20  35
TORSDOF 2
ENDMDL
