MODEL 1
REMARK VINA RESULT:      -6.9      0.000      0.000
REMARK  2 active torsions:
REMARK  status: ('A' for Active; 'I' for Inactive)
REMARK    1  A    between atoms: C_11  and  C_12 
REMARK    2  A    between atoms: C_11  and  O_19 
ROOT
ATOM      1  C   LIG d   1       3.787   1.029  -2.122  0.00  0.00    -0.061 A 
ATOM      2  C   LIG d   1       4.367  -0.096  -1.562  0.00  0.00    -0.061 A 
ATOM      3  C   LIG d   1       4.723  -1.168  -2.363  0.00  0.00    -0.051 A 
ATOM      4  C   LIG d   1       4.492  -1.118  -3.721  0.00  0.00     0.045 A 
ATOM      5  C   LIG d   1       3.902   0.008  -4.290  0.00  0.00     0.071 A 
ATOM      6  C   LIG d   1       3.546   1.085  -3.479  0.00  0.00    -0.046 A 
ATOM      7  C   LIG d   1       3.772  -0.208  -5.759  0.00  0.00     0.276 A 
ATOM      8  C   LIG d   1       3.493  -0.362  -8.018  0.00  0.00     0.120 A 
ATOM      9  C   LIG d   1       4.150  -1.664  -7.521  0.00  0.00     0.121 A 
ATOM     10  N   LIG d   1       4.277  -1.445  -6.070  0.00  0.00    -0.183 N 
ATOM     11  C   LIG d   1       4.754  -2.090  -4.842  0.00  0.00     0.256 A 
ATOM     12  H   LIG d   1       3.516   1.864  -1.493  0.00  0.00     0.062 H 
ATOM     13  H   LIG d   1       4.549  -0.135  -0.499  0.00  0.00     0.062 H 
ATOM     14  H   LIG d   1       5.182  -2.041  -1.925  0.00  0.00     0.062 H 
ATOM     15  H   LIG d   1       3.087   1.961  -3.913  0.00  0.00     0.063 H 
ATOM     16  H   LIG d   1       2.525  -0.573  -8.474  0.00  0.00     0.078 H 
ATOM     17  H   LIG d   1       4.144   0.152  -8.725  0.00  0.00     0.078 H 
ATOM     18  H   LIG d   1       3.509  -2.521  -7.727  0.00  0.00     0.077 H 
ATOM     19  H   LIG d   1       5.130  -1.798  -7.979  0.00  0.00     0.077 H 
ATOM     20  N   LIG d   1       3.319   0.445  -6.800  0.00  0.00    -0.271 N 
ATOM     21  H   LIG d   1       2.905   1.384  -6.771  0.00  0.00     0.304 HD
ENDROOT
BRANCH  11  22
ATOM     22  C   LIG d   1       6.230  -2.375  -4.946  0.00  0.00     0.031 A 
ATOM     23  C   LIG d   1       7.123  -1.336  -5.125  0.00  0.00    -0.050 A 
ATOM     24  C   LIG d   1       8.477  -1.596  -5.221  0.00  0.00    -0.043 A 
ATOM     25  H   LIG d   1       6.763  -0.320  -5.193  0.00  0.00     0.062 H 
ATOM     26  C   LIG d   1       8.938  -2.897  -5.135  0.00  0.00     0.041 A 
ATOM     27  H   LIG d   1       9.175  -0.783  -5.361  0.00  0.00     0.063 H 
ATOM     28  C   LIG d   1       8.045  -3.937  -4.956  0.00  0.00    -0.043 A 
ATOM     29 CL   LIG d   1      10.640  -3.225  -5.256  0.00  0.00    -0.084 Cl
ATOM     30  C   LIG d   1       6.691  -3.675  -4.855  0.00  0.00    -0.050 A 
ATOM     31  H   LIG d   1       8.405  -4.953  -4.889  0.00  0.00     0.063 H 
ATOM     32  H   LIG d   1       5.994  -4.487  -4.711  0.00  0.00     0.062 H 
ENDBRANCH  11  22
BRANCH  11  33
ATOM     33  O   LIG d   1       4.036  -3.305  -4.614  0.00  0.00    -0.346 OA
ATOM     34  H   LIG d   1       4.232  -4.004  -5.252  0.00  0.00     0.215 HD
ENDBRANCH  11  33
TORSDOF 2
ENDMDL
MODEL 2
REMARK VINA RESULT:      -6.5      2.636      3.423
REMARK  2 active torsions:
REMARK  status: ('A' for Active; 'I' for Inactive)
REMARK    1  A    between atoms: C_11  and  C_12 
REMARK    2  A    between atoms: C_11  and  O_19 
ROOT
ATOM      1  C   LIG d   1       3.197   0.248  -2.352  0.00  0.00    -0.061 A 
ATOM      2  C   LIG d   1       4.349   0.988  -2.153  0.00  0.00    -0.061 A 
ATOM      3  C   LIG d   1       5.557   0.549  -2.668  0.00  0.00    -0.051 A 
ATOM      4  C   LIG d   1       5.613  -0.634  -3.375  0.00  0.00     0.045 A 
ATOM      5  C   LIG d   1       4.459  -1.387  -3.573  0.00  0.00     0.071 A 
ATOM      6  C   LIG d   1       3.245  -0.939  -3.052  0.00  0.00    -0.046 A 
ATOM      7  C   LIG d   1       4.807  -2.603  -4.360  0.00  0.00     0.276 A 
ATOM      8  C   LIG d   1       5.153  -4.515  -5.556  0.00  0.00     0.120 A 
ATOM      9  C   LIG d   1       6.501  -3.784  -5.412  0.00  0.00     0.121 A 
ATOM     10  N   LIG d   1       6.151  -2.583  -4.634  0.00  0.00    -0.183 N 
ATOM     11  C   LIG d   1       6.740  -1.374  -4.048  0.00  0.00     0.256 A 
ATOM     12  H   LIG d   1       2.257   0.600  -1.952  0.00  0.00     0.062 H 
ATOM     13  H   LIG d   1       4.306   1.915  -1.601  0.00  0.00     0.062 H 
ATOM     14  H   LIG d   1       6.453   1.131  -2.518  0.00  0.00     0.062 H 
ATOM     15  H   LIG d   1       2.345  -1.518  -3.201  0.00  0.00     0.063 H 
ATOM     16  H   LIG d   1       5.199  -5.498  -5.086  0.00  0.00     0.078 H 
ATOM     17  H   LIG d   1       4.876  -4.607  -6.606  0.00  0.00     0.078 H 
ATOM     18  H   LIG d   1       7.216  -4.400  -4.868  0.00  0.00     0.077 H 
ATOM     19  H   LIG d   1       6.895  -3.509  -6.390  0.00  0.00     0.077 H 
ATOM     20  N   LIG d   1       4.194  -3.654  -4.847  0.00  0.00    -0.271 N 
ATOM     21  H   LIG d   1       3.191  -3.848  -4.748  0.00  0.00     0.304 HD
ENDROOT
BRANCH  11  22
ATOM     22  C   LIG d   1       7.348  -0.518  -5.130  0.00  0.00     0.031 A 
ATOM     23  C   LIG d   1       6.589  -0.142  -6.222  0.00  0.00    -0.050 A 
ATOM     24  C   LIG d   1       7.145   0.643  -7.215  0.00  0.00    -0.043 A 
ATOM     25  H   LIG d   1       5.561  -0.464  -6.302  0.00  0.00     0.062 H 
ATOM     26  C   LIG d   1       8.462   1.055  -7.112  0.00  0.00     0.041 A 
ATOM     27  H   LIG d   1       6.552   0.936  -8.068  0.00  0.00     0.063 H 
ATOM     28  C   LIG d   1       9.221   0.679  -6.020  0.00  0.00    -0.043 A 
ATOM     29 CL   LIG d   1       9.162   2.041  -8.359  0.00  0.00    -0.084 Cl
ATOM     30  C   LIG d   1       8.662  -0.102  -5.024  0.00  0.00    -0.050 A 
ATOM     31  H   LIG d   1      10.249   1.001  -5.939  0.00  0.00     0.063 H 
ATOM     32  H   LIG d   1       9.253  -0.391  -4.169  0.00  0.00     0.062 H 
ENDBRANCH  11  22
BRANCH  11  33
ATOM     33  O   LIG d   1       7.737  -1.728  -3.087  0.00  0.00    -0.346 OA
ATOM     34  H   LIG d   1       7.477  -2.449  -2.498  0.00  0.00     0.215 HD
ENDBRANCH  11  33
TORSDOF 2
ENDMDL
MODEL 3
REMARK VINA RESULT:      -6.5      2.241      2.700
REMARK  2 active torsions:
REMARK  status: ('A' for Active; 'I' for Inactive)
REMARK    1  A    between atoms: C_11  and  C_12 
REMARK    2  A    between atoms: C_11  and  O_19 
ROOT
ATOM      1  C   LIG d   1       4.608   0.218  -1.759  0.00  0.00    -0.061 A 
ATOM      2  C   LIG d   1       4.247  -1.116  -1.841  0.00  0.00    -0.061 A 
ATOM      3  C   LIG d   1       4.708  -1.899  -2.886  0.00  0.00    -0.051 A 
ATOM      4  C   LIG d   1       5.522  -1.347  -3.852  0.00  0.00     0.045 A 
ATOM      5  C   LIG d   1       5.883  -0.004  -3.780  0.00  0.00     0.071 A 
ATOM      6  C   LIG d   1       5.416   0.780  -2.725  0.00  0.00    -0.046 A 
ATOM      7  C   LIG d   1       6.758   0.322  -4.941  0.00  0.00     0.276 A 
ATOM      8  C   LIG d   1       8.107   1.003  -6.650  0.00  0.00     0.120 A 
ATOM      9  C   LIG d   1       7.786  -0.490  -6.852  0.00  0.00     0.121 A 
ATOM     10  N   LIG d   1       6.922  -0.807  -5.701  0.00  0.00    -0.183 N 
ATOM     11  C   LIG d   1       6.176  -1.911  -5.087  0.00  0.00     0.256 A 
ATOM     12  H   LIG d   1       4.249   0.822  -0.939  0.00  0.00     0.062 H 
ATOM     13  H   LIG d   1       3.611  -1.549  -1.085  0.00  0.00     0.062 H 
ATOM     14  H   LIG d   1       4.431  -2.941  -2.944  0.00  0.00     0.062 H 
ATOM     15  H   LIG d   1       5.692   1.823  -2.662  0.00  0.00     0.063 H 
ATOM     16  H   LIG d   1       7.735   1.591  -7.490  0.00  0.00     0.078 H 
ATOM     17  H   LIG d   1       9.179   1.153  -6.526  0.00  0.00     0.078 H 
ATOM     18  H   LIG d   1       7.252  -0.645  -7.789  0.00  0.00     0.077 H 
ATOM     19  H   LIG d   1       8.699  -1.086  -6.826  0.00  0.00     0.077 H 
ATOM     20  N   LIG d   1       7.392   1.365  -5.416  0.00  0.00    -0.271 N 
ATOM     21  H   LIG d   1       7.392   2.299  -4.990  0.00  0.00     0.304 HD
ENDROOT
BRANCH  11  22
ATOM     22  C   LIG d   1       7.116  -3.027  -4.711  0.00  0.00     0.031 A 
ATOM     23  C   LIG d   1       7.033  -4.247  -5.354  0.00  0.00    -0.050 A 
ATOM     24  C   LIG d   1       7.896  -5.271  -5.010  0.00  0.00    -0.043 A 
ATOM     25  H   LIG d   1       6.292  -4.402  -6.124  0.00  0.00     0.062 H 
ATOM     26  C   LIG d   1       8.844  -5.072  -4.023  0.00  0.00     0.041 A 
ATOM     27  H   LIG d   1       7.830  -6.225  -5.512  0.00  0.00     0.063 H 
ATOM     28  C   LIG d   1       8.928  -3.851  -3.380  0.00  0.00    -0.043 A 
ATOM     29 CL   LIG d   1       9.928  -6.357  -3.589  0.00  0.00    -0.084 Cl
ATOM     30  C   LIG d   1       8.068  -2.825  -3.729  0.00  0.00    -0.050 A 
ATOM     31  H   LIG d   1       9.668  -3.695  -2.609  0.00  0.00     0.063 H 
ATOM     32  H   LIG d   1       8.136  -1.871  -3.230  0.00  0.00     0.062 H 
ENDBRANCH  11  22
BRANCH  11  33
ATOM     33  O   LIG d   1       5.179  -2.394  -5.991  0.00  0.00    -0.346 OA
ATOM     34  H   LIG d   1       4.863  -1.730  -6.619  0.00  0.00     0.215 HD
ENDBRANCH  11  33
TORSDOF 2
ENDMDL
MODEL 4
REMARK VINA RESULT:      -6.4      3.181      5.117
REMARK  2 active torsions:
REMARK  status: ('A' for Active; 'I' for Inactive)
REMARK    1  A    between atoms: C_11  and  C_12 
REMARK    2  A    between atoms: C_11  and  O_19 
ROOT
ATOM      1  C   LIG d   1       3.262  -1.596  -2.528  0.00  0.00    -0.061 A 
ATOM      2  C   LIG d   1       2.811  -0.440  -3.141  0.00  0.00    -0.061 A 
ATOM      3  C   LIG d   1       3.315  -0.062  -4.374  0.00  0.00    -0.051 A 
ATOM      4  C   LIG d   1       4.274  -0.838  -4.991  0.00  0.00     0.045 A 
ATOM      5  C   LIG d   1       4.738  -1.998  -4.377  0.00  0.00     0.071 A 
ATOM      6  C   LIG d   1       4.227  -2.374  -3.135  0.00  0.00    -0.046 A 
ATOM      7  C   LIG d   1       5.760  -2.631  -5.257  0.00  0.00     0.276 A 
ATOM      8  C   LIG d   1       7.343  -3.740  -6.469  0.00  0.00     0.120 A 
ATOM      9  C   LIG d   1       6.922  -2.485  -7.256  0.00  0.00     0.121 A 
ATOM     10  N   LIG d   1       5.911  -1.864  -6.384  0.00  0.00    -0.183 N 
ATOM     11  C   LIG d   1       5.010  -0.709  -6.300  0.00  0.00     0.256 A 
ATOM     12  H   LIG d   1       2.861  -1.888  -1.569  0.00  0.00     0.062 H 
ATOM     13  H   LIG d   1       2.060   0.166  -2.659  0.00  0.00     0.062 H 
ATOM     14  H   LIG d   1       2.957   0.836  -4.852  0.00  0.00     0.062 H 
ATOM     15  H   LIG d   1       4.581  -3.273  -2.653  0.00  0.00     0.063 H 
ATOM     16  H   LIG d   1       8.405  -3.698  -6.222  0.00  0.00     0.078 H 
ATOM     17  H   LIG d   1       7.120  -4.643  -7.036  0.00  0.00     0.078 H 
ATOM     18  H   LIG d   1       7.771  -1.817  -7.398  0.00  0.00     0.077 H 
ATOM     19  H   LIG d   1       6.486  -2.763  -8.217  0.00  0.00     0.077 H 
ATOM     20  N   LIG d   1       6.531  -3.691  -5.243  0.00  0.00    -0.271 N 
ATOM     21  H   LIG d   1       6.563  -4.386  -4.489  0.00  0.00     0.304 HD
ENDROOT
BRANCH  11  22
ATOM     22  C   LIG d   1       4.032  -0.730  -7.447  0.00  0.00     0.031 A 
ATOM     23  C   LIG d   1       3.700  -1.929  -8.049  0.00  0.00    -0.050 A 
ATOM     24  C   LIG d   1       2.803  -1.949  -9.101  0.00  0.00    -0.043 A 
ATOM     25  H   LIG d   1       4.142  -2.850  -7.699  0.00  0.00     0.062 H 
ATOM     26  C   LIG d   1       2.237  -0.769  -9.549  0.00  0.00     0.041 A 
ATOM     27  H   LIG d   1       2.544  -2.886  -9.572  0.00  0.00     0.063 H 
ATOM     28  C   LIG d   1       2.570   0.430  -8.946  0.00  0.00    -0.043 A 
ATOM     29 CL   LIG d   1       1.111  -0.793 -10.871  0.00  0.00    -0.084 Cl
ATOM     30  C   LIG d   1       3.463   0.449  -7.890  0.00  0.00    -0.050 A 
ATOM     31  H   LIG d   1       2.129   1.352  -9.296  0.00  0.00     0.063 H 
ATOM     32  H   LIG d   1       3.720   1.384  -7.417  0.00  0.00     0.062 H 
ENDBRANCH  11  22
BRANCH  11  33
ATOM     33  O   LIG d   1       5.764   0.505  -6.321  0.00  0.00    -0.346 OA
ATOM     34  H   LIG d   1       5.301   1.262  -5.938  0.00  0.00     0.215 HD
ENDBRANCH  11  33
TORSDOF 2
ENDMDL
MODEL 5
REMARK VINA RESULT:      -6.2      1.286      1.584
REMARK  2 active torsions:
REMARK  status: ('A' for Active; 'I' for Inactive)
REMARK    1  A    between atoms: C_11  and  C_12 
REMARK    2  A    between atoms: C_11  and  O_19 
ROOT
ATOM      1  C   LIG d   1       3.512   1.216  -2.327  0.00  0.00    -0.061 A 
ATOM      2  C   LIG d   1       4.595   0.605  -1.719  0.00  0.00    -0.061 A 
ATOM      3  C   LIG d   1       5.369  -0.302  -2.422  0.00  0.00    -0.051 A 
ATOM      4  C   LIG d   1       5.056  -0.603  -3.731  0.00  0.00     0.045 A 
ATOM      5  C   LIG d   1       3.963   0.001  -4.347  0.00  0.00     0.071 A 
ATOM      6  C   LIG d   1       3.187   0.915  -3.633  0.00  0.00    -0.046 A 
ATOM      7  C   LIG d   1       3.859  -0.504  -5.744  0.00  0.00     0.276 A 
ATOM      8  C   LIG d   1       3.543  -1.163  -7.905  0.00  0.00     0.120 A 
ATOM      9  C   LIG d   1       4.774  -1.903  -7.349  0.00  0.00     0.121 A 
ATOM     10  N   LIG d   1       4.873  -1.400  -5.968  0.00  0.00    -0.183 N 
ATOM     11  C   LIG d   1       5.679  -1.524  -4.748  0.00  0.00     0.256 A 
ATOM     12  H   LIG d   1       2.915   1.926  -1.774  0.00  0.00     0.062 H 
ATOM     13  H   LIG d   1       4.841   0.842  -0.695  0.00  0.00     0.062 H 
ATOM     14  H   LIG d   1       6.217  -0.772  -1.948  0.00  0.00     0.062 H 
ATOM     15  H   LIG d   1       2.338   1.388  -4.104  0.00  0.00     0.063 H 
ATOM     16  H   LIG d   1       2.767  -1.875  -8.192  0.00  0.00     0.078 H 
ATOM     17  H   LIG d   1       3.821  -0.540  -8.755  0.00  0.00     0.078 H 
ATOM     18  H   LIG d   1       4.610  -2.981  -7.355  0.00  0.00     0.077 H 
ATOM     19  H   LIG d   1       5.667  -1.646  -7.919  0.00  0.00     0.077 H 
ATOM     20  N   LIG d   1       3.082  -0.328  -6.785  0.00  0.00    -0.271 N 
ATOM     21  H   LIG d   1       2.272   0.300  -6.815  0.00  0.00     0.304 HD
ENDROOT
BRANCH  11  22
ATOM     22  C   LIG d   1       7.101  -1.106  -5.022  0.00  0.00     0.031 A 
ATOM     23  C   LIG d   1       7.392   0.217  -5.294  0.00  0.00    -0.050 A 
ATOM     24  C   LIG d   1       8.696   0.601  -5.545  0.00  0.00    -0.043 A 
ATOM     25  H   LIG d   1       6.600   0.951  -5.313  0.00  0.00     0.062 H 
ATOM     26  C   LIG d   1       9.710  -0.340  -5.521  0.00  0.00     0.041 A 
ATOM     27  H   LIG d   1       8.923   1.635  -5.758  0.00  0.00     0.063 H 
ATOM     28  C   LIG d   1       9.418  -1.664  -5.249  0.00  0.00    -0.043 A 
ATOM     29 CL   LIG d   1      11.348   0.141  -5.837  0.00  0.00    -0.084 Cl
ATOM     30  C   LIG d   1       8.114  -2.046  -4.992  0.00  0.00    -0.050 A 
ATOM     31  H   LIG d   1      10.210  -2.399  -5.230  0.00  0.00     0.063 H 
ATOM     32  H   LIG d   1       7.888  -3.079  -4.775  0.00  0.00     0.062 H 
ENDBRANCH  11  22
BRANCH  11  33
ATOM     33  O   LIG d   1       5.647  -2.872  -4.273  0.00  0.00    -0.346 OA
ATOM     34  H   LIG d   1       6.214  -3.478  -4.770  0.00  0.00     0.215 HD
ENDBRANCH  11  33
TORSDOF 2
ENDMDL
MODEL 6
REMARK VINA RESULT:      -5.9      2.829      4.297
REMARK  2 active torsions:
REMARK  status: ('A' for Active; 'I' for Inactive)
REMARK    1  A    between atoms: C_11  and  C_12 
REMARK    2  A    between atoms: C_11  and  O_19 
ROOT
ATOM      1  C   LIG d   1       3.918  -0.939  -1.938  0.00  0.00    -0.061 A 
ATOM      2  C   LIG d   1       2.942  -0.702  -2.891  0.00  0.00    -0.061 A 
ATOM      3  C   LIG d   1       3.269  -0.693  -4.236  0.00  0.00    -0.051 A 
ATOM      4  C   LIG d   1       4.573  -0.913  -4.628  0.00  0.00     0.045 A 
ATOM      5  C   LIG d   1       5.561  -1.145  -3.675  0.00  0.00     0.071 A 
ATOM      6  C   LIG d   1       5.225  -1.154  -2.321  0.00  0.00    -0.046 A 
ATOM      7  C   LIG d   1       6.862  -1.348  -4.371  0.00  0.00     0.276 A 
ATOM      8  C   LIG d   1       8.935  -1.683  -5.262  0.00  0.00     0.120 A 
ATOM      9  C   LIG d   1       7.946  -1.440  -6.417  0.00  0.00     0.121 A 
ATOM     10  N   LIG d   1       6.661  -1.241  -5.724  0.00  0.00    -0.183 N 
ATOM     11  C   LIG d   1       5.243  -0.966  -5.977  0.00  0.00     0.256 A 
ATOM     12  H   LIG d   1       3.655  -0.951  -0.891  0.00  0.00     0.062 H 
ATOM     13  H   LIG d   1       1.921  -0.531  -2.585  0.00  0.00     0.062 H 
ATOM     14  H   LIG d   1       2.505  -0.514  -4.978  0.00  0.00     0.062 H 
ATOM     15  H   LIG d   1       5.986  -1.333  -1.576  0.00  0.00     0.063 H 
ATOM     16  H   LIG d   1       9.708  -0.913  -5.252  0.00  0.00     0.078 H 
ATOM     17  H   LIG d   1       9.385  -2.673  -5.343  0.00  0.00     0.078 H 
ATOM     18  H   LIG d   1       8.222  -0.548  -6.979  0.00  0.00     0.077 H 
ATOM     19  H   LIG d   1       7.900  -2.310  -7.074  0.00  0.00     0.077 H 
ATOM     20  N   LIG d   1       8.108  -1.594  -4.049  0.00  0.00    -0.271 N 
ATOM     21  H   LIG d   1       8.456  -1.708  -3.090  0.00  0.00     0.304 HD
ENDROOT
BRANCH  11  22
ATOM     22  C   LIG d   1       4.642  -2.069  -6.810  0.00  0.00     0.031 A 
ATOM     23  C   LIG d   1       4.055  -1.775  -8.026  0.00  0.00    -0.050 A 
ATOM     24  C   LIG d   1       3.504  -2.786  -8.791  0.00  0.00    -0.043 A 
ATOM     25  H   LIG d   1       4.025  -0.755  -8.378  0.00  0.00     0.062 H 
ATOM     26  C   LIG d   1       3.543  -4.093  -8.339  0.00  0.00     0.041 A 
ATOM     27  H   LIG d   1       3.046  -2.556  -9.741  0.00  0.00     0.063 H 
ATOM     28  C   LIG d   1       4.131  -4.387  -7.122  0.00  0.00    -0.043 A 
ATOM     29 CL   LIG d   1       2.851  -5.364  -9.299  0.00  0.00    -0.084 Cl
ATOM     30  C   LIG d   1       4.686  -3.375  -6.361  0.00  0.00    -0.050 A 
ATOM     31  H   LIG d   1       4.161  -5.408  -6.769  0.00  0.00     0.063 H 
ATOM     32  H   LIG d   1       5.149  -3.606  -5.413  0.00  0.00     0.062 H 
ENDBRANCH  11  22
BRANCH  11  33
ATOM     33  O   LIG d   1       5.097   0.289  -6.646  0.00  0.00    -0.346 OA
ATOM     34  H   LIG d   1       4.179   0.538  -6.819  0.00  0.00     0.215 HD
ENDBRANCH  11  33
TORSDOF 2
ENDMDL
MODEL 7
REMARK VINA RESULT:      -5.8      3.179      5.074
REMARK  2 active torsions:
REMARK  status: ('A' for Active; 'I' for Inactive)
REMARK    1  A    between atoms: C_11  and  C_12 
REMARK    2  A    between atoms: C_11  and  O_19 
ROOT
ATOM      1  C   LIG d   1       8.126   2.042  -4.759  0.00  0.00    -0.061 A 
ATOM      2  C   LIG d   1       8.228   1.507  -6.031  0.00  0.00    -0.061 A 
ATOM      3  C   LIG d   1       7.496   0.384  -6.377  0.00  0.00    -0.051 A 
ATOM      4  C   LIG d   1       6.666  -0.207  -5.447  0.00  0.00     0.045 A 
ATOM      5  C   LIG d   1       6.564   0.321  -4.163  0.00  0.00     0.071 A 
ATOM      6  C   LIG d   1       7.304   1.452  -3.821  0.00  0.00    -0.046 A 
ATOM      7  C   LIG d   1       5.608  -0.509  -3.378  0.00  0.00     0.276 A 
ATOM      8  C   LIG d   1       4.177  -1.660  -2.024  0.00  0.00     0.120 A 
ATOM      9  C   LIG d   1       4.196  -2.346  -3.403  0.00  0.00     0.121 A 
ATOM     10  N   LIG d   1       5.141  -1.522  -4.176  0.00  0.00    -0.183 N 
ATOM     11  C   LIG d   1       5.758  -1.408  -5.502  0.00  0.00     0.256 A 
ATOM     12  H   LIG d   1       8.696   2.921  -4.498  0.00  0.00     0.062 H 
ATOM     13  H   LIG d   1       8.876   1.971  -6.759  0.00  0.00     0.062 H 
ATOM     14  H   LIG d   1       7.572  -0.026  -7.372  0.00  0.00     0.062 H 
ATOM     15  H   LIG d   1       7.230   1.868  -2.827  0.00  0.00     0.063 H 
ATOM     16  H   LIG d   1       4.527  -2.346  -1.251  0.00  0.00     0.078 H 
ATOM     17  H   LIG d   1       3.176  -1.299  -1.788  0.00  0.00     0.078 H 
ATOM     18  H   LIG d   1       4.559  -3.370  -3.318  0.00  0.00     0.077 H 
ATOM     19  H   LIG d   1       3.204  -2.325  -3.856  0.00  0.00     0.077 H 
ATOM     20  N   LIG d   1       5.109  -0.531  -2.166  0.00  0.00    -0.271 N 
ATOM     21  H   LIG d   1       5.335   0.142  -1.424  0.00  0.00     0.304 HD
ENDROOT
BRANCH  11  22
ATOM     22  C   LIG d   1       4.695  -1.206  -6.552  0.00  0.00     0.031 A 
ATOM     23  C   LIG d   1       4.618  -2.065  -7.631  0.00  0.00    -0.050 A 
ATOM     24  C   LIG d   1       3.643  -1.880  -8.594  0.00  0.00    -0.043 A 
ATOM     25  H   LIG d   1       5.320  -2.880  -7.724  0.00  0.00     0.062 H 
ATOM     26  C   LIG d   1       2.744  -0.836  -8.475  0.00  0.00     0.041 A 
ATOM     27  H   LIG d   1       3.583  -2.552  -9.438  0.00  0.00     0.063 H 
ATOM     28  C   LIG d   1       2.822   0.024  -7.395  0.00  0.00    -0.043 A 
ATOM     29 CL   LIG d   1       1.520  -0.602  -9.684  0.00  0.00    -0.084 Cl
ATOM     30  C   LIG d   1       3.794  -0.165  -6.429  0.00  0.00    -0.050 A 
ATOM     31  H   LIG d   1       2.120   0.840  -7.301  0.00  0.00     0.063 H 
ATOM     32  H   LIG d   1       3.851   0.503  -5.584  0.00  0.00     0.062 H 
ENDBRANCH  11  22
BRANCH  11  33
ATOM     33  O   LIG d   1       6.517  -2.584  -5.794  0.00  0.00    -0.346 OA
ATOM     34  H   LIG d   1       7.354  -2.641  -5.313  0.00  0.00     0.215 HD
ENDBRANCH  11  33
TORSDOF 2
ENDMDL
MODEL 8
REMARK VINA RESULT:      -5.7      3.600      5.389
REMARK  2 active torsions:
REMARK  status: ('A' for Active; 'I' for Inactive)
REMARK    1  A    between atoms: C_11  and  C_12 
REMARK    2  A    between atoms: C_11  and  O_19 
ROOT
ATOM      1  C   LIG d   1       3.426  -0.581  -3.453  0.00  0.00    -0.061 A 
ATOM      2  C   LIG d   1       2.333  -0.086  -4.142  0.00  0.00    -0.061 A 
ATOM      3  C   LIG d   1       2.428   0.187  -5.496  0.00  0.00    -0.051 A 
ATOM      4  C   LIG d   1       3.617  -0.029  -6.159  0.00  0.00     0.045 A 
ATOM      5  C   LIG d   1       4.724  -0.520  -5.471  0.00  0.00     0.071 A 
ATOM      6  C   LIG d   1       4.622  -0.793  -4.107  0.00  0.00    -0.046 A 
ATOM      7  C   LIG d   1       5.861  -0.654  -6.423  0.00  0.00     0.276 A 
ATOM      8  C   LIG d   1       7.710  -0.925  -7.732  0.00  0.00     0.120 A 
ATOM      9  C   LIG d   1       6.570  -0.380  -8.612  0.00  0.00     0.121 A 
ATOM     10  N   LIG d   1       5.447  -0.250  -7.667  0.00  0.00    -0.183 N 
ATOM     11  C   LIG d   1       4.041   0.163  -7.593  0.00  0.00     0.256 A 
ATOM     12  H   LIG d   1       3.344  -0.797  -2.398  0.00  0.00     0.062 H 
ATOM     13  H   LIG d   1       1.401   0.081  -3.624  0.00  0.00     0.062 H 
ATOM     14  H   LIG d   1       1.571   0.567  -6.033  0.00  0.00     0.062 H 
ATOM     15  H   LIG d   1       5.476  -1.174  -3.566  0.00  0.00     0.063 H 
ATOM     16  H   LIG d   1       8.547  -0.225  -7.715  0.00  0.00     0.078 H 
ATOM     17  H   LIG d   1       8.037  -1.901  -8.088  0.00  0.00     0.078 H 
ATOM     18  H   LIG d   1       6.836   0.591  -9.029  0.00  0.00     0.077 H 
ATOM     19  H   LIG d   1       6.326  -1.086  -9.407  0.00  0.00     0.077 H 
ATOM     20  N   LIG d   1       7.113  -1.041  -6.393  0.00  0.00    -0.271 N 
ATOM     21  H   LIG d   1       7.604  -1.378  -5.557  0.00  0.00     0.304 HD
ENDROOT
BRANCH  11  22
ATOM     22  C   LIG d   1       3.200  -0.699  -8.500  0.00  0.00     0.031 A 
ATOM     23  C   LIG d   1       2.191  -0.129  -9.253  0.00  0.00    -0.050 A 
ATOM     24  C   LIG d   1       1.420  -0.918 -10.085  0.00  0.00    -0.043 A 
ATOM     25  H   LIG d   1       2.003   0.932  -9.189  0.00  0.00     0.062 H 
ATOM     26  C   LIG d   1       1.661  -2.278 -10.166  0.00  0.00     0.041 A 
ATOM     27  H   LIG d   1       0.631  -0.473 -10.673  0.00  0.00     0.063 H 
ATOM     28  C   LIG d   1       2.671  -2.848  -9.413  0.00  0.00    -0.043 A 
ATOM     29 CL   LIG d   1       0.692  -3.271 -11.211  0.00  0.00    -0.084 Cl
ATOM     30  C   LIG d   1       3.446  -2.056  -8.585  0.00  0.00    -0.050 A 
ATOM     31  H   LIG d   1       2.859  -3.909  -9.476  0.00  0.00     0.063 H 
ATOM     32  H   LIG d   1       4.237  -2.500  -8.000  0.00  0.00     0.062 H 
ENDBRANCH  11  22
BRANCH  11  33
ATOM     33  O   LIG d   1       3.912   1.537  -7.963  0.00  0.00    -0.346 OA
ATOM     34  H   LIG d   1       4.595   1.846  -8.572  0.00  0.00     0.215 HD
ENDBRANCH  11  33
TORSDOF 2
ENDMDL
MODEL 9
REMARK VINA RESULT:      -5.7     10.282     11.786
REMARK  2 active torsions:
REMARK  status: ('A' for Active; 'I' for Inactive)
REMARK    1  A    between atoms: C_11  and  C_12 
REMARK    2  A    between atoms: C_11  and  O_19 
ROOT
ATOM      1  C   LIG d   1       9.902   4.531  -4.773  0.00  0.00    -0.061 A 
ATOM      2  C   LIG d   1       9.244   5.696  -5.125  0.00  0.00    -0.061 A 
ATOM      3  C   LIG d   1       9.108   6.724  -4.207  0.00  0.00    -0.051 A 
ATOM      4  C   LIG d   1       9.623   6.584  -2.937  0.00  0.00     0.045 A 
ATOM      5  C   LIG d   1      10.281   5.411  -2.573  0.00  0.00     0.071 A 
ATOM      6  C   LIG d   1      10.415   4.379  -3.501  0.00  0.00    -0.046 A 
ATOM      7  C   LIG d   1      10.730   5.531  -1.158  0.00  0.00     0.276 A 
ATOM      8  C   LIG d   1      11.492   5.536   0.993  0.00  0.00     0.120 A 
ATOM      9  C   LIG d   1      10.790   6.881   0.725  0.00  0.00     0.121 A 
ATOM     10  N   LIG d   1      10.349   6.757  -0.675  0.00  0.00    -0.183 N 
ATOM     11  C   LIG d   1       9.643   7.490  -1.732  0.00  0.00     0.256 A 
ATOM     12  H   LIG d   1      10.009   3.735  -5.495  0.00  0.00     0.062 H 
ATOM     13  H   LIG d   1       8.841   5.807  -6.120  0.00  0.00     0.062 H 
ATOM     14  H   LIG d   1       8.600   7.635  -4.487  0.00  0.00     0.062 H 
ATOM     15  H   LIG d   1      10.923   3.466  -3.227  0.00  0.00     0.063 H 
ATOM     16  H   LIG d   1      10.986   4.994   1.794  0.00  0.00     0.078 H 
ATOM     17  H   LIG d   1      12.541   5.692   1.242  0.00  0.00     0.078 H 
ATOM     18  H   LIG d   1       9.935   7.007   1.388  0.00  0.00     0.077 H 
ATOM     19  H   LIG d   1      11.491   7.708   0.838  0.00  0.00     0.077 H 
ATOM     20  N   LIG d   1      11.370   4.802  -0.277  0.00  0.00    -0.271 N 
ATOM     21  H   LIG d   1      11.734   3.858  -0.447  0.00  0.00     0.304 HD
ENDROOT
BRANCH  11  22
ATOM     22  C   LIG d   1      10.377   8.766  -2.057  0.00  0.00     0.031 A 
ATOM     23  C   LIG d   1      11.696   8.720  -2.468  0.00  0.00    -0.050 A 
ATOM     24  C   LIG d   1      12.369   9.889  -2.766  0.00  0.00    -0.043 A 
ATOM     25  H   LIG d   1      12.201   7.769  -2.554  0.00  0.00     0.062 H 
ATOM     26  C   LIG d   1      11.721  11.106  -2.655  0.00  0.00     0.041 A 
ATOM     27  H   LIG d   1      13.400   9.853  -3.087  0.00  0.00     0.063 H 
ATOM     28  C   LIG d   1      10.402  11.153  -2.243  0.00  0.00    -0.043 A 
ATOM     29 CL   LIG d   1      12.566  12.577  -3.028  0.00  0.00    -0.084 Cl
ATOM     30  C   LIG d   1       9.727   9.981  -1.951  0.00  0.00    -0.050 A 
ATOM     31  H   LIG d   1       9.895  12.103  -2.157  0.00  0.00     0.063 H 
ATOM     32  H   LIG d   1       8.696  10.017  -1.634  0.00  0.00     0.062 H 
ENDBRANCH  11  22
BRANCH  11  33
ATOM     33  O   LIG d   1       8.307   7.784  -1.319  0.00  0.00    -0.346 OA
ATOM     34  H   LIG d   1       7.639   7.204  -1.706  0.00  0.00     0.215 HD
ENDBRANCH  11  33
TORSDOF 2
ENDMDL
MODEL 10
REMARK VINA RESULT:      -5.5     11.849     13.385
REMARK  2 active torsions:
REMARK  status: ('A' for Active; 'I' for Inactive)
REMARK    1  A    between atoms: C_11  and  C_12 
REMARK    2  A    between atoms: C_11  and  O_19 
ROOT
ATOM      1  C   LIG d   1      10.768   5.962  -0.402  0.00  0.00    -0.061 A 
ATOM      2  C   LIG d   1       9.890   6.054  -1.468  0.00  0.00    -0.061 A 
ATOM      3  C   LIG d   1       9.411   7.289  -1.872  0.00  0.00    -0.051 A 
ATOM      4  C   LIG d   1       9.804   8.430  -1.205  0.00  0.00     0.045 A 
ATOM      5  C   LIG d   1      10.681   8.344  -0.127  0.00  0.00     0.071 A 
ATOM      6  C   LIG d   1      11.161   7.098   0.275  0.00  0.00    -0.046 A 
ATOM      7  C   LIG d   1      10.931   9.716   0.398  0.00  0.00     0.276 A 
ATOM      8  C   LIG d   1      11.431  11.734   1.336  0.00  0.00     0.120 A 
ATOM      9  C   LIG d   1      10.459  11.972   0.165  0.00  0.00     0.121 A 
ATOM     10  N   LIG d   1      10.216  10.614  -0.352  0.00  0.00    -0.183 N 
ATOM     11  C   LIG d   1       9.474   9.889  -1.388  0.00  0.00     0.256 A 
ATOM     12  H   LIG d   1      11.142   4.997  -0.095  0.00  0.00     0.062 H 
ATOM     13  H   LIG d   1       9.583   5.161  -1.991  0.00  0.00     0.062 H 
ATOM     14  H   LIG d   1       8.732   7.358  -2.708  0.00  0.00     0.062 H 
ATOM     15  H   LIG d   1      11.841   7.024   1.110  0.00  0.00     0.063 H 
ATOM     16  H   LIG d   1      10.987  12.069   2.275  0.00  0.00     0.078 H 
ATOM     17  H   LIG d   1      12.378  12.244   1.160  0.00  0.00     0.078 H 
ATOM     18  H   LIG d   1       9.532  12.421   0.520  0.00  0.00     0.077 H 
ATOM     19  H   LIG d   1      10.923  12.599  -0.597  0.00  0.00     0.077 H 
ATOM     20  N   LIG d   1      11.629  10.277   1.355  0.00  0.00    -0.271 N 
ATOM     21  H   LIG d   1      12.227   9.773   2.021  0.00  0.00     0.304 HD
ENDROOT
BRANCH  11  22
ATOM     22  C   LIG d   1       9.909  10.351  -2.756  0.00  0.00     0.031 A 
ATOM     23  C   LIG d   1      11.200  10.114  -3.186  0.00  0.00    -0.050 A 
ATOM     24  C   LIG d   1      11.599  10.537  -4.440  0.00  0.00    -0.043 A 
ATOM     25  H   LIG d   1      11.898   9.600  -2.543  0.00  0.00     0.062 H 
ATOM     26  C   LIG d   1      10.704  11.196  -5.264  0.00  0.00     0.041 A 
ATOM     27  H   LIG d   1      12.609  10.353  -4.777  0.00  0.00     0.063 H 
ATOM     28  C   LIG d   1       9.412  11.432  -4.833  0.00  0.00    -0.043 A 
ATOM     29 CL   LIG d   1      11.205  11.728  -6.840  0.00  0.00    -0.084 Cl
ATOM     30  C   LIG d   1       9.012  11.003  -3.581  0.00  0.00    -0.050 A 
ATOM     31  H   LIG d   1       8.713  11.946  -5.477  0.00  0.00     0.063 H 
ATOM     32  H   LIG d   1       8.002  11.184  -3.246  0.00  0.00     0.062 H 
ENDBRANCH  11  22
BRANCH  11  33
ATOM     33  O   LIG d   1       8.069  10.098  -1.224  0.00  0.00    -0.346 OA
ATOM     34  H   LIG d   1       7.542   9.853  -1.997  0.00  0.00     0.215 HD
ENDBRANCH  11  33
TORSDOF 2
ENDMDL
