MODEL 1
REMARK VINA RESULT:      -7.9      0.000      0.000
REMARK  6 active torsions:
REMARK  status: ('A' for Active; 'I' for Inactive)
REMARK    1  A    between atoms: C_1  and  C_2 
REMARK    2  A    between atoms: C_2  and  C_4 
REMARK    3  A    between atoms: C_2  and  C_5 
REMARK    4  A    between atoms: C_5  and  C_7 
REMARK    5  A    between atoms: C_5  and  N_17 
REMARK       I    between atoms: C_7  and  N_9 
REMARK    6  A    between atoms: N_9  and  C_10 
REMARK       I    between atoms: N_17  and  C_18 
REMARK       I    between atoms: C_18  and  N_20 
ROOT
ATOM      1  N   LIG d   1       5.285  -2.910  -7.870  0.00  0.00    -0.288 N 
ATOM      2  C   LIG d   1       4.710  -2.561  -9.039  0.00  0.00     0.303 C 
ATOM      3  O   LIG d   1       3.504  -2.419  -9.105  0.00  0.00    -0.253 OA
ATOM      4  N   LIG d   1       5.472  -2.368 -10.134  0.00  0.00    -0.285 N 
ATOM      5  C   LIG d   1       6.936  -2.423 -10.048  0.00  0.00     0.021 C 
ATOM      6  C   LIG d   1       7.549  -1.192 -10.702  0.00  0.00    -0.006 C 
ATOM      7  H   LIG d   1       8.618  -1.366 -10.814  0.00  0.00     0.033 H 
ATOM      8  C   LIG d   1       6.970  -0.966 -12.099  0.00  0.00    -0.037 C 
ATOM      9  C   LIG d   1       5.455  -0.786 -11.971  0.00  0.00     0.016 C 
ATOM     10  H   LIG d   1       5.025  -0.525 -12.938  0.00  0.00     0.038 H 
ATOM     11  C   LIG d   1       4.854  -2.104 -11.443  0.00  0.00     0.024 C 
ATOM     12  C   LIG d   1       5.154   0.297 -10.960  0.00  0.00     0.027 A 
ATOM     13  C   LIG d   1       3.966   0.948 -11.077  0.00  0.00    -0.042 A 
ATOM     14  C   LIG d   1       3.560   1.866 -10.103  0.00  0.00    -0.055 A 
ATOM     15  C   LIG d   1       4.371   2.089  -9.029  0.00  0.00     0.003 A 
ATOM     16  C   LIG d   1       5.596   1.412  -8.947  0.00  0.00     0.252 A 
ATOM     17  O   LIG d   1       6.308   1.570  -7.968  0.00  0.00    -0.268 OA
ATOM     18  N   LIG d   1       5.999   0.585  -9.943  0.00  0.00    -0.312 N 
ATOM     19  C   LIG d   1       7.358   0.055  -9.857  0.00  0.00     0.031 C 
ATOM     20  H   LIG d   1       6.252  -2.949  -7.798  0.00  0.00     0.151 HD
ATOM     21  H   LIG d   1       7.235  -2.462  -9.001  0.00  0.00     0.047 H 
ATOM     22  H   LIG d   1       7.294  -3.317 -10.560  0.00  0.00     0.047 H 
ATOM     23  H   LIG d   1       7.410  -0.071 -12.539  0.00  0.00     0.028 H 
ATOM     24  H   LIG d   1       7.185  -1.830 -12.729  0.00  0.00     0.028 H 
ATOM     25  H   LIG d   1       5.080  -2.919 -12.131  0.00  0.00     0.047 H 
ATOM     26  H   LIG d   1       3.775  -2.002 -11.329  0.00  0.00     0.047 H 
ATOM     27  H   LIG d   1       3.330   0.752 -11.927  0.00  0.00     0.064 H 
ATOM     28  H   LIG d   1       2.621   2.391 -10.200  0.00  0.00     0.062 H 
ATOM     29  H   LIG d   1       4.073   2.776  -8.251  0.00  0.00     0.067 H 
ATOM     30  H   LIG d   1       7.579  -0.187  -8.818  0.00  0.00     0.050 H 
ATOM     31  H   LIG d   1       8.057   0.820 -10.197  0.00  0.00     0.050 H 
ENDROOT
BRANCH   1  32
ATOM     32  C   LIG d   1       4.451  -3.230  -6.710  0.00  0.00     0.103 C 
ATOM     33  H   LIG d   1       3.404  -3.250  -7.011  0.00  0.00     0.060 H 
BRANCH  32  34
ATOM     34  C   LIG d   1       4.850  -4.600  -6.158  0.00  0.00    -0.020 C 
ATOM     35  H   LIG d   1       4.576  -4.661  -5.104  0.00  0.00     0.032 H 
BRANCH  34  36
ATOM     36  C   LIG d   1       4.120  -5.696  -6.938  0.00  0.00    -0.060 C 
ATOM     37  H   LIG d   1       4.613  -5.847  -7.899  0.00  0.00     0.023 H 
ATOM     38  H   LIG d   1       4.144  -6.625  -6.368  0.00  0.00     0.023 H 
ATOM     39  H   LIG d   1       3.085  -5.397  -7.103  0.00  0.00     0.023 H 
ENDBRANCH  34  36
BRANCH  34  40
ATOM     40  C   LIG d   1       6.361  -4.790  -6.305  0.00  0.00    -0.060 C 
ATOM     41  H   LIG d   1       6.798  -4.991  -5.326  0.00  0.00     0.023 H 
ATOM     42  H   LIG d   1       6.558  -5.630  -6.971  0.00  0.00     0.023 H 
ATOM     43  H   LIG d   1       6.802  -3.884  -6.720  0.00  0.00     0.023 H 
ENDBRANCH  34  40
ENDBRANCH  32  34
BRANCH  32  44
ATOM     44  C   LIG d   1       4.648  -2.182  -5.645  0.00  0.00     0.238 C 
ATOM     45  O   LIG d   1       5.614  -1.452  -5.685  0.00  0.00    -0.273 OA
ATOM     46  N   LIG d   1       3.750  -2.059  -4.647  0.00  0.00    -0.283 N 
ATOM     47  H   LIG d   1       3.021  -2.694  -4.568  0.00  0.00     0.155 HD
BRANCH  46  48
ATOM     48  C   LIG d   1       3.870  -1.013  -3.724  0.00  0.00     0.052 A 
ATOM     49  C   LIG d   1       3.346   0.240  -4.022  0.00  0.00     0.062 A 
ATOM     50  C   LIG d   1       3.467   1.271  -3.109  0.00  0.00    -0.042 A 
ATOM     51 CL   LIG d   1       2.544   0.510  -5.538  0.00  0.00    -0.082 Cl
ATOM     52  C   LIG d   1       4.101   1.055  -1.900  0.00  0.00    -0.060 A 
ATOM     53  H   LIG d   1       3.061   2.246  -3.339  0.00  0.00     0.063 H 
ATOM     54  C   LIG d   1       4.626  -0.190  -1.603  0.00  0.00    -0.060 A 
ATOM     55  H   LIG d   1       4.189   1.860  -1.185  0.00  0.00     0.062 H 
ATOM     56  C   LIG d   1       4.509  -1.224  -2.511  0.00  0.00    -0.039 A 
ATOM     57  H   LIG d   1       5.124  -0.354  -0.660  0.00  0.00     0.062 H 
ATOM     58  H   LIG d   1       4.916  -2.197  -2.277  0.00  0.00     0.064 H 
ENDBRANCH  46  48
ENDBRANCH  32  44
ENDBRANCH   1  32
TORSDOF 6
ENDMDL
MODEL 2
REMARK VINA RESULT:      -7.4      2.194      5.012
REMARK  6 active torsions:
REMARK  status: ('A' for Active; 'I' for Inactive)
REMARK    1  A    between atoms: C_1  and  C_2 
REMARK    2  A    between atoms: C_2  and  C_4 
REMARK    3  A    between atoms: C_2  and  C_5 
REMARK    4  A    between atoms: C_5  and  C_7 
REMARK    5  A    between atoms: C_5  and  N_17 
REMARK       I    between atoms: C_7  and  N_9 
REMARK    6  A    between atoms: N_9  and  C_10 
REMARK       I    between atoms: N_17  and  C_18 
REMARK       I    between atoms: C_18  and  N_20 
ROOT
ATOM      1  N   LIG d   1       3.823  -1.829  -8.484  0.00  0.00    -0.288 N 
ATOM      2  C   LIG d   1       4.914  -2.498  -8.909  0.00  0.00     0.303 C 
ATOM      3  O   LIG d   1       5.999  -1.951  -8.912  0.00  0.00    -0.253 OA
ATOM      4  N   LIG d   1       4.801  -3.774  -9.329  0.00  0.00    -0.285 N 
ATOM      5  C   LIG d   1       3.522  -4.487  -9.226  0.00  0.00     0.021 C 
ATOM      6  C   LIG d   1       3.725  -5.838  -8.556  0.00  0.00    -0.006 C 
ATOM      7  H   LIG d   1       2.815  -6.423  -8.690  0.00  0.00     0.033 H 
ATOM      8  C   LIG d   1       4.869  -6.611  -9.213  0.00  0.00    -0.037 C 
ATOM      9  C   LIG d   1       6.147  -5.777  -9.094  0.00  0.00     0.016 C 
ATOM     10  H   LIG d   1       7.001  -6.343  -9.465  0.00  0.00     0.038 H 
ATOM     11  C   LIG d   1       5.955  -4.480  -9.906  0.00  0.00     0.024 C 
ATOM     12  C   LIG d   1       6.369  -5.388  -7.650  0.00  0.00     0.027 A 
ATOM     13  C   LIG d   1       7.646  -5.117  -7.266  0.00  0.00    -0.042 A 
ATOM     14  C   LIG d   1       7.911  -4.622  -5.984  0.00  0.00    -0.055 A 
ATOM     15  C   LIG d   1       6.868  -4.407  -5.132  0.00  0.00     0.003 A 
ATOM     16  C   LIG d   1       5.567  -4.711  -5.554  0.00  0.00     0.252 A 
ATOM     17  O   LIG d   1       4.623  -4.480  -4.816  0.00  0.00    -0.268 OA
ATOM     18  N   LIG d   1       5.346  -5.260  -6.774  0.00  0.00    -0.312 N 
ATOM     19  C   LIG d   1       3.983  -5.702  -7.066  0.00  0.00     0.031 C 
ATOM     20  H   LIG d   1       2.971  -2.287  -8.410  0.00  0.00     0.151 HD
ATOM     21  H   LIG d   1       2.824  -3.893  -8.637  0.00  0.00     0.047 H 
ATOM     22  H   LIG d   1       3.112  -4.639 -10.225  0.00  0.00     0.047 H 
ATOM     23  H   LIG d   1       5.006  -7.566  -8.705  0.00  0.00     0.028 H 
ATOM     24  H   LIG d   1       4.640  -6.783 -10.265  0.00  0.00     0.028 H 
ATOM     25  H   LIG d   1       5.758  -4.721 -10.951  0.00  0.00     0.047 H 
ATOM     26  H   LIG d   1       6.846  -3.857  -9.830  0.00  0.00     0.047 H 
ATOM     27  H   LIG d   1       8.459  -5.281  -7.956  0.00  0.00     0.064 H 
ATOM     28  H   LIG d   1       8.925  -4.416  -5.675  0.00  0.00     0.062 H 
ATOM     29  H   LIG d   1       7.043  -4.006  -4.144  0.00  0.00     0.067 H 
ATOM     30  H   LIG d   1       3.281  -4.979  -6.652  0.00  0.00     0.050 H 
ATOM     31  H   LIG d   1       3.816  -6.668  -6.590  0.00  0.00     0.050 H 
ENDROOT
BRANCH   1  32
ATOM     32  C   LIG d   1       3.923  -0.410  -8.135  0.00  0.00     0.103 C 
ATOM     33  H   LIG d   1       4.688   0.062  -8.751  0.00  0.00     0.060 H 
BRANCH  32  34
ATOM     34  C   LIG d   1       2.576   0.273  -8.383  0.00  0.00    -0.020 C 
ATOM     35  H   LIG d   1       1.957   0.191  -7.490  0.00  0.00     0.032 H 
BRANCH  34  36
ATOM     36  C   LIG d   1       2.806   1.750  -8.711  0.00  0.00    -0.060 C 
ATOM     37  H   LIG d   1       3.543   1.835  -9.510  0.00  0.00     0.023 H 
ATOM     38  H   LIG d   1       1.868   2.201  -9.033  0.00  0.00     0.023 H 
ATOM     39  H   LIG d   1       3.172   2.267  -7.823  0.00  0.00     0.023 H 
ENDBRANCH  34  36
BRANCH  34  40
ATOM     40  C   LIG d   1       1.869  -0.405  -9.559  0.00  0.00    -0.060 C 
ATOM     41  H   LIG d   1       2.235   0.017 -10.495  0.00  0.00     0.023 H 
ATOM     42  H   LIG d   1       2.074  -1.475  -9.538  0.00  0.00     0.023 H 
ATOM     43  H   LIG d   1       0.795  -0.239  -9.481  0.00  0.00     0.023 H 
ENDBRANCH  34  40
ENDBRANCH  32  34
BRANCH  32  44
ATOM     44  C   LIG d   1       4.294  -0.275  -6.681  0.00  0.00     0.238 C 
ATOM     45  O   LIG d   1       5.343   0.245  -6.368  0.00  0.00    -0.273 OA
ATOM     46  N   LIG d   1       3.459  -0.735  -5.728  0.00  0.00    -0.283 N 
ATOM     47  H   LIG d   1       2.658  -1.223  -5.978  0.00  0.00     0.155 HD
BRANCH  46  48
ATOM     48  C   LIG d   1       3.746  -0.507  -4.377  0.00  0.00     0.052 A 
ATOM     49  C   LIG d   1       3.319   0.664  -3.763  0.00  0.00     0.062 A 
ATOM     50  C   LIG d   1       3.605   0.887  -2.429  0.00  0.00    -0.042 A 
ATOM     51 CL   LIG d   1       2.428   1.847  -4.670  0.00  0.00    -0.082 Cl
ATOM     52  C   LIG d   1       4.310  -0.057  -1.706  0.00  0.00    -0.060 A 
ATOM     53  H   LIG d   1       3.274   1.797  -1.950  0.00  0.00     0.063 H 
ATOM     54  C   LIG d   1       4.740  -1.222  -2.315  0.00  0.00    -0.060 A 
ATOM     55  H   LIG d   1       4.528   0.116  -0.662  0.00  0.00     0.062 H 
ATOM     56  C   LIG d   1       4.458  -1.449  -3.648  0.00  0.00    -0.039 A 
ATOM     57  H   LIG d   1       5.294  -1.954  -1.748  0.00  0.00     0.062 H 
ATOM     58  H   LIG d   1       4.790  -2.361  -4.122  0.00  0.00     0.064 H 
ENDBRANCH  46  48
ENDBRANCH  32  44
ENDBRANCH   1  32
TORSDOF 6
ENDMDL
MODEL 3
REMARK VINA RESULT:      -7.3      2.780      6.864
REMARK  6 active torsions:
REMARK  status: ('A' for Active; 'I' for Inactive)
REMARK    1  A    between atoms: C_1  and  C_2 
REMARK    2  A    between atoms: C_2  and  C_4 
REMARK    3  A    between atoms: C_2  and  C_5 
REMARK    4  A    between atoms: C_5  and  C_7 
REMARK    5  A    between atoms: C_5  and  N_17 
REMARK       I    between atoms: C_7  and  N_9 
REMARK    6  A    between atoms: N_9  and  C_10 
REMARK       I    between atoms: N_17  and  C_18 
REMARK       I    between atoms: C_18  and  N_20 
ROOT
ATOM      1  N   LIG d   1       7.849   0.205  -5.107  0.00  0.00    -0.288 N 
ATOM      2  C   LIG d   1       6.942   0.677  -4.228  0.00  0.00     0.303 C 
ATOM      3  O   LIG d   1       6.629   1.851  -4.250  0.00  0.00    -0.253 OA
ATOM      4  N   LIG d   1       6.381  -0.153  -3.326  0.00  0.00    -0.285 N 
ATOM      5  C   LIG d   1       6.660  -1.594  -3.358  0.00  0.00     0.021 C 
ATOM      6  C   LIG d   1       5.359  -2.383  -3.320  0.00  0.00    -0.006 C 
ATOM      7  H   LIG d   1       5.602  -3.428  -3.127  0.00  0.00     0.033 H 
ATOM      8  C   LIG d   1       4.458  -1.903  -2.182  0.00  0.00    -0.037 C 
ATOM      9  C   LIG d   1       4.156  -0.417  -2.398  0.00  0.00     0.016 C 
ATOM     10  H   LIG d   1       3.436  -0.068  -1.658  0.00  0.00     0.038 H 
ATOM     11  C   LIG d   1       5.480   0.366  -2.285  0.00  0.00     0.024 C 
ATOM     12  C   LIG d   1       3.612  -0.205  -3.792  0.00  0.00     0.027 A 
ATOM     13  C   LIG d   1       2.828   0.887  -3.997  0.00  0.00    -0.042 A 
ATOM     14  C   LIG d   1       2.399   1.222  -5.286  0.00  0.00    -0.055 A 
ATOM     15  C   LIG d   1       2.789   0.440  -6.334  0.00  0.00     0.003 A 
ATOM     16  C   LIG d   1       3.585  -0.686  -6.086  0.00  0.00     0.252 A 
ATOM     17  O   LIG d   1       3.977  -1.367  -7.021  0.00  0.00    -0.268 OA
ATOM     18  N   LIG d   1       3.924  -1.030  -4.818  0.00  0.00    -0.312 N 
ATOM     19  C   LIG d   1       4.609  -2.309  -4.638  0.00  0.00     0.031 C 
ATOM     20  H   LIG d   1       8.043  -0.746  -5.140  0.00  0.00     0.151 HD
ATOM     21  H   LIG d   1       7.202  -1.836  -4.272  0.00  0.00     0.047 H 
ATOM     22  H   LIG d   1       7.268  -1.863  -2.494  0.00  0.00     0.047 H 
ATOM     23  H   LIG d   1       3.527  -2.470  -2.186  0.00  0.00     0.028 H 
ATOM     24  H   LIG d   1       4.967  -2.039  -1.228  0.00  0.00     0.028 H 
ATOM     25  H   LIG d   1       5.923   0.210  -1.301  0.00  0.00     0.047 H 
ATOM     26  H   LIG d   1       5.300   1.428  -2.447  0.00  0.00     0.047 H 
ATOM     27  H   LIG d   1       2.538   1.502  -3.159  0.00  0.00     0.064 H 
ATOM     28  H   LIG d   1       1.769   2.083  -5.448  0.00  0.00     0.062 H 
ATOM     29  H   LIG d   1       2.491   0.687  -7.342  0.00  0.00     0.067 H 
ATOM     30  H   LIG d   1       5.317  -2.449  -5.454  0.00  0.00     0.050 H 
ATOM     31  H   LIG d   1       3.871  -3.112  -4.669  0.00  0.00     0.050 H 
ENDROOT
BRANCH   1  32
ATOM     32  C   LIG d   1       8.542   1.125  -6.011  0.00  0.00     0.103 C 
ATOM     33  H   LIG d   1       8.671   2.089  -5.518  0.00  0.00     0.060 H 
BRANCH  32  34
ATOM     34  C   LIG d   1       9.914   0.550  -6.371  0.00  0.00    -0.020 C 
ATOM     35  H   LIG d   1      10.322   1.090  -7.224  0.00  0.00     0.032 H 
BRANCH  34  36
ATOM     36  C   LIG d   1      10.858   0.697  -5.176  0.00  0.00    -0.060 C 
ATOM     37  H   LIG d   1      11.214  -0.287  -4.870  0.00  0.00     0.023 H 
ATOM     38  H   LIG d   1      11.707   1.318  -5.458  0.00  0.00     0.023 H 
ATOM     39  H   LIG d   1      10.326   1.165  -4.347  0.00  0.00     0.023 H 
ENDBRANCH  34  36
BRANCH  34  40
ATOM     40  C   LIG d   1       9.769  -0.932  -6.726  0.00  0.00    -0.060 C 
ATOM     41  H   LIG d   1       9.242  -1.447  -5.922  0.00  0.00     0.023 H 
ATOM     42  H   LIG d   1       9.205  -1.029  -7.653  0.00  0.00     0.023 H 
ATOM     43  H   LIG d   1      10.757  -1.373  -6.853  0.00  0.00     0.023 H 
ENDBRANCH  34  40
ENDBRANCH  32  34
BRANCH  32  44
ATOM     44  C   LIG d   1       7.728   1.306  -7.265  0.00  0.00     0.238 C 
ATOM     45  O   LIG d   1       8.175   1.948  -8.191  0.00  0.00    -0.273 OA
ATOM     46  N   LIG d   1       6.502   0.753  -7.358  0.00  0.00    -0.283 N 
ATOM     47  H   LIG d   1       6.111   0.309  -6.589  0.00  0.00     0.155 HD
BRANCH  46  48
ATOM     48  C   LIG d   1       5.793   0.821  -8.563  0.00  0.00     0.052 A 
ATOM     49  C   LIG d   1       5.955  -0.172  -9.522  0.00  0.00     0.062 A 
ATOM     50  C   LIG d   1       5.254  -0.102 -10.711  0.00  0.00    -0.042 A 
ATOM     51 CL   LIG d   1       7.035  -1.499  -9.226  0.00  0.00    -0.082 Cl
ATOM     52  C   LIG d   1       4.390   0.951 -10.944  0.00  0.00    -0.060 A 
ATOM     53  H   LIG d   1       5.379  -0.873 -11.457  0.00  0.00     0.063 H 
ATOM     54  C   LIG d   1       4.230   1.943  -9.994  0.00  0.00    -0.060 A 
ATOM     55  H   LIG d   1       3.839   1.001 -11.872  0.00  0.00     0.062 H 
ATOM     56  C   LIG d   1       4.928   1.879  -8.804  0.00  0.00    -0.039 A 
ATOM     57  H   LIG d   1       3.558   2.766 -10.181  0.00  0.00     0.062 H 
ATOM     58  H   LIG d   1       4.800   2.652  -8.060  0.00  0.00     0.064 H 
ENDBRANCH  46  48
ENDBRANCH  32  44
ENDBRANCH   1  32
TORSDOF 6
ENDMDL
MODEL 4
REMARK VINA RESULT:      -7.3      2.910      7.022
REMARK  6 active torsions:
REMARK  status: ('A' for Active; 'I' for Inactive)
REMARK    1  A    between atoms: C_1  and  C_2 
REMARK    2  A    between atoms: C_2  and  C_4 
REMARK    3  A    between atoms: C_2  and  C_5 
REMARK    4  A    between atoms: C_5  and  C_7 
REMARK    5  A    between atoms: C_5  and  N_17 
REMARK       I    between atoms: C_7  and  N_9 
REMARK    6  A    between atoms: N_9  and  C_10 
REMARK       I    between atoms: N_17  and  C_18 
REMARK       I    between atoms: C_18  and  N_20 
ROOT
ATOM      1  N   LIG d   1       4.075   0.309  -6.804  0.00  0.00    -0.288 N 
ATOM      2  C   LIG d   1       4.117  -0.744  -5.964  0.00  0.00     0.303 C 
ATOM      3  O   LIG d   1       4.363  -1.855  -6.393  0.00  0.00    -0.253 OA
ATOM      4  N   LIG d   1       3.888  -0.567  -4.647  0.00  0.00    -0.285 N 
ATOM      5  C   LIG d   1       3.703   0.780  -4.093  0.00  0.00     0.021 C 
ATOM      6  C   LIG d   1       4.607   0.981  -2.885  0.00  0.00    -0.006 C 
ATOM      7  H   LIG d   1       4.293   1.892  -2.375  0.00  0.00     0.033 H 
ATOM      8  C   LIG d   1       4.464  -0.174  -1.893  0.00  0.00    -0.037 C 
ATOM      9  C   LIG d   1       4.838  -1.475  -2.609  0.00  0.00     0.016 C 
ATOM     10  H   LIG d   1       4.842  -2.305  -1.903  0.00  0.00     0.038 H 
ATOM     11  C   LIG d   1       3.813  -1.719  -3.735  0.00  0.00     0.024 C 
ATOM     12  C   LIG d   1       6.201  -1.331  -3.248  0.00  0.00     0.027 A 
ATOM     13  C   LIG d   1       6.911  -2.470  -3.466  0.00  0.00    -0.042 A 
ATOM     14  C   LIG d   1       8.118  -2.429  -4.173  0.00  0.00    -0.055 A 
ATOM     15  C   LIG d   1       8.564  -1.231  -4.649  0.00  0.00     0.003 A 
ATOM     16  C   LIG d   1       7.814  -0.075  -4.394  0.00  0.00     0.252 A 
ATOM     17  O   LIG d   1       8.180   0.996  -4.853  0.00  0.00    -0.268 OA
ATOM     18  N   LIG d   1       6.687  -0.131  -3.641  0.00  0.00    -0.312 N 
ATOM     19  C   LIG d   1       6.063   1.142  -3.283  0.00  0.00     0.031 C 
ATOM     20  H   LIG d   1       3.954   1.206  -6.452  0.00  0.00     0.151 HD
ATOM     21  H   LIG d   1       3.948   1.520  -4.854  0.00  0.00     0.047 H 
ATOM     22  H   LIG d   1       2.664   0.905  -3.789  0.00  0.00     0.047 H 
ATOM     23  H   LIG d   1       5.133  -0.016  -1.047  0.00  0.00     0.028 H 
ATOM     24  H   LIG d   1       3.434  -0.231  -1.543  0.00  0.00     0.028 H 
ATOM     25  H   LIG d   1       2.810  -1.794  -3.315  0.00  0.00     0.047 H 
ATOM     26  H   LIG d   1       4.061  -2.634  -4.273  0.00  0.00     0.047 H 
ATOM     27  H   LIG d   1       6.540  -3.412  -3.094  0.00  0.00     0.064 H 
ATOM     28  H   LIG d   1       8.688  -3.331  -4.338  0.00  0.00     0.062 H 
ATOM     29  H   LIG d   1       9.481  -1.174  -5.216  0.00  0.00     0.067 H 
ATOM     30  H   LIG d   1       6.122   1.817  -4.137  0.00  0.00     0.050 H 
ATOM     31  H   LIG d   1       6.610   1.580  -2.448  0.00  0.00     0.050 H 
ENDROOT
BRANCH   1  32
ATOM     32  C   LIG d   1       4.211   0.102  -8.247  0.00  0.00     0.103 C 
ATOM     33  H   LIG d   1       4.095  -0.957  -8.474  0.00  0.00     0.060 H 
BRANCH  32  34
ATOM     34  C   LIG d   1       3.131   0.901  -8.981  0.00  0.00    -0.020 C 
ATOM     35  H   LIG d   1       3.521   1.245  -9.938  0.00  0.00     0.032 H 
BRANCH  34  36
ATOM     36  C   LIG d   1       1.910   0.009  -9.219  0.00  0.00    -0.060 C 
ATOM     37  H   LIG d   1       1.904  -0.328 -10.256  0.00  0.00     0.023 H 
ATOM     38  H   LIG d   1       1.956  -0.854  -8.556  0.00  0.00     0.023 H 
ATOM     39  H   LIG d   1       1.001   0.576  -9.015  0.00  0.00     0.023 H 
ENDBRANCH  34  36
BRANCH  34  40
ATOM     40  C   LIG d   1       2.724   2.107  -8.132  0.00  0.00    -0.060 C 
ATOM     41  H   LIG d   1       2.828   1.859  -7.075  0.00  0.00     0.023 H 
ATOM     42  H   LIG d   1       3.366   2.954  -8.372  0.00  0.00     0.023 H 
ATOM     43  H   LIG d   1       1.686   2.366  -8.343  0.00  0.00     0.023 H 
ENDBRANCH  34  40
ENDBRANCH  32  34
BRANCH  32  44
ATOM     44  C   LIG d   1       5.572   0.567  -8.696  0.00  0.00     0.238 C 
ATOM     45  O   LIG d   1       5.831   0.635  -9.878  0.00  0.00    -0.273 OA
ATOM     46  N   LIG d   1       6.502   0.907  -7.781  0.00  0.00    -0.283 N 
ATOM     47  H   LIG d   1       6.325   0.776  -6.836  0.00  0.00     0.155 HD
BRANCH  46  48
ATOM     48  C   LIG d   1       7.725   1.449  -8.196  0.00  0.00     0.052 A 
ATOM     49  C   LIG d   1       8.827   0.622  -8.378  0.00  0.00     0.062 A 
ATOM     50  C   LIG d   1      10.032   1.160  -8.787  0.00  0.00    -0.042 A 
ATOM     51 CL   LIG d   1       8.689  -1.085  -8.092  0.00  0.00    -0.082 Cl
ATOM     52  C   LIG d   1      10.140   2.518  -9.019  0.00  0.00    -0.060 A 
ATOM     53  H   LIG d   1      10.890   0.518  -8.928  0.00  0.00     0.063 H 
ATOM     54  C   LIG d   1       9.047   3.344  -8.835  0.00  0.00    -0.060 A 
ATOM     55  H   LIG d   1      11.082   2.936  -9.344  0.00  0.00     0.062 H 
ATOM     56  C   LIG d   1       7.840   2.813  -8.426  0.00  0.00    -0.039 A 
ATOM     57  H   LIG d   1       9.136   4.405  -9.014  0.00  0.00     0.062 H 
ATOM     58  H   LIG d   1       6.985   3.458  -8.286  0.00  0.00     0.064 H 
ENDBRANCH  46  48
ENDBRANCH  32  44
ENDBRANCH   1  32
TORSDOF 6
ENDMDL
MODEL 5
REMARK VINA RESULT:      -6.9      2.223      5.283
REMARK  6 active torsions:
REMARK  status: ('A' for Active; 'I' for Inactive)
REMARK    1  A    between atoms: C_1  and  C_2 
REMARK    2  A    between atoms: C_2  and  C_4 
REMARK    3  A    between atoms: C_2  and  C_5 
REMARK    4  A    between atoms: C_5  and  C_7 
REMARK    5  A    between atoms: C_5  and  N_17 
REMARK       I    between atoms: C_7  and  N_9 
REMARK    6  A    between atoms: N_9  and  C_10 
REMARK       I    between atoms: N_17  and  C_18 
REMARK       I    between atoms: C_18  and  N_20 
ROOT
ATOM      1  N   LIG d   1       3.722  -0.874  -5.598  0.00  0.00    -0.288 N 
ATOM      2  C   LIG d   1       4.449  -0.254  -6.549  0.00  0.00     0.303 C 
ATOM      3  O   LIG d   1       5.645  -0.100  -6.397  0.00  0.00    -0.253 OA
ATOM      4  N   LIG d   1       3.849   0.194  -7.671  0.00  0.00    -0.285 N 
ATOM      5  C   LIG d   1       2.430  -0.083  -7.924  0.00  0.00     0.021 C 
ATOM      6  C   LIG d   1       2.246  -0.658  -9.321  0.00  0.00    -0.006 C 
ATOM      7  H   LIG d   1       1.182  -0.646  -9.555  0.00  0.00     0.033 H 
ATOM      8  C   LIG d   1       2.955   0.204 -10.367  0.00  0.00    -0.037 C 
ATOM      9  C   LIG d   1       4.446   0.256 -10.020  0.00  0.00     0.016 C 
ATOM     10  H   LIG d   1       4.995   0.781 -10.802  0.00  0.00     0.038 H 
ATOM     11  C   LIG d   1       4.601   0.975  -8.665  0.00  0.00     0.024 C 
ATOM     12  C   LIG d   1       4.982  -1.149  -9.862  0.00  0.00     0.027 A 
ATOM     13  C   LIG d   1       6.313  -1.335 -10.068  0.00  0.00    -0.042 A 
ATOM     14  C   LIG d   1       6.904  -2.577  -9.810  0.00  0.00    -0.055 A 
ATOM     15  C   LIG d   1       6.124  -3.593  -9.339  0.00  0.00     0.003 A 
ATOM     16  C   LIG d   1       4.753  -3.370  -9.152  0.00  0.00     0.252 A 
ATOM     17  O   LIG d   1       4.055  -4.258  -8.689  0.00  0.00    -0.268 OA
ATOM     18  N   LIG d   1       4.193  -2.180  -9.482  0.00  0.00    -0.312 N 
ATOM     19  C   LIG d   1       2.735  -2.091  -9.416  0.00  0.00     0.031 C 
ATOM     20  H   LIG d   1       2.783  -1.064  -5.751  0.00  0.00     0.151 HD
ATOM     21  H   LIG d   1       2.065  -0.799  -7.188  0.00  0.00     0.047 H 
ATOM     22  H   LIG d   1       1.861   0.844  -7.839  0.00  0.00     0.047 H 
ATOM     23  H   LIG d   1       2.824  -0.237 -11.356  0.00  0.00     0.028 H 
ATOM     24  H   LIG d   1       2.540   1.212 -10.355  0.00  0.00     0.028 H 
ATOM     25  H   LIG d   1       4.193   1.984  -8.729  0.00  0.00     0.047 H 
ATOM     26  H   LIG d   1       5.654   1.017  -8.384  0.00  0.00     0.047 H 
ATOM     27  H   LIG d   1       6.919  -0.518 -10.429  0.00  0.00     0.064 H 
ATOM     28  H   LIG d   1       7.959  -2.729  -9.982  0.00  0.00     0.062 H 
ATOM     29  H   LIG d   1       6.558  -4.555  -9.111  0.00  0.00     0.067 H 
ATOM     30  H   LIG d   1       2.387  -2.641  -8.542  0.00  0.00     0.050 H 
ATOM     31  H   LIG d   1       2.313  -2.549 -10.312  0.00  0.00     0.050 H 
ENDROOT
BRANCH   1  32
ATOM     32  C   LIG d   1       4.350  -1.259  -4.331  0.00  0.00     0.103 C 
ATOM     33  H   LIG d   1       5.258  -0.676  -4.185  0.00  0.00     0.060 H 
BRANCH  32  34
ATOM     34  C   LIG d   1       3.379  -0.991  -3.179  0.00  0.00    -0.020 C 
ATOM     35  H   LIG d   1       3.116  -1.933  -2.699  0.00  0.00     0.032 H 
BRANCH  34  36
ATOM     36  C   LIG d   1       4.044  -0.066  -2.157  0.00  0.00    -0.060 C 
ATOM     37  H   LIG d   1       3.732   0.963  -2.341  0.00  0.00     0.023 H 
ATOM     38  H   LIG d   1       3.746  -0.362  -1.152  0.00  0.00     0.023 H 
ATOM     39  H   LIG d   1       5.128  -0.139  -2.252  0.00  0.00     0.023 H 
ENDBRANCH  34  36
BRANCH  34  40
ATOM     40  C   LIG d   1       2.113  -0.324  -3.722  0.00  0.00    -0.060 C 
ATOM     41  H   LIG d   1       1.236  -0.792  -3.275  0.00  0.00     0.023 H 
ATOM     42  H   LIG d   1       2.127   0.737  -3.473  0.00  0.00     0.023 H 
ATOM     43  H   LIG d   1       2.075  -0.443  -4.805  0.00  0.00     0.023 H 
ENDBRANCH  34  40
ENDBRANCH  32  34
BRANCH  32  44
ATOM     44  C   LIG d   1       4.693  -2.725  -4.367  0.00  0.00     0.238 C 
ATOM     45  O   LIG d   1       4.266  -3.470  -3.512  0.00  0.00    -0.273 OA
ATOM     46  N   LIG d   1       5.478  -3.209  -5.351  0.00  0.00    -0.283 N 
ATOM     47  H   LIG d   1       5.887  -2.603  -5.989  0.00  0.00     0.155 HD
BRANCH  46  48
ATOM     48  C   LIG d   1       5.703  -4.588  -5.452  0.00  0.00     0.052 A 
ATOM     49  C   LIG d   1       6.995  -5.090  -5.359  0.00  0.00     0.062 A 
ATOM     50  C   LIG d   1       7.214  -6.451  -5.460  0.00  0.00    -0.042 A 
ATOM     51 CL   LIG d   1       8.333  -4.010  -5.117  0.00  0.00    -0.082 Cl
ATOM     52  C   LIG d   1       6.148  -7.311  -5.648  0.00  0.00    -0.060 A 
ATOM     53  H   LIG d   1       8.218  -6.843  -5.388  0.00  0.00     0.063 H 
ATOM     54  C   LIG d   1       4.862  -6.814  -5.745  0.00  0.00    -0.060 A 
ATOM     55  H   LIG d   1       6.321  -8.376  -5.721  0.00  0.00     0.062 H 
ATOM     56  C   LIG d   1       4.637  -5.455  -5.645  0.00  0.00    -0.039 A 
ATOM     57  H   LIG d   1       4.032  -7.488  -5.896  0.00  0.00     0.062 H 
ATOM     58  H   LIG d   1       3.631  -5.067  -5.718  0.00  0.00     0.064 H 
ENDBRANCH  46  48
ENDBRANCH  32  44
ENDBRANCH   1  32
TORSDOF 6
ENDMDL
MODEL 6
REMARK VINA RESULT:      -6.8      3.071      4.046
REMARK  6 active torsions:
REMARK  status: ('A' for Active; 'I' for Inactive)
REMARK    1  A    between atoms: C_1  and  C_2 
REMARK    2  A    between atoms: C_2  and  C_4 
REMARK    3  A    between atoms: C_2  and  C_5 
REMARK    4  A    between atoms: C_5  and  C_7 
REMARK    5  A    between atoms: C_5  and  N_17 
REMARK       I    between atoms: C_7  and  N_9 
REMARK    6  A    between atoms: N_9  and  C_10 
REMARK       I    between atoms: N_17  and  C_18 
REMARK       I    between atoms: C_18  and  N_20 
ROOT
ATOM      1  N   LIG d   1       4.767  -1.300  -5.818  0.00  0.00    -0.288 N 
ATOM      2  C   LIG d   1       3.781  -0.819  -6.602  0.00  0.00     0.303 C 
ATOM      3  O   LIG d   1       3.102   0.114  -6.220  0.00  0.00    -0.253 OA
ATOM      4  N   LIG d   1       3.550  -1.372  -7.809  0.00  0.00    -0.285 N 
ATOM      5  C   LIG d   1       4.431  -2.421  -8.335  0.00  0.00     0.021 C 
ATOM      6  C   LIG d   1       4.871  -2.079  -9.752  0.00  0.00    -0.006 C 
ATOM      7  H   LIG d   1       5.336  -2.965 -10.185  0.00  0.00     0.033 H 
ATOM      8  C   LIG d   1       3.671  -1.714 -10.627  0.00  0.00    -0.037 C 
ATOM      9  C   LIG d   1       2.963  -0.511  -9.999  0.00  0.00     0.016 C 
ATOM     10  H   LIG d   1       2.162  -0.164 -10.652  0.00  0.00     0.038 H 
ATOM     11  C   LIG d   1       2.406  -0.939  -8.627  0.00  0.00     0.024 C 
ATOM     12  C   LIG d   1       3.960   0.602  -9.766  0.00  0.00     0.027 A 
ATOM     13  C   LIG d   1       3.477   1.872  -9.714  0.00  0.00    -0.042 A 
ATOM     14  C   LIG d   1       4.315   2.937  -9.370  0.00  0.00    -0.055 A 
ATOM     15  C   LIG d   1       5.622   2.678  -9.075  0.00  0.00     0.003 A 
ATOM     16  C   LIG d   1       6.091   1.360  -9.151  0.00  0.00     0.252 A 
ATOM     17  O   LIG d   1       7.246   1.111  -8.846  0.00  0.00    -0.268 OA
ATOM     18  N   LIG d   1       5.275   0.357  -9.562  0.00  0.00    -0.312 N 
ATOM     19  C   LIG d   1       5.888  -0.953  -9.775  0.00  0.00     0.031 C 
ATOM     20  H   LIG d   1       5.358  -1.993  -6.152  0.00  0.00     0.151 HD
ATOM     21  H   LIG d   1       5.309  -2.509  -7.696  0.00  0.00     0.047 H 
ATOM     22  H   LIG d   1       3.895  -3.371  -8.345  0.00  0.00     0.047 H 
ATOM     23  H   LIG d   1       4.013  -1.457 -11.629  0.00  0.00     0.028 H 
ATOM     24  H   LIG d   1       2.984  -2.559 -10.678  0.00  0.00     0.028 H 
ATOM     25  H   LIG d   1       1.706  -1.766  -8.751  0.00  0.00     0.047 H 
ATOM     26  H   LIG d   1       1.905  -0.098  -8.149  0.00  0.00     0.047 H 
ATOM     27  H   LIG d   1       2.438   2.059  -9.939  0.00  0.00     0.064 H 
ATOM     28  H   LIG d   1       3.935   3.947  -9.338  0.00  0.00     0.062 H 
ATOM     29  H   LIG d   1       6.287   3.479  -8.784  0.00  0.00     0.067 H 
ATOM     30  H   LIG d   1       6.627  -1.129  -8.994  0.00  0.00     0.050 H 
ATOM     31  H   LIG d   1       6.391  -0.953 -10.743  0.00  0.00     0.050 H 
ENDROOT
BRANCH   1  32
ATOM     32  C   LIG d   1       4.947  -0.777  -4.462  0.00  0.00     0.103 C 
ATOM     33  H   LIG d   1       4.153  -0.064  -4.241  0.00  0.00     0.060 H 
BRANCH  32  34
ATOM     34  C   LIG d   1       4.890  -1.931  -3.459  0.00  0.00    -0.020 C 
ATOM     35  H   LIG d   1       5.769  -1.896  -2.815  0.00  0.00     0.032 H 
BRANCH  34  36
ATOM     36  C   LIG d   1       3.627  -1.802  -2.604  0.00  0.00    -0.060 C 
ATOM     37  H   LIG d   1       2.773  -1.588  -3.247  0.00  0.00     0.023 H 
ATOM     38  H   LIG d   1       3.454  -2.735  -2.069  0.00  0.00     0.023 H 
ATOM     39  H   LIG d   1       3.755  -0.990  -1.887  0.00  0.00     0.023 H 
ENDBRANCH  34  36
BRANCH  34  40
ATOM     40  C   LIG d   1       4.861  -3.262  -4.213  0.00  0.00    -0.060 C 
ATOM     41  H   LIG d   1       3.912  -3.359  -4.741  0.00  0.00     0.023 H 
ATOM     42  H   LIG d   1       5.681  -3.291  -4.930  0.00  0.00     0.023 H 
ATOM     43  H   LIG d   1       4.968  -4.083  -3.504  0.00  0.00     0.023 H 
ENDBRANCH  34  40
ENDBRANCH  32  34
BRANCH  32  44
ATOM     44  C   LIG d   1       6.283  -0.089  -4.361  0.00  0.00     0.238 C 
ATOM     45  O   LIG d   1       6.966  -0.232  -3.370  0.00  0.00    -0.273 OA
ATOM     46  N   LIG d   1       6.719   0.687  -5.374  0.00  0.00    -0.283 N 
ATOM     47  H   LIG d   1       6.140   0.867  -6.132  0.00  0.00     0.155 HD
BRANCH  46  48
ATOM     48  C   LIG d   1       8.008   1.231  -5.333  0.00  0.00     0.052 A 
ATOM     49  C   LIG d   1       9.077   0.532  -5.881  0.00  0.00     0.062 A 
ATOM     50  C   LIG d   1      10.348   1.072  -5.838  0.00  0.00    -0.042 A 
ATOM     51 CL   LIG d   1       8.815  -1.019  -6.618  0.00  0.00    -0.082 Cl
ATOM     52  C   LIG d   1      10.556   2.309  -5.256  0.00  0.00    -0.060 A 
ATOM     53  H   LIG d   1      11.180   0.529  -6.263  0.00  0.00     0.063 H 
ATOM     54  C   LIG d   1       9.495   3.005  -4.707  0.00  0.00    -0.060 A 
ATOM     55  H   LIG d   1      11.550   2.732  -5.229  0.00  0.00     0.062 H 
ATOM     56  C   LIG d   1       8.222   2.470  -4.746  0.00  0.00    -0.039 A 
ATOM     57  H   LIG d   1       9.662   3.968  -4.249  0.00  0.00     0.062 H 
ATOM     58  H   LIG d   1       7.394   3.017  -4.320  0.00  0.00     0.064 H 
ENDBRANCH  46  48
ENDBRANCH  32  44
ENDBRANCH   1  32
TORSDOF 6
ENDMDL
MODEL 7
REMARK VINA RESULT:      -6.3      3.042      5.724
REMARK  6 active torsions:
REMARK  status: ('A' for Active; 'I' for Inactive)
REMARK    1  A    between atoms: C_1  and  C_2 
REMARK    2  A    between atoms: C_2  and  C_4 
REMARK    3  A    between atoms: C_2  and  C_5 
REMARK    4  A    between atoms: C_5  and  C_7 
REMARK    5  A    between atoms: C_5  and  N_17 
REMARK       I    between atoms: C_7  and  N_9 
REMARK    6  A    between atoms: N_9  and  C_10 
REMARK       I    between atoms: N_17  and  C_18 
REMARK       I    between atoms: C_18  and  N_20 
ROOT
ATOM      1  N   LIG d   1       5.653   0.213  -4.997  0.00  0.00    -0.288 N 
ATOM      2  C   LIG d   1       6.742  -0.494  -5.361  0.00  0.00     0.303 C 
ATOM      3  O   LIG d   1       6.615  -1.607  -5.833  0.00  0.00    -0.253 OA
ATOM      4  N   LIG d   1       7.972   0.034  -5.202  0.00  0.00    -0.285 N 
ATOM      5  C   LIG d   1       8.141   1.417  -4.741  0.00  0.00     0.021 C 
ATOM      6  C   LIG d   1       9.092   2.167  -5.664  0.00  0.00    -0.006 C 
ATOM      7  H   LIG d   1       9.363   3.106  -5.180  0.00  0.00     0.033 H 
ATOM      8  C   LIG d   1      10.382   1.376  -5.885  0.00  0.00    -0.037 C 
ATOM      9  C   LIG d   1      10.018   0.023  -6.505  0.00  0.00     0.016 C 
ATOM     10  H   LIG d   1      10.923  -0.525  -6.766  0.00  0.00     0.038 H 
ATOM     11  C   LIG d   1       9.175  -0.766  -5.482  0.00  0.00     0.024 C 
ATOM     12  C   LIG d   1       9.167   0.239  -7.736  0.00  0.00     0.027 A 
ATOM     13  C   LIG d   1       9.179  -0.738  -8.681  0.00  0.00    -0.042 A 
ATOM     14  C   LIG d   1       8.317  -0.672  -9.781  0.00  0.00    -0.055 A 
ATOM     15  C   LIG d   1       7.458   0.383  -9.883  0.00  0.00     0.003 A 
ATOM     16  C   LIG d   1       7.483   1.380  -8.898  0.00  0.00     0.252 A 
ATOM     17  O   LIG d   1       6.688   2.305  -8.956  0.00  0.00    -0.268 OA
ATOM     18  N   LIG d   1       8.381   1.330  -7.883  0.00  0.00    -0.312 N 
ATOM     19  C   LIG d   1       8.451   2.493  -7.000  0.00  0.00     0.031 C 
ATOM     20  H   LIG d   1       5.749   1.129  -4.691  0.00  0.00     0.151 HD
ATOM     21  H   LIG d   1       7.173   1.917  -4.737  0.00  0.00     0.047 H 
ATOM     22  H   LIG d   1       8.550   1.414  -3.730  0.00  0.00     0.047 H 
ATOM     23  H   LIG d   1      11.037   1.924  -6.561  0.00  0.00     0.028 H 
ATOM     24  H   LIG d   1      10.885   1.219  -4.931  0.00  0.00     0.028 H 
ATOM     25  H   LIG d   1       9.745  -0.912  -4.564  0.00  0.00     0.047 H 
ATOM     26  H   LIG d   1       8.890  -1.731  -5.900  0.00  0.00     0.047 H 
ATOM     27  H   LIG d   1       9.856  -1.573  -8.580  0.00  0.00     0.064 H 
ATOM     28  H   LIG d   1       8.332  -1.442 -10.538  0.00  0.00     0.062 H 
ATOM     29  H   LIG d   1       6.767   0.449 -10.710  0.00  0.00     0.067 H 
ATOM     30  H   LIG d   1       7.441   2.865  -6.825  0.00  0.00     0.050 H 
ATOM     31  H   LIG d   1       9.034   3.273  -7.490  0.00  0.00     0.050 H 
ENDROOT
BRANCH   1  32
ATOM     32  C   LIG d   1       4.325  -0.402  -5.062  0.00  0.00     0.103 C 
ATOM     33  H   LIG d   1       4.401  -1.457  -4.804  0.00  0.00     0.060 H 
BRANCH  32  34
ATOM     34  C   LIG d   1       3.390   0.300  -4.075  0.00  0.00    -0.020 C 
ATOM     35  H   LIG d   1       2.703   0.946  -4.621  0.00  0.00     0.032 H 
BRANCH  34  36
ATOM     36  C   LIG d   1       2.592  -0.749  -3.296  0.00  0.00    -0.060 C 
ATOM     37  H   LIG d   1       2.093  -1.420  -3.996  0.00  0.00     0.023 H 
ATOM     38  H   LIG d   1       3.268  -1.322  -2.662  0.00  0.00     0.023 H 
ATOM     39  H   LIG d   1       1.847  -0.250  -2.675  0.00  0.00     0.023 H 
ENDBRANCH  34  36
BRANCH  34  40
ATOM     40  C   LIG d   1       4.215   1.140  -3.099  0.00  0.00    -0.060 C 
ATOM     41  H   LIG d   1       4.552   0.512  -2.273  0.00  0.00     0.023 H 
ATOM     42  H   LIG d   1       5.080   1.554  -3.617  0.00  0.00     0.023 H 
ATOM     43  H   LIG d   1       3.602   1.952  -2.709  0.00  0.00     0.023 H 
ENDBRANCH  34  40
ENDBRANCH  32  34
BRANCH  32  44
ATOM     44  C   LIG d   1       3.776  -0.264  -6.458  0.00  0.00     0.238 C 
ATOM     45  O   LIG d   1       3.532   0.835  -6.909  0.00  0.00    -0.273 OA
ATOM     46  N   LIG d   1       3.555  -1.363  -7.207  0.00  0.00    -0.283 N 
ATOM     47  H   LIG d   1       3.673  -2.245  -6.820  0.00  0.00     0.155 HD
BRANCH  46  48
ATOM     48  C   LIG d   1       3.156  -1.232  -8.542  0.00  0.00     0.052 A 
ATOM     49  C   LIG d   1       3.946  -1.755  -9.559  0.00  0.00     0.062 A 
ATOM     50  C   LIG d   1       3.550  -1.623 -10.876  0.00  0.00    -0.042 A 
ATOM     51 CL   LIG d   1       5.429  -2.573  -9.175  0.00  0.00    -0.082 Cl
ATOM     52  C   LIG d   1       2.367  -0.976 -11.182  0.00  0.00    -0.060 A 
ATOM     53  H   LIG d   1       4.163  -2.029 -11.668  0.00  0.00     0.063 H 
ATOM     54  C   LIG d   1       1.581  -0.451 -10.172  0.00  0.00    -0.060 A 
ATOM     55  H   LIG d   1       2.056  -0.879 -12.212  0.00  0.00     0.062 H 
ATOM     56  C   LIG d   1       1.972  -0.579  -8.854  0.00  0.00    -0.039 A 
ATOM     57  H   LIG d   1       0.660   0.057 -10.415  0.00  0.00     0.062 H 
ATOM     58  H   LIG d   1       1.355  -0.172  -8.066  0.00  0.00     0.064 H 
ENDBRANCH  46  48
ENDBRANCH  32  44
ENDBRANCH   1  32
TORSDOF 6
ENDMDL
MODEL 8
REMARK VINA RESULT:      -6.0      2.709      5.200
REMARK  6 active torsions:
REMARK  status: ('A' for Active; 'I' for Inactive)
REMARK    1  A    between atoms: C_1  and  C_2 
REMARK    2  A    between atoms: C_2  and  C_4 
REMARK    3  A    between atoms: C_2  and  C_5 
REMARK    4  A    between atoms: C_5  and  C_7 
REMARK    5  A    between atoms: C_5  and  N_17 
REMARK       I    between atoms: C_7  and  N_9 
REMARK    6  A    between atoms: N_9  and  C_10 
REMARK       I    between atoms: N_17  and  C_18 
REMARK       I    between atoms: C_18  and  N_20 
ROOT
ATOM      1  N   LIG d   1       4.422  -0.361  -5.311  0.00  0.00    -0.288 N 
ATOM      2  C   LIG d   1       4.954   0.168  -6.431  0.00  0.00     0.303 C 
ATOM      3  O   LIG d   1       6.131   0.467  -6.463  0.00  0.00    -0.253 OA
ATOM      4  N   LIG d   1       4.180   0.363  -7.518  0.00  0.00    -0.285 N 
ATOM      5  C   LIG d   1       2.786  -0.097  -7.538  0.00  0.00     0.021 C 
ATOM      6  C   LIG d   1       2.516  -0.907  -8.798  0.00  0.00    -0.006 C 
ATOM      7  H   LIG d   1       1.439  -1.044  -8.888  0.00  0.00     0.033 H 
ATOM      8  C   LIG d   1       2.990  -0.158 -10.044  0.00  0.00    -0.037 C 
ATOM      9  C   LIG d   1       4.492   0.104  -9.908  0.00  0.00     0.016 C 
ATOM     10  H   LIG d   1       4.880   0.549 -10.825  0.00  0.00     0.038 H 
ATOM     11  C   LIG d   1       4.712   1.046  -8.707  0.00  0.00     0.024 C 
ATOM     12  C   LIG d   1       5.212  -1.193  -9.616  0.00  0.00     0.027 A 
ATOM     13  C   LIG d   1       6.524  -1.271  -9.965  0.00  0.00    -0.042 A 
ATOM     14  C   LIG d   1       7.289  -2.387  -9.606  0.00  0.00    -0.055 A 
ATOM     15  C   LIG d   1       6.699  -3.388  -8.891  0.00  0.00     0.003 A 
ATOM     16  C   LIG d   1       5.341  -3.281  -8.560  0.00  0.00     0.252 A 
ATOM     17  O   LIG d   1       4.815  -4.150  -7.882  0.00  0.00    -0.268 OA
ATOM     18  N   LIG d   1       4.605  -2.225  -8.986  0.00  0.00    -0.312 N 
ATOM     19  C   LIG d   1       3.164  -2.279  -8.742  0.00  0.00     0.031 C 
ATOM     20  H   LIG d   1       3.502  -0.670  -5.309  0.00  0.00     0.151 HD
ATOM     21  H   LIG d   1       2.598  -0.718  -6.662  0.00  0.00     0.047 H 
ATOM     22  H   LIG d   1       2.121   0.767  -7.517  0.00  0.00     0.047 H 
ATOM     23  H   LIG d   1       2.803  -0.765 -10.930  0.00  0.00     0.028 H 
ATOM     24  H   LIG d   1       2.458   0.789 -10.128  0.00  0.00     0.028 H 
ATOM     25  H   LIG d   1       4.178   1.983  -8.866  0.00  0.00     0.047 H 
ATOM     26  H   LIG d   1       5.776   1.242  -8.577  0.00  0.00     0.047 H 
ATOM     27  H   LIG d   1       6.979  -0.466 -10.520  0.00  0.00     0.064 H 
ATOM     28  H   LIG d   1       8.328  -2.455  -9.891  0.00  0.00     0.062 H 
ATOM     29  H   LIG d   1       7.271  -4.250  -8.582  0.00  0.00     0.067 H 
ATOM     30  H   LIG d   1       2.988  -2.712  -7.758  0.00  0.00     0.050 H 
ATOM     31  H   LIG d   1       2.702  -2.917  -9.496  0.00  0.00     0.050 H 
ENDROOT
BRANCH   1  32
ATOM     32  C   LIG d   1       5.232  -0.468  -4.095  0.00  0.00     0.103 C 
ATOM     33  H   LIG d   1       5.805   0.448  -3.960  0.00  0.00     0.060 H 
BRANCH  32  34
ATOM     34  C   LIG d   1       4.315  -0.679  -2.888  0.00  0.00    -0.020 C 
ATOM     35  H   LIG d   1       4.590  -1.603  -2.380  0.00  0.00     0.032 H 
BRANCH  34  36
ATOM     36  C   LIG d   1       4.465   0.498  -1.922  0.00  0.00    -0.060 C 
ATOM     37  H   LIG d   1       5.464   0.485  -1.485  0.00  0.00     0.023 H 
ATOM     38  H   LIG d   1       4.317   1.432  -2.462  0.00  0.00     0.023 H 
ATOM     39  H   LIG d   1       3.721   0.414  -1.129  0.00  0.00     0.023 H 
ENDBRANCH  34  36
BRANCH  34  40
ATOM     40  C   LIG d   1       2.862  -0.769  -3.360  0.00  0.00    -0.060 C 
ATOM     41  H   LIG d   1       2.249  -0.078  -2.780  0.00  0.00     0.023 H 
ATOM     42  H   LIG d   1       2.807  -0.506  -4.416  0.00  0.00     0.023 H 
ATOM     43  H   LIG d   1       2.496  -1.785  -3.218  0.00  0.00     0.023 H 
ENDBRANCH  34  40
ENDBRANCH  32  34
BRANCH  32  44
ATOM     44  C   LIG d   1       6.174  -1.637  -4.221  0.00  0.00     0.238 C 
ATOM     45  O   LIG d   1       5.744  -2.736  -4.497  0.00  0.00    -0.273 OA
ATOM     46  N   LIG d   1       7.496  -1.461  -4.025  0.00  0.00    -0.283 N 
ATOM     47  H   LIG d   1       7.832  -0.602  -3.725  0.00  0.00     0.155 HD
BRANCH  46  48
ATOM     48  C   LIG d   1       8.384  -2.519  -4.255  0.00  0.00     0.052 A 
ATOM     49  C   LIG d   1       9.111  -2.572  -5.439  0.00  0.00     0.062 A 
ATOM     50  C   LIG d   1       9.986  -3.617  -5.663  0.00  0.00    -0.042 A 
ATOM     51 CL   LIG d   1       8.918  -1.328  -6.634  0.00  0.00    -0.082 Cl
ATOM     52  C   LIG d   1      10.143  -4.606  -4.709  0.00  0.00    -0.060 A 
ATOM     53  H   LIG d   1      10.551  -3.661  -6.583  0.00  0.00     0.063 H 
ATOM     54  C   LIG d   1       9.419  -4.557  -3.532  0.00  0.00    -0.060 A 
ATOM     55  H   LIG d   1      10.832  -5.419  -4.884  0.00  0.00     0.062 H 
ATOM     56  C   LIG d   1       8.542  -3.515  -3.302  0.00  0.00    -0.039 A 
ATOM     57  H   LIG d   1       9.541  -5.332  -2.791  0.00  0.00     0.062 H 
ATOM     58  H   LIG d   1       7.980  -3.476  -2.381  0.00  0.00     0.064 H 
ENDBRANCH  46  48
ENDBRANCH  32  44
ENDBRANCH   1  32
TORSDOF 6
ENDMDL
MODEL 9
REMARK VINA RESULT:      -6.0      4.316      7.383
REMARK  6 active torsions:
REMARK  status: ('A' for Active; 'I' for Inactive)
REMARK    1  A    between atoms: C_1  and  C_2 
REMARK    2  A    between atoms: C_2  and  C_4 
REMARK    3  A    between atoms: C_2  and  C_5 
REMARK    4  A    between atoms: C_5  and  C_7 
REMARK    5  A    between atoms: C_5  and  N_17 
REMARK       I    between atoms: C_7  and  N_9 
REMARK    6  A    between atoms: N_9  and  C_10 
REMARK       I    between atoms: N_17  and  C_18 
REMARK       I    between atoms: C_18  and  N_20 
ROOT
ATOM      1  N   LIG d   1       6.911  -6.026  -5.197  0.00  0.00    -0.288 N 
ATOM      2  C   LIG d   1       8.141  -6.353  -5.642  0.00  0.00     0.303 C 
ATOM      3  O   LIG d   1       8.627  -5.753  -6.580  0.00  0.00    -0.253 OA
ATOM      4  N   LIG d   1       8.832  -7.345  -5.045  0.00  0.00    -0.285 N 
ATOM      5  C   LIG d   1       8.311  -8.004  -3.842  0.00  0.00     0.021 C 
ATOM      6  C   LIG d   1       9.378  -8.039  -2.757  0.00  0.00    -0.006 C 
ATOM      7  H   LIG d   1       9.039  -8.715  -1.972  0.00  0.00     0.033 H 
ATOM      8  C   LIG d   1      10.697  -8.589  -3.300  0.00  0.00    -0.037 C 
ATOM      9  C   LIG d   1      11.157  -7.690  -4.451  0.00  0.00     0.016 C 
ATOM     10  H   LIG d   1      12.145  -7.998  -4.796  0.00  0.00     0.038 H 
ATOM     11  C   LIG d   1      10.123  -7.794  -5.590  0.00  0.00     0.024 C 
ATOM     12  C   LIG d   1      11.194  -6.251  -3.990  0.00  0.00     0.027 A 
ATOM     13  C   LIG d   1      12.031  -5.406  -4.649  0.00  0.00    -0.042 A 
ATOM     14  C   LIG d   1      12.021  -4.035  -4.368  0.00  0.00    -0.055 A 
ATOM     15  C   LIG d   1      11.150  -3.560  -3.432  0.00  0.00     0.003 A 
ATOM     16  C   LIG d   1      10.310  -4.460  -2.763  0.00  0.00     0.252 A 
ATOM     17  O   LIG d   1       9.495  -4.041  -1.956  0.00  0.00    -0.268 OA
ATOM     18  N   LIG d   1      10.394  -5.793  -2.999  0.00  0.00    -0.312 N 
ATOM     19  C   LIG d   1       9.605  -6.672  -2.137  0.00  0.00     0.031 C 
ATOM     20  H   LIG d   1       6.553  -6.453  -4.402  0.00  0.00     0.151 HD
ATOM     21  H   LIG d   1       7.443  -7.455  -3.477  0.00  0.00     0.047 H 
ATOM     22  H   LIG d   1       8.015  -9.024  -4.088  0.00  0.00     0.047 H 
ATOM     23  H   LIG d   1      11.448  -8.588  -2.511  0.00  0.00     0.028 H 
ATOM     24  H   LIG d   1      10.548  -9.605  -3.666  0.00  0.00     0.028 H 
ATOM     25  H   LIG d   1      10.043  -8.828  -5.927  0.00  0.00     0.047 H 
ATOM     26  H   LIG d   1      10.418  -7.154  -6.421  0.00  0.00     0.047 H 
ATOM     27  H   LIG d   1      12.707  -5.795  -5.395  0.00  0.00     0.064 H 
ATOM     28  H   LIG d   1      12.693  -3.364  -4.883  0.00  0.00     0.062 H 
ATOM     29  H   LIG d   1      11.105  -2.504  -3.212  0.00  0.00     0.067 H 
ATOM     30  H   LIG d   1       8.638  -6.206  -1.947  0.00  0.00     0.050 H 
ATOM     31  H   LIG d   1      10.128  -6.797  -1.189  0.00  0.00     0.050 H 
ENDROOT
BRANCH   1  32
ATOM     32  C   LIG d   1       6.113  -5.028  -5.913  0.00  0.00     0.103 C 
ATOM     33  H   LIG d   1       6.653  -4.703  -6.802  0.00  0.00     0.060 H 
BRANCH  32  34
ATOM     34  C   LIG d   1       4.775  -5.645  -6.326  0.00  0.00    -0.020 C 
ATOM     35  H   LIG d   1       3.964  -5.131  -5.811  0.00  0.00     0.032 H 
BRANCH  34  36
ATOM     36  C   LIG d   1       4.592  -5.500  -7.839  0.00  0.00    -0.060 C 
ATOM     37  H   LIG d   1       5.406  -4.900  -8.248  0.00  0.00     0.023 H 
ATOM     38  H   LIG d   1       4.599  -6.486  -8.302  0.00  0.00     0.023 H 
ATOM     39  H   LIG d   1       3.640  -5.008  -8.044  0.00  0.00     0.023 H 
ENDBRANCH  34  36
BRANCH  34  40
ATOM     40  C   LIG d   1       4.760  -7.128  -5.951  0.00  0.00    -0.060 C 
ATOM     41  H   LIG d   1       4.789  -7.732  -6.859  0.00  0.00     0.023 H 
ATOM     42  H   LIG d   1       5.629  -7.357  -5.335  0.00  0.00     0.023 H 
ATOM     43  H   LIG d   1       3.850  -7.354  -5.395  0.00  0.00     0.023 H 
ENDBRANCH  34  40
ENDBRANCH  32  34
BRANCH  32  44
ATOM     44  C   LIG d   1       5.865  -3.845  -5.015  0.00  0.00     0.238 C 
ATOM     45  O   LIG d   1       6.798  -3.264  -4.503  0.00  0.00    -0.273 OA
ATOM     46  N   LIG d   1       4.603  -3.432  -4.779  0.00  0.00    -0.283 N 
ATOM     47  H   LIG d   1       3.853  -3.943  -5.121  0.00  0.00     0.155 HD
BRANCH  46  48
ATOM     48  C   LIG d   1       4.376  -2.264  -4.039  0.00  0.00     0.052 A 
ATOM     49  C   LIG d   1       4.182  -1.054  -4.694  0.00  0.00     0.062 A 
ATOM     50  C   LIG d   1       3.959   0.097  -3.961  0.00  0.00    -0.042 A 
ATOM     51 CL   LIG d   1       4.221  -0.986  -6.428  0.00  0.00    -0.082 Cl
ATOM     52  C   LIG d   1       3.923   0.042  -2.580  0.00  0.00    -0.060 A 
ATOM     53  H   LIG d   1       3.809   1.039  -4.468  0.00  0.00     0.063 H 
ATOM     54  C   LIG d   1       4.119  -1.160  -1.927  0.00  0.00    -0.060 A 
ATOM     55  H   LIG d   1       3.743   0.942  -2.010  0.00  0.00     0.062 H 
ATOM     56  C   LIG d   1       4.344  -2.313  -2.653  0.00  0.00    -0.039 A 
ATOM     57  H   LIG d   1       4.095  -1.199  -0.848  0.00  0.00     0.062 H 
ATOM     58  H   LIG d   1       4.493  -3.253  -2.142  0.00  0.00     0.064 H 
ENDBRANCH  46  48
ENDBRANCH  32  44
ENDBRANCH   1  32
TORSDOF 6
ENDMDL
