MODEL 1
REMARK VINA RESULT:      -8.0      0.000      0.000
REMARK  4 active torsions:
REMARK  status: ('A' for Active; 'I' for Inactive)
REMARK    1  A    between atoms: C_1  and  C_2 
REMARK    2  A    between atoms: C_12  and  C_13 
REMARK    3  A    between atoms: C_13  and  C_14 
REMARK       I    between atoms: C_14  and  N_16 
REMARK    4  A    between atoms: C_19  and  C_22 
ROOT
ATOM      1  C   LIG d   1       9.285   3.283  -6.066  0.00  0.00    -0.029 A 
ATOM      2  C   LIG d   1       8.446   2.237  -5.475  0.00  0.00     0.021 A 
ATOM      3  C   LIG d   1       7.784   1.304  -6.279  0.00  0.00    -0.044 A 
ATOM      4  C   LIG d   1       7.015   0.328  -5.708  0.00  0.00    -0.005 A 
ATOM      5  C   LIG d   1       6.883   0.259  -4.325  0.00  0.00     0.128 A 
ATOM      6  C   LIG d   1       7.527   1.184  -3.513  0.00  0.00     0.023 A 
ATOM      7  C   LIG d   1       8.311   2.180  -4.076  0.00  0.00     0.143 A 
ATOM      8  O   LIG d   1       8.939   3.082  -3.294  0.00  0.00    -0.422 OA
ATOM      9  C   LIG d   1       9.719   4.027  -3.832  0.00  0.00     0.341 A 
ATOM     10  O   LIG d   1      10.291   4.807  -3.092  0.00  0.00    -0.245 OA
ATOM     11  C   LIG d   1       9.906   4.150  -5.223  0.00  0.00     0.049 A 
ATOM     12  O   LIG d   1       6.138  -0.707  -3.728  0.00  0.00    -0.485 OA
ATOM     13  C   LIG d   1       5.196  -1.416  -4.530  0.00  0.00     0.111 C 
ATOM     14  C   LIG d   1       4.034  -0.494  -4.902  0.00  0.00    -0.013 C 
ATOM     15  C   LIG d   1       3.328  -0.023  -3.628  0.00  0.00    -0.049 C 
ATOM     16  C   LIG d   1       2.794  -1.236  -2.863  0.00  0.00    -0.053 C 
ATOM     17  C   LIG d   1       3.959  -2.154  -2.489  0.00  0.00    -0.049 C 
ATOM     18  C   LIG d   1       4.666  -2.626  -3.761  0.00  0.00    -0.013 C 
ATOM     19  C   LIG d   1       5.899  -1.890  -5.808  0.00  0.00    -0.009 C 
ATOM     20  C   LIG d   1       6.317  -0.657  -6.612  0.00  0.00    -0.021 C 
ATOM     21  H   LIG d   1       7.882   1.354  -7.353  0.00  0.00     0.063 H 
ATOM     22  H   LIG d   1       7.416   1.130  -2.440  0.00  0.00     0.069 H 
ATOM     23  H   LIG d   1       4.416   0.371  -5.446  0.00  0.00     0.030 H 
ATOM     24  H   LIG d   1       3.327  -1.035  -5.530  0.00  0.00     0.030 H 
ATOM     25  H   LIG d   1       4.034   0.520  -3.001  0.00  0.00     0.027 H 
ATOM     26  H   LIG d   1       2.499   0.633  -3.894  0.00  0.00     0.027 H 
ATOM     27  H   LIG d   1       2.290  -0.901  -1.958  0.00  0.00     0.026 H 
ATOM     28  H   LIG d   1       2.089  -1.780  -3.492  0.00  0.00     0.026 H 
ATOM     29  H   LIG d   1       4.665  -1.610  -1.861  0.00  0.00     0.027 H 
ATOM     30  H   LIG d   1       3.579  -3.019  -1.942  0.00  0.00     0.027 H 
ATOM     31  H   LIG d   1       3.961  -3.174  -4.386  0.00  0.00     0.030 H 
ATOM     32  H   LIG d   1       5.497  -3.279  -3.494  0.00  0.00     0.030 H 
ATOM     33  H   LIG d   1       6.782  -2.473  -5.545  0.00  0.00     0.031 H 
ATOM     34  H   LIG d   1       5.217  -2.501  -6.397  0.00  0.00     0.031 H 
ATOM     35  H   LIG d   1       5.432  -0.189  -7.044  0.00  0.00     0.032 H 
ATOM     36  H   LIG d   1       6.994  -0.958  -7.412  0.00  0.00     0.032 H 
ENDROOT
BRANCH  11  37
ATOM     37  C   LIG d   1      10.789   5.239  -5.775  0.00  0.00     0.056 C 
ATOM     38  H   LIG d   1      11.561   5.486  -5.046  0.00  0.00     0.041 H 
ATOM     39  H   LIG d   1      11.258   4.895  -6.697  0.00  0.00     0.041 H 
BRANCH  37  40
ATOM     40  C   LIG d   1       9.957   6.464  -6.061  0.00  0.00     0.220 C 
ATOM     41  O   LIG d   1       9.197   6.889  -5.218  0.00  0.00    -0.275 OA
ATOM     42  N   LIG d   1      10.058   7.083  -7.253  0.00  0.00    -0.301 N 
ATOM     43  C   LIG d   1       9.253   8.278  -7.546  0.00  0.00     0.015 C 
ATOM     44  C   LIG d   1      10.970   6.574  -8.287  0.00  0.00     0.015 C 
ATOM     45  C   LIG d   1      10.196   9.401  -8.003  0.00  0.00    -0.029 C 
ATOM     46  H   LIG d   1       8.539   8.052  -8.337  0.00  0.00     0.046 H 
ATOM     47  H   LIG d   1       8.721   8.588  -6.647  0.00  0.00     0.046 H 
ATOM     48  C   LIG d   1      11.038   8.906  -9.182  0.00  0.00     0.001 C 
ATOM     49  H   LIG d   1      10.854   9.685  -7.181  0.00  0.00     0.029 H 
ATOM     50  H   LIG d   1       9.608  10.265  -8.314  0.00  0.00     0.029 H 
ATOM     51  C   LIG d   1      11.889   7.715  -8.737  0.00  0.00    -0.029 C 
ATOM     52  H   LIG d   1      10.379   8.599  -9.995  0.00  0.00     0.036 H 
ATOM     53  H   LIG d   1      12.531   8.014  -7.908  0.00  0.00     0.029 H 
ATOM     54  H   LIG d   1      12.505   7.377  -9.571  0.00  0.00     0.029 H 
ATOM     55  H   LIG d   1      11.570   5.762  -7.877  0.00  0.00     0.046 H 
ATOM     56  H   LIG d   1      10.392   6.213  -9.138  0.00  0.00     0.046 H 
BRANCH  48  57
ATOM     57  C   LIG d   1      11.938  10.017  -9.658  0.00  0.00     0.045 C 
ATOM     58  O   LIG d   1      11.601  10.713 -10.601  0.00  0.00    -0.549 OA
ATOM     59  O   LIG d   1      13.004  10.220  -9.100  0.00  0.00    -0.549 OA
ENDBRANCH  48  57
ENDBRANCH  37  40
ENDBRANCH  11  37
BRANCH   1  60
ATOM     60  C   LIG d   1       9.458   3.390  -7.559  0.00  0.00    -0.038 C 
ATOM     61  H   LIG d   1       9.409   4.438  -7.856  0.00  0.00     0.028 H 
ATOM     62  H   LIG d   1      10.427   2.978  -7.842  0.00  0.00     0.028 H 
ATOM     63  H   LIG d   1       8.665   2.833  -8.057  0.00  0.00     0.028 H 
ENDBRANCH   1  60
TORSDOF 4
ENDMDL
MODEL 2
REMARK VINA RESULT:      -7.9      2.466      3.655
REMARK  4 active torsions:
REMARK  status: ('A' for Active; 'I' for Inactive)
REMARK    1  A    between atoms: C_1  and  C_2 
REMARK    2  A    between atoms: C_12  and  C_13 
REMARK    3  A    between atoms: C_13  and  C_14 
REMARK       I    between atoms: C_14  and  N_16 
REMARK    4  A    between atoms: C_19  and  C_22 
ROOT
ATOM      1  C   LIG d   1       9.460   3.318  -5.808  0.00  0.00    -0.029 A 
ATOM      2  C   LIG d   1       8.582   2.259  -5.306  0.00  0.00     0.021 A 
ATOM      3  C   LIG d   1       7.896   1.415  -6.184  0.00  0.00    -0.044 A 
ATOM      4  C   LIG d   1       7.089   0.424  -5.695  0.00  0.00    -0.005 A 
ATOM      5  C   LIG d   1       6.942   0.253  -4.322  0.00  0.00     0.128 A 
ATOM      6  C   LIG d   1       7.610   1.089  -3.437  0.00  0.00     0.023 A 
ATOM      7  C   LIG d   1       8.433   2.098  -3.916  0.00  0.00     0.143 A 
ATOM      8  O   LIG d   1       9.083   2.915  -3.062  0.00  0.00    -0.422 OA
ATOM      9  C   LIG d   1       9.900   3.871  -3.521  0.00  0.00     0.341 A 
ATOM     10  O   LIG d   1      10.491   4.571  -2.719  0.00  0.00    -0.245 OA
ATOM     11  C   LIG d   1      10.103   4.095  -4.897  0.00  0.00     0.049 A 
ATOM     12  O   LIG d   1       6.160  -0.731  -3.807  0.00  0.00    -0.485 OA
ATOM     13  C   LIG d   1       5.202  -1.342  -4.668  0.00  0.00     0.111 C 
ATOM     14  C   LIG d   1       4.075  -0.355  -4.974  0.00  0.00    -0.013 C 
ATOM     15  C   LIG d   1       3.374   0.040  -3.672  0.00  0.00    -0.049 C 
ATOM     16  C   LIG d   1       2.793  -1.210  -3.007  0.00  0.00    -0.053 C 
ATOM     17  C   LIG d   1       3.923  -2.194  -2.698  0.00  0.00    -0.049 C 
ATOM     18  C   LIG d   1       4.625  -2.590  -3.999  0.00  0.00    -0.013 C 
ATOM     19  C   LIG d   1       5.900  -1.739  -5.974  0.00  0.00    -0.009 C 
ATOM     20  C   LIG d   1       6.366  -0.463  -6.678  0.00  0.00    -0.021 C 
ATOM     21  H   LIG d   1       8.005   1.544  -7.250  0.00  0.00     0.063 H 
ATOM     22  H   LIG d   1       7.488   0.955  -2.372  0.00  0.00     0.069 H 
ATOM     23  H   LIG d   1       4.491   0.536  -5.447  0.00  0.00     0.030 H 
ATOM     24  H   LIG d   1       3.355  -0.821  -5.646  0.00  0.00     0.030 H 
ATOM     25  H   LIG d   1       4.093   0.508  -3.000  0.00  0.00     0.027 H 
ATOM     26  H   LIG d   1       2.570   0.742  -3.891  0.00  0.00     0.027 H 
ATOM     27  H   LIG d   1       2.293  -0.929  -2.081  0.00  0.00     0.026 H 
ATOM     28  H   LIG d   1       2.075  -1.679  -3.680  0.00  0.00     0.026 H 
ATOM     29  H   LIG d   1       4.641  -1.725  -2.026  0.00  0.00     0.027 H 
ATOM     30  H   LIG d   1       3.509  -3.085  -2.223  0.00  0.00     0.027 H 
ATOM     31  H   LIG d   1       3.906  -3.063  -4.669  0.00  0.00     0.030 H 
ATOM     32  H   LIG d   1       5.431  -3.290  -3.778  0.00  0.00     0.030 H 
ATOM     33  H   LIG d   1       6.760  -2.371  -5.752  0.00  0.00     0.031 H 
ATOM     34  H   LIG d   1       5.203  -2.279  -6.614  0.00  0.00     0.031 H 
ATOM     35  H   LIG d   1       5.501   0.067  -7.077  0.00  0.00     0.032 H 
ATOM     36  H   LIG d   1       7.039  -0.724  -7.495  0.00  0.00     0.032 H 
ENDROOT
BRANCH  11  37
ATOM     37  C   LIG d   1      11.027   5.193  -5.357  0.00  0.00     0.056 C 
ATOM     38  H   LIG d   1      11.943   5.169  -4.766  0.00  0.00     0.041 H 
ATOM     39  H   LIG d   1      11.270   5.046  -6.409  0.00  0.00     0.041 H 
BRANCH  37  40
ATOM     40  C   LIG d   1      10.349   6.528  -5.178  0.00  0.00     0.220 C 
ATOM     41  O   LIG d   1       9.271   6.733  -5.694  0.00  0.00    -0.275 OA
ATOM     42  N   LIG d   1      10.941   7.491  -4.447  0.00  0.00    -0.301 N 
ATOM     43  C   LIG d   1      10.293   8.798  -4.265  0.00  0.00     0.015 C 
ATOM     44  C   LIG d   1      12.250   7.259  -3.821  0.00  0.00     0.015 C 
ATOM     45  C   LIG d   1      10.207   9.094  -2.760  0.00  0.00    -0.029 C 
ATOM     46  H   LIG d   1      10.881   9.570  -4.759  0.00  0.00     0.046 H 
ATOM     47  H   LIG d   1       9.290   8.770  -4.691  0.00  0.00     0.046 H 
ATOM     48  C   LIG d   1      11.606   8.996  -2.145  0.00  0.00     0.001 C 
ATOM     49  H   LIG d   1       9.548   8.371  -2.280  0.00  0.00     0.029 H 
ATOM     50  H   LIG d   1       9.814  10.100  -2.610  0.00  0.00     0.029 H 
ATOM     51  C   LIG d   1      12.144   7.576  -2.326  0.00  0.00    -0.029 C 
ATOM     52  H   LIG d   1      12.271   9.703  -2.642  0.00  0.00     0.036 H 
ATOM     53  H   LIG d   1      11.467   6.865  -1.851  0.00  0.00     0.029 H 
ATOM     54  H   LIG d   1      13.131   7.500  -1.868  0.00  0.00     0.029 H 
ATOM     55  H   LIG d   1      12.539   6.216  -3.954  0.00  0.00     0.046 H 
ATOM     56  H   LIG d   1      12.995   7.909  -4.280  0.00  0.00     0.046 H 
BRANCH  48  57
ATOM     57  C   LIG d   1      11.532   9.323  -0.676  0.00  0.00     0.045 C 
ATOM     58  O   LIG d   1      10.611   9.996  -0.246  0.00  0.00    -0.549 OA
ATOM     59  O   LIG d   1      12.394   8.914   0.084  0.00  0.00    -0.549 OA
ENDBRANCH  48  57
ENDBRANCH  37  40
ENDBRANCH  11  37
BRANCH   1  60
ATOM     60  C   LIG d   1       9.650   3.535  -7.287  0.00  0.00    -0.038 C 
ATOM     61  H   LIG d   1       9.398   4.565  -7.538  0.00  0.00     0.028 H 
ATOM     62  H   LIG d   1      10.690   3.341  -7.551  0.00  0.00     0.028 H 
ATOM     63  H   LIG d   1       9.001   2.856  -7.840  0.00  0.00     0.028 H 
ENDBRANCH   1  60
TORSDOF 4
ENDMDL
MODEL 3
REMARK VINA RESULT:      -7.6      7.580     12.009
REMARK  4 active torsions:
REMARK  status: ('A' for Active; 'I' for Inactive)
REMARK    1  A    between atoms: C_1  and  C_2 
REMARK    2  A    between atoms: C_12  and  C_13 
REMARK    3  A    between atoms: C_13  and  C_14 
REMARK       I    between atoms: C_14  and  N_16 
REMARK    4  A    between atoms: C_19  and  C_22 
ROOT
ATOM      1  C   LIG d   1       3.102  -3.158  -9.561  0.00  0.00    -0.029 A 
ATOM      2  C   LIG d   1       3.543  -2.344  -8.427  0.00  0.00     0.021 A 
ATOM      3  C   LIG d   1       4.475  -2.835  -7.507  0.00  0.00    -0.044 A 
ATOM      4  C   LIG d   1       4.883  -2.055  -6.459  0.00  0.00    -0.005 A 
ATOM      5  C   LIG d   1       4.371  -0.770  -6.301  0.00  0.00     0.128 A 
ATOM      6  C   LIG d   1       3.438  -0.272  -7.202  0.00  0.00     0.023 A 
ATOM      7  C   LIG d   1       3.014  -1.050  -8.269  0.00  0.00     0.143 A 
ATOM      8  O   LIG d   1       2.108  -0.573  -9.146  0.00  0.00    -0.422 OA
ATOM      9  C   LIG d   1       1.718  -1.310 -10.193  0.00  0.00     0.341 A 
ATOM     10  O   LIG d   1       0.918  -0.835 -10.979  0.00  0.00    -0.245 OA
ATOM     11  C   LIG d   1       2.201  -2.614 -10.421  0.00  0.00     0.049 A 
ATOM     12  O   LIG d   1       4.768   0.033  -5.280  0.00  0.00    -0.485 OA
ATOM     13  C   LIG d   1       5.421  -0.574  -4.167  0.00  0.00     0.111 C 
ATOM     14  C   LIG d   1       4.416  -1.403  -3.366  0.00  0.00    -0.013 C 
ATOM     15  C   LIG d   1       3.306  -0.491  -2.838  0.00  0.00    -0.049 C 
ATOM     16  C   LIG d   1       3.916   0.584  -1.937  0.00  0.00    -0.053 C 
ATOM     17  C   LIG d   1       4.917   1.415  -2.742  0.00  0.00    -0.049 C 
ATOM     18  C   LIG d   1       6.028   0.505  -3.270  0.00  0.00    -0.013 C 
ATOM     19  C   LIG d   1       6.534  -1.489  -4.691  0.00  0.00    -0.009 C 
ATOM     20  C   LIG d   1       5.888  -2.624  -5.490  0.00  0.00    -0.021 C 
ATOM     21  H   LIG d   1       4.874  -3.831  -7.624  0.00  0.00     0.063 H 
ATOM     22  H   LIG d   1       3.040   0.723  -7.070  0.00  0.00     0.069 H 
ATOM     23  H   LIG d   1       3.982  -2.169  -4.010  0.00  0.00     0.030 H 
ATOM     24  H   LIG d   1       4.924  -1.880  -2.527  0.00  0.00     0.030 H 
ATOM     25  H   LIG d   1       2.797  -0.017  -3.677  0.00  0.00     0.027 H 
ATOM     26  H   LIG d   1       2.592  -1.083  -2.266  0.00  0.00     0.027 H 
ATOM     27  H   LIG d   1       3.126   1.232  -1.560  0.00  0.00     0.026 H 
ATOM     28  H   LIG d   1       4.427   0.109  -1.099  0.00  0.00     0.026 H 
ATOM     29  H   LIG d   1       4.406   1.889  -3.580  0.00  0.00     0.027 H 
ATOM     30  H   LIG d   1       5.351   2.183  -2.100  0.00  0.00     0.027 H 
ATOM     31  H   LIG d   1       6.541   0.034  -2.431  0.00  0.00     0.030 H 
ATOM     32  H   LIG d   1       6.740   1.097  -3.845  0.00  0.00     0.030 H 
ATOM     33  H   LIG d   1       7.202  -0.920  -5.338  0.00  0.00     0.031 H 
ATOM     34  H   LIG d   1       7.095  -1.901  -3.854  0.00  0.00     0.031 H 
ATOM     35  H   LIG d   1       5.386  -3.307  -4.805  0.00  0.00     0.032 H 
ATOM     36  H   LIG d   1       6.658  -3.164  -6.040  0.00  0.00     0.032 H 
ENDROOT
BRANCH  11  37
ATOM     37  C   LIG d   1       1.720  -3.402 -11.611  0.00  0.00     0.056 C 
ATOM     38  H   LIG d   1       1.615  -2.738 -12.470  0.00  0.00     0.041 H 
ATOM     39  H   LIG d   1       2.442  -4.185 -11.845  0.00  0.00     0.041 H 
BRANCH  37  40
ATOM     40  C   LIG d   1       0.385  -4.027 -11.294  0.00  0.00     0.220 C 
ATOM     41  O   LIG d   1       0.221  -4.602 -10.239  0.00  0.00    -0.275 OA
ATOM     42  N   LIG d   1      -0.624  -3.947 -12.183  0.00  0.00    -0.301 N 
ATOM     43  C   LIG d   1      -1.931  -4.552 -11.888  0.00  0.00     0.015 C 
ATOM     44  C   LIG d   1      -0.438  -3.259 -13.468  0.00  0.00     0.015 C 
ATOM     45  C   LIG d   1      -3.016  -3.478 -12.062  0.00  0.00    -0.029 C 
ATOM     46  H   LIG d   1      -2.116  -5.377 -12.575  0.00  0.00     0.046 H 
ATOM     47  H   LIG d   1      -1.940  -4.919 -10.861  0.00  0.00     0.046 H 
ATOM     48  C   LIG d   1      -2.907  -2.873 -13.464  0.00  0.00     0.001 C 
ATOM     49  H   LIG d   1      -2.881  -2.695 -11.316  0.00  0.00     0.029 H 
ATOM     50  H   LIG d   1      -3.999  -3.933 -11.939  0.00  0.00     0.029 H 
ATOM     51  C   LIG d   1      -1.539  -2.206 -13.626  0.00  0.00    -0.029 C 
ATOM     52  H   LIG d   1      -3.018  -3.660 -14.209  0.00  0.00     0.036 H 
ATOM     53  H   LIG d   1      -1.417  -1.434 -12.866  0.00  0.00     0.029 H 
ATOM     54  H   LIG d   1      -1.470  -1.755 -14.617  0.00  0.00     0.029 H 
ATOM     55  H   LIG d   1       0.538  -2.774 -13.485  0.00  0.00     0.046 H 
ATOM     56  H   LIG d   1      -0.505  -3.982 -14.282  0.00  0.00     0.046 H 
BRANCH  48  57
ATOM     57  C   LIG d   1      -3.993  -1.845 -13.653  0.00  0.00     0.045 C 
ATOM     58  O   LIG d   1      -4.126  -0.943 -12.843  0.00  0.00    -0.549 OA
ATOM     59  O   LIG d   1      -4.737  -1.915 -14.616  0.00  0.00    -0.549 OA
ENDBRANCH  48  57
ENDBRANCH  37  40
ENDBRANCH  11  37
BRANCH   1  60
ATOM     60  C   LIG d   1       3.634  -4.552  -9.772  0.00  0.00    -0.038 C 
ATOM     61  H   LIG d   1       3.643  -4.780 -10.838  0.00  0.00     0.028 H 
ATOM     62  H   LIG d   1       4.649  -4.616  -9.378  0.00  0.00     0.028 H 
ATOM     63  H   LIG d   1       2.996  -5.267  -9.252  0.00  0.00     0.028 H 
ENDBRANCH   1  60
TORSDOF 4
ENDMDL
MODEL 4
REMARK VINA RESULT:      -7.5      8.140     14.522
REMARK  4 active torsions:
REMARK  status: ('A' for Active; 'I' for Inactive)
REMARK    1  A    between atoms: C_1  and  C_2 
REMARK    2  A    between atoms: C_12  and  C_13 
REMARK    3  A    between atoms: C_13  and  C_14 
REMARK       I    between atoms: C_14  and  N_16 
REMARK    4  A    between atoms: C_19  and  C_22 
ROOT
ATOM      1  C   LIG d   1       6.630  -7.227  -6.189  0.00  0.00    -0.029 A 
ATOM      2  C   LIG d   1       6.141  -5.878  -5.895  0.00  0.00     0.021 A 
ATOM      3  C   LIG d   1       6.944  -4.952  -5.222  0.00  0.00    -0.044 A 
ATOM      4  C   LIG d   1       6.474  -3.693  -4.968  0.00  0.00    -0.005 A 
ATOM      5  C   LIG d   1       5.194  -3.327  -5.373  0.00  0.00     0.128 A 
ATOM      6  C   LIG d   1       4.382  -4.239  -6.035  0.00  0.00     0.023 A 
ATOM      7  C   LIG d   1       4.843  -5.519  -6.301  0.00  0.00     0.143 A 
ATOM      8  O   LIG d   1       4.059  -6.410  -6.942  0.00  0.00    -0.422 OA
ATOM      9  C   LIG d   1       4.512  -7.638  -7.226  0.00  0.00     0.341 A 
ATOM     10  O   LIG d   1       3.785  -8.405  -7.830  0.00  0.00    -0.245 OA
ATOM     11  C   LIG d   1       5.799  -8.072  -6.855  0.00  0.00     0.049 A 
ATOM     12  O   LIG d   1       4.705  -2.080  -5.148  0.00  0.00    -0.485 OA
ATOM     13  C   LIG d   1       5.359  -1.272  -4.170  0.00  0.00     0.111 C 
ATOM     14  C   LIG d   1       5.087  -1.830  -2.772  0.00  0.00    -0.013 C 
ATOM     15  C   LIG d   1       3.583  -1.803  -2.495  0.00  0.00    -0.049 C 
ATOM     16  C   LIG d   1       3.074  -0.363  -2.579  0.00  0.00    -0.053 C 
ATOM     17  C   LIG d   1       3.343   0.191  -3.980  0.00  0.00    -0.049 C 
ATOM     18  C   LIG d   1       4.847   0.165  -4.259  0.00  0.00    -0.013 C 
ATOM     19  C   LIG d   1       6.867  -1.296  -4.445  0.00  0.00    -0.009 C 
ATOM     20  C   LIG d   1       7.372  -2.725  -4.237  0.00  0.00    -0.021 C 
ATOM     21  H   LIG d   1       7.936  -5.231  -4.904  0.00  0.00     0.063 H 
ATOM     22  H   LIG d   1       3.387  -3.951  -6.342  0.00  0.00     0.069 H 
ATOM     23  H   LIG d   1       5.450  -2.856  -2.714  0.00  0.00     0.030 H 
ATOM     24  H   LIG d   1       5.604  -1.220  -2.031  0.00  0.00     0.030 H 
ATOM     25  H   LIG d   1       3.066  -2.415  -3.234  0.00  0.00     0.027 H 
ATOM     26  H   LIG d   1       3.391  -2.199  -1.497  0.00  0.00     0.027 H 
ATOM     27  H   LIG d   1       2.004  -0.343  -2.380  0.00  0.00     0.026 H 
ATOM     28  H   LIG d   1       3.593   0.250  -1.840  0.00  0.00     0.026 H 
ATOM     29  H   LIG d   1       2.825  -0.422  -4.719  0.00  0.00     0.027 H 
ATOM     30  H   LIG d   1       2.979   1.218  -4.040  0.00  0.00     0.027 H 
ATOM     31  H   LIG d   1       5.363   0.782  -3.522  0.00  0.00     0.030 H 
ATOM     32  H   LIG d   1       5.037   0.558  -5.258  0.00  0.00     0.030 H 
ATOM     33  H   LIG d   1       7.057  -0.985  -5.473  0.00  0.00     0.031 H 
ATOM     34  H   LIG d   1       7.376  -0.622  -3.757  0.00  0.00     0.031 H 
ATOM     35  H   LIG d   1       7.368  -2.959  -3.173  0.00  0.00     0.032 H 
ATOM     36  H   LIG d   1       8.388  -2.811  -4.623  0.00  0.00     0.032 H 
ENDROOT
BRANCH  11  37
ATOM     37  C   LIG d   1       6.253  -9.469  -7.192  0.00  0.00     0.056 C 
ATOM     38  H   LIG d   1       5.978  -9.703  -8.221  0.00  0.00     0.041 H 
ATOM     39  H   LIG d   1       7.336  -9.537  -7.082  0.00  0.00     0.041 H 
BRANCH  37  40
ATOM     40  C   LIG d   1       5.591 -10.452  -6.260  0.00  0.00     0.220 C 
ATOM     41  O   LIG d   1       5.604 -10.255  -5.064  0.00  0.00    -0.275 OA
ATOM     42  N   LIG d   1       4.985 -11.548  -6.756  0.00  0.00    -0.301 N 
ATOM     43  C   LIG d   1       4.335 -12.515  -5.860  0.00  0.00     0.015 C 
ATOM     44  C   LIG d   1       4.966 -11.803  -8.203  0.00  0.00     0.015 C 
ATOM     45  C   LIG d   1       2.887 -12.720  -6.331  0.00  0.00    -0.029 C 
ATOM     46  H   LIG d   1       4.871 -13.462  -5.894  0.00  0.00     0.046 H 
ATOM     47  H   LIG d   1       4.338 -12.127  -4.841  0.00  0.00     0.046 H 
ATOM     48  C   LIG d   1       2.890 -13.133  -7.805  0.00  0.00     0.001 C 
ATOM     49  H   LIG d   1       2.329 -11.792  -6.215  0.00  0.00     0.029 H 
ATOM     50  H   LIG d   1       2.420 -13.504  -5.735  0.00  0.00     0.029 H 
ATOM     51  C   LIG d   1       3.516 -12.019  -8.646  0.00  0.00    -0.029 C 
ATOM     52  H   LIG d   1       3.469 -14.049  -7.924  0.00  0.00     0.036 H 
ATOM     53  H   LIG d   1       2.952 -11.097  -8.509  0.00  0.00     0.029 H 
ATOM     54  H   LIG d   1       3.496 -12.305  -9.698  0.00  0.00     0.029 H 
ATOM     55  H   LIG d   1       5.385 -10.946  -8.731  0.00  0.00     0.046 H 
ATOM     56  H   LIG d   1       5.553 -12.695  -8.424  0.00  0.00     0.046 H 
BRANCH  48  57
ATOM     57  C   LIG d   1       1.473 -13.373  -8.261  0.00  0.00     0.045 C 
ATOM     58  O   LIG d   1       1.060 -12.832  -9.273  0.00  0.00    -0.549 OA
ATOM     59  O   LIG d   1       0.741 -14.106  -7.619  0.00  0.00    -0.549 OA
ENDBRANCH  48  57
ENDBRANCH  37  40
ENDBRANCH  11  37
BRANCH   1  60
ATOM     60  C   LIG d   1       8.011  -7.663  -5.771  0.00  0.00    -0.038 C 
ATOM     61  H   LIG d   1       7.979  -8.700  -5.435  0.00  0.00     0.028 H 
ATOM     62  H   LIG d   1       8.690  -7.577  -6.619  0.00  0.00     0.028 H 
ATOM     63  H   LIG d   1       8.361  -7.027  -4.958  0.00  0.00     0.028 H 
ENDBRANCH   1  60
TORSDOF 4
ENDMDL
MODEL 5
REMARK VINA RESULT:      -7.1      7.626     11.414
REMARK  4 active torsions:
REMARK  status: ('A' for Active; 'I' for Inactive)
REMARK    1  A    between atoms: C_1  and  C_2 
REMARK    2  A    between atoms: C_12  and  C_13 
REMARK    3  A    between atoms: C_13  and  C_14 
REMARK       I    between atoms: C_14  and  N_16 
REMARK    4  A    between atoms: C_19  and  C_22 
ROOT
ATOM      1  C   LIG d   1       3.032  -3.127  -9.377  0.00  0.00    -0.029 A 
ATOM      2  C   LIG d   1       3.547  -2.336  -8.258  0.00  0.00     0.021 A 
ATOM      3  C   LIG d   1       4.457  -2.882  -7.347  0.00  0.00    -0.044 A 
ATOM      4  C   LIG d   1       4.935  -2.123  -6.314  0.00  0.00    -0.005 A 
ATOM      5  C   LIG d   1       4.517  -0.805  -6.161  0.00  0.00     0.128 A 
ATOM      6  C   LIG d   1       3.607  -0.251  -7.052  0.00  0.00     0.023 A 
ATOM      7  C   LIG d   1       3.113  -1.006  -8.105  0.00  0.00     0.143 A 
ATOM      8  O   LIG d   1       2.228  -0.475  -8.973  0.00  0.00    -0.422 OA
ATOM      9  C   LIG d   1       1.771  -1.192 -10.007  0.00  0.00     0.341 A 
ATOM     10  O   LIG d   1       0.995  -0.669 -10.785  0.00  0.00    -0.245 OA
ATOM     11  C   LIG d   1       2.159  -2.529 -10.229  0.00  0.00     0.049 A 
ATOM     12  O   LIG d   1       4.985  -0.022  -5.154  0.00  0.00    -0.485 OA
ATOM     13  C   LIG d   1       5.612  -0.664  -4.045  0.00  0.00     0.111 C 
ATOM     14  C   LIG d   1       4.564  -1.413  -3.221  0.00  0.00    -0.013 C 
ATOM     15  C   LIG d   1       3.529  -0.421  -2.686  0.00  0.00    -0.049 C 
ATOM     16  C   LIG d   1       4.227   0.618  -1.804  0.00  0.00    -0.053 C 
ATOM     17  C   LIG d   1       5.271   1.368  -2.633  0.00  0.00    -0.049 C 
ATOM     18  C   LIG d   1       6.307   0.378  -3.169  0.00  0.00    -0.013 C 
ATOM     19  C   LIG d   1       6.649  -1.659  -4.577  0.00  0.00    -0.009 C 
ATOM     20  C   LIG d   1       5.913  -2.753  -5.354  0.00  0.00    -0.021 C 
ATOM     21  H   LIG d   1       4.783  -3.905  -7.460  0.00  0.00     0.063 H 
ATOM     22  H   LIG d   1       3.282   0.771  -6.925  0.00  0.00     0.069 H 
ATOM     23  H   LIG d   1       4.067  -2.152  -3.850  0.00  0.00     0.030 H 
ATOM     24  H   LIG d   1       5.050  -1.916  -2.385  0.00  0.00     0.030 H 
ATOM     25  H   LIG d   1       3.041   0.081  -3.521  0.00  0.00     0.027 H 
ATOM     26  H   LIG d   1       2.784  -0.956  -2.097  0.00  0.00     0.027 H 
ATOM     27  H   LIG d   1       3.490   1.323  -1.422  0.00  0.00     0.026 H 
ATOM     28  H   LIG d   1       4.717   0.115  -0.970  0.00  0.00     0.026 H 
ATOM     29  H   LIG d   1       4.782   1.870  -3.468  0.00  0.00     0.027 H 
ATOM     30  H   LIG d   1       5.768   2.110  -2.005  0.00  0.00     0.027 H 
ATOM     31  H   LIG d   1       6.799  -0.120  -2.332  0.00  0.00     0.030 H 
ATOM     32  H   LIG d   1       7.049   0.913  -3.760  0.00  0.00     0.030 H 
ATOM     33  H   LIG d   1       7.345  -1.144  -5.239  0.00  0.00     0.031 H 
ATOM     34  H   LIG d   1       7.194  -2.102  -3.744  0.00  0.00     0.031 H 
ATOM     35  H   LIG d   1       5.375  -3.393  -4.655  0.00  0.00     0.032 H 
ATOM     36  H   LIG d   1       6.635  -3.351  -5.911  0.00  0.00     0.032 H 
ENDROOT
BRANCH  11  37
ATOM     37  C   LIG d   1       1.604  -3.292 -11.404  0.00  0.00     0.056 C 
ATOM     38  H   LIG d   1       1.737  -4.362 -11.237  0.00  0.00     0.041 H 
ATOM     39  H   LIG d   1       0.542  -3.071 -11.513  0.00  0.00     0.041 H 
BRANCH  37  40
ATOM     40  C   LIG d   1       2.335  -2.885 -12.658  0.00  0.00     0.220 C 
ATOM     41  O   LIG d   1       3.544  -2.953 -12.703  0.00  0.00    -0.275 OA
ATOM     42  N   LIG d   1       1.643  -2.446 -13.728  0.00  0.00    -0.301 N 
ATOM     43  C   LIG d   1       2.341  -2.045 -14.957  0.00  0.00     0.015 C 
ATOM     44  C   LIG d   1       0.177  -2.353 -13.685  0.00  0.00     0.015 C 
ATOM     45  C   LIG d   1       1.739  -2.824 -16.136  0.00  0.00    -0.029 C 
ATOM     46  H   LIG d   1       2.213  -0.976 -15.119  0.00  0.00     0.046 H 
ATOM     47  H   LIG d   1       3.402  -2.279 -14.867  0.00  0.00     0.046 H 
ATOM     48  C   LIG d   1       0.225  -2.596 -16.171  0.00  0.00     0.001 C 
ATOM     49  H   LIG d   1       1.944  -3.888 -16.017  0.00  0.00     0.029 H 
ATOM     50  H   LIG d   1       2.181  -2.470 -17.068  0.00  0.00     0.029 H 
ATOM     51  C   LIG d   1      -0.400  -3.122 -14.877  0.00  0.00    -0.029 C 
ATOM     52  H   LIG d   1       0.021  -1.530 -16.266  0.00  0.00     0.036 H 
ATOM     53  H   LIG d   1      -0.175  -4.184 -14.769  0.00  0.00     0.029 H 
ATOM     54  H   LIG d   1      -1.480  -2.981 -14.912  0.00  0.00     0.029 H 
ATOM     55  H   LIG d   1      -0.190  -2.789 -12.756  0.00  0.00     0.046 H 
ATOM     56  H   LIG d   1      -0.124  -1.307 -13.746  0.00  0.00     0.046 H 
BRANCH  48  57
ATOM     57  C   LIG d   1      -0.366  -3.328 -17.349  0.00  0.00     0.045 C 
ATOM     58  O   LIG d   1      -1.104  -4.281 -17.166  0.00  0.00    -0.549 OA
ATOM     59  O   LIG d   1      -0.105  -2.968 -18.484  0.00  0.00    -0.549 OA
ENDBRANCH  48  57
ENDBRANCH  37  40
ENDBRANCH  11  37
BRANCH   1  60
ATOM     60  C   LIG d   1       3.462  -4.557  -9.582  0.00  0.00    -0.038 C 
ATOM     61  H   LIG d   1       3.945  -4.656 -10.554  0.00  0.00     0.028 H 
ATOM     62  H   LIG d   1       4.165  -4.840  -8.797  0.00  0.00     0.028 H 
ATOM     63  H   LIG d   1       2.589  -5.208  -9.541  0.00  0.00     0.028 H 
ENDBRANCH   1  60
TORSDOF 4
ENDMDL
MODEL 6
REMARK VINA RESULT:      -7.0      7.645     12.751
REMARK  4 active torsions:
REMARK  status: ('A' for Active; 'I' for Inactive)
REMARK    1  A    between atoms: C_1  and  C_2 
REMARK    2  A    between atoms: C_12  and  C_13 
REMARK    3  A    between atoms: C_13  and  C_14 
REMARK       I    between atoms: C_14  and  N_16 
REMARK    4  A    between atoms: C_19  and  C_22 
ROOT
ATOM      1  C   LIG d   1       3.177  -3.310  -9.409  0.00  0.00    -0.029 A 
ATOM      2  C   LIG d   1       3.630  -2.475  -8.294  0.00  0.00     0.021 A 
ATOM      3  C   LIG d   1       4.533  -2.966  -7.346  0.00  0.00    -0.044 A 
ATOM      4  C   LIG d   1       4.953  -2.167  -6.318  0.00  0.00    -0.005 A 
ATOM      5  C   LIG d   1       4.482  -0.862  -6.207  0.00  0.00     0.128 A 
ATOM      6  C   LIG d   1       3.578  -0.363  -7.136  0.00  0.00     0.023 A 
ATOM      7  C   LIG d   1       3.142  -1.160  -8.184  0.00  0.00     0.143 A 
ATOM      8  O   LIG d   1       2.263  -0.682  -9.089  0.00  0.00    -0.422 OA
ATOM      9  C   LIG d   1       1.863  -1.439 -10.118  0.00  0.00     0.341 A 
ATOM     10  O   LIG d   1       1.090  -0.963 -10.929  0.00  0.00    -0.245 OA
ATOM     11  C   LIG d   1       2.306  -2.764 -10.298  0.00  0.00     0.049 A 
ATOM     12  O   LIG d   1       4.891  -0.040  -5.207  0.00  0.00    -0.485 OA
ATOM     13  C   LIG d   1       5.510  -0.633  -4.066  0.00  0.00     0.111 C 
ATOM     14  C   LIG d   1       4.467  -1.403  -3.254  0.00  0.00    -0.013 C 
ATOM     15  C   LIG d   1       3.382  -0.439  -2.771  0.00  0.00    -0.049 C 
ATOM     16  C   LIG d   1       4.015   0.645  -1.895  0.00  0.00    -0.053 C 
ATOM     17  C   LIG d   1       5.053   1.416  -2.711  0.00  0.00    -0.049 C 
ATOM     18  C   LIG d   1       6.140   0.454  -3.195  0.00  0.00    -0.013 C 
ATOM     19  C   LIG d   1       6.598  -1.599  -4.546  0.00  0.00    -0.009 C 
ATOM     20  C   LIG d   1       5.926  -2.737  -5.317  0.00  0.00    -0.021 C 
ATOM     21  H   LIG d   1       4.900  -3.978  -7.426  0.00  0.00     0.063 H 
ATOM     22  H   LIG d   1       3.211   0.648  -7.042  0.00  0.00     0.069 H 
ATOM     23  H   LIG d   1       4.017  -2.174  -3.879  0.00  0.00     0.030 H 
ATOM     24  H   LIG d   1       4.948  -1.868  -2.394  0.00  0.00     0.030 H 
ATOM     25  H   LIG d   1       2.899   0.025  -3.630  0.00  0.00     0.027 H 
ATOM     26  H   LIG d   1       2.641  -0.989  -2.190  0.00  0.00     0.027 H 
ATOM     27  H   LIG d   1       3.242   1.330  -1.549  0.00  0.00     0.026 H 
ATOM     28  H   LIG d   1       4.499   0.180  -1.035  0.00  0.00     0.026 H 
ATOM     29  H   LIG d   1       4.569   1.880  -3.571  0.00  0.00     0.027 H 
ATOM     30  H   LIG d   1       5.504   2.189  -2.087  0.00  0.00     0.027 H 
ATOM     31  H   LIG d   1       6.627  -0.006  -2.334  0.00  0.00     0.030 H 
ATOM     32  H   LIG d   1       6.879   1.004  -3.778  0.00  0.00     0.030 H 
ATOM     33  H   LIG d   1       7.293  -1.073  -5.200  0.00  0.00     0.031 H 
ATOM     34  H   LIG d   1       7.135  -2.003  -3.688  0.00  0.00     0.031 H 
ATOM     35  H   LIG d   1       5.393  -3.382  -4.619  0.00  0.00     0.032 H 
ATOM     36  H   LIG d   1       6.685  -3.320  -5.840  0.00  0.00     0.032 H 
ENDROOT
BRANCH  11  37
ATOM     37  C   LIG d   1       1.814  -3.574 -11.469  0.00  0.00     0.056 C 
ATOM     38  H   LIG d   1       1.454  -2.903 -12.250  0.00  0.00     0.041 H 
ATOM     39  H   LIG d   1       2.632  -4.180 -11.861  0.00  0.00     0.041 H 
BRANCH  37  40
ATOM     40  C   LIG d   1       0.690  -4.474 -11.023  0.00  0.00     0.220 C 
ATOM     41  O   LIG d   1      -0.189  -4.036 -10.311  0.00  0.00    -0.275 OA
ATOM     42  N   LIG d   1       0.663  -5.763 -11.414  0.00  0.00    -0.301 N 
ATOM     43  C   LIG d   1      -0.426  -6.652 -10.986  0.00  0.00     0.015 C 
ATOM     44  C   LIG d   1       1.725  -6.308 -12.271  0.00  0.00     0.015 C 
ATOM     45  C   LIG d   1      -1.048  -7.297 -12.234  0.00  0.00    -0.029 C 
ATOM     46  H   LIG d   1      -0.030  -7.426 -10.330  0.00  0.00     0.046 H 
ATOM     47  H   LIG d   1      -1.183  -6.073 -10.456  0.00  0.00     0.046 H 
ATOM     48  C   LIG d   1       0.049  -7.993 -13.043  0.00  0.00     0.001 C 
ATOM     49  H   LIG d   1      -1.520  -6.529 -12.847  0.00  0.00     0.029 H 
ATOM     50  H   LIG d   1      -1.795  -8.030 -11.929  0.00  0.00     0.029 H 
ATOM     51  C   LIG d   1       1.080  -6.959 -13.499  0.00  0.00    -0.029 C 
ATOM     52  H   LIG d   1       0.537  -8.744 -12.421  0.00  0.00     0.036 H 
ATOM     53  H   LIG d   1       0.589  -6.194 -14.100  0.00  0.00     0.029 H 
ATOM     54  H   LIG d   1       1.849  -7.451 -14.095  0.00  0.00     0.029 H 
ATOM     55  H   LIG d   1       2.387  -5.503 -12.589  0.00  0.00     0.046 H 
ATOM     56  H   LIG d   1       2.293  -7.056 -11.717  0.00  0.00     0.046 H 
BRANCH  48  57
ATOM     57  C   LIG d   1      -0.562  -8.659 -14.249  0.00  0.00     0.045 C 
ATOM     58  O   LIG d   1      -1.350  -9.578 -14.103  0.00  0.00    -0.549 OA
ATOM     59  O   LIG d   1      -0.269  -8.278 -15.369  0.00  0.00    -0.549 OA
ENDBRANCH  48  57
ENDBRANCH  37  40
ENDBRANCH  11  37
BRANCH   1  60
ATOM     60  C   LIG d   1       3.665  -4.727  -9.568  0.00  0.00    -0.038 C 
ATOM     61  H   LIG d   1       4.179  -4.829 -10.524  0.00  0.00     0.028 H 
ATOM     62  H   LIG d   1       4.356  -4.966  -8.758  0.00  0.00     0.028 H 
ATOM     63  H   LIG d   1       2.816  -5.409  -9.536  0.00  0.00     0.028 H 
ENDBRANCH   1  60
TORSDOF 4
ENDMDL
MODEL 7
REMARK VINA RESULT:      -6.9     13.756     17.864
REMARK  4 active torsions:
REMARK  status: ('A' for Active; 'I' for Inactive)
REMARK    1  A    between atoms: C_1  and  C_2 
REMARK    2  A    between atoms: C_12  and  C_13 
REMARK    3  A    between atoms: C_13  and  C_14 
REMARK       I    between atoms: C_14  and  N_16 
REMARK    4  A    between atoms: C_19  and  C_22 
ROOT
ATOM      1  C   LIG d   1      -1.806  10.497 -16.042  0.00  0.00    -0.029 A 
ATOM      2  C   LIG d   1      -0.413  10.906 -16.232  0.00  0.00     0.021 A 
ATOM      3  C   LIG d   1      -0.096  12.133 -16.821  0.00  0.00    -0.044 A 
ATOM      4  C   LIG d   1       1.212  12.502 -16.980  0.00  0.00    -0.005 A 
ATOM      5  C   LIG d   1       2.234  11.658 -16.559  0.00  0.00     0.128 A 
ATOM      6  C   LIG d   1       1.935  10.431 -15.980  0.00  0.00     0.023 A 
ATOM      7  C   LIG d   1       0.615  10.041 -15.812  0.00  0.00     0.143 A 
ATOM      8  O   LIG d   1       0.318   8.851 -15.252  0.00  0.00    -0.422 OA
ATOM      9  C   LIG d   1      -0.956   8.485 -15.062  0.00  0.00     0.341 A 
ATOM     10  O   LIG d   1      -1.185   7.415 -14.528  0.00  0.00    -0.245 OA
ATOM     11  C   LIG d   1      -2.041   9.294 -15.454  0.00  0.00     0.049 A 
ATOM     12  O   LIG d   1       3.541  12.002 -16.690  0.00  0.00    -0.485 OA
ATOM     13  C   LIG d   1       3.867  13.057 -17.593  0.00  0.00     0.111 C 
ATOM     14  C   LIG d   1       3.658  12.589 -19.034  0.00  0.00    -0.013 C 
ATOM     15  C   LIG d   1       4.578  11.401 -19.324  0.00  0.00    -0.049 C 
ATOM     16  C   LIG d   1       6.035  11.826 -19.130  0.00  0.00    -0.053 C 
ATOM     17  C   LIG d   1       6.243  12.290 -17.687  0.00  0.00    -0.049 C 
ATOM     18  C   LIG d   1       5.323  13.477 -17.395  0.00  0.00    -0.013 C 
ATOM     19  C   LIG d   1       2.947  14.249 -17.306  0.00  0.00    -0.009 C 
ATOM     20  C   LIG d   1       1.509  13.835 -17.621  0.00  0.00    -0.021 C 
ATOM     21  H   LIG d   1      -0.885  12.792 -17.150  0.00  0.00     0.063 H 
ATOM     22  H   LIG d   1       2.733   9.777 -15.662  0.00  0.00     0.069 H 
ATOM     23  H   LIG d   1       2.619  12.285 -19.169  0.00  0.00     0.030 H 
ATOM     24  H   LIG d   1       3.891  13.404 -19.718  0.00  0.00     0.030 H 
ATOM     25  H   LIG d   1       4.344  10.585 -18.641  0.00  0.00     0.027 H 
ATOM     26  H   LIG d   1       4.429  11.069 -20.351  0.00  0.00     0.027 H 
ATOM     27  H   LIG d   1       6.690  10.981 -19.338  0.00  0.00     0.026 H 
ATOM     28  H   LIG d   1       6.269  12.644 -19.813  0.00  0.00     0.026 H 
ATOM     29  H   LIG d   1       6.009  11.472 -17.005  0.00  0.00     0.027 H 
ATOM     30  H   LIG d   1       7.282  12.592 -17.549  0.00  0.00     0.027 H 
ATOM     31  H   LIG d   1       5.561  14.296 -18.075  0.00  0.00     0.030 H 
ATOM     32  H   LIG d   1       5.471  13.806 -16.367  0.00  0.00     0.030 H 
ATOM     33  H   LIG d   1       3.027  14.529 -16.255  0.00  0.00     0.031 H 
ATOM     34  H   LIG d   1       3.234  15.093 -17.932  0.00  0.00     0.031 H 
ATOM     35  H   LIG d   1       1.384  13.753 -18.701  0.00  0.00     0.032 H 
ATOM     36  H   LIG d   1       0.821  14.586 -17.233  0.00  0.00     0.032 H 
ENDROOT
BRANCH  11  37
ATOM     37  C   LIG d   1      -3.455   8.827 -15.224  0.00  0.00     0.056 C 
ATOM     38  H   LIG d   1      -3.548   8.432 -14.212  0.00  0.00     0.041 H 
ATOM     39  H   LIG d   1      -4.140   9.666 -15.350  0.00  0.00     0.041 H 
BRANCH  37  40
ATOM     40  C   LIG d   1      -3.795   7.746 -16.219  0.00  0.00     0.220 C 
ATOM     41  O   LIG d   1      -3.576   7.919 -17.399  0.00  0.00    -0.275 OA
ATOM     42  N   LIG d   1      -4.342   6.590 -15.796  0.00  0.00    -0.301 N 
ATOM     43  C   LIG d   1      -4.680   5.528 -16.754  0.00  0.00     0.015 C 
ATOM     44  C   LIG d   1      -4.620   6.370 -14.370  0.00  0.00     0.015 C 
ATOM     45  C   LIG d   1      -4.011   4.224 -16.293  0.00  0.00    -0.029 C 
ATOM     46  H   LIG d   1      -5.761   5.395 -16.787  0.00  0.00     0.046 H 
ATOM     47  H   LIG d   1      -4.312   5.798 -17.744  0.00  0.00     0.046 H 
ATOM     48  C   LIG d   1      -4.429   3.925 -14.850  0.00  0.00     0.001 C 
ATOM     49  H   LIG d   1      -2.928   4.330 -16.342  0.00  0.00     0.029 H 
ATOM     50  H   LIG d   1      -4.328   3.405 -16.939  0.00  0.00     0.029 H 
ATOM     51  C   LIG d   1      -3.957   5.058 -13.937  0.00  0.00    -0.029 C 
ATOM     52  H   LIG d   1      -5.515   3.844 -14.796  0.00  0.00     0.036 H 
ATOM     53  H   LIG d   1      -2.874   5.157 -14.008  0.00  0.00     0.029 H 
ATOM     54  H   LIG d   1      -4.235   4.834 -12.907  0.00  0.00     0.029 H 
ATOM     55  H   LIG d   1      -4.212   7.196 -13.787  0.00  0.00     0.046 H 
ATOM     56  H   LIG d   1      -5.697   6.304 -14.213  0.00  0.00     0.046 H 
BRANCH  48  57
ATOM     57  C   LIG d   1      -3.806   2.628 -14.405  0.00  0.00     0.045 C 
ATOM     58  O   LIG d   1      -4.275   1.566 -14.779  0.00  0.00    -0.549 OA
ATOM     59  O   LIG d   1      -2.832   2.639 -13.671  0.00  0.00    -0.549 OA
ENDBRANCH  48  57
ENDBRANCH  37  40
ENDBRANCH  11  37
BRANCH   1  60
ATOM     60  C   LIG d   1      -2.944  11.383 -16.479  0.00  0.00    -0.038 C 
ATOM     61  H   LIG d   1      -3.808  11.208 -15.839  0.00  0.00     0.028 H 
ATOM     62  H   LIG d   1      -2.640  12.428 -16.400  0.00  0.00     0.028 H 
ATOM     63  H   LIG d   1      -3.204  11.157 -17.513  0.00  0.00     0.028 H 
ENDBRANCH   1  60
TORSDOF 4
ENDMDL
MODEL 8
REMARK VINA RESULT:      -6.8      7.252     11.477
REMARK  4 active torsions:
REMARK  status: ('A' for Active; 'I' for Inactive)
REMARK    1  A    between atoms: C_1  and  C_2 
REMARK    2  A    between atoms: C_12  and  C_13 
REMARK    3  A    between atoms: C_13  and  C_14 
REMARK       I    between atoms: C_14  and  N_16 
REMARK    4  A    between atoms: C_19  and  C_22 
ROOT
ATOM      1  C   LIG d   1       3.052  -3.173  -9.342  0.00  0.00    -0.029 A 
ATOM      2  C   LIG d   1       3.567  -2.371  -8.229  0.00  0.00     0.021 A 
ATOM      3  C   LIG d   1       4.476  -2.909  -7.314  0.00  0.00    -0.044 A 
ATOM      4  C   LIG d   1       4.954  -2.140  -6.287  0.00  0.00    -0.005 A 
ATOM      5  C   LIG d   1       4.535  -0.821  -6.146  0.00  0.00     0.128 A 
ATOM      6  C   LIG d   1       3.625  -0.275  -7.043  0.00  0.00     0.023 A 
ATOM      7  C   LIG d   1       3.131  -1.041  -8.089  0.00  0.00     0.143 A 
ATOM      8  O   LIG d   1       2.246  -0.518  -8.962  0.00  0.00    -0.422 OA
ATOM      9  C   LIG d   1       1.790  -1.245  -9.989  0.00  0.00     0.341 A 
ATOM     10  O   LIG d   1       1.013  -0.730 -10.772  0.00  0.00    -0.245 OA
ATOM     11  C   LIG d   1       2.178  -2.583 -10.199  0.00  0.00     0.049 A 
ATOM     12  O   LIG d   1       5.002  -0.028  -5.147  0.00  0.00    -0.485 OA
ATOM     13  C   LIG d   1       5.629  -0.660  -4.032  0.00  0.00     0.111 C 
ATOM     14  C   LIG d   1       4.582  -1.402  -3.201  0.00  0.00    -0.013 C 
ATOM     15  C   LIG d   1       3.546  -0.406  -2.675  0.00  0.00    -0.049 C 
ATOM     16  C   LIG d   1       4.243   0.641  -1.803  0.00  0.00    -0.053 C 
ATOM     17  C   LIG d   1       5.287   1.385  -2.638  0.00  0.00    -0.049 C 
ATOM     18  C   LIG d   1       6.323   0.391  -3.165  0.00  0.00    -0.013 C 
ATOM     19  C   LIG d   1       6.668  -1.659  -4.555  0.00  0.00    -0.009 C 
ATOM     20  C   LIG d   1       5.933  -2.760  -5.321  0.00  0.00    -0.021 C 
ATOM     21  H   LIG d   1       4.804  -3.932  -7.417  0.00  0.00     0.063 H 
ATOM     22  H   LIG d   1       3.299   0.747  -6.925  0.00  0.00     0.069 H 
ATOM     23  H   LIG d   1       4.086  -2.147  -3.824  0.00  0.00     0.030 H 
ATOM     24  H   LIG d   1       5.069  -1.897  -2.361  0.00  0.00     0.030 H 
ATOM     25  H   LIG d   1       3.058   0.088  -3.514  0.00  0.00     0.027 H 
ATOM     26  H   LIG d   1       2.802  -0.936  -2.081  0.00  0.00     0.027 H 
ATOM     27  H   LIG d   1       3.506   1.349  -1.427  0.00  0.00     0.026 H 
ATOM     28  H   LIG d   1       4.734   0.147  -0.964  0.00  0.00     0.026 H 
ATOM     29  H   LIG d   1       4.797   1.879  -3.477  0.00  0.00     0.027 H 
ATOM     30  H   LIG d   1       5.783   2.133  -2.017  0.00  0.00     0.027 H 
ATOM     31  H   LIG d   1       6.816  -0.099  -2.324  0.00  0.00     0.030 H 
ATOM     32  H   LIG d   1       7.066   0.922  -3.761  0.00  0.00     0.030 H 
ATOM     33  H   LIG d   1       7.363  -1.149  -5.221  0.00  0.00     0.031 H 
ATOM     34  H   LIG d   1       7.213  -2.093  -3.717  0.00  0.00     0.031 H 
ATOM     35  H   LIG d   1       5.395  -3.395  -4.617  0.00  0.00     0.032 H 
ATOM     36  H   LIG d   1       6.655  -3.362  -5.873  0.00  0.00     0.032 H 
ENDROOT
BRANCH  11  37
ATOM     37  C   LIG d   1       1.625  -3.358 -11.367  0.00  0.00     0.056 C 
ATOM     38  H   LIG d   1       1.433  -4.387 -11.062  0.00  0.00     0.041 H 
ATOM     39  H   LIG d   1       0.694  -2.898 -11.699  0.00  0.00     0.041 H 
BRANCH  37  40
ATOM     40  C   LIG d   1       2.623  -3.346 -12.496  0.00  0.00     0.220 C 
ATOM     41  O   LIG d   1       3.185  -2.315 -12.797  0.00  0.00    -0.275 OA
ATOM     42  N   LIG d   1       2.890  -4.481 -13.171  0.00  0.00    -0.301 N 
ATOM     43  C   LIG d   1       3.860  -4.485 -14.275  0.00  0.00     0.015 C 
ATOM     44  C   LIG d   1       2.212  -5.737 -12.822  0.00  0.00     0.015 C 
ATOM     45  C   LIG d   1       4.904  -5.579 -14.003  0.00  0.00    -0.029 C 
ATOM     46  H   LIG d   1       3.346  -4.693 -15.213  0.00  0.00     0.046 H 
ATOM     47  H   LIG d   1       4.352  -3.515 -14.331  0.00  0.00     0.046 H 
ATOM     48  C   LIG d   1       4.191  -6.917 -13.789  0.00  0.00     0.001 C 
ATOM     49  H   LIG d   1       5.476  -5.326 -13.110  0.00  0.00     0.029 H 
ATOM     50  H   LIG d   1       5.577  -5.659 -14.857  0.00  0.00     0.029 H 
ATOM     51  C   LIG d   1       3.271  -6.815 -12.570  0.00  0.00    -0.029 C 
ATOM     52  H   LIG d   1       3.599  -7.158 -14.672  0.00  0.00     0.036 H 
ATOM     53  H   LIG d   1       3.858  -6.550 -11.691  0.00  0.00     0.029 H 
ATOM     54  H   LIG d   1       2.780  -7.775 -12.404  0.00  0.00     0.029 H 
ATOM     55  H   LIG d   1       1.616  -5.593 -11.920  0.00  0.00     0.046 H 
ATOM     56  H   LIG d   1       1.566  -6.045 -13.645  0.00  0.00     0.046 H 
BRANCH  48  57
ATOM     57  C   LIG d   1       5.213  -8.000 -13.558  0.00  0.00     0.045 C 
ATOM     58  O   LIG d   1       6.151  -8.126 -14.327  0.00  0.00    -0.549 OA
ATOM     59  O   LIG d   1       5.102  -8.750 -12.603  0.00  0.00    -0.549 OA
ENDBRANCH  48  57
ENDBRANCH  37  40
ENDBRANCH  11  37
BRANCH   1  60
ATOM     60  C   LIG d   1       3.483  -4.604  -9.533  0.00  0.00    -0.038 C 
ATOM     61  H   LIG d   1       2.623  -5.262  -9.411  0.00  0.00     0.028 H 
ATOM     62  H   LIG d   1       3.894  -4.728 -10.536  0.00  0.00     0.028 H 
ATOM     63  H   LIG d   1       4.244  -4.856  -8.794  0.00  0.00     0.028 H 
ENDBRANCH   1  60
TORSDOF 4
ENDMDL
MODEL 9
REMARK VINA RESULT:      -6.8      2.732      4.064
REMARK  4 active torsions:
REMARK  status: ('A' for Active; 'I' for Inactive)
REMARK    1  A    between atoms: C_1  and  C_2 
REMARK    2  A    between atoms: C_12  and  C_13 
REMARK    3  A    between atoms: C_13  and  C_14 
REMARK       I    between atoms: C_14  and  N_16 
REMARK    4  A    between atoms: C_19  and  C_22 
ROOT
ATOM      1  C   LIG d   1       9.591   6.376  -4.048  0.00  0.00    -0.029 A 
ATOM      2  C   LIG d   1       9.598   4.924  -4.239  0.00  0.00     0.021 A 
ATOM      3  C   LIG d   1       9.246   4.358  -5.469  0.00  0.00    -0.044 A 
ATOM      4  C   LIG d   1       9.269   2.999  -5.631  0.00  0.00    -0.005 A 
ATOM      5  C   LIG d   1       9.638   2.173  -4.575  0.00  0.00     0.128 A 
ATOM      6  C   LIG d   1       9.981   2.720  -3.345  0.00  0.00     0.023 A 
ATOM      7  C   LIG d   1       9.963   4.095  -3.163  0.00  0.00     0.143 A 
ATOM      8  O   LIG d   1      10.294   4.633  -1.971  0.00  0.00    -0.422 OA
ATOM      9  C   LIG d   1      10.306   5.960  -1.801  0.00  0.00     0.341 A 
ATOM     10  O   LIG d   1      10.636   6.410  -0.718  0.00  0.00    -0.245 OA
ATOM     11  C   LIG d   1       9.953   6.857  -2.829  0.00  0.00     0.049 A 
ATOM     12  O   LIG d   1       9.684   0.822  -4.709  0.00  0.00    -0.485 OA
ATOM     13  C   LIG d   1       8.997   0.238  -5.814  0.00  0.00     0.111 C 
ATOM     14  C   LIG d   1       7.486   0.347  -5.602  0.00  0.00    -0.013 C 
ATOM     15  C   LIG d   1       7.093  -0.408  -4.331  0.00  0.00    -0.049 C 
ATOM     16  C   LIG d   1       7.484  -1.881  -4.472  0.00  0.00    -0.053 C 
ATOM     17  C   LIG d   1       8.995  -1.988  -4.680  0.00  0.00    -0.049 C 
ATOM     18  C   LIG d   1       9.391  -1.233  -5.950  0.00  0.00    -0.013 C 
ATOM     19  C   LIG d   1       9.389   0.992  -7.090  0.00  0.00    -0.009 C 
ATOM     20  C   LIG d   1       8.881   2.431  -6.974  0.00  0.00    -0.021 C 
ATOM     21  H   LIG d   1       8.958   4.994  -6.291  0.00  0.00     0.063 H 
ATOM     22  H   LIG d   1      10.260   2.073  -2.526  0.00  0.00     0.069 H 
ATOM     23  H   LIG d   1       7.210   1.397  -5.501  0.00  0.00     0.030 H 
ATOM     24  H   LIG d   1       6.967  -0.084  -6.457  0.00  0.00     0.030 H 
ATOM     25  H   LIG d   1       7.610   0.025  -3.476  0.00  0.00     0.027 H 
ATOM     26  H   LIG d   1       6.015  -0.331  -4.182  0.00  0.00     0.027 H 
ATOM     27  H   LIG d   1       7.202  -2.420  -3.568  0.00  0.00     0.026 H 
ATOM     28  H   LIG d   1       6.967  -2.314  -5.330  0.00  0.00     0.026 H 
ATOM     29  H   LIG d   1       9.512  -1.555  -3.823  0.00  0.00     0.027 H 
ATOM     30  H   LIG d   1       9.274  -3.039  -4.779  0.00  0.00     0.027 H 
ATOM     31  H   LIG d   1       8.877  -1.670  -6.807  0.00  0.00     0.030 H 
ATOM     32  H   LIG d   1      10.469  -1.309  -6.096  0.00  0.00     0.030 H 
ATOM     33  H   LIG d   1      10.474   0.993  -7.196  0.00  0.00     0.031 H 
ATOM     34  H   LIG d   1       8.936   0.510  -7.955  0.00  0.00     0.031 H 
ATOM     35  H   LIG d   1       7.796   2.440  -7.072  0.00  0.00     0.032 H 
ATOM     36  H   LIG d   1       9.322   3.037  -7.765  0.00  0.00     0.032 H 
ENDROOT
BRANCH  11  37
ATOM     37  C   LIG d   1       9.975   8.342  -2.579  0.00  0.00     0.056 C 
ATOM     38  H   LIG d   1       9.051   8.787  -2.951  0.00  0.00     0.041 H 
ATOM     39  H   LIG d   1      10.062   8.529  -1.508  0.00  0.00     0.041 H 
BRANCH  37  40
ATOM     40  C   LIG d   1      11.151   8.956  -3.294  0.00  0.00     0.220 C 
ATOM     41  O   LIG d   1      12.228   8.400  -3.275  0.00  0.00    -0.275 OA
ATOM     42  N   LIG d   1      11.006  10.122  -3.952  0.00  0.00    -0.301 N 
ATOM     43  C   LIG d   1      12.144  10.733  -4.653  0.00  0.00     0.015 C 
ATOM     44  C   LIG d   1       9.708  10.811  -3.978  0.00  0.00     0.015 C 
ATOM     45  C   LIG d   1      11.731  11.006  -6.108  0.00  0.00    -0.029 C 
ATOM     46  H   LIG d   1      12.414  11.669  -4.166  0.00  0.00     0.046 H 
ATOM     47  H   LIG d   1      12.993  10.050  -4.635  0.00  0.00     0.046 H 
ATOM     48  C   LIG d   1      10.457  11.855  -6.121  0.00  0.00     0.001 C 
ATOM     49  H   LIG d   1      11.544  10.062  -6.620  0.00  0.00     0.029 H 
ATOM     50  H   LIG d   1      12.531  11.545  -6.617  0.00  0.00     0.029 H 
ATOM     51  C   LIG d   1       9.325  11.086  -5.435  0.00  0.00    -0.029 C 
ATOM     52  H   LIG d   1      10.637  12.788  -5.587  0.00  0.00     0.036 H 
ATOM     53  H   LIG d   1       9.160  10.141  -5.953  0.00  0.00     0.029 H 
ATOM     54  H   LIG d   1       8.412  11.682  -5.465  0.00  0.00     0.029 H 
ATOM     55  H   LIG d   1       8.950  10.180  -3.514  0.00  0.00     0.046 H 
ATOM     56  H   LIG d   1       9.784  11.755  -3.436  0.00  0.00     0.046 H 
BRANCH  48  57
ATOM     57  C   LIG d   1      10.069  12.157  -7.545  0.00  0.00     0.045 C 
ATOM     58  O   LIG d   1       9.133  12.903  -7.777  0.00  0.00    -0.549 OA
ATOM     59  O   LIG d   1      10.691  11.655  -8.466  0.00  0.00    -0.549 OA
ENDBRANCH  48  57
ENDBRANCH  37  40
ENDBRANCH  11  37
BRANCH   1  60
ATOM     60  C   LIG d   1       9.203   7.307  -5.167  0.00  0.00    -0.038 C 
ATOM     61  H   LIG d   1       8.392   7.955  -4.836  0.00  0.00     0.028 H 
ATOM     62  H   LIG d   1      10.063   7.916  -5.447  0.00  0.00     0.028 H 
ATOM     63  H   LIG d   1       8.874   6.723  -6.027  0.00  0.00     0.028 H 
ENDBRANCH   1  60
TORSDOF 4
ENDMDL
