MODEL 1
REMARK VINA RESULT:      -6.1      0.000      0.000
REMARK  13 active torsions:
REMARK  status: ('A' for Active; 'I' for Inactive)
REMARK    1  A    between atoms: C_1  and  C_2 
REMARK    2  A    between atoms: C_3  and  C_4 
REMARK    3  A    between atoms: C_3  and  C_36 
REMARK    4  A    between atoms: C_4  and  C_5 
REMARK    5  A    between atoms: C_5  and  C_6 
REMARK    6  A    between atoms: C_6  and  C_8 
REMARK    7  A    between atoms: C_6  and  C_9 
REMARK    8  A    between atoms: C_15  and  C_35 
REMARK    9  A    between atoms: C_25  and  C_34 
REMARK   10  A    between atoms: C_28  and  O_33 
REMARK   11  A    between atoms: C_30  and  C_32 
REMARK   12  A    between atoms: C_36  and  C_37 
REMARK   13  A    between atoms: C_36  and  C_38 
ROOT
ATOM      1  C   LIG d   1       4.298  -1.635  -6.464  0.00  0.00    -0.033 C 
ATOM      2  H   LIG d   1       3.611  -2.169  -5.820  0.00  0.00     0.031 H 
ATOM      3  C   LIG d   1       3.980  -0.115  -6.482  0.00  0.00    -0.049 C 
ATOM      4  C   LIG d   1       3.255   0.164  -7.832  0.00  0.00    -0.046 C 
ATOM      5  C   LIG d   1       2.806  -1.244  -8.248  0.00  0.00    -0.014 C 
ATOM      6  H   LIG d   1       1.975  -1.564  -7.590  0.00  0.00     0.035 H 
ATOM      7  C   LIG d   1       4.084  -2.058  -7.931  0.00  0.00    -0.022 C 
ATOM      8  C   LIG d   1       3.868  -3.517  -8.192  0.00  0.00    -0.046 C 
ATOM      9  C   LIG d   1       3.236  -3.793  -9.560  0.00  0.00    -0.045 C 
ATOM     10  C   LIG d   1       3.095  -2.554 -10.429  0.00  0.00    -0.014 C 
ATOM     11  H   LIG d   1       4.103  -2.215 -10.683  0.00  0.00     0.035 H 
ATOM     12  C   LIG d   1       2.421  -1.442  -9.679  0.00  0.00    -0.066 C 
ATOM     13  C   LIG d   1       1.519  -0.659 -10.205  0.00  0.00    -0.084 C 
ATOM     14  C   LIG d   1       1.034  -0.849 -11.619  0.00  0.00    -0.031 C 
ATOM     15  C   LIG d   1       1.061  -2.352 -11.910  0.00  0.00    -0.027 C 
ATOM     16  H   LIG d   1       0.442  -2.863 -11.157  0.00  0.00     0.031 H 
ATOM     17  C   LIG d   1       2.489  -2.861 -11.788  0.00  0.00    -0.022 C 
ATOM     18  C   LIG d   1       2.535  -4.365 -12.062  0.00  0.00    -0.044 C 
ATOM     19  C   LIG d   1       1.969  -4.673 -13.447  0.00  0.00    -0.026 C 
ATOM     20  C   LIG d   1       0.536  -4.160 -13.556  0.00  0.00     0.058 C 
ATOM     21  H   LIG d   1      -0.091  -4.671 -12.824  0.00  0.00     0.060 H 
ATOM     22  C   LIG d   1       0.488  -2.652 -13.292  0.00  0.00    -0.014 C 
ATOM     23  H   LIG d   1       1.044  -2.128 -14.065  0.00  0.00     0.033 H 
ATOM     24  H   LIG d   1       3.327   0.140  -5.650  0.00  0.00     0.027 H 
ATOM     25  H   LIG d   1       4.904   0.461  -6.431  0.00  0.00     0.027 H 
ATOM     26  H   LIG d   1       2.382   0.801  -7.659  0.00  0.00     0.027 H 
ATOM     27  H   LIG d   1       3.913   0.622  -8.558  0.00  0.00     0.027 H 
ATOM     28  H   LIG d   1       4.829  -4.045  -8.129  0.00  0.00     0.027 H 
ATOM     29  H   LIG d   1       3.218  -3.932  -7.410  0.00  0.00     0.027 H 
ATOM     30  H   LIG d   1       3.853  -4.532 -10.086  0.00  0.00     0.027 H 
ATOM     31  H   LIG d   1       2.246  -4.239  -9.408  0.00  0.00     0.027 H 
ATOM     32  H   LIG d   1       1.113   0.141  -9.608  0.00  0.00     0.057 H 
ATOM     33  H   LIG d   1       0.008  -0.470 -11.679  0.00  0.00     0.031 H 
ATOM     34  H   LIG d   1       1.654  -0.293 -12.312  0.00  0.00     0.031 H 
ATOM     35  H   LIG d   1       3.570  -4.710 -12.013  0.00  0.00     0.027 H 
ATOM     36  H   LIG d   1       1.946  -4.891 -11.308  0.00  0.00     0.027 H 
ATOM     37  H   LIG d   1       2.586  -4.232 -14.225  0.00  0.00     0.029 H 
ATOM     38  H   LIG d   1       1.968  -5.761 -13.590  0.00  0.00     0.029 H 
ENDROOT
BRANCH   1  39
ATOM     39  C   LIG d   1       5.751  -1.875  -6.063  0.00  0.00    -0.040 C 
ATOM     40  H   LIG d   1       6.388  -1.798  -6.944  0.00  0.00     0.030 H 
BRANCH  39  41
ATOM     41  C   LIG d   1       6.176  -0.826  -5.033  0.00  0.00    -0.046 C 
ATOM     42  H   LIG d   1       5.533   0.051  -5.121  0.00  0.00     0.027 H 
ATOM     43  H   LIG d   1       7.211  -0.537  -5.213  0.00  0.00     0.027 H 
BRANCH  41  44
ATOM     44  C   LIG d   1       6.048  -1.413  -3.626  0.00  0.00    -0.031 C 
ATOM     45  H   LIG d   1       7.023  -1.406  -3.139  0.00  0.00     0.031 H 
ATOM     46  H   LIG d   1       5.682  -2.439  -3.692  0.00  0.00     0.031 H 
BRANCH  44  47
ATOM     47  C   LIG d   1       5.078  -0.586  -2.822  0.00  0.00    -0.071 C 
ATOM     48  C   LIG d   1       5.367   0.656  -2.523  0.00  0.00    -0.088 C 
ATOM     49  H   LIG d   1       6.300   1.087  -2.853  0.00  0.00     0.057 H 
BRANCH  48  50
ATOM     50  C   LIG d   1       4.397   1.483  -1.720  0.00  0.00    -0.047 C 
ATOM     51  H   LIG d   1       4.359   2.495  -2.125  0.00  0.00     0.027 H 
ATOM     52  H   LIG d   1       3.405   1.033  -1.774  0.00  0.00     0.027 H 
ATOM     53  H   LIG d   1       4.723   1.520  -0.681  0.00  0.00     0.027 H 
ENDBRANCH  48  50
BRANCH  47  54
ATOM     54  C   LIG d   1       3.776  -1.188  -2.362  0.00  0.00    -0.026 C 
ATOM     55  H   LIG d   1       3.561  -0.856  -1.346  0.00  0.00     0.034 H 
BRANCH  54  56
ATOM     56  C   LIG d   1       2.649  -0.739  -3.294  0.00  0.00    -0.059 C 
ATOM     57  H   LIG d   1       3.025   0.019  -3.981  0.00  0.00     0.024 H 
ATOM     58  H   LIG d   1       2.283  -1.595  -3.862  0.00  0.00     0.024 H 
ATOM     59  H   LIG d   1       1.833  -0.320  -2.703  0.00  0.00     0.024 H 
ENDBRANCH  54  56
BRANCH  54  60
ATOM     60  C   LIG d   1       3.881  -2.714  -2.388  0.00  0.00    -0.059 C 
ATOM     61  H   LIG d   1       4.641  -3.038  -1.677  0.00  0.00     0.024 H 
ATOM     62  H   LIG d   1       2.920  -3.150  -2.116  0.00  0.00     0.024 H 
ATOM     63  H   LIG d   1       4.158  -3.042  -3.391  0.00  0.00     0.024 H 
ENDBRANCH  54  60
ENDBRANCH  47  54
ENDBRANCH  44  47
ENDBRANCH  41  44
ENDBRANCH  39  41
BRANCH  39  64
ATOM     64  C   LIG d   1       5.888  -3.272  -5.454  0.00  0.00    -0.062 C 
ATOM     65  H   LIG d   1       6.694  -3.271  -4.720  0.00  0.00     0.023 H 
ATOM     66  H   LIG d   1       4.953  -3.548  -4.966  0.00  0.00     0.023 H 
ATOM     67  H   LIG d   1       6.114  -3.991  -6.241  0.00  0.00     0.023 H 
ENDBRANCH  39  64
ENDBRANCH   1  39
BRANCH   7  68
ATOM     68  C   LIG d   1       5.305  -1.547  -8.693  0.00  0.00    -0.059 C 
ATOM     69  H   LIG d   1       5.722  -0.684  -8.174  0.00  0.00     0.024 H 
ATOM     70  H   LIG d   1       6.056  -2.336  -8.747  0.00  0.00     0.024 H 
ATOM     71  H   LIG d   1       5.009  -1.257  -9.701  0.00  0.00     0.024 H 
ENDBRANCH   7  68
BRANCH  17  72
ATOM     72  C   LIG d   1       3.376  -2.163 -12.826  0.00  0.00    -0.059 C 
ATOM     73  H   LIG d   1       3.114  -1.106 -12.878  0.00  0.00     0.024 H 
ATOM     74  H   LIG d   1       4.423  -2.265 -12.537  0.00  0.00     0.024 H 
ATOM     75  H   LIG d   1       3.224  -2.623 -13.803  0.00  0.00     0.024 H 
ENDBRANCH  17  72
BRANCH  22  76
ATOM     76  C   LIG d   1      -0.979  -2.204 -13.355  0.00  0.00    -0.060 C 
ATOM     77  H   LIG d   1      -1.569  -2.788 -12.647  0.00  0.00     0.023 H 
ATOM     78  H   LIG d   1      -1.047  -1.148 -13.100  0.00  0.00     0.023 H 
ATOM     79  H   LIG d   1      -1.364  -2.360 -14.363  0.00  0.00     0.023 H 
ENDBRANCH  22  76
BRANCH  20  80
ATOM     80  O   LIG d   1       0.034  -4.423 -14.868  0.00  0.00    -0.392 OA
ATOM     81  H   LIG d   1      -0.763  -3.921 -15.093  0.00  0.00     0.210 HD
ENDBRANCH  20  80
TORSDOF 13
ENDMDL
MODEL 2
REMARK VINA RESULT:      -5.9      1.778      2.956
REMARK  13 active torsions:
REMARK  status: ('A' for Active; 'I' for Inactive)
REMARK    1  A    between atoms: C_1  and  C_2 
REMARK    2  A    between atoms: C_3  and  C_4 
REMARK    3  A    between atoms: C_3  and  C_36 
REMARK    4  A    between atoms: C_4  and  C_5 
REMARK    5  A    between atoms: C_5  and  C_6 
REMARK    6  A    between atoms: C_6  and  C_8 
REMARK    7  A    between atoms: C_6  and  C_9 
REMARK    8  A    between atoms: C_15  and  C_35 
REMARK    9  A    between atoms: C_25  and  C_34 
REMARK   10  A    between atoms: C_28  and  O_33 
REMARK   11  A    between atoms: C_30  and  C_32 
REMARK   12  A    between atoms: C_36  and  C_37 
REMARK   13  A    between atoms: C_36  and  C_38 
ROOT
ATOM      1  C   LIG d   1       3.457   0.441  -8.235  0.00  0.00    -0.033 C 
ATOM      2  H   LIG d   1       2.916   1.376  -8.301  0.00  0.00     0.031 H 
ATOM      3  C   LIG d   1       4.976   0.654  -8.476  0.00  0.00    -0.049 C 
ATOM      4  C   LIG d   1       5.261   0.160  -9.926  0.00  0.00    -0.046 C 
ATOM      5  C   LIG d   1       3.854   0.152 -10.541  0.00  0.00    -0.014 C 
ATOM      6  H   LIG d   1       3.527   1.198 -10.703  0.00  0.00     0.035 H 
ATOM      7  C   LIG d   1       3.042  -0.491  -9.391  0.00  0.00    -0.022 C 
ATOM      8  C   LIG d   1       1.584  -0.545  -9.730  0.00  0.00    -0.046 C 
ATOM      9  C   LIG d   1       1.315  -1.119 -11.125  0.00  0.00    -0.045 C 
ATOM     10  C   LIG d   1       2.559  -1.651 -11.817  0.00  0.00    -0.014 C 
ATOM     11  H   LIG d   1       2.903  -2.521 -11.250  0.00  0.00     0.035 H 
ATOM     12  C   LIG d   1       3.664  -0.636 -11.798  0.00  0.00    -0.066 C 
ATOM     13  C   LIG d   1       4.447  -0.402 -12.815  0.00  0.00    -0.084 C 
ATOM     14  C   LIG d   1       4.265  -1.109 -14.134  0.00  0.00    -0.031 C 
ATOM     15  C   LIG d   1       2.764  -1.350 -14.315  0.00  0.00    -0.027 C 
ATOM     16  H   LIG d   1       2.246  -0.381 -14.257  0.00  0.00     0.031 H 
ATOM     17  C   LIG d   1       2.259  -2.237 -13.186  0.00  0.00    -0.022 C 
ATOM     18  C   LIG d   1       0.756  -2.478 -13.342  0.00  0.00    -0.044 C 
ATOM     19  C   LIG d   1       0.455  -3.110 -14.700  0.00  0.00    -0.026 C 
ATOM     20  C   LIG d   1       0.965  -2.211 -15.824  0.00  0.00     0.058 C 
ATOM     21  H   LIG d   1       0.447  -1.252 -15.785  0.00  0.00     0.060 H 
ATOM     22  C   LIG d   1       2.471  -1.975 -15.676  0.00  0.00    -0.014 C 
ATOM     23  H   LIG d   1       3.002  -2.916 -15.793  0.00  0.00     0.033 H 
ATOM     24  H   LIG d   1       5.223   1.710  -8.388  0.00  0.00     0.027 H 
ATOM     25  H   LIG d   1       5.554   0.067  -7.764  0.00  0.00     0.027 H 
ATOM     26  H   LIG d   1       5.894   0.886 -10.447  0.00  0.00     0.027 H 
ATOM     27  H   LIG d   1       5.725  -0.816  -9.938  0.00  0.00     0.027 H 
ATOM     28  H   LIG d   1       1.059  -1.157  -8.984  0.00  0.00     0.027 H 
ATOM     29  H   LIG d   1       1.163   0.468  -9.675  0.00  0.00     0.027 H 
ATOM     30  H   LIG d   1       0.581  -1.929 -11.032  0.00  0.00     0.027 H 
ATOM     31  H   LIG d   1       0.865  -0.337 -11.748  0.00  0.00     0.027 H 
ATOM     32  H   LIG d   1       5.243   0.317 -12.705  0.00  0.00     0.057 H 
ATOM     33  H   LIG d   1       4.642  -0.452 -14.925  0.00  0.00     0.031 H 
ATOM     34  H   LIG d   1       4.828  -2.034 -14.149  0.00  0.00     0.031 H 
ATOM     35  H   LIG d   1       0.415  -3.149 -12.551  0.00  0.00     0.027 H 
ATOM     36  H   LIG d   1       0.224  -1.529 -13.262  0.00  0.00     0.027 H 
ATOM     37  H   LIG d   1       0.903  -4.097 -14.777  0.00  0.00     0.029 H 
ATOM     38  H   LIG d   1      -0.632  -3.221 -14.801  0.00  0.00     0.029 H 
ENDROOT
BRANCH   1  39
ATOM     39  C   LIG d   1       3.218  -0.256  -6.898  0.00  0.00    -0.040 C 
ATOM     40  H   LIG d   1       2.681  -1.189  -7.065  0.00  0.00     0.030 H 
BRANCH  39  41
ATOM     41  C   LIG d   1       4.564  -0.555  -6.232  0.00  0.00    -0.046 C 
ATOM     42  H   LIG d   1       5.192   0.336  -6.267  0.00  0.00     0.027 H 
ATOM     43  H   LIG d   1       5.058  -1.369  -6.761  0.00  0.00     0.027 H 
BRANCH  41  44
ATOM     44  C   LIG d   1       4.332  -0.959  -4.775  0.00  0.00    -0.031 C 
ATOM     45  H   LIG d   1       4.510  -2.028  -4.661  0.00  0.00     0.031 H 
ATOM     46  H   LIG d   1       3.303  -0.731  -4.493  0.00  0.00     0.031 H 
BRANCH  44  47
ATOM     47  C   LIG d   1       5.277  -0.193  -3.885  0.00  0.00    -0.071 C 
ATOM     48  C   LIG d   1       6.384   0.302  -4.377  0.00  0.00    -0.088 C 
ATOM     49  H   LIG d   1       6.620   0.163  -5.421  0.00  0.00     0.057 H 
BRANCH  48  50
ATOM     50  C   LIG d   1       7.329   1.067  -3.487  0.00  0.00    -0.047 C 
ATOM     51  H   LIG d   1       7.197   0.746  -2.453  0.00  0.00     0.027 H 
ATOM     52  H   LIG d   1       8.356   0.876  -3.798  0.00  0.00     0.027 H 
ATOM     53  H   LIG d   1       7.119   2.134  -3.565  0.00  0.00     0.027 H 
ENDBRANCH  48  50
BRANCH  47  54
ATOM     54  C   LIG d   1       4.947   0.000  -2.427  0.00  0.00    -0.026 C 
ATOM     55  H   LIG d   1       5.846   0.299  -1.888  0.00  0.00     0.034 H 
BRANCH  54  56
ATOM     56  C   LIG d   1       3.884   1.091  -2.286  0.00  0.00    -0.059 C 
ATOM     57  H   LIG d   1       2.936   0.639  -1.990  0.00  0.00     0.024 H 
ATOM     58  H   LIG d   1       4.197   1.808  -1.526  0.00  0.00     0.024 H 
ATOM     59  H   LIG d   1       3.758   1.604  -3.240  0.00  0.00     0.024 H 
ENDBRANCH  54  56
BRANCH  54  60
ATOM     60  C   LIG d   1       4.414  -1.310  -1.845  0.00  0.00    -0.059 C 
ATOM     61  H   LIG d   1       3.367  -1.432  -2.123  0.00  0.00     0.024 H 
ATOM     62  H   LIG d   1       4.993  -2.145  -2.237  0.00  0.00     0.024 H 
ATOM     63  H   LIG d   1       4.501  -1.286  -0.758  0.00  0.00     0.024 H 
ENDBRANCH  54  60
ENDBRANCH  47  54
ENDBRANCH  44  47
ENDBRANCH  41  44
ENDBRANCH  39  41
BRANCH  39  64
ATOM     64  C   LIG d   1       2.391   0.654  -5.988  0.00  0.00    -0.062 C 
ATOM     65  H   LIG d   1       2.177   1.589  -6.507  0.00  0.00     0.023 H 
ATOM     66  H   LIG d   1       1.454   0.157  -5.734  0.00  0.00     0.023 H 
ATOM     67  H   LIG d   1       2.950   0.863  -5.077  0.00  0.00     0.023 H 
ENDBRANCH  39  64
ENDBRANCH   1  39
BRANCH   7  68
ATOM     68  C   LIG d   1       3.561  -1.876  -9.014  0.00  0.00    -0.059 C 
ATOM     69  H   LIG d   1       4.396  -1.776  -8.321  0.00  0.00     0.024 H 
ATOM     70  H   LIG d   1       2.763  -2.448  -8.540  0.00  0.00     0.024 H 
ATOM     71  H   LIG d   1       3.896  -2.396  -9.912  0.00  0.00     0.024 H 
ENDBRANCH   7  68
BRANCH  17  72
ATOM     72  C   LIG d   1       2.966  -3.596 -13.242  0.00  0.00    -0.059 C 
ATOM     73  H   LIG d   1       2.255  -4.365 -13.544  0.00  0.00     0.024 H 
ATOM     74  H   LIG d   1       3.783  -3.551 -13.964  0.00  0.00     0.024 H 
ATOM     75  H   LIG d   1       3.367  -3.838 -12.257  0.00  0.00     0.024 H 
ENDBRANCH  17  72
BRANCH  22  76
ATOM     76  C   LIG d   1       2.915  -1.019 -16.792  0.00  0.00    -0.060 C 
ATOM     77  H   LIG d   1       2.085  -0.367 -17.065  0.00  0.00     0.023 H 
ATOM     78  H   LIG d   1       3.751  -0.416 -16.442  0.00  0.00     0.023 H 
ATOM     79  H   LIG d   1       3.224  -1.598 -17.664  0.00  0.00     0.023 H 
ENDBRANCH  22  76
BRANCH  20  80
ATOM     80  O   LIG d   1       0.708  -2.832 -17.085  0.00  0.00    -0.392 OA
ATOM     81  H   LIG d   1       1.126  -3.700 -17.188  0.00  0.00     0.210 HD
ENDBRANCH  20  80
TORSDOF 13
ENDMDL
MODEL 3
REMARK VINA RESULT:      -5.6      5.264      9.489
REMARK  13 active torsions:
REMARK  status: ('A' for Active; 'I' for Inactive)
REMARK    1  A    between atoms: C_1  and  C_2 
REMARK    2  A    between atoms: C_3  and  C_4 
REMARK    3  A    between atoms: C_3  and  C_36 
REMARK    4  A    between atoms: C_4  and  C_5 
REMARK    5  A    between atoms: C_5  and  C_6 
REMARK    6  A    between atoms: C_6  and  C_8 
REMARK    7  A    between atoms: C_6  and  C_9 
REMARK    8  A    between atoms: C_15  and  C_35 
REMARK    9  A    between atoms: C_25  and  C_34 
REMARK   10  A    between atoms: C_28  and  O_33 
REMARK   11  A    between atoms: C_30  and  C_32 
REMARK   12  A    between atoms: C_36  and  C_37 
REMARK   13  A    between atoms: C_36  and  C_38 
ROOT
ATOM      1  C   LIG d   1       6.807  -2.072  -6.369  0.00  0.00    -0.033 C 
ATOM      2  H   LIG d   1       6.984  -2.385  -7.389  0.00  0.00     0.031 H 
ATOM      3  C   LIG d   1       7.617  -0.791  -6.029  0.00  0.00    -0.049 C 
ATOM      4  C   LIG d   1       8.828  -1.257  -5.166  0.00  0.00    -0.046 C 
ATOM      5  C   LIG d   1       8.876  -2.760  -5.472  0.00  0.00    -0.014 C 
ATOM      6  H   LIG d   1       9.247  -2.904  -6.506  0.00  0.00     0.035 H 
ATOM      7  C   LIG d   1       7.373  -3.119  -5.389  0.00  0.00    -0.022 C 
ATOM      8  C   LIG d   1       7.145  -4.560  -5.730  0.00  0.00    -0.046 C 
ATOM      9  C   LIG d   1       8.089  -5.507  -4.982  0.00  0.00    -0.045 C 
ATOM     10  C   LIG d   1       8.955  -4.813  -3.944  0.00  0.00    -0.014 C 
ATOM     11  H   LIG d   1       8.291  -4.447  -3.156  0.00  0.00     0.035 H 
ATOM     12  C   LIG d   1       9.655  -3.624  -4.532  0.00  0.00    -0.066 C 
ATOM     13  C   LIG d   1      10.898  -3.318  -4.276  0.00  0.00    -0.084 C 
ATOM     14  C   LIG d   1      11.761  -4.183  -3.394  0.00  0.00    -0.031 C 
ATOM     15  C   LIG d   1      11.319  -5.633  -3.611  0.00  0.00    -0.027 C 
ATOM     16  H   LIG d   1      11.406  -5.867  -4.682  0.00  0.00     0.031 H 
ATOM     17  C   LIG d   1       9.861  -5.780  -3.201  0.00  0.00    -0.022 C 
ATOM     18  C   LIG d   1       9.397  -7.220  -3.423  0.00  0.00    -0.044 C 
ATOM     19  C   LIG d   1      10.278  -8.192  -2.640  0.00  0.00    -0.026 C 
ATOM     20  C   LIG d   1      11.737  -8.037  -3.062  0.00  0.00     0.058 C 
ATOM     21  H   LIG d   1      11.837  -8.281  -4.120  0.00  0.00     0.060 H 
ATOM     22  C   LIG d   1      12.208  -6.598  -2.831  0.00  0.00    -0.014 C 
ATOM     23  H   LIG d   1      12.187  -6.372  -1.768  0.00  0.00     0.033 H 
ATOM     24  H   LIG d   1       7.972  -0.320  -6.943  0.00  0.00     0.027 H 
ATOM     25  H   LIG d   1       6.999  -0.099  -5.458  0.00  0.00     0.027 H 
ATOM     26  H   LIG d   1       9.743  -0.772  -5.519  0.00  0.00     0.027 H 
ATOM     27  H   LIG d   1       8.679  -1.052  -4.115  0.00  0.00     0.027 H 
ATOM     28  H   LIG d   1       6.107  -4.831  -5.497  0.00  0.00     0.027 H 
ATOM     29  H   LIG d   1       7.283  -4.701  -6.811  0.00  0.00     0.027 H 
ATOM     30  H   LIG d   1       7.487  -6.281  -4.489  0.00  0.00     0.027 H 
ATOM     31  H   LIG d   1       8.737  -6.009  -5.711  0.00  0.00     0.027 H 
ATOM     32  H   LIG d   1      11.313  -2.422  -4.710  0.00  0.00     0.057 H 
ATOM     33  H   LIG d   1      12.802  -4.054  -3.707  0.00  0.00     0.031 H 
ATOM     34  H   LIG d   1      11.667  -3.883  -2.358  0.00  0.00     0.031 H 
ATOM     35  H   LIG d   1       8.363  -7.322  -3.085  0.00  0.00     0.027 H 
ATOM     36  H   LIG d   1       9.453  -7.461  -4.486  0.00  0.00     0.027 H 
ATOM     37  H   LIG d   1      10.177  -8.031  -1.570  0.00  0.00     0.029 H 
ATOM     38  H   LIG d   1       9.952  -9.216  -2.862  0.00  0.00     0.029 H 
ENDROOT
BRANCH   1  39
ATOM     39  C   LIG d   1       5.321  -1.856  -6.094  0.00  0.00    -0.040 C 
ATOM     40  H   LIG d   1       5.056  -2.321  -5.145  0.00  0.00     0.030 H 
BRANCH  39  41
ATOM     41  C   LIG d   1       5.028  -0.355  -6.025  0.00  0.00    -0.046 C 
ATOM     42  H   LIG d   1       4.943   0.045  -7.036  0.00  0.00     0.027 H 
ATOM     43  H   LIG d   1       5.839   0.150  -5.501  0.00  0.00     0.027 H 
BRANCH  41  44
ATOM     44  C   LIG d   1       3.715  -0.126  -5.274  0.00  0.00    -0.031 C 
ATOM     45  H   LIG d   1       2.925  -0.720  -5.733  0.00  0.00     0.031 H 
ATOM     46  H   LIG d   1       3.449   0.930  -5.319  0.00  0.00     0.031 H 
BRANCH  44  47
ATOM     47  C   LIG d   1       3.883  -0.539  -3.834  0.00  0.00    -0.071 C 
ATOM     48  C   LIG d   1       3.592  -1.762  -3.464  0.00  0.00    -0.088 C 
ATOM     49  H   LIG d   1       3.234  -2.474  -4.192  0.00  0.00     0.057 H 
BRANCH  48  50
ATOM     50  C   LIG d   1       3.760  -2.175  -2.025  0.00  0.00    -0.047 C 
ATOM     51  H   LIG d   1       3.518  -1.333  -1.375  0.00  0.00     0.027 H 
ATOM     52  H   LIG d   1       3.090  -3.007  -1.806  0.00  0.00     0.027 H 
ATOM     53  H   LIG d   1       4.791  -2.483  -1.852  0.00  0.00     0.027 H 
ENDBRANCH  48  50
BRANCH  47  54
ATOM     54  C   LIG d   1       4.383   0.455  -2.819  0.00  0.00    -0.026 C 
ATOM     55  H   LIG d   1       4.258   0.046  -1.816  0.00  0.00     0.034 H 
BRANCH  54  56
ATOM     56  C   LIG d   1       5.865   0.739  -3.071  0.00  0.00    -0.059 C 
ATOM     57  H   LIG d   1       6.472   0.082  -2.447  0.00  0.00     0.024 H 
ATOM     58  H   LIG d   1       6.097   0.559  -4.121  0.00  0.00     0.024 H 
ATOM     59  H   LIG d   1       6.084   1.778  -2.824  0.00  0.00     0.024 H 
ENDBRANCH  54  56
BRANCH  54  60
ATOM     60  C   LIG d   1       3.587   1.756  -2.941  0.00  0.00    -0.059 C 
ATOM     61  H   LIG d   1       2.521   1.528  -2.967  0.00  0.00     0.024 H 
ATOM     62  H   LIG d   1       3.801   2.396  -2.086  0.00  0.00     0.024 H 
ATOM     63  H   LIG d   1       3.871   2.271  -3.860  0.00  0.00     0.024 H 
ENDBRANCH  54  60
ENDBRANCH  47  54
ENDBRANCH  44  47
ENDBRANCH  41  44
ENDBRANCH  39  41
BRANCH  39  64
ATOM     64  C   LIG d   1       4.497  -2.484  -7.219  0.00  0.00    -0.062 C 
ATOM     65  H   LIG d   1       4.930  -2.214  -8.182  0.00  0.00     0.023 H 
ATOM     66  H   LIG d   1       4.503  -3.569  -7.111  0.00  0.00     0.023 H 
ATOM     67  H   LIG d   1       3.472  -2.120  -7.167  0.00  0.00     0.023 H 
ENDBRANCH  39  64
ENDBRANCH   1  39
BRANCH   7  68
ATOM     68  C   LIG d   1       6.767  -2.784  -4.028  0.00  0.00    -0.059 C 
ATOM     69  H   LIG d   1       7.317  -1.956  -3.580  0.00  0.00     0.024 H 
ATOM     70  H   LIG d   1       5.722  -2.499  -4.155  0.00  0.00     0.024 H 
ATOM     71  H   LIG d   1       6.830  -3.656  -3.378  0.00  0.00     0.024 H 
ENDBRANCH   7  68
BRANCH  17  72
ATOM     72  C   LIG d   1       9.710  -5.457  -1.709  0.00  0.00    -0.059 C 
ATOM     73  H   LIG d   1       9.574  -4.384  -1.581  0.00  0.00     0.024 H 
ATOM     74  H   LIG d   1       8.843  -5.985  -1.310  0.00  0.00     0.024 H 
ATOM     75  H   LIG d   1      10.606  -5.777  -1.176  0.00  0.00     0.024 H 
ENDBRANCH  17  72
BRANCH  22  76
ATOM     76  C   LIG d   1      13.656  -6.486  -3.327  0.00  0.00    -0.060 C 
ATOM     77  H   LIG d   1      13.703  -6.764  -4.380  0.00  0.00     0.023 H 
ATOM     78  H   LIG d   1      14.003  -5.461  -3.207  0.00  0.00     0.023 H 
ATOM     79  H   LIG d   1      14.292  -7.155  -2.746  0.00  0.00     0.023 H 
ENDBRANCH  22  76
BRANCH  20  80
ATOM     80  O   LIG d   1      12.552  -8.926  -2.295  0.00  0.00    -0.392 OA
ATOM     81  H   LIG d   1      13.487  -8.678  -2.267  0.00  0.00     0.210 HD
ENDBRANCH  20  80
TORSDOF 13
ENDMDL
MODEL 4
REMARK VINA RESULT:      -5.6      1.390      3.028
REMARK  13 active torsions:
REMARK  status: ('A' for Active; 'I' for Inactive)
REMARK    1  A    between atoms: C_1  and  C_2 
REMARK    2  A    between atoms: C_3  and  C_4 
REMARK    3  A    between atoms: C_3  and  C_36 
REMARK    4  A    between atoms: C_4  and  C_5 
REMARK    5  A    between atoms: C_5  and  C_6 
REMARK    6  A    between atoms: C_6  and  C_8 
REMARK    7  A    between atoms: C_6  and  C_9 
REMARK    8  A    between atoms: C_15  and  C_35 
REMARK    9  A    between atoms: C_25  and  C_34 
REMARK   10  A    between atoms: C_28  and  O_33 
REMARK   11  A    between atoms: C_30  and  C_32 
REMARK   12  A    between atoms: C_36  and  C_37 
REMARK   13  A    between atoms: C_36  and  C_38 
ROOT
ATOM      1  C   LIG d   1       6.766  -1.486  -6.141  0.00  0.00    -0.033 C 
ATOM      2  H   LIG d   1       7.719  -1.748  -6.581  0.00  0.00     0.031 H 
ATOM      3  C   LIG d   1       6.237  -2.629  -5.232  0.00  0.00    -0.049 C 
ATOM      4  C   LIG d   1       5.118  -3.349  -6.043  0.00  0.00    -0.046 C 
ATOM      5  C   LIG d   1       5.415  -2.884  -7.476  0.00  0.00    -0.014 C 
ATOM      6  H   LIG d   1       6.334  -3.388  -7.834  0.00  0.00     0.035 H 
ATOM      7  C   LIG d   1       5.688  -1.379  -7.238  0.00  0.00    -0.022 C 
ATOM      8  C   LIG d   1       6.082  -0.698  -8.512  0.00  0.00    -0.046 C 
ATOM      9  C   LIG d   1       5.141  -1.018  -9.678  0.00  0.00    -0.045 C 
ATOM     10  C   LIG d   1       3.925  -1.835  -9.274  0.00  0.00    -0.014 C 
ATOM     11  H   LIG d   1       3.311  -1.207  -8.622  0.00  0.00     0.035 H 
ATOM     12  C   LIG d   1       4.325  -3.048  -8.486  0.00  0.00    -0.066 C 
ATOM     13  C   LIG d   1       3.784  -4.224  -8.646  0.00  0.00    -0.084 C 
ATOM     14  C   LIG d   1       2.731  -4.475  -9.695  0.00  0.00    -0.031 C 
ATOM     15  C   LIG d   1       3.054  -3.570 -10.888  0.00  0.00    -0.027 C 
ATOM     16  H   LIG d   1       4.077  -3.793 -11.225  0.00  0.00     0.031 H 
ATOM     17  C   LIG d   1       2.997  -2.116 -10.444  0.00  0.00    -0.022 C 
ATOM     18  C   LIG d   1       3.331  -1.196 -11.619  0.00  0.00    -0.044 C 
ATOM     19  C   LIG d   1       2.371  -1.444 -12.781  0.00  0.00    -0.026 C 
ATOM     20  C   LIG d   1       2.439  -2.905 -13.219  0.00  0.00     0.058 C 
ATOM     21  H   LIG d   1       3.446  -3.133 -13.570  0.00  0.00     0.060 H 
ATOM     22  C   LIG d   1       2.095  -3.828 -12.046  0.00  0.00    -0.014 C 
ATOM     23  H   LIG d   1       1.065  -3.664 -11.741  0.00  0.00     0.033 H 
ATOM     24  H   LIG d   1       7.040  -3.328  -5.006  0.00  0.00     0.027 H 
ATOM     25  H   LIG d   1       5.822  -2.216  -4.314  0.00  0.00     0.027 H 
ATOM     26  H   LIG d   1       5.245  -4.434  -5.967  0.00  0.00     0.027 H 
ATOM     27  H   LIG d   1       4.130  -3.065  -5.711  0.00  0.00     0.027 H 
ATOM     28  H   LIG d   1       6.100   0.389  -8.355  0.00  0.00     0.027 H 
ATOM     29  H   LIG d   1       7.102  -1.003  -8.785  0.00  0.00     0.027 H 
ATOM     30  H   LIG d   1       4.808  -0.074 -10.126  0.00  0.00     0.027 H 
ATOM     31  H   LIG d   1       5.702  -1.567 -10.444  0.00  0.00     0.027 H 
ATOM     32  H   LIG d   1       4.102  -5.035  -8.011  0.00  0.00     0.057 H 
ATOM     33  H   LIG d   1       2.791  -5.528  -9.991  0.00  0.00     0.031 H 
ATOM     34  H   LIG d   1       1.743  -4.279  -9.296  0.00  0.00     0.031 H 
ATOM     35  H   LIG d   1       3.245  -0.155 -11.299  0.00  0.00     0.027 H 
ATOM     36  H   LIG d   1       4.353  -1.386 -11.951  0.00  0.00     0.027 H 
ATOM     37  H   LIG d   1       1.353  -1.181 -12.506  0.00  0.00     0.029 H 
ATOM     38  H   LIG d   1       2.669  -0.808 -13.624  0.00  0.00     0.029 H 
ENDROOT
BRANCH   1  39
ATOM     39  C   LIG d   1       6.843  -0.175  -5.363  0.00  0.00    -0.040 C 
ATOM     40  H   LIG d   1       5.944   0.411  -5.547  0.00  0.00     0.030 H 
BRANCH  39  41
ATOM     41  C   LIG d   1       6.959  -0.476  -3.866  0.00  0.00    -0.046 C 
ATOM     42  H   LIG d   1       7.978  -0.275  -3.533  0.00  0.00     0.027 H 
ATOM     43  H   LIG d   1       6.718  -1.524  -3.687  0.00  0.00     0.027 H 
BRANCH  41  44
ATOM     44  C   LIG d   1       5.983   0.412  -3.092  0.00  0.00    -0.031 C 
ATOM     45  H   LIG d   1       5.690   1.257  -3.713  0.00  0.00     0.031 H 
ATOM     46  H   LIG d   1       6.466   0.778  -2.184  0.00  0.00     0.031 H 
BRANCH  44  47
ATOM     47  C   LIG d   1       4.761  -0.390  -2.721  0.00  0.00    -0.071 C 
ATOM     48  C   LIG d   1       4.870  -1.668  -2.462  0.00  0.00    -0.088 C 
ATOM     49  H   LIG d   1       5.835  -2.149  -2.512  0.00  0.00     0.057 H 
BRANCH  48  50
ATOM     50  C   LIG d   1       3.648  -2.469  -2.092  0.00  0.00    -0.047 C 
ATOM     51  H   LIG d   1       2.928  -2.434  -2.910  0.00  0.00     0.027 H 
ATOM     52  H   LIG d   1       3.936  -3.504  -1.905  0.00  0.00     0.027 H 
ATOM     53  H   LIG d   1       3.197  -2.050  -1.192  0.00  0.00     0.027 H 
ENDBRANCH  48  50
BRANCH  47  54
ATOM     54  C   LIG d   1       3.414   0.282  -2.651  0.00  0.00    -0.026 C 
ATOM     55  H   LIG d   1       2.860  -0.104  -1.795  0.00  0.00     0.034 H 
BRANCH  54  56
ATOM     56  C   LIG d   1       3.605   1.792  -2.495  0.00  0.00    -0.059 C 
ATOM     57  H   LIG d   1       4.392   1.985  -1.766  0.00  0.00     0.024 H 
ATOM     58  H   LIG d   1       3.885   2.225  -3.456  0.00  0.00     0.024 H 
ATOM     59  H   LIG d   1       2.674   2.243  -2.151  0.00  0.00     0.024 H 
ENDBRANCH  54  56
BRANCH  54  60
ATOM     60  C   LIG d   1       2.633  -0.003  -3.935  0.00  0.00    -0.059 C 
ATOM     61  H   LIG d   1       1.564   0.024  -3.723  0.00  0.00     0.024 H 
ATOM     62  H   LIG d   1       2.874   0.751  -4.683  0.00  0.00     0.024 H 
ATOM     63  H   LIG d   1       2.903  -0.990  -4.313  0.00  0.00     0.024 H 
ENDBRANCH  54  60
ENDBRANCH  47  54
ENDBRANCH  44  47
ENDBRANCH  41  44
ENDBRANCH  39  41
BRANCH  39  64
ATOM     64  C   LIG d   1       8.071   0.617  -5.819  0.00  0.00    -0.062 C 
ATOM     65  H   LIG d   1       8.164   1.521  -5.217  0.00  0.00     0.023 H 
ATOM     66  H   LIG d   1       8.964   0.005  -5.694  0.00  0.00     0.023 H 
ATOM     67  H   LIG d   1       7.959   0.888  -6.868  0.00  0.00     0.023 H 
ENDBRANCH  39  64
ENDBRANCH   1  39
BRANCH   7  68
ATOM     68  C   LIG d   1       4.504  -0.667  -6.588  0.00  0.00    -0.059 C 
ATOM     69  H   LIG d   1       3.605  -1.271  -6.710  0.00  0.00     0.024 H 
ATOM     70  H   LIG d   1       4.704  -0.524  -5.526  0.00  0.00     0.024 H 
ATOM     71  H   LIG d   1       4.357   0.302  -7.065  0.00  0.00     0.024 H 
ENDBRANCH   7  68
BRANCH  17  72
ATOM     72  C   LIG d   1       1.580  -1.778  -9.965  0.00  0.00    -0.059 C 
ATOM     73  H   LIG d   1       1.635  -1.130  -9.092  0.00  0.00     0.024 H 
ATOM     74  H   LIG d   1       1.039  -1.269 -10.764  0.00  0.00     0.024 H 
ATOM     75  H   LIG d   1       1.056  -2.698  -9.703  0.00  0.00     0.024 H 
ENDBRANCH  17  72
BRANCH  22  76
ATOM     76  C   LIG d   1       2.239  -5.279 -12.525  0.00  0.00    -0.060 C 
ATOM     77  H   LIG d   1       1.800  -5.952 -11.788  0.00  0.00     0.023 H 
ATOM     78  H   LIG d   1       1.724  -5.400 -13.478  0.00  0.00     0.023 H 
ATOM     79  H   LIG d   1       3.295  -5.518 -12.651  0.00  0.00     0.023 H 
ENDBRANCH  22  76
BRANCH  20  80
ATOM     80  O   LIG d   1       1.509  -3.128 -14.281  0.00  0.00    -0.392 OA
ATOM     81  H   LIG d   1       0.581  -3.093 -14.005  0.00  0.00     0.210 HD
ENDBRANCH  20  80
TORSDOF 13
ENDMDL
MODEL 5
REMARK VINA RESULT:      -5.5      5.387      7.714
REMARK  13 active torsions:
REMARK  status: ('A' for Active; 'I' for Inactive)
REMARK    1  A    between atoms: C_1  and  C_2 
REMARK    2  A    between atoms: C_3  and  C_4 
REMARK    3  A    between atoms: C_3  and  C_36 
REMARK    4  A    between atoms: C_4  and  C_5 
REMARK    5  A    between atoms: C_5  and  C_6 
REMARK    6  A    between atoms: C_6  and  C_8 
REMARK    7  A    between atoms: C_6  and  C_9 
REMARK    8  A    between atoms: C_15  and  C_35 
REMARK    9  A    between atoms: C_25  and  C_34 
REMARK   10  A    between atoms: C_28  and  O_33 
REMARK   11  A    between atoms: C_30  and  C_32 
REMARK   12  A    between atoms: C_36  and  C_37 
REMARK   13  A    between atoms: C_36  and  C_38 
ROOT
ATOM      1  C   LIG d   1       6.055  -3.468  -4.895  0.00  0.00    -0.033 C 
ATOM      2  H   LIG d   1       5.978  -3.525  -3.817  0.00  0.00     0.031 H 
ATOM      3  C   LIG d   1       4.650  -3.421  -5.555  0.00  0.00    -0.049 C 
ATOM      4  C   LIG d   1       4.390  -4.845  -6.131  0.00  0.00    -0.046 C 
ATOM      5  C   LIG d   1       5.420  -5.690  -5.367  0.00  0.00    -0.014 C 
ATOM      6  H   LIG d   1       5.090  -5.792  -4.315  0.00  0.00     0.035 H 
ATOM      7  C   LIG d   1       6.663  -4.772  -5.450  0.00  0.00    -0.022 C 
ATOM      8  C   LIG d   1       7.815  -5.359  -4.695  0.00  0.00    -0.046 C 
ATOM      9  C   LIG d   1       8.063  -6.833  -5.033  0.00  0.00    -0.045 C 
ATOM     10  C   LIG d   1       7.194  -7.354  -6.165  0.00  0.00    -0.014 C 
ATOM     11  H   LIG d   1       7.498  -6.834  -7.078  0.00  0.00     0.035 H 
ATOM     12  C   LIG d   1       5.747  -7.038  -5.926  0.00  0.00    -0.066 C 
ATOM     13  C   LIG d   1       4.775  -7.874  -6.167  0.00  0.00    -0.084 C 
ATOM     14  C   LIG d   1       5.039  -9.273  -6.664  0.00  0.00    -0.031 C 
ATOM     15  C   LIG d   1       6.359  -9.734  -6.040  0.00  0.00    -0.027 C 
ATOM     16  H   LIG d   1       6.270  -9.661  -4.945  0.00  0.00     0.031 H 
ATOM     17  C   LIG d   1       7.479  -8.810  -6.495  0.00  0.00    -0.022 C 
ATOM     18  C   LIG d   1       8.805  -9.246  -5.871  0.00  0.00    -0.044 C 
ATOM     19  C   LIG d   1       9.117 -10.695  -6.239  0.00  0.00    -0.026 C 
ATOM     20  C   LIG d   1       7.988 -11.612  -5.774  0.00  0.00     0.058 C 
ATOM     21  H   LIG d   1       7.901 -11.560  -4.689  0.00  0.00     0.060 H 
ATOM     22  C   LIG d   1       6.660 -11.184  -6.406  0.00  0.00    -0.014 C 
ATOM     23  H   LIG d   1       6.711 -11.308  -7.485  0.00  0.00     0.033 H 
ATOM     24  H   LIG d   1       3.895  -3.179  -4.809  0.00  0.00     0.027 H 
ATOM     25  H   LIG d   1       4.639  -2.688  -6.359  0.00  0.00     0.027 H 
ATOM     26  H   LIG d   1       3.376  -5.169  -5.877  0.00  0.00     0.027 H 
ATOM     27  H   LIG d   1       4.536  -4.882  -7.202  0.00  0.00     0.027 H 
ATOM     28  H   LIG d   1       8.726  -4.785  -4.912  0.00  0.00     0.027 H 
ATOM     29  H   LIG d   1       7.623  -5.269  -3.616  0.00  0.00     0.027 H 
ATOM     30  H   LIG d   1       9.119  -6.955  -5.304  0.00  0.00     0.027 H 
ATOM     31  H   LIG d   1       7.882  -7.437  -4.135  0.00  0.00     0.027 H 
ATOM     32  H   LIG d   1       3.758  -7.553  -6.004  0.00  0.00     0.057 H 
ATOM     33  H   LIG d   1       4.216  -9.913  -6.327  0.00  0.00     0.031 H 
ATOM     34  H   LIG d   1       5.076  -9.291  -7.746  0.00  0.00     0.031 H 
ATOM     35  H   LIG d   1       9.607  -8.602  -6.239  0.00  0.00     0.027 H 
ATOM     36  H   LIG d   1       8.743  -9.157  -4.785  0.00  0.00     0.027 H 
ATOM     37  H   LIG d   1       9.269 -10.799  -7.310  0.00  0.00     0.029 H 
ATOM     38  H   LIG d   1      10.045 -10.993  -5.734  0.00  0.00     0.029 H 
ENDROOT
BRANCH   1  39
ATOM     39  C   LIG d   1       6.896  -2.275  -5.339  0.00  0.00    -0.040 C 
ATOM     40  H   LIG d   1       7.448  -2.535  -6.242  0.00  0.00     0.030 H 
BRANCH  39  41
ATOM     41  C   LIG d   1       5.980  -1.083  -5.626  0.00  0.00    -0.046 C 
ATOM     42  H   LIG d   1       5.005  -1.446  -5.954  0.00  0.00     0.027 H 
ATOM     43  H   LIG d   1       6.420  -0.466  -6.409  0.00  0.00     0.027 H 
BRANCH  41  44
ATOM     44  C   LIG d   1       5.813  -0.251  -4.353  0.00  0.00    -0.031 C 
ATOM     45  H   LIG d   1       6.211   0.750  -4.518  0.00  0.00     0.031 H 
ATOM     46  H   LIG d   1       6.354  -0.727  -3.534  0.00  0.00     0.031 H 
BRANCH  44  47
ATOM     47  C   LIG d   1       4.350  -0.159  -4.002  0.00  0.00    -0.071 C 
ATOM     48  C   LIG d   1       3.459   0.016  -4.945  0.00  0.00    -0.088 C 
ATOM     49  H   LIG d   1       3.772   0.094  -5.975  0.00  0.00     0.057 H 
BRANCH  48  50
ATOM     50  C   LIG d   1       1.997   0.108  -4.593  0.00  0.00    -0.047 C 
ATOM     51  H   LIG d   1       1.420  -0.530  -5.265  0.00  0.00     0.027 H 
ATOM     52  H   LIG d   1       1.849  -0.222  -3.564  0.00  0.00     0.027 H 
ATOM     53  H   LIG d   1       1.661   1.140  -4.696  0.00  0.00     0.027 H 
ENDBRANCH  48  50
BRANCH  47  54
ATOM     54  C   LIG d   1       3.913  -0.269  -2.564  0.00  0.00    -0.026 C 
ATOM     55  H   LIG d   1       2.832  -0.143  -2.502  0.00  0.00     0.034 H 
BRANCH  54  56
ATOM     56  C   LIG d   1       4.298  -1.644  -2.017  0.00  0.00    -0.059 C 
ATOM     57  H   LIG d   1       4.119  -2.402  -2.781  0.00  0.00     0.024 H 
ATOM     58  H   LIG d   1       5.354  -1.646  -1.744  0.00  0.00     0.024 H 
ATOM     59  H   LIG d   1       3.695  -1.868  -1.136  0.00  0.00     0.024 H 
ENDBRANCH  54  56
BRANCH  54  60
ATOM     60  C   LIG d   1       4.601   0.819  -1.736  0.00  0.00    -0.059 C 
ATOM     61  H   LIG d   1       5.500   1.155  -2.253  0.00  0.00     0.024 H 
ATOM     62  H   LIG d   1       3.922   1.661  -1.606  0.00  0.00     0.024 H 
ATOM     63  H   LIG d   1       4.872   0.416  -0.760  0.00  0.00     0.024 H 
ENDBRANCH  54  60
ENDBRANCH  47  54
ENDBRANCH  44  47
ENDBRANCH  41  44
ENDBRANCH  39  41
BRANCH  39  64
ATOM     64  C   LIG d   1       7.881  -1.904  -4.228  0.00  0.00    -0.062 C 
ATOM     65  H   LIG d   1       7.775  -0.846  -3.987  0.00  0.00     0.023 H 
ATOM     66  H   LIG d   1       7.670  -2.501  -3.341  0.00  0.00     0.023 H 
ATOM     67  H   LIG d   1       8.899  -2.099  -4.564  0.00  0.00     0.023 H 
ENDBRANCH  39  64
ENDBRANCH   1  39
BRANCH   7  68
ATOM     68  C   LIG d   1       7.064  -4.462  -6.891  0.00  0.00    -0.059 C 
ATOM     69  H   LIG d   1       7.240  -3.392  -6.997  0.00  0.00     0.024 H 
ATOM     70  H   LIG d   1       7.974  -5.007  -7.141  0.00  0.00     0.024 H 
ATOM     71  H   LIG d   1       6.262  -4.766  -7.564  0.00  0.00     0.024 H 
ENDBRANCH   7  68
BRANCH  17  72
ATOM     72  C   LIG d   1       7.624  -8.889  -8.020  0.00  0.00    -0.059 C 
ATOM     73  H   LIG d   1       6.636  -8.912  -8.479  0.00  0.00     0.024 H 
ATOM     74  H   LIG d   1       8.171  -8.016  -8.378  0.00  0.00     0.024 H 
ATOM     75  H   LIG d   1       8.171  -9.794  -8.287  0.00  0.00     0.024 H 
ENDBRANCH  17  72
BRANCH  22  76
ATOM     76  C   LIG d   1       5.556 -12.098  -5.859  0.00  0.00    -0.060 C 
ATOM     77  H   LIG d   1       5.987 -13.057  -5.570  0.00  0.00     0.023 H 
ATOM     78  H   LIG d   1       5.094 -11.631  -4.990  0.00  0.00     0.023 H 
ATOM     79  H   LIG d   1       4.801 -12.257  -6.630  0.00  0.00     0.023 H 
ENDBRANCH  22  76
BRANCH  20  80
ATOM     80  O   LIG d   1       8.278 -12.958  -6.159  0.00  0.00    -0.392 OA
ATOM     81  H   LIG d   1       8.727 -13.035  -7.013  0.00  0.00     0.210 HD
ENDBRANCH  20  80
TORSDOF 13
ENDMDL
MODEL 6
REMARK VINA RESULT:      -5.4      4.922      7.774
REMARK  13 active torsions:
REMARK  status: ('A' for Active; 'I' for Inactive)
REMARK    1  A    between atoms: C_1  and  C_2 
REMARK    2  A    between atoms: C_3  and  C_4 
REMARK    3  A    between atoms: C_3  and  C_36 
REMARK    4  A    between atoms: C_4  and  C_5 
REMARK    5  A    between atoms: C_5  and  C_6 
REMARK    6  A    between atoms: C_6  and  C_8 
REMARK    7  A    between atoms: C_6  and  C_9 
REMARK    8  A    between atoms: C_15  and  C_35 
REMARK    9  A    between atoms: C_25  and  C_34 
REMARK   10  A    between atoms: C_28  and  O_33 
REMARK   11  A    between atoms: C_30  and  C_32 
REMARK   12  A    between atoms: C_36  and  C_37 
REMARK   13  A    between atoms: C_36  and  C_38 
ROOT
ATOM      1  C   LIG d   1       6.149  -3.361  -6.689  0.00  0.00    -0.033 C 
ATOM      2  H   LIG d   1       6.668  -3.344  -7.638  0.00  0.00     0.031 H 
ATOM      3  C   LIG d   1       7.118  -3.050  -5.516  0.00  0.00    -0.049 C 
ATOM      4  C   LIG d   1       7.422  -4.414  -4.826  0.00  0.00    -0.046 C 
ATOM      5  C   LIG d   1       7.002  -5.417  -5.910  0.00  0.00    -0.014 C 
ATOM      6  H   LIG d   1       7.745  -5.391  -6.730  0.00  0.00     0.035 H 
ATOM      7  C   LIG d   1       5.666  -4.792  -6.378  0.00  0.00    -0.022 C 
ATOM      8  C   LIG d   1       5.078  -5.572  -7.514  0.00  0.00    -0.046 C 
ATOM      9  C   LIG d   1       5.040  -7.080  -7.247  0.00  0.00    -0.045 C 
ATOM     10  C   LIG d   1       5.464  -7.462  -5.839  0.00  0.00    -0.014 C 
ATOM     11  H   LIG d   1       4.710  -7.068  -5.152  0.00  0.00     0.035 H 
ATOM     12  C   LIG d   1       6.776  -6.831  -5.479  0.00  0.00    -0.066 C 
ATOM     13  C   LIG d   1       7.722  -7.452  -4.828  0.00  0.00    -0.084 C 
ATOM     14  C   LIG d   1       7.588  -8.899  -4.427  0.00  0.00    -0.031 C 
ATOM     15  C   LIG d   1       6.771  -9.598  -5.516  0.00  0.00    -0.027 C 
ATOM     16  H   LIG d   1       7.279  -9.451  -6.481  0.00  0.00     0.031 H 
ATOM     17  C   LIG d   1       5.391  -8.960  -5.595  0.00  0.00    -0.022 C 
ATOM     18  C   LIG d   1       4.563  -9.637  -6.689  0.00  0.00    -0.044 C 
ATOM     19  C   LIG d   1       4.450 -11.137  -6.422  0.00  0.00    -0.026 C 
ATOM     20  C   LIG d   1       5.839 -11.765  -6.348  0.00  0.00     0.058 C 
ATOM     21  H   LIG d   1       6.347 -11.638  -7.304  0.00  0.00     0.060 H 
ATOM     22  C   LIG d   1       6.668 -11.096  -5.247  0.00  0.00    -0.014 C 
ATOM     23  H   LIG d   1       6.211 -11.285  -4.279  0.00  0.00     0.033 H 
ATOM     24  H   LIG d   1       8.038  -2.613  -5.898  0.00  0.00     0.027 H 
ATOM     25  H   LIG d   1       6.641  -2.374  -4.807  0.00  0.00     0.027 H 
ATOM     26  H   LIG d   1       8.496  -4.499  -4.631  0.00  0.00     0.027 H 
ATOM     27  H   LIG d   1       6.865  -4.536  -3.908  0.00  0.00     0.027 H 
ATOM     28  H   LIG d   1       4.057  -5.217  -7.711  0.00  0.00     0.027 H 
ATOM     29  H   LIG d   1       5.667  -5.386  -8.423  0.00  0.00     0.027 H 
ATOM     30  H   LIG d   1       4.019  -7.439  -7.426  0.00  0.00     0.027 H 
ATOM     31  H   LIG d   1       5.697  -7.583  -7.968  0.00  0.00     0.027 H 
ATOM     32  H   LIG d   1       8.621  -6.912  -4.575  0.00  0.00     0.057 H 
ATOM     33  H   LIG d   1       8.594  -9.330  -4.373  0.00  0.00     0.031 H 
ATOM     34  H   LIG d   1       7.119  -8.981  -3.454  0.00  0.00     0.031 H 
ATOM     35  H   LIG d   1       3.562  -9.199  -6.706  0.00  0.00     0.027 H 
ATOM     36  H   LIG d   1       5.040  -9.479  -7.657  0.00  0.00     0.027 H 
ATOM     37  H   LIG d   1       3.902 -11.327  -5.503  0.00  0.00     0.029 H 
ATOM     38  H   LIG d   1       3.896 -11.599  -7.249  0.00  0.00     0.029 H 
ENDROOT
BRANCH   1  39
ATOM     39  C   LIG d   1       4.963  -2.401  -6.676  0.00  0.00    -0.040 C 
ATOM     40  H   LIG d   1       4.149  -2.836  -6.097  0.00  0.00     0.030 H 
BRANCH  39  41
ATOM     41  C   LIG d   1       5.389  -1.075  -6.040  0.00  0.00    -0.046 C 
ATOM     42  H   LIG d   1       5.790  -0.414  -6.810  0.00  0.00     0.027 H 
ATOM     43  H   LIG d   1       6.154  -1.262  -5.286  0.00  0.00     0.027 H 
BRANCH  41  44
ATOM     44  C   LIG d   1       4.176  -0.414  -5.382  0.00  0.00    -0.031 C 
ATOM     45  H   LIG d   1       3.262  -0.810  -5.823  0.00  0.00     0.031 H 
ATOM     46  H   LIG d   1       4.218   0.665  -5.541  0.00  0.00     0.031 H 
BRANCH  44  47
ATOM     47  C   LIG d   1       4.187  -0.704  -3.903  0.00  0.00    -0.071 C 
ATOM     48  C   LIG d   1       3.897  -1.904  -3.468  0.00  0.00    -0.088 C 
ATOM     49  H   LIG d   1       3.651  -2.687  -4.169  0.00  0.00     0.057 H 
BRANCH  48  50
ATOM     50  C   LIG d   1       3.908  -2.194  -1.989  0.00  0.00    -0.047 C 
ATOM     51  H   LIG d   1       2.890  -2.150  -1.602  0.00  0.00     0.027 H 
ATOM     52  H   LIG d   1       4.320  -3.190  -1.818  0.00  0.00     0.027 H 
ATOM     53  H   LIG d   1       4.524  -1.454  -1.478  0.00  0.00     0.027 H 
ENDBRANCH  48  50
BRANCH  47  54
ATOM     54  C   LIG d   1       4.530   0.390  -2.924  0.00  0.00    -0.026 C 
ATOM     55  H   LIG d   1       4.445   0.006  -1.907  0.00  0.00     0.034 H 
BRANCH  54  56
ATOM     56  C   LIG d   1       5.963   0.864  -3.172  0.00  0.00    -0.059 C 
ATOM     57  H   LIG d   1       6.661   0.173  -2.698  0.00  0.00     0.024 H 
ATOM     58  H   LIG d   1       6.156   0.896  -4.245  0.00  0.00     0.024 H 
ATOM     59  H   LIG d   1       6.095   1.860  -2.750  0.00  0.00     0.024 H 
ENDBRANCH  54  56
BRANCH  54  60
ATOM     60  C   LIG d   1       3.566   1.563  -3.109  0.00  0.00    -0.059 C 
ATOM     61  H   LIG d   1       4.038   2.328  -3.725  0.00  0.00     0.024 H 
ATOM     62  H   LIG d   1       2.657   1.213  -3.597  0.00  0.00     0.024 H 
ATOM     63  H   LIG d   1       3.316   1.985  -2.135  0.00  0.00     0.024 H 
ENDBRANCH  54  60
ENDBRANCH  47  54
ENDBRANCH  44  47
ENDBRANCH  41  44
ENDBRANCH  39  41
BRANCH  39  64
ATOM     64  C   LIG d   1       4.494  -2.149  -8.110  0.00  0.00    -0.062 C 
ATOM     65  H   LIG d   1       4.134  -1.124  -8.201  0.00  0.00     0.023 H 
ATOM     66  H   LIG d   1       5.327  -2.304  -8.797  0.00  0.00     0.023 H 
ATOM     67  H   LIG d   1       3.688  -2.840  -8.355  0.00  0.00     0.023 H 
ENDBRANCH  39  64
ENDBRANCH   1  39
BRANCH   7  68
ATOM     68  C   LIG d   1       4.657  -4.651  -5.240  0.00  0.00    -0.059 C 
ATOM     69  H   LIG d   1       5.093  -4.054  -4.439  0.00  0.00     0.024 H 
ATOM     70  H   LIG d   1       3.757  -4.160  -5.611  0.00  0.00     0.024 H 
ATOM     71  H   LIG d   1       4.401  -5.639  -4.858  0.00  0.00     0.024 H 
ENDBRANCH   7  68
BRANCH  17  72
ATOM     72  C   LIG d   1       4.660  -9.149  -4.261  0.00  0.00    -0.059 C 
ATOM     73  H   LIG d   1       4.583  -8.190  -3.749  0.00  0.00     0.024 H 
ATOM     74  H   LIG d   1       3.659  -9.542  -4.447  0.00  0.00     0.024 H 
ATOM     75  H   LIG d   1       5.214  -9.851  -3.638  0.00  0.00     0.024 H 
ENDBRANCH  17  72
BRANCH  22  76
ATOM     76  C   LIG d   1       8.069 -11.723  -5.258  0.00  0.00    -0.060 C 
ATOM     77  H   LIG d   1       8.578 -11.496  -4.322  0.00  0.00     0.023 H 
ATOM     78  H   LIG d   1       7.983 -12.803  -5.372  0.00  0.00     0.023 H 
ATOM     79  H   LIG d   1       8.643 -11.315  -6.091  0.00  0.00     0.023 H 
ENDBRANCH  22  76
BRANCH  20  80
ATOM     80  O   LIG d   1       5.717 -13.160  -6.061  0.00  0.00    -0.392 OA
ATOM     81  H   LIG d   1       5.856 -13.733  -6.829  0.00  0.00     0.210 HD
ENDBRANCH  20  80
TORSDOF 13
ENDMDL
MODEL 7
REMARK VINA RESULT:      -5.4      6.876     10.860
REMARK  13 active torsions:
REMARK  status: ('A' for Active; 'I' for Inactive)
REMARK    1  A    between atoms: C_1  and  C_2 
REMARK    2  A    between atoms: C_3  and  C_4 
REMARK    3  A    between atoms: C_3  and  C_36 
REMARK    4  A    between atoms: C_4  and  C_5 
REMARK    5  A    between atoms: C_5  and  C_6 
REMARK    6  A    between atoms: C_6  and  C_8 
REMARK    7  A    between atoms: C_6  and  C_9 
REMARK    8  A    between atoms: C_15  and  C_35 
REMARK    9  A    between atoms: C_25  and  C_34 
REMARK   10  A    between atoms: C_28  and  O_33 
REMARK   11  A    between atoms: C_30  and  C_32 
REMARK   12  A    between atoms: C_36  and  C_37 
REMARK   13  A    between atoms: C_36  and  C_38 
ROOT
ATOM      1  C   LIG d   1       8.675   0.271  -5.724  0.00  0.00    -0.033 C 
ATOM      2  H   LIG d   1       9.577  -0.273  -5.972  0.00  0.00     0.031 H 
ATOM      3  C   LIG d   1       7.890   0.665  -7.005  0.00  0.00    -0.049 C 
ATOM      4  C   LIG d   1       8.164   2.182  -7.235  0.00  0.00    -0.046 C 
ATOM      5  C   LIG d   1       9.416   2.412  -6.377  0.00  0.00    -0.014 C 
ATOM      6  H   LIG d   1      10.283   1.933  -6.873  0.00  0.00     0.035 H 
ATOM      7  C   LIG d   1       9.034   1.632  -5.096  0.00  0.00    -0.022 C 
ATOM      8  C   LIG d   1      10.156   1.647  -4.104  0.00  0.00    -0.046 C 
ATOM      9  C   LIG d   1      10.732   3.048  -3.873  0.00  0.00    -0.045 C 
ATOM     10  C   LIG d   1       9.957   4.150  -4.577  0.00  0.00    -0.014 C 
ATOM     11  H   LIG d   1       8.969   4.205  -4.111  0.00  0.00     0.035 H 
ATOM     12  C   LIG d   1       9.753   3.826  -6.028  0.00  0.00    -0.066 C 
ATOM     13  C   LIG d   1       9.866   4.704  -6.987  0.00  0.00    -0.084 C 
ATOM     14  C   LIG d   1      10.273   6.129  -6.712  0.00  0.00    -0.031 C 
ATOM     15  C   LIG d   1      11.244   6.103  -5.528  0.00  0.00    -0.027 C 
ATOM     16  H   LIG d   1      12.087   5.443  -5.784  0.00  0.00     0.031 H 
ATOM     17  C   LIG d   1      10.534   5.530  -4.310  0.00  0.00    -0.022 C 
ATOM     18  C   LIG d   1      11.493   5.483  -3.119  0.00  0.00    -0.044 C 
ATOM     19  C   LIG d   1      12.040   6.877  -2.819  0.00  0.00    -0.026 C 
ATOM     20  C   LIG d   1      12.751   7.440  -4.047  0.00  0.00     0.058 C 
ATOM     21  H   LIG d   1      13.599   6.802  -4.301  0.00  0.00     0.060 H 
ATOM     22  C   LIG d   1      11.791   7.497  -5.239  0.00  0.00    -0.014 C 
ATOM     23  H   LIG d   1      10.984   8.194  -5.026  0.00  0.00     0.033 H 
ATOM     24  H   LIG d   1       8.250   0.089  -7.855  0.00  0.00     0.027 H 
ATOM     25  H   LIG d   1       6.824   0.499  -6.856  0.00  0.00     0.027 H 
ATOM     26  H   LIG d   1       8.393   2.361  -8.290  0.00  0.00     0.027 H 
ATOM     27  H   LIG d   1       7.329   2.795  -6.925  0.00  0.00     0.027 H 
ATOM     28  H   LIG d   1       9.803   1.243  -3.146  0.00  0.00     0.027 H 
ATOM     29  H   LIG d   1      10.960   0.987  -4.459  0.00  0.00     0.027 H 
ATOM     30  H   LIG d   1      10.741   3.247  -2.795  0.00  0.00     0.027 H 
ATOM     31  H   LIG d   1      11.772   3.064  -4.220  0.00  0.00     0.027 H 
ATOM     32  H   LIG d   1       9.664   4.396  -8.001  0.00  0.00     0.057 H 
ATOM     33  H   LIG d   1      10.775   6.517  -7.605  0.00  0.00     0.031 H 
ATOM     34  H   LIG d   1       9.402   6.739  -6.507  0.00  0.00     0.031 H 
ATOM     35  H   LIG d   1      10.961   5.110  -2.242  0.00  0.00     0.027 H 
ATOM     36  H   LIG d   1      12.324   4.812  -3.347  0.00  0.00     0.027 H 
ATOM     37  H   LIG d   1      11.244   7.547  -2.506  0.00  0.00     0.029 H 
ATOM     38  H   LIG d   1      12.762   6.800  -1.996  0.00  0.00     0.029 H 
ENDROOT
BRANCH   1  39
ATOM     39  C   LIG d   1       7.783  -0.520  -4.771  0.00  0.00    -0.040 C 
ATOM     40  H   LIG d   1       7.664   0.035  -3.840  0.00  0.00     0.030 H 
BRANCH  39  41
ATOM     41  C   LIG d   1       6.411  -0.734  -5.415  0.00  0.00    -0.046 C 
ATOM     42  H   LIG d   1       6.534  -1.250  -6.369  0.00  0.00     0.027 H 
ATOM     43  H   LIG d   1       5.933   0.231  -5.583  0.00  0.00     0.027 H 
BRANCH  41  44
ATOM     44  C   LIG d   1       5.539  -1.581  -4.486  0.00  0.00    -0.031 C 
ATOM     45  H   LIG d   1       6.078  -1.776  -3.560  0.00  0.00     0.031 H 
ATOM     46  H   LIG d   1       5.299  -2.527  -4.974  0.00  0.00     0.031 H 
BRANCH  44  47
ATOM     47  C   LIG d   1       4.264  -0.838  -4.180  0.00  0.00    -0.071 C 
ATOM     48  C   LIG d   1       3.614  -0.228  -5.139  0.00  0.00    -0.088 C 
ATOM     49  H   LIG d   1       3.991  -0.259  -6.150  0.00  0.00     0.057 H 
BRANCH  48  50
ATOM     50  C   LIG d   1       2.339   0.514  -4.833  0.00  0.00    -0.047 C 
ATOM     51  H   LIG d   1       2.576   1.533  -4.525  0.00  0.00     0.027 H 
ATOM     52  H   LIG d   1       1.711   0.542  -5.724  0.00  0.00     0.027 H 
ATOM     53  H   LIG d   1       1.806   0.007  -4.029  0.00  0.00     0.027 H 
ENDBRANCH  48  50
BRANCH  47  54
ATOM     54  C   LIG d   1       3.738  -0.796  -2.768  0.00  0.00    -0.026 C 
ATOM     55  H   LIG d   1       2.710  -0.430  -2.774  0.00  0.00     0.034 H 
BRANCH  54  56
ATOM     56  C   LIG d   1       3.774  -2.203  -2.169  0.00  0.00    -0.059 C 
ATOM     57  H   LIG d   1       2.828  -2.707  -2.368  0.00  0.00     0.024 H 
ATOM     58  H   LIG d   1       4.589  -2.770  -2.619  0.00  0.00     0.024 H 
ATOM     59  H   LIG d   1       3.930  -2.136  -1.092  0.00  0.00     0.024 H 
ENDBRANCH  54  56
BRANCH  54  60
ATOM     60  C   LIG d   1       4.607   0.139  -1.926  0.00  0.00    -0.059 C 
ATOM     61  H   LIG d   1       5.589  -0.311  -1.780  0.00  0.00     0.024 H 
ATOM     62  H   LIG d   1       4.719   1.094  -2.440  0.00  0.00     0.024 H 
ATOM     63  H   LIG d   1       4.134   0.301  -0.957  0.00  0.00     0.024 H 
ENDBRANCH  54  60
ENDBRANCH  47  54
ENDBRANCH  44  47
ENDBRANCH  41  44
ENDBRANCH  39  41
BRANCH  39  64
ATOM     64  C   LIG d   1       8.425  -1.877  -4.477  0.00  0.00    -0.062 C 
ATOM     65  H   LIG d   1       7.831  -2.667  -4.936  0.00  0.00     0.023 H 
ATOM     66  H   LIG d   1       9.435  -1.897  -4.889  0.00  0.00     0.023 H 
ATOM     67  H   LIG d   1       8.469  -2.033  -3.400  0.00  0.00     0.023 H 
ENDBRANCH  39  64
ENDBRANCH   1  39
BRANCH   7  68
ATOM     68  C   LIG d   1       7.745   2.149  -4.461  0.00  0.00    -0.059 C 
ATOM     69  H   LIG d   1       7.844   2.139  -3.376  0.00  0.00     0.024 H 
ATOM     70  H   LIG d   1       7.556   3.168  -4.799  0.00  0.00     0.024 H 
ATOM     71  H   LIG d   1       6.913   1.509  -4.756  0.00  0.00     0.024 H 
ENDBRANCH   7  68
BRANCH  17  72
ATOM     72  C   LIG d   1       9.352   6.430  -3.932  0.00  0.00    -0.059 C 
ATOM     73  H   LIG d   1       9.395   7.351  -4.511  0.00  0.00     0.024 H 
ATOM     74  H   LIG d   1       8.417   5.909  -4.145  0.00  0.00     0.024 H 
ATOM     75  H   LIG d   1       9.400   6.666  -2.868  0.00  0.00     0.024 H 
ENDBRANCH  17  72
BRANCH  22  76
ATOM     76  C   LIG d   1      12.573   8.011  -6.456  0.00  0.00    -0.060 C 
ATOM     77  H   LIG d   1      12.048   7.734  -7.370  0.00  0.00     0.023 H 
ATOM     78  H   LIG d   1      12.659   9.096  -6.401  0.00  0.00     0.023 H 
ATOM     79  H   LIG d   1      13.569   7.568  -6.461  0.00  0.00     0.023 H 
ENDBRANCH  22  76
BRANCH  20  80
ATOM     80  O   LIG d   1      13.225   8.758  -3.761  0.00  0.00    -0.392 OA
ATOM     81  H   LIG d   1      14.173   8.802  -3.568  0.00  0.00     0.210 HD
ENDBRANCH  20  80
TORSDOF 13
ENDMDL
MODEL 8
REMARK VINA RESULT:      -5.3      5.818      9.070
REMARK  13 active torsions:
REMARK  status: ('A' for Active; 'I' for Inactive)
REMARK    1  A    between atoms: C_1  and  C_2 
REMARK    2  A    between atoms: C_3  and  C_4 
REMARK    3  A    between atoms: C_3  and  C_36 
REMARK    4  A    between atoms: C_4  and  C_5 
REMARK    5  A    between atoms: C_5  and  C_6 
REMARK    6  A    between atoms: C_6  and  C_8 
REMARK    7  A    between atoms: C_6  and  C_9 
REMARK    8  A    between atoms: C_15  and  C_35 
REMARK    9  A    between atoms: C_25  and  C_34 
REMARK   10  A    between atoms: C_28  and  O_33 
REMARK   11  A    between atoms: C_30  and  C_32 
REMARK   12  A    between atoms: C_36  and  C_37 
REMARK   13  A    between atoms: C_36  and  C_38 
ROOT
ATOM      1  C   LIG d   1      11.018   2.795  -4.684  0.00  0.00    -0.033 C 
ATOM      2  H   LIG d   1      11.645   2.341  -3.928  0.00  0.00     0.031 H 
ATOM      3  C   LIG d   1      10.187   3.965  -4.092  0.00  0.00    -0.049 C 
ATOM      4  C   LIG d   1       8.738   3.421  -3.907  0.00  0.00    -0.046 C 
ATOM      5  C   LIG d   1       8.961   1.903  -3.955  0.00  0.00    -0.014 C 
ATOM      6  H   LIG d   1       9.459   1.583  -3.020  0.00  0.00     0.035 H 
ATOM      7  C   LIG d   1       9.941   1.794  -5.148  0.00  0.00    -0.022 C 
ATOM      8  C   LIG d   1      10.376   0.377  -5.358  0.00  0.00    -0.046 C 
ATOM      9  C   LIG d   1       9.205  -0.612  -5.378  0.00  0.00    -0.045 C 
ATOM     10  C   LIG d   1       7.842   0.057  -5.331  0.00  0.00    -0.014 C 
ATOM     11  H   LIG d   1       7.716   0.611  -6.266  0.00  0.00     0.035 H 
ATOM     12  C   LIG d   1       7.761   1.046  -4.206  0.00  0.00    -0.066 C 
ATOM     13  C   LIG d   1       6.715   1.183  -3.438  0.00  0.00    -0.084 C 
ATOM     14  C   LIG d   1       5.501   0.303  -3.590  0.00  0.00    -0.031 C 
ATOM     15  C   LIG d   1       5.993  -1.076  -4.037  0.00  0.00    -0.027 C 
ATOM     16  H   LIG d   1       6.717  -1.444  -3.295  0.00  0.00     0.031 H 
ATOM     17  C   LIG d   1       6.700  -0.945  -5.378  0.00  0.00    -0.022 C 
ATOM     18  C   LIG d   1       7.212  -2.312  -5.836  0.00  0.00    -0.044 C 
ATOM     19  C   LIG d   1       6.059  -3.310  -5.929  0.00  0.00    -0.026 C 
ATOM     20  C   LIG d   1       5.360  -3.434  -4.577  0.00  0.00     0.058 C 
ATOM     21  H   LIG d   1       6.065  -3.813  -3.837  0.00  0.00     0.060 H 
ATOM     22  C   LIG d   1       4.838  -2.069  -4.121  0.00  0.00    -0.014 C 
ATOM     23  H   LIG d   1       4.075  -1.719  -4.811  0.00  0.00     0.033 H 
ATOM     24  H   LIG d   1      10.597   4.265  -3.130  0.00  0.00     0.027 H 
ATOM     25  H   LIG d   1      10.181   4.807  -4.782  0.00  0.00     0.027 H 
ATOM     26  H   LIG d   1       8.355   3.713  -2.923  0.00  0.00     0.027 H 
ATOM     27  H   LIG d   1       8.073   3.769  -4.684  0.00  0.00     0.027 H 
ATOM     28  H   LIG d   1      10.926   0.300  -6.305  0.00  0.00     0.027 H 
ATOM     29  H   LIG d   1      11.070   0.090  -4.555  0.00  0.00     0.027 H 
ATOM     30  H   LIG d   1       9.278  -1.219  -6.288  0.00  0.00     0.027 H 
ATOM     31  H   LIG d   1       9.301  -1.290  -4.521  0.00  0.00     0.027 H 
ATOM     32  H   LIG d   1       6.725   1.946  -2.676  0.00  0.00     0.057 H 
ATOM     33  H   LIG d   1       5.010   0.232  -2.613  0.00  0.00     0.031 H 
ATOM     34  H   LIG d   1       4.806   0.734  -4.300  0.00  0.00     0.031 H 
ATOM     35  H   LIG d   1       7.679  -2.212  -6.818  0.00  0.00     0.027 H 
ATOM     36  H   LIG d   1       7.951  -2.682  -5.123  0.00  0.00     0.027 H 
ATOM     37  H   LIG d   1       5.348  -3.011  -6.694  0.00  0.00     0.029 H 
ATOM     38  H   LIG d   1       6.466  -4.290  -6.208  0.00  0.00     0.029 H 
ENDROOT
BRANCH   1  39
ATOM     39  C   LIG d   1      11.834   3.270  -5.884  0.00  0.00    -0.040 C 
ATOM     40  H   LIG d   1      11.338   2.965  -6.804  0.00  0.00     0.030 H 
BRANCH  39  41
ATOM     41  C   LIG d   1      11.951   4.796  -5.849  0.00  0.00    -0.046 C 
ATOM     42  H   LIG d   1      12.965   5.076  -5.561  0.00  0.00     0.027 H 
ATOM     43  H   LIG d   1      11.243   5.198  -5.124  0.00  0.00     0.027 H 
BRANCH  41  44
ATOM     44  C   LIG d   1      11.638   5.362  -7.235  0.00  0.00    -0.031 C 
ATOM     45  H   LIG d   1      11.358   4.549  -7.905  0.00  0.00     0.031 H 
ATOM     46  H   LIG d   1      12.521   5.868  -7.629  0.00  0.00     0.031 H 
BRANCH  44  47
ATOM     47  C   LIG d   1      10.500   6.345  -7.132  0.00  0.00    -0.071 C 
ATOM     48  C   LIG d   1      10.329   7.035  -6.032  0.00  0.00    -0.088 C 
ATOM     49  H   LIG d   1      11.003   6.901  -5.200  0.00  0.00     0.057 H 
BRANCH  48  50
ATOM     50  C   LIG d   1       9.191   8.018  -5.929  0.00  0.00    -0.047 C 
ATOM     51  H   LIG d   1       8.248   7.505  -6.121  0.00  0.00     0.027 H 
ATOM     52  H   LIG d   1       9.173   8.447  -4.926  0.00  0.00     0.027 H 
ATOM     53  H   LIG d   1       9.328   8.813  -6.662  0.00  0.00     0.027 H 
ENDBRANCH  48  50
BRANCH  47  54
ATOM     54  C   LIG d   1       9.559   6.532  -8.293  0.00  0.00    -0.026 C 
ATOM     55  H   LIG d   1       8.662   7.050  -7.954  0.00  0.00     0.034 H 
BRANCH  54  56
ATOM     56  C   LIG d   1      10.247   7.362  -9.378  0.00  0.00    -0.059 C 
ATOM     57  H   LIG d   1       9.998   8.415  -9.242  0.00  0.00     0.024 H 
ATOM     58  H   LIG d   1      11.328   7.232  -9.306  0.00  0.00     0.024 H 
ATOM     59  H   LIG d   1       9.907   7.033 -10.360  0.00  0.00     0.024 H 
ENDBRANCH  54  56
BRANCH  54  60
ATOM     60  C   LIG d   1       9.174   5.166  -8.864  0.00  0.00    -0.059 C 
ATOM     61  H   LIG d   1       8.119   5.172  -9.139  0.00  0.00     0.024 H 
ATOM     62  H   LIG d   1       9.778   4.957  -9.747  0.00  0.00     0.024 H 
ATOM     63  H   LIG d   1       9.349   4.395  -8.113  0.00  0.00     0.024 H 
ENDBRANCH  54  60
ENDBRANCH  47  54
ENDBRANCH  44  47
ENDBRANCH  41  44
ENDBRANCH  39  41
BRANCH  39  64
ATOM     64  C   LIG d   1      13.232   2.651  -5.827  0.00  0.00    -0.062 C 
ATOM     65  H   LIG d   1      13.148   1.564  -5.804  0.00  0.00     0.023 H 
ATOM     66  H   LIG d   1      13.798   2.952  -6.709  0.00  0.00     0.023 H 
ATOM     67  H   LIG d   1      13.746   2.995  -4.931  0.00  0.00     0.023 H 
ENDBRANCH  39  64
ENDBRANCH   1  39
BRANCH   7  68
ATOM     68  C   LIG d   1       9.360   2.377  -6.435  0.00  0.00    -0.059 C 
ATOM     69  H   LIG d   1       8.885   1.585  -7.012  0.00  0.00     0.024 H 
ATOM     70  H   LIG d   1       8.622   3.140  -6.188  0.00  0.00     0.024 H 
ATOM     71  H   LIG d   1      10.161   2.825  -7.024  0.00  0.00     0.024 H 
ENDBRANCH   7  68
BRANCH  17  72
ATOM     72  C   LIG d   1       5.713  -0.430  -6.433  0.00  0.00    -0.059 C 
ATOM     73  H   LIG d   1       4.897   0.098  -5.941  0.00  0.00     0.024 H 
ATOM     74  H   LIG d   1       6.230   0.249  -7.113  0.00  0.00     0.024 H 
ATOM     75  H   LIG d   1       5.313  -1.273  -6.998  0.00  0.00     0.024 H 
ENDBRANCH  17  72
BRANCH  22  76
ATOM     76  C   LIG d   1       4.201  -2.242  -2.735  0.00  0.00    -0.060 C 
ATOM     77  H   LIG d   1       3.467  -3.047  -2.769  0.00  0.00     0.023 H 
ATOM     78  H   LIG d   1       4.974  -2.487  -2.008  0.00  0.00     0.023 H 
ATOM     79  H   LIG d   1       3.708  -1.314  -2.443  0.00  0.00     0.023 H 
ENDBRANCH  22  76
BRANCH  20  80
ATOM     80  O   LIG d   1       4.262  -4.343  -4.690  0.00  0.00    -0.392 OA
ATOM     81  H   LIG d   1       3.957  -4.480  -5.598  0.00  0.00     0.210 HD
ENDBRANCH  20  80
TORSDOF 13
ENDMDL
MODEL 9
REMARK VINA RESULT:      -5.2      6.758      9.933
REMARK  13 active torsions:
REMARK  status: ('A' for Active; 'I' for Inactive)
REMARK    1  A    between atoms: C_1  and  C_2 
REMARK    2  A    between atoms: C_3  and  C_4 
REMARK    3  A    between atoms: C_3  and  C_36 
REMARK    4  A    between atoms: C_4  and  C_5 
REMARK    5  A    between atoms: C_5  and  C_6 
REMARK    6  A    between atoms: C_6  and  C_8 
REMARK    7  A    between atoms: C_6  and  C_9 
REMARK    8  A    between atoms: C_15  and  C_35 
REMARK    9  A    between atoms: C_25  and  C_34 
REMARK   10  A    between atoms: C_28  and  O_33 
REMARK   11  A    between atoms: C_30  and  C_32 
REMARK   12  A    between atoms: C_36  and  C_37 
REMARK   13  A    between atoms: C_36  and  C_38 
ROOT
ATOM      1  C   LIG d   1       8.061   0.729  -5.437  0.00  0.00    -0.033 C 
ATOM      2  H   LIG d   1       7.026   0.812  -5.739  0.00  0.00     0.031 H 
ATOM      3  C   LIG d   1       8.223   0.987  -3.914  0.00  0.00    -0.049 C 
ATOM      4  C   LIG d   1       8.800   2.427  -3.774  0.00  0.00    -0.046 C 
ATOM      5  C   LIG d   1       8.484   3.031  -5.150  0.00  0.00    -0.014 C 
ATOM      6  H   LIG d   1       7.394   3.214  -5.220  0.00  0.00     0.035 H 
ATOM      7  C   LIG d   1       8.890   1.860  -6.078  0.00  0.00    -0.022 C 
ATOM      8  C   LIG d   1       8.601   2.185  -7.511  0.00  0.00    -0.046 C 
ATOM      9  C   LIG d   1       9.122   3.565  -7.928  0.00  0.00    -0.045 C 
ATOM     10  C   LIG d   1       9.950   4.254  -6.856  0.00  0.00    -0.014 C 
ATOM     11  H   LIG d   1      10.865   3.671  -6.723  0.00  0.00     0.035 H 
ATOM     12  C   LIG d   1       9.229   4.268  -5.540  0.00  0.00    -0.066 C 
ATOM     13  C   LIG d   1       9.210   5.296  -4.737  0.00  0.00    -0.084 C 
ATOM     14  C   LIG d   1       9.880   6.596  -5.100  0.00  0.00    -0.031 C 
ATOM     15  C   LIG d   1       9.758   6.760  -6.618  0.00  0.00    -0.027 C 
ATOM     16  H   LIG d   1       8.692   6.720  -6.888  0.00  0.00     0.031 H 
ATOM     17  C   LIG d   1      10.475   5.607  -7.305  0.00  0.00    -0.022 C 
ATOM     18  C   LIG d   1      10.353   5.746  -8.824  0.00  0.00    -0.044 C 
ATOM     19  C   LIG d   1      10.922   7.086  -9.285  0.00  0.00    -0.026 C 
ATOM     20  C   LIG d   1      10.194   8.234  -8.590  0.00  0.00     0.058 C 
ATOM     21  H   LIG d   1       9.138   8.214  -8.863  0.00  0.00     0.060 H 
ATOM     22  C   LIG d   1      10.322   8.104  -7.070  0.00  0.00    -0.014 C 
ATOM     23  H   LIG d   1      11.365   8.204  -6.780  0.00  0.00     0.033 H 
ATOM     24  H   LIG d   1       7.255   0.925  -3.421  0.00  0.00     0.027 H 
ATOM     25  H   LIG d   1       8.916   0.266  -3.484  0.00  0.00     0.027 H 
ATOM     26  H   LIG d   1       8.258   2.970  -2.993  0.00  0.00     0.027 H 
ATOM     27  H   LIG d   1       9.859   2.420  -3.557  0.00  0.00     0.027 H 
ATOM     28  H   LIG d   1       9.054   1.422  -8.157  0.00  0.00     0.027 H 
ATOM     29  H   LIG d   1       7.515   2.150  -7.677  0.00  0.00     0.027 H 
ATOM     30  H   LIG d   1       9.731   3.448  -8.832  0.00  0.00     0.027 H 
ATOM     31  H   LIG d   1       8.268   4.202  -8.185  0.00  0.00     0.027 H 
ATOM     32  H   LIG d   1       8.700   5.208  -3.791  0.00  0.00     0.057 H 
ATOM     33  H   LIG d   1       9.348   7.406  -4.588  0.00  0.00     0.031 H 
ATOM     34  H   LIG d   1      10.913   6.595  -4.775  0.00  0.00     0.031 H 
ATOM     35  H   LIG d   1      10.907   4.937  -9.306  0.00  0.00     0.027 H 
ATOM     36  H   LIG d   1       9.303   5.683  -9.112  0.00  0.00     0.027 H 
ATOM     37  H   LIG d   1      11.989   7.144  -9.087  0.00  0.00     0.029 H 
ATOM     38  H   LIG d   1      10.772   7.177 -10.368  0.00  0.00     0.029 H 
ENDROOT
BRANCH   1  39
ATOM     39  C   LIG d   1       8.654  -0.626  -5.817  0.00  0.00    -0.040 C 
ATOM     40  H   LIG d   1       9.727  -0.521  -5.976  0.00  0.00     0.030 H 
BRANCH  39  41
ATOM     41  C   LIG d   1       8.400  -1.628  -4.689  0.00  0.00    -0.046 C 
ATOM     42  H   LIG d   1       8.119  -1.091  -3.782  0.00  0.00     0.027 H 
ATOM     43  H   LIG d   1       9.307  -2.204  -4.503  0.00  0.00     0.027 H 
BRANCH  41  44
ATOM     44  C   LIG d   1       7.268  -2.575  -5.093  0.00  0.00    -0.031 C 
ATOM     45  H   LIG d   1       7.536  -3.597  -4.827  0.00  0.00     0.031 H 
ATOM     46  H   LIG d   1       7.107  -2.510  -6.170  0.00  0.00     0.031 H 
BRANCH  44  47
ATOM     47  C   LIG d   1       6.004  -2.182  -4.372  0.00  0.00    -0.071 C 
ATOM     48  C   LIG d   1       6.038  -1.902  -3.094  0.00  0.00    -0.088 C 
ATOM     49  H   LIG d   1       6.973  -1.951  -2.556  0.00  0.00     0.057 H 
BRANCH  48  50
ATOM     50  C   LIG d   1       4.775  -1.509  -2.374  0.00  0.00    -0.047 C 
ATOM     51  H   LIG d   1       4.945  -0.588  -1.815  0.00  0.00     0.027 H 
ATOM     52  H   LIG d   1       3.977  -1.351  -3.101  0.00  0.00     0.027 H 
ATOM     53  H   LIG d   1       4.486  -2.304  -1.685  0.00  0.00     0.027 H 
ENDBRANCH  48  50
BRANCH  47  54
ATOM     54  C   LIG d   1       4.700  -2.113  -5.124  0.00  0.00    -0.026 C 
ATOM     55  H   LIG d   1       3.872  -2.248  -4.427  0.00  0.00     0.034 H 
BRANCH  54  56
ATOM     56  C   LIG d   1       4.575  -0.750  -5.806  0.00  0.00    -0.059 C 
ATOM     57  H   LIG d   1       4.807   0.038  -5.088  0.00  0.00     0.024 H 
ATOM     58  H   LIG d   1       5.273  -0.696  -6.642  0.00  0.00     0.024 H 
ATOM     59  H   LIG d   1       3.558  -0.618  -6.174  0.00  0.00     0.024 H 
ENDBRANCH  54  56
BRANCH  54  60
ATOM     60  C   LIG d   1       4.660  -3.218  -6.182  0.00  0.00    -0.059 C 
ATOM     61  H   LIG d   1       5.473  -3.069  -6.893  0.00  0.00     0.024 H 
ATOM     62  H   LIG d   1       4.774  -4.188  -5.699  0.00  0.00     0.024 H 
ATOM     63  H   LIG d   1       3.706  -3.183  -6.708  0.00  0.00     0.024 H 
ENDBRANCH  54  60
ENDBRANCH  47  54
ENDBRANCH  44  47
ENDBRANCH  41  44
ENDBRANCH  39  41
BRANCH  39  64
ATOM     64  C   LIG d   1       7.994  -1.129  -7.103  0.00  0.00    -0.062 C 
ATOM     65  H   LIG d   1       7.915  -2.216  -7.070  0.00  0.00     0.023 H 
ATOM     66  H   LIG d   1       6.997  -0.695  -7.193  0.00  0.00     0.023 H 
ATOM     67  H   LIG d   1       8.597  -0.834  -7.961  0.00  0.00     0.023 H 
ENDBRANCH  39  64
ENDBRANCH   1  39
BRANCH   7  68
ATOM     68  C   LIG d   1      10.352   1.455  -5.899  0.00  0.00    -0.059 C 
ATOM     69  H   LIG d   1      10.994   2.185  -6.391  0.00  0.00     0.024 H 
ATOM     70  H   LIG d   1      10.592   1.418  -4.836  0.00  0.00     0.024 H 
ATOM     71  H   LIG d   1      10.513   0.472  -6.343  0.00  0.00     0.024 H 
ENDBRANCH   7  68
BRANCH  17  72
ATOM     72  C   LIG d   1      11.965   5.637  -6.944  0.00  0.00    -0.059 C 
ATOM     73  H   LIG d   1      12.082   5.959  -5.910  0.00  0.00     0.024 H 
ATOM     74  H   LIG d   1      12.388   4.639  -7.066  0.00  0.00     0.024 H 
ATOM     75  H   LIG d   1      12.485   6.334  -7.603  0.00  0.00     0.024 H 
ENDBRANCH  17  72
BRANCH  22  76
ATOM     76  C   LIG d   1       9.523   9.245  -6.425  0.00  0.00    -0.060 C 
ATOM     77  H   LIG d   1       8.720   8.830  -5.818  0.00  0.00     0.023 H 
ATOM     78  H   LIG d   1      10.184   9.840  -5.796  0.00  0.00     0.023 H 
ATOM     79  H   LIG d   1       9.099   9.878  -7.206  0.00  0.00     0.023 H 
ENDBRANCH  22  76
BRANCH  20  80
ATOM     80  O   LIG d   1      10.762   9.479  -9.004  0.00  0.00    -0.392 OA
ATOM     81  H   LIG d   1      10.145  10.054  -9.481  0.00  0.00     0.210 HD
ENDBRANCH  20  80
TORSDOF 13
ENDMDL
MODEL 10
REMARK VINA RESULT:      -5.1      7.644     12.472
REMARK  13 active torsions:
REMARK  status: ('A' for Active; 'I' for Inactive)
REMARK    1  A    between atoms: C_1  and  C_2 
REMARK    2  A    between atoms: C_3  and  C_4 
REMARK    3  A    between atoms: C_3  and  C_36 
REMARK    4  A    between atoms: C_4  and  C_5 
REMARK    5  A    between atoms: C_5  and  C_6 
REMARK    6  A    between atoms: C_6  and  C_8 
REMARK    7  A    between atoms: C_6  and  C_9 
REMARK    8  A    between atoms: C_15  and  C_35 
REMARK    9  A    between atoms: C_25  and  C_34 
REMARK   10  A    between atoms: C_28  and  O_33 
REMARK   11  A    between atoms: C_30  and  C_32 
REMARK   12  A    between atoms: C_36  and  C_37 
REMARK   13  A    between atoms: C_36  and  C_38 
ROOT
ATOM      1  C   LIG d   1       9.977   1.786  -5.284  0.00  0.00    -0.033 C 
ATOM      2  H   LIG d   1      10.988   1.434  -5.438  0.00  0.00     0.031 H 
ATOM      3  C   LIG d   1       9.438   2.511  -6.547  0.00  0.00    -0.049 C 
ATOM      4  C   LIG d   1       9.501   4.036  -6.236  0.00  0.00    -0.046 C 
ATOM      5  C   LIG d   1      10.480   4.079  -5.054  0.00  0.00    -0.014 C 
ATOM      6  H   LIG d   1      11.501   3.866  -5.426  0.00  0.00     0.035 H 
ATOM      7  C   LIG d   1       9.961   2.891  -4.208  0.00  0.00    -0.022 C 
ATOM      8  C   LIG d   1      10.821   2.676  -3.001  0.00  0.00    -0.046 C 
ATOM      9  C   LIG d   1      11.093   3.967  -2.223  0.00  0.00    -0.045 C 
ATOM     10  C   LIG d   1      10.321   5.168  -2.743  0.00  0.00    -0.014 C 
ATOM     11  H   LIG d   1       9.260   4.981  -2.554  0.00  0.00     0.035 H 
ATOM     12  C   LIG d   1      10.495   5.323  -4.225  0.00  0.00    -0.066 C 
ATOM     13  C   LIG d   1      10.669   6.473  -4.815  0.00  0.00    -0.084 C 
ATOM     14  C   LIG d   1      10.765   7.758  -4.033  0.00  0.00    -0.031 C 
ATOM     15  C   LIG d   1      11.445   7.428  -2.701  0.00  0.00    -0.027 C 
ATOM     16  H   LIG d   1      12.420   6.965  -2.913  0.00  0.00     0.031 H 
ATOM     17  C   LIG d   1      10.590   6.427  -1.937  0.00  0.00    -0.022 C 
ATOM     18  C   LIG d   1      11.260   6.074  -0.608  0.00  0.00    -0.044 C 
ATOM     19  C   LIG d   1      11.490   7.334   0.225  0.00  0.00    -0.026 C 
ATOM     20  C   LIG d   1      12.350   8.328  -0.551  0.00  0.00     0.058 C 
ATOM     21  H   LIG d   1      13.326   7.885  -0.754  0.00  0.00     0.060 H 
ATOM     22  C   LIG d   1      11.678   8.691  -1.878  0.00  0.00    -0.014 C 
ATOM     23  H   LIG d   1      10.741   9.207  -1.684  0.00  0.00     0.033 H 
ATOM     24  H   LIG d   1      10.065   2.280  -7.406  0.00  0.00     0.027 H 
ATOM     25  H   LIG d   1       8.407   2.213  -6.737  0.00  0.00     0.027 H 
ATOM     26  H   LIG d   1       9.923   4.572  -7.092  0.00  0.00     0.027 H 
ATOM     27  H   LIG d   1       8.530   4.439  -5.985  0.00  0.00     0.027 H 
ATOM     28  H   LIG d   1      10.338   1.950  -2.333  0.00  0.00     0.027 H 
ATOM     29  H   LIG d   1      11.780   2.240  -3.314  0.00  0.00     0.027 H 
ATOM     30  H   LIG d   1      10.834   3.800  -1.170  0.00  0.00     0.027 H 
ATOM     31  H   LIG d   1      12.167   4.186  -2.266  0.00  0.00     0.027 H 
ATOM     32  H   LIG d   1      10.747   6.500  -5.891  0.00  0.00     0.057 H 
ATOM     33  H   LIG d   1      11.380   8.460  -4.608  0.00  0.00     0.031 H 
ATOM     34  H   LIG d   1       9.782   8.190  -3.889  0.00  0.00     0.031 H 
ATOM     35  H   LIG d   1      10.617   5.389  -0.051  0.00  0.00     0.027 H 
ATOM     36  H   LIG d   1      12.219   5.590  -0.800  0.00  0.00     0.027 H 
ATOM     37  H   LIG d   1      10.546   7.792   0.505  0.00  0.00     0.029 H 
ATOM     38  H   LIG d   1      12.018   7.053   1.146  0.00  0.00     0.029 H 
ENDROOT
BRANCH   1  39
ATOM     39  C   LIG d   1       9.041   0.652  -4.874  0.00  0.00    -0.040 C 
ATOM     40  H   LIG d   1       8.921   0.653  -3.792  0.00  0.00     0.030 H 
BRANCH  39  41
ATOM     41  C   LIG d   1       7.676   0.853  -5.538  0.00  0.00    -0.046 C 
ATOM     42  H   LIG d   1       7.815   1.042  -6.604  0.00  0.00     0.027 H 
ATOM     43  H   LIG d   1       7.171   1.704  -5.081  0.00  0.00     0.027 H 
BRANCH  41  44
ATOM     44  C   LIG d   1       6.828  -0.406  -5.349  0.00  0.00    -0.031 C 
ATOM     45  H   LIG d   1       7.466  -1.287  -5.413  0.00  0.00     0.031 H 
ATOM     46  H   LIG d   1       6.066  -0.452  -6.128  0.00  0.00     0.031 H 
BRANCH  44  47
ATOM     47  C   LIG d   1       6.161  -0.364  -3.998  0.00  0.00    -0.071 C 
ATOM     48  C   LIG d   1       5.711   0.771  -3.524  0.00  0.00    -0.088 C 
ATOM     49  H   LIG d   1       5.817   1.677  -4.102  0.00  0.00     0.057 H 
BRANCH  48  50
ATOM     50  C   LIG d   1       5.045   0.813  -2.173  0.00  0.00    -0.047 C 
ATOM     51  H   LIG d   1       4.614  -0.163  -1.949  0.00  0.00     0.027 H 
ATOM     52  H   LIG d   1       5.784   1.067  -1.412  0.00  0.00     0.027 H 
ATOM     53  H   LIG d   1       4.257   1.566  -2.179  0.00  0.00     0.027 H 
ENDBRANCH  48  50
BRANCH  47  54
ATOM     54  C   LIG d   1       6.015  -1.628  -3.192  0.00  0.00    -0.026 C 
ATOM     55  H   LIG d   1       5.856  -1.374  -2.143  0.00  0.00     0.034 H 
BRANCH  54  56
ATOM     56  C   LIG d   1       4.816  -2.426  -3.708  0.00  0.00    -0.059 C 
ATOM     57  H   LIG d   1       4.767  -2.346  -4.794  0.00  0.00     0.024 H 
ATOM     58  H   LIG d   1       4.927  -3.474  -3.426  0.00  0.00     0.024 H 
ATOM     59  H   LIG d   1       3.899  -2.029  -3.273  0.00  0.00     0.024 H 
ENDBRANCH  54  56
BRANCH  54  60
ATOM     60  C   LIG d   1       7.284  -2.471  -3.326  0.00  0.00    -0.059 C 
ATOM     61  H   LIG d   1       7.033  -3.526  -3.219  0.00  0.00     0.024 H 
ATOM     62  H   LIG d   1       7.732  -2.301  -4.305  0.00  0.00     0.024 H 
ATOM     63  H   LIG d   1       7.994  -2.186  -2.548  0.00  0.00     0.024 H 
ENDBRANCH  54  60
ENDBRANCH  47  54
ENDBRANCH  44  47
ENDBRANCH  41  44
ENDBRANCH  39  41
BRANCH  39  64
ATOM     64  C   LIG d   1       9.633  -0.685  -5.323  0.00  0.00    -0.062 C 
ATOM     65  H   LIG d   1      10.716  -0.594  -5.407  0.00  0.00     0.023 H 
ATOM     66  H   LIG d   1       9.391  -1.454  -4.588  0.00  0.00     0.023 H 
ATOM     67  H   LIG d   1       9.215  -0.963  -6.289  0.00  0.00     0.023 H 
ENDBRANCH  39  64
ENDBRANCH   1  39
BRANCH   7  68
ATOM     68  C   LIG d   1       8.497   3.057  -3.806  0.00  0.00    -0.059 C 
ATOM     69  H   LIG d   1       8.018   2.079  -3.764  0.00  0.00     0.024 H 
ATOM     70  H   LIG d   1       8.440   3.532  -2.826  0.00  0.00     0.024 H 
ATOM     71  H   LIG d   1       7.987   3.680  -4.542  0.00  0.00     0.024 H 
ENDBRANCH   7  68
BRANCH  17  72
ATOM     72  C   LIG d   1       9.222   7.047  -1.629  0.00  0.00    -0.059 C 
ATOM     73  H   LIG d   1       8.781   6.547  -0.767  0.00  0.00     0.024 H 
ATOM     74  H   LIG d   1       9.345   8.109  -1.410  0.00  0.00     0.024 H 
ATOM     75  H   LIG d   1       8.567   6.930  -2.493  0.00  0.00     0.024 H 
ENDBRANCH  17  72
BRANCH  22  76
ATOM     76  C   LIG d   1      12.611   9.642  -2.640  0.00  0.00    -0.060 C 
ATOM     77  H   LIG d   1      13.234  10.187  -1.931  0.00  0.00     0.023 H 
ATOM     78  H   LIG d   1      13.246   9.067  -3.313  0.00  0.00     0.023 H 
ATOM     79  H   LIG d   1      12.016  10.350  -3.218  0.00  0.00     0.023 H 
ENDBRANCH  22  76
BRANCH  20  80
ATOM     80  O   LIG d   1      12.526   9.515   0.227  0.00  0.00    -0.392 OA
ATOM     81  H   LIG d   1      11.888   9.610   0.949  0.00  0.00     0.210 HD
ENDBRANCH  20  80
TORSDOF 13
ENDMDL
