MODEL 1
REMARK VINA RESULT:      -4.7      0.000      0.000
REMARK  5 active torsions:
REMARK  status: ('A' for Active; 'I' for Inactive)
REMARK    1  A    between atoms: C_1  and  C_2 
REMARK    2  A    between atoms: C_2  and  C_4 
REMARK    3  A    between atoms: C_6  and  O_12 
REMARK    4  A    between atoms: C_7  and  O_11 
REMARK    5  A    between atoms: C_9  and  O_10 
ROOT
ATOM      1  C   LIG d   1       5.244  -1.885  -3.741  0.00  0.00     0.062 A 
ATOM      2  C   LIG d   1       6.008  -0.751  -4.052  0.00  0.00    -0.003 A 
ATOM      3  C   LIG d   1       5.882   0.391  -3.291  0.00  0.00     0.159 A 
ATOM      4  C   LIG d   1       4.995   0.422  -2.212  0.00  0.00     0.162 A 
ATOM      5  C   LIG d   1       4.235  -0.695  -1.899  0.00  0.00     0.026 A 
ATOM      6  C   LIG d   1       4.356  -1.850  -2.651  0.00  0.00     0.131 A 
ATOM      7  H   LIG d   1       6.694  -0.772  -4.884  0.00  0.00     0.066 H 
ATOM      8  H   LIG d   1       3.551  -0.664  -1.064  0.00  0.00     0.069 H 
ENDROOT
BRANCH   1   9
ATOM      9  C   LIG d   1       5.374  -3.102  -4.545  0.00  0.00     0.164 C 
ATOM     10  O   LIG d   1       4.381  -3.671  -4.951  0.00  0.00    -0.292 OA
BRANCH   9  11
ATOM     11  C   LIG d   1       6.741  -3.648  -4.870  0.00  0.00    -0.001 C 
ATOM     12  H   LIG d   1       7.046  -3.279  -5.748  0.00  0.00     0.031 H 
ATOM     13  H   LIG d   1       7.443  -3.355  -4.089  0.00  0.00     0.031 H 
ATOM     14  H   LIG d   1       6.694  -4.734  -4.929  0.00  0.00     0.031 H 
ENDBRANCH   9  11
ENDBRANCH   1   9
BRANCH   6  15
ATOM     15  O   LIG d   1       3.617  -2.944  -2.341  0.00  0.00    -0.506 OA
ATOM     16  H   LIG d   1       2.667  -2.833  -2.491  0.00  0.00     0.292 HD
ENDBRANCH   6  15
BRANCH   3  17
ATOM     17  O   LIG d   1       6.623   1.492  -3.592  0.00  0.00    -0.503 OA
ATOM     18  H   LIG d   1       7.185   1.387  -4.371  0.00  0.00     0.292 HD
ENDBRANCH   3  17
BRANCH   4  19
ATOM     19  O   LIG d   1       4.875   1.551  -1.468  0.00  0.00    -0.503 OA
ATOM     20  H   LIG d   1       4.845   2.364  -1.990  0.00  0.00     0.292 HD
ENDBRANCH   4  19
TORSDOF 5
ENDMDL
MODEL 2
REMARK VINA RESULT:      -4.6      1.893      3.961
REMARK  5 active torsions:
REMARK  status: ('A' for Active; 'I' for Inactive)
REMARK    1  A    between atoms: C_1  and  C_2 
REMARK    2  A    between atoms: C_2  and  C_4 
REMARK    3  A    between atoms: C_6  and  O_12 
REMARK    4  A    between atoms: C_7  and  O_11 
REMARK    5  A    between atoms: C_9  and  O_10 
ROOT
ATOM      1  C   LIG d   1       5.105  -0.731  -3.521  0.00  0.00     0.062 A 
ATOM      2  C   LIG d   1       6.505  -0.815  -3.487  0.00  0.00    -0.003 A 
ATOM      3  C   LIG d   1       7.134  -1.962  -3.920  0.00  0.00     0.159 A 
ATOM      4  C   LIG d   1       6.381  -3.040  -4.392  0.00  0.00     0.162 A 
ATOM      5  C   LIG d   1       4.997  -2.965  -4.428  0.00  0.00     0.026 A 
ATOM      6  C   LIG d   1       4.353  -1.817  -4.002  0.00  0.00     0.131 A 
ATOM      7  H   LIG d   1       7.088   0.016  -3.122  0.00  0.00     0.066 H 
ATOM      8  H   LIG d   1       4.422  -3.802  -4.794  0.00  0.00     0.069 H 
ENDROOT
BRANCH   1   9
ATOM      9  C   LIG d   1       4.430   0.486  -3.063  0.00  0.00     0.164 C 
ATOM     10  O   LIG d   1       3.763   1.139  -3.839  0.00  0.00    -0.292 OA
BRANCH   9  11
ATOM     11  C   LIG d   1       4.562   0.926  -1.627  0.00  0.00    -0.001 C 
ATOM     12  H   LIG d   1       3.664   1.187  -1.276  0.00  0.00     0.031 H 
ATOM     13  H   LIG d   1       4.961   0.104  -1.031  0.00  0.00     0.031 H 
ATOM     14  H   LIG d   1       5.238   1.778  -1.569  0.00  0.00     0.031 H 
ENDBRANCH   9  11
ENDBRANCH   1   9
BRANCH   6  15
ATOM     15  O   LIG d   1       2.999  -1.742  -4.042  0.00  0.00    -0.506 OA
ATOM     16  H   LIG d   1       2.600  -1.388  -3.234  0.00  0.00     0.292 HD
ENDBRANCH   6  15
BRANCH   3  17
ATOM     17  O   LIG d   1       8.491  -2.044  -3.887  0.00  0.00    -0.503 OA
ATOM     18  H   LIG d   1       8.827  -2.919  -3.650  0.00  0.00     0.292 HD
ENDBRANCH   3  17
BRANCH   4  19
ATOM     19  O   LIG d   1       7.008  -4.167  -4.816  0.00  0.00    -0.503 OA
ATOM     20  H   LIG d   1       7.868  -4.319  -4.400  0.00  0.00     0.292 HD
ENDBRANCH   4  19
TORSDOF 5
ENDMDL
MODEL 3
REMARK VINA RESULT:      -4.4      9.729     11.717
REMARK  5 active torsions:
REMARK  status: ('A' for Active; 'I' for Inactive)
REMARK    1  A    between atoms: C_1  and  C_2 
REMARK    2  A    between atoms: C_2  and  C_4 
REMARK    3  A    between atoms: C_6  and  O_12 
REMARK    4  A    between atoms: C_7  and  O_11 
REMARK    5  A    between atoms: C_9  and  O_10 
ROOT
ATOM      1  C   LIG d   1      10.313   7.860  -0.201  0.00  0.00     0.062 A 
ATOM      2  C   LIG d   1       9.245   8.430  -0.909  0.00  0.00    -0.003 A 
ATOM      3  C   LIG d   1       9.054   9.794  -0.882  0.00  0.00     0.159 A 
ATOM      4  C   LIG d   1       9.921  10.610  -0.151  0.00  0.00     0.162 A 
ATOM      5  C   LIG d   1      10.978  10.054   0.552  0.00  0.00     0.026 A 
ATOM      6  C   LIG d   1      11.186   8.687   0.529  0.00  0.00     0.131 A 
ATOM      7  H   LIG d   1       8.574   7.801  -1.474  0.00  0.00     0.066 H 
ATOM      8  H   LIG d   1      11.645  10.691   1.115  0.00  0.00     0.069 H 
ENDROOT
BRANCH   1   9
ATOM      9  C   LIG d   1      10.523   6.410  -0.226  0.00  0.00     0.164 C 
ATOM     10  O   LIG d   1      10.624   5.793   0.814  0.00  0.00    -0.292 OA
BRANCH   9  11
ATOM     11  C   LIG d   1      10.610   5.685  -1.544  0.00  0.00    -0.001 C 
ATOM     12  H   LIG d   1      10.281   4.748  -1.431  0.00  0.00     0.031 H 
ATOM     13  H   LIG d   1       9.995   6.199  -2.283  0.00  0.00     0.031 H 
ATOM     14  H   LIG d   1      11.646   5.668  -1.882  0.00  0.00     0.031 H 
ENDBRANCH   9  11
ENDBRANCH   1   9
BRANCH   6  15
ATOM     15  O   LIG d   1      12.224   8.144   1.213  0.00  0.00    -0.506 OA
ATOM     16  H   LIG d   1      12.218   8.342   2.160  0.00  0.00     0.292 HD
ENDBRANCH   6  15
BRANCH   3  17
ATOM     17  O   LIG d   1       8.018  10.347  -1.569  0.00  0.00    -0.503 OA
ATOM     18  H   LIG d   1       8.122  10.317  -2.529  0.00  0.00     0.292 HD
ENDBRANCH   3  17
BRANCH   4  19
ATOM     19  O   LIG d   1       9.726  11.953  -0.129  0.00  0.00    -0.503 OA
ATOM     20  H   LIG d   1      10.364  12.434   0.417  0.00  0.00     0.292 HD
ENDBRANCH   4  19
TORSDOF 5
ENDMDL
MODEL 4
REMARK VINA RESULT:      -4.3      1.649      2.815
REMARK  5 active torsions:
REMARK  status: ('A' for Active; 'I' for Inactive)
REMARK    1  A    between atoms: C_1  and  C_2 
REMARK    2  A    between atoms: C_2  and  C_4 
REMARK    3  A    between atoms: C_6  and  O_12 
REMARK    4  A    between atoms: C_7  and  O_11 
REMARK    5  A    between atoms: C_9  and  O_10 
ROOT
ATOM      1  C   LIG d   1       5.885  -1.540  -3.497  0.00  0.00     0.062 A 
ATOM      2  C   LIG d   1       4.518  -1.783  -3.299  0.00  0.00    -0.003 A 
ATOM      3  C   LIG d   1       3.703  -0.776  -2.827  0.00  0.00     0.159 A 
ATOM      4  C   LIG d   1       4.236   0.484  -2.544  0.00  0.00     0.162 A 
ATOM      5  C   LIG d   1       5.587   0.731  -2.735  0.00  0.00     0.026 A 
ATOM      6  C   LIG d   1       6.415  -0.269  -3.215  0.00  0.00     0.131 A 
ATOM      7  H   LIG d   1       4.103  -2.755  -3.518  0.00  0.00     0.066 H 
ATOM      8  H   LIG d   1       5.993   1.707  -2.514  0.00  0.00     0.069 H 
ENDROOT
BRANCH   1   9
ATOM      9  C   LIG d   1       6.756  -2.605  -4.000  0.00  0.00     0.164 C 
ATOM     10  O   LIG d   1       7.859  -2.765  -3.519  0.00  0.00    -0.292 OA
BRANCH   9  11
ATOM     11  C   LIG d   1       6.281  -3.503  -5.113  0.00  0.00    -0.001 C 
ATOM     12  H   LIG d   1       5.790  -4.283  -4.725  0.00  0.00     0.031 H 
ATOM     13  H   LIG d   1       5.614  -2.945  -5.770  0.00  0.00     0.031 H 
ATOM     14  H   LIG d   1       7.138  -3.860  -5.682  0.00  0.00     0.031 H 
ENDBRANCH   9  11
ENDBRANCH   1   9
BRANCH   6  15
ATOM     15  O   LIG d   1       7.735  -0.025  -3.407  0.00  0.00    -0.506 OA
ATOM     16  H   LIG d   1       8.311  -0.767  -3.174  0.00  0.00     0.292 HD
ENDBRANCH   6  15
BRANCH   3  17
ATOM     17  O   LIG d   1       2.377  -1.011  -2.635  0.00  0.00    -0.503 OA
ATOM     18  H   LIG d   1       2.051  -0.738  -1.767  0.00  0.00     0.292 HD
ENDBRANCH   3  17
BRANCH   4  19
ATOM     19  O   LIG d   1       3.428   1.470  -2.077  0.00  0.00    -0.503 OA
ATOM     20  H   LIG d   1       3.532   1.649  -1.133  0.00  0.00     0.292 HD
ENDBRANCH   4  19
TORSDOF 5
ENDMDL
MODEL 5
REMARK VINA RESULT:      -4.3      2.040      3.340
REMARK  5 active torsions:
REMARK  status: ('A' for Active; 'I' for Inactive)
REMARK    1  A    between atoms: C_1  and  C_2 
REMARK    2  A    between atoms: C_2  and  C_4 
REMARK    3  A    between atoms: C_6  and  O_12 
REMARK    4  A    between atoms: C_7  and  O_11 
REMARK    5  A    between atoms: C_9  and  O_10 
ROOT
ATOM      1  C   LIG d   1       4.572  -0.819  -3.880  0.00  0.00     0.062 A 
ATOM      2  C   LIG d   1       5.588   0.123  -3.663  0.00  0.00    -0.003 A 
ATOM      3  C   LIG d   1       6.908  -0.267  -3.714  0.00  0.00     0.159 A 
ATOM      4  C   LIG d   1       7.237  -1.599  -3.981  0.00  0.00     0.162 A 
ATOM      5  C   LIG d   1       6.238  -2.536  -4.196  0.00  0.00     0.026 A 
ATOM      6  C   LIG d   1       4.909  -2.156  -4.154  0.00  0.00     0.131 A 
ATOM      7  H   LIG d   1       5.337   1.152  -3.456  0.00  0.00     0.066 H 
ATOM      8  H   LIG d   1       6.499  -3.564  -4.402  0.00  0.00     0.069 H 
ENDROOT
BRANCH   1   9
ATOM      9  C   LIG d   1       3.166  -0.410  -3.828  0.00  0.00     0.164 C 
ATOM     10  O   LIG d   1       2.450  -0.811  -2.934  0.00  0.00    -0.292 OA
BRANCH   9  11
ATOM     11  C   LIG d   1       2.610   0.510  -4.884  0.00  0.00    -0.001 C 
ATOM     12  H   LIG d   1       2.050  -0.017  -5.523  0.00  0.00     0.031 H 
ATOM     13  H   LIG d   1       1.997   1.278  -4.411  0.00  0.00     0.031 H 
ATOM     14  H   LIG d   1       3.430   0.981  -5.424  0.00  0.00     0.031 H 
ENDBRANCH   9  11
ENDBRANCH   1   9
BRANCH   6  15
ATOM     15  O   LIG d   1       3.932  -3.073  -4.369  0.00  0.00    -0.506 OA
ATOM     16  H   LIG d   1       3.978  -3.842  -3.783  0.00  0.00     0.292 HD
ENDBRANCH   6  15
BRANCH   3  17
ATOM     17  O   LIG d   1       7.894   0.646  -3.503  0.00  0.00    -0.503 OA
ATOM     18  H   LIG d   1       7.578   1.557  -3.431  0.00  0.00     0.292 HD
ENDBRANCH   3  17
BRANCH   4  19
ATOM     19  O   LIG d   1       8.540  -1.976  -4.029  0.00  0.00    -0.503 OA
ATOM     20  H   LIG d   1       9.162  -1.237  -4.080  0.00  0.00     0.292 HD
ENDBRANCH   4  19
TORSDOF 5
ENDMDL
MODEL 6
REMARK VINA RESULT:      -4.0      8.185     10.261
REMARK  5 active torsions:
REMARK  status: ('A' for Active; 'I' for Inactive)
REMARK    1  A    between atoms: C_1  and  C_2 
REMARK    2  A    between atoms: C_2  and  C_4 
REMARK    3  A    between atoms: C_6  and  O_12 
REMARK    4  A    between atoms: C_7  and  O_11 
REMARK    5  A    between atoms: C_9  and  O_10 
ROOT
ATOM      1  C   LIG d   1       9.944   7.353  -1.872  0.00  0.00     0.062 A 
ATOM      2  C   LIG d   1      10.572   6.722  -0.788  0.00  0.00    -0.003 A 
ATOM      3  C   LIG d   1      10.877   5.381  -0.858  0.00  0.00     0.159 A 
ATOM      4  C   LIG d   1      10.563   4.648  -2.005  0.00  0.00     0.162 A 
ATOM      5  C   LIG d   1       9.941   5.264  -3.080  0.00  0.00     0.026 A 
ATOM      6  C   LIG d   1       9.635   6.612  -3.026  0.00  0.00     0.131 A 
ATOM      7  H   LIG d   1      10.815   7.286   0.099  0.00  0.00     0.066 H 
ATOM      8  H   LIG d   1       9.701   4.691  -3.964  0.00  0.00     0.069 H 
ENDROOT
BRANCH   1   9
ATOM      9  C   LIG d   1       9.618   8.780  -1.805  0.00  0.00     0.164 C 
ATOM     10  O   LIG d   1      10.078   9.547  -2.625  0.00  0.00    -0.292 OA
BRANCH   9  11
ATOM     11  C   LIG d   1       8.709   9.294  -0.718  0.00  0.00    -0.001 C 
ATOM     12  H   LIG d   1       9.232   9.874  -0.094  0.00  0.00     0.031 H 
ATOM     13  H   LIG d   1       7.902   9.875  -1.165  0.00  0.00     0.031 H 
ATOM     14  H   LIG d   1       8.289   8.453  -0.167  0.00  0.00     0.031 H 
ENDBRANCH   9  11
ENDBRANCH   1   9
BRANCH   6  15
ATOM     15  O   LIG d   1       9.032   7.215  -4.080  0.00  0.00    -0.506 OA
ATOM     16  H   LIG d   1       9.046   8.183  -4.041  0.00  0.00     0.292 HD
ENDBRANCH   6  15
BRANCH   3  17
ATOM     17  O   LIG d   1      11.486   4.768   0.193  0.00  0.00    -0.503 OA
ATOM     18  H   LIG d   1      12.447   4.712   0.113  0.00  0.00     0.292 HD
ENDBRANCH   3  17
BRANCH   4  19
ATOM     19  O   LIG d   1      10.866   3.326  -2.066  0.00  0.00    -0.503 OA
ATOM     20  H   LIG d   1      11.059   2.927  -1.206  0.00  0.00     0.292 HD
ENDBRANCH   4  19
TORSDOF 5
ENDMDL
MODEL 7
REMARK VINA RESULT:      -3.9     12.153     13.194
REMARK  5 active torsions:
REMARK  status: ('A' for Active; 'I' for Inactive)
REMARK    1  A    between atoms: C_1  and  C_2 
REMARK    2  A    between atoms: C_2  and  C_4 
REMARK    3  A    between atoms: C_6  and  O_12 
REMARK    4  A    between atoms: C_7  and  O_11 
REMARK    5  A    between atoms: C_9  and  O_10 
ROOT
ATOM      1  C   LIG d   1      12.619 -10.252   3.947  0.00  0.00     0.062 A 
ATOM      2  C   LIG d   1      13.300  -9.061   3.658  0.00  0.00    -0.003 A 
ATOM      3  C   LIG d   1      12.756  -8.156   2.773  0.00  0.00     0.159 A 
ATOM      4  C   LIG d   1      11.527  -8.422   2.164  0.00  0.00     0.162 A 
ATOM      5  C   LIG d   1      10.848  -9.597   2.444  0.00  0.00     0.026 A 
ATOM      6  C   LIG d   1      11.380 -10.512   3.335  0.00  0.00     0.131 A 
ATOM      7  H   LIG d   1      14.250  -8.853   4.127  0.00  0.00     0.066 H 
ATOM      8  H   LIG d   1       9.898  -9.797   1.969  0.00  0.00     0.069 H 
ENDROOT
BRANCH   1   9
ATOM      9  C   LIG d   1      13.191 -11.218   4.888  0.00  0.00     0.164 C 
ATOM     10  O   LIG d   1      12.590 -11.509   5.901  0.00  0.00    -0.292 OA
BRANCH   9  11
ATOM     11  C   LIG d   1      14.527 -11.851   4.596  0.00  0.00    -0.001 C 
ATOM     12  H   LIG d   1      14.392 -12.676   4.048  0.00  0.00     0.031 H 
ATOM     13  H   LIG d   1      15.150 -11.147   4.044  0.00  0.00     0.031 H 
ATOM     14  H   LIG d   1      15.017 -12.114   5.533  0.00  0.00     0.031 H 
ENDBRANCH   9  11
ENDBRANCH   1   9
BRANCH   6  15
ATOM     15  O   LIG d   1      10.712 -11.659   3.613  0.00  0.00    -0.506 OA
ATOM     16  H   LIG d   1      10.764 -11.930   4.541  0.00  0.00     0.292 HD
ENDBRANCH   6  15
BRANCH   3  17
ATOM     17  O   LIG d   1      13.417  -7.001   2.492  0.00  0.00    -0.503 OA
ATOM     18  H   LIG d   1      14.264  -6.911   2.949  0.00  0.00     0.292 HD
ENDBRANCH   3  17
BRANCH   4  19
ATOM     19  O   LIG d   1      10.997  -7.526   1.292  0.00  0.00    -0.503 OA
ATOM     20  H   LIG d   1      11.364  -7.583   0.399  0.00  0.00     0.292 HD
ENDBRANCH   4  19
TORSDOF 5
ENDMDL
MODEL 8
REMARK VINA RESULT:      -3.9     11.520     12.681
REMARK  5 active torsions:
REMARK  status: ('A' for Active; 'I' for Inactive)
REMARK    1  A    between atoms: C_1  and  C_2 
REMARK    2  A    between atoms: C_2  and  C_4 
REMARK    3  A    between atoms: C_6  and  O_12 
REMARK    4  A    between atoms: C_7  and  O_11 
REMARK    5  A    between atoms: C_9  and  O_10 
ROOT
ATOM      1  C   LIG d   1      11.488 -10.731   3.285  0.00  0.00     0.062 A 
ATOM      2  C   LIG d   1      11.946  -9.449   3.623  0.00  0.00    -0.003 A 
ATOM      3  C   LIG d   1      11.766  -8.402   2.745  0.00  0.00     0.159 A 
ATOM      4  C   LIG d   1      11.128  -8.615   1.520  0.00  0.00     0.162 A 
ATOM      5  C   LIG d   1      10.674  -9.879   1.179  0.00  0.00     0.026 A 
ATOM      6  C   LIG d   1      10.843 -10.938   2.053  0.00  0.00     0.131 A 
ATOM      7  H   LIG d   1      12.438  -9.282   4.569  0.00  0.00     0.066 H 
ATOM      8  H   LIG d   1      10.182 -10.037   0.230  0.00  0.00     0.069 H 
ENDROOT
BRANCH   1   9
ATOM      9  C   LIG d   1      11.675 -11.847   4.215  0.00  0.00     0.164 C 
ATOM     10  O   LIG d   1      10.715 -12.474   4.613  0.00  0.00    -0.292 OA
BRANCH   9  11
ATOM     11  C   LIG d   1      13.062 -12.220   4.674  0.00  0.00    -0.001 C 
ATOM     12  H   LIG d   1      13.434 -12.924   4.069  0.00  0.00     0.031 H 
ATOM     13  H   LIG d   1      13.703 -11.339   4.645  0.00  0.00     0.031 H 
ATOM     14  H   LIG d   1      13.016 -12.604   5.693  0.00  0.00     0.031 H 
ENDBRANCH   9  11
ENDBRANCH   1   9
BRANCH   6  15
ATOM     15  O   LIG d   1      10.393 -12.174   1.721  0.00  0.00    -0.506 OA
ATOM     16  H   LIG d   1      10.263 -12.303   0.770  0.00  0.00     0.292 HD
ENDBRANCH   6  15
BRANCH   3  17
ATOM     17  O   LIG d   1      12.209  -7.159   3.073  0.00  0.00    -0.503 OA
ATOM     18  H   LIG d   1      13.046  -7.154   3.556  0.00  0.00     0.292 HD
ENDBRANCH   3  17
BRANCH   4  19
ATOM     19  O   LIG d   1      10.955  -7.579   0.660  0.00  0.00    -0.503 OA
ATOM     20  H   LIG d   1      11.754  -7.337   0.172  0.00  0.00     0.292 HD
ENDBRANCH   4  19
TORSDOF 5
ENDMDL
MODEL 9
REMARK VINA RESULT:      -3.9      3.022      4.171
REMARK  5 active torsions:
REMARK  status: ('A' for Active; 'I' for Inactive)
REMARK    1  A    between atoms: C_1  and  C_2 
REMARK    2  A    between atoms: C_2  and  C_4 
REMARK    3  A    between atoms: C_6  and  O_12 
REMARK    4  A    between atoms: C_7  and  O_11 
REMARK    5  A    between atoms: C_9  and  O_10 
ROOT
ATOM      1  C   LIG d   1       4.013  -0.471  -4.375  0.00  0.00     0.062 A 
ATOM      2  C   LIG d   1       5.311  -0.565  -4.898  0.00  0.00    -0.003 A 
ATOM      3  C   LIG d   1       5.522  -0.375  -6.247  0.00  0.00     0.159 A 
ATOM      4  C   LIG d   1       4.447  -0.090  -7.093  0.00  0.00     0.162 A 
ATOM      5  C   LIG d   1       3.161   0.003  -6.583  0.00  0.00     0.026 A 
ATOM      6  C   LIG d   1       2.936  -0.179  -5.230  0.00  0.00     0.131 A 
ATOM      7  H   LIG d   1       6.142  -0.784  -4.247  0.00  0.00     0.066 H 
ATOM      8  H   LIG d   1       2.335   0.223  -7.243  0.00  0.00     0.069 H 
ENDROOT
BRANCH   1   9
ATOM      9  C   LIG d   1       3.782  -0.671  -2.942  0.00  0.00     0.164 C 
ATOM     10  O   LIG d   1       3.183  -1.653  -2.555  0.00  0.00    -0.292 OA
BRANCH   9  11
ATOM     11  C   LIG d   1       4.289   0.343  -1.949  0.00  0.00    -0.001 C 
ATOM     12  H   LIG d   1       4.409  -0.096  -1.058  0.00  0.00     0.031 H 
ATOM     13  H   LIG d   1       5.246   0.738  -2.291  0.00  0.00     0.031 H 
ATOM     14  H   LIG d   1       3.570   1.156  -1.860  0.00  0.00     0.031 H 
ENDBRANCH   9  11
ENDBRANCH   1   9
BRANCH   6  15
ATOM     15  O   LIG d   1       1.678  -0.083  -4.731  0.00  0.00    -0.506 OA
ATOM     16  H   LIG d   1       0.995  -0.446  -5.312  0.00  0.00     0.292 HD
ENDBRANCH   6  15
BRANCH   3  17
ATOM     17  O   LIG d   1       6.780  -0.465  -6.755  0.00  0.00    -0.503 OA
ATOM     18  H   LIG d   1       6.980  -1.319  -7.162  0.00  0.00     0.292 HD
ENDBRANCH   3  17
BRANCH   4  19
ATOM     19  O   LIG d   1       4.663   0.095  -8.420  0.00  0.00    -0.503 OA
ATOM     20  H   LIG d   1       4.944   0.991  -8.651  0.00  0.00     0.292 HD
ENDBRANCH   4  19
TORSDOF 5
ENDMDL
MODEL 10
REMARK VINA RESULT:      -3.9     11.072     12.201
REMARK  5 active torsions:
REMARK  status: ('A' for Active; 'I' for Inactive)
REMARK    1  A    between atoms: C_1  and  C_2 
REMARK    2  A    between atoms: C_2  and  C_4 
REMARK    3  A    between atoms: C_6  and  O_12 
REMARK    4  A    between atoms: C_7  and  O_11 
REMARK    5  A    between atoms: C_9  and  O_10 
ROOT
ATOM      1  C   LIG d   1      10.617 -11.142   1.573  0.00  0.00     0.062 A 
ATOM      2  C   LIG d   1      10.613  -9.832   1.074  0.00  0.00    -0.003 A 
ATOM      3  C   LIG d   1      11.000  -8.787   1.885  0.00  0.00     0.159 A 
ATOM      4  C   LIG d   1      11.395  -9.030   3.203  0.00  0.00     0.162 A 
ATOM      5  C   LIG d   1      11.400 -10.323   3.704  0.00  0.00     0.026 A 
ATOM      6  C   LIG d   1      11.020 -11.381   2.899  0.00  0.00     0.131 A 
ATOM      7  H   LIG d   1      10.309  -9.642   0.056  0.00  0.00     0.066 H 
ATOM      8  H   LIG d   1      11.706 -10.503   4.724  0.00  0.00     0.069 H 
ENDROOT
BRANCH   1   9
ATOM      9  C   LIG d   1      10.209 -12.258   0.716  0.00  0.00     0.164 C 
ATOM     10  O   LIG d   1      10.753 -13.337   0.824  0.00  0.00    -0.292 OA
BRANCH   9  11
ATOM     11  C   LIG d   1       9.111 -12.065  -0.298  0.00  0.00    -0.001 C 
ATOM     12  H   LIG d   1       8.893 -12.943  -0.723  0.00  0.00     0.031 H 
ATOM     13  H   LIG d   1       8.223 -11.672   0.198  0.00  0.00     0.031 H 
ATOM     14  H   LIG d   1       9.441 -11.363  -1.062  0.00  0.00     0.031 H 
ENDBRANCH   9  11
ENDBRANCH   1   9
BRANCH   6  15
ATOM     15  O   LIG d   1      11.031 -12.646   3.389  0.00  0.00    -0.506 OA
ATOM     16  H   LIG d   1      10.267 -13.178   3.122  0.00  0.00     0.292 HD
ENDBRANCH   6  15
BRANCH   3  17
ATOM     17  O   LIG d   1      10.997  -7.516   1.401  0.00  0.00    -0.503 OA
ATOM     18  H   LIG d   1      11.628  -7.366   0.684  0.00  0.00     0.292 HD
ENDBRANCH   3  17
BRANCH   4  19
ATOM     19  O   LIG d   1      11.773  -7.996   3.996  0.00  0.00    -0.503 OA
ATOM     20  H   LIG d   1      12.310  -8.260   4.756  0.00  0.00     0.292 HD
ENDBRANCH   4  19
TORSDOF 5
ENDMDL
