MODEL 1
REMARK VINA RESULT:      -6.7      0.000      0.000
REMARK  7 active torsions:
REMARK  status: ('A' for Active; 'I' for Inactive)
REMARK    1  A    between atoms: C_3  and  C_8 
REMARK    2  A    between atoms: C_4  and  O_7 
REMARK    3  A    between atoms: N_9  and  C_10 
REMARK    4  A    between atoms: C_10  and  C_11 
REMARK    5  A    between atoms: C_11  and  N_12 
REMARK    6  A    between atoms: C_13  and  C_14 
REMARK    7  A    between atoms: C_15  and  O_20 
ROOT
ATOM      1  C   LIG d   1       4.389  -4.225  -6.378  0.00  0.00     0.162 C 
ATOM      2  H   LIG d   1       3.840  -5.095  -6.017  0.00  0.00     0.104 H 
ATOM      3  H   LIG d   1       5.457  -4.449  -6.390  0.00  0.00     0.104 H 
ENDROOT
BRANCH   1   4
ATOM      4  C   LIG d   1       3.925  -3.881  -7.795  0.00  0.00     0.098 C 
ATOM      5  H   LIG d   1       2.910  -4.248  -7.943  0.00  0.00     0.057 H 
ATOM      6  H   LIG d   1       4.591  -4.352  -8.519  0.00  0.00     0.057 H 
BRANCH   4   7
ATOM      7  N   LIG d   1       3.951  -2.428  -7.979  0.00  0.00    -0.285 NA
ATOM      8  C   LIG d   1       3.323  -1.891  -8.976  0.00  0.00     0.033 C 
ATOM      9  H   LIG d   1       2.779  -2.514  -9.670  0.00  0.00     0.083 H 
BRANCH   8  10
ATOM     10  C   LIG d   1       3.350  -0.429  -9.162  0.00  0.00     0.034 A 
ATOM     11  C   LIG d   1       3.834   0.119 -10.350  0.00  0.00    -0.050 A 
ATOM     12  C   LIG d   1       3.855   1.488 -10.518  0.00  0.00    -0.061 A 
ATOM     13  H   LIG d   1       4.191  -0.528 -11.139  0.00  0.00     0.062 H 
ATOM     14  C   LIG d   1       3.398   2.322  -9.512  0.00  0.00    -0.058 A 
ATOM     15  H   LIG d   1       4.234   1.911 -11.436  0.00  0.00     0.062 H 
ATOM     16  C   LIG d   1       2.915   1.792  -8.330  0.00  0.00    -0.019 A 
ATOM     17  H   LIG d   1       3.419   3.392  -9.651  0.00  0.00     0.062 H 
ATOM     18  C   LIG d   1       2.887   0.418  -8.145  0.00  0.00     0.125 A 
ATOM     19  H   LIG d   1       2.560   2.449  -7.549  0.00  0.00     0.065 H 
BRANCH  18  20
ATOM     20  O   LIG d   1       2.414  -0.102  -6.984  0.00  0.00    -0.506 OA
ATOM     21  H   LIG d   1       1.978   0.545  -6.412  0.00  0.00     0.292 HD
ENDBRANCH  18  20
ENDBRANCH   8  10
ENDBRANCH   4   7
ENDBRANCH   1   4
BRANCH   1  22
ATOM     22  N   LIG d   1       4.138  -3.086  -5.491  0.00  0.00    -0.245 N 
ATOM     23  C   LIG d   1       4.956  -2.828  -4.522  0.00  0.00     0.175 C 
ATOM     24  H   LIG d   1       5.779  -3.498  -4.317  0.00  0.00     0.138 H 
ATOM     25  H   LIG d   1       3.359  -2.526  -5.630  0.00  0.00     0.445 HD
BRANCH  23  26
ATOM     26  C   LIG d   1       4.765  -1.621  -3.699  0.00  0.00     0.079 A 
ATOM     27  C   LIG d   1       4.557  -1.736  -2.322  0.00  0.00    -0.045 A 
ATOM     28  C   LIG d   1       4.386  -0.603  -1.556  0.00  0.00    -0.061 A 
ATOM     29  H   LIG d   1       4.535  -2.711  -1.858  0.00  0.00     0.063 H 
ATOM     30  C   LIG d   1       4.407   0.650  -2.148  0.00  0.00    -0.058 A 
ATOM     31  H   LIG d   1       4.230  -0.691  -0.492  0.00  0.00     0.062 H 
ATOM     32  C   LIG d   1       4.606   0.776  -3.509  0.00  0.00    -0.019 A 
ATOM     33  H   LIG d   1       4.268   1.532  -1.541  0.00  0.00     0.062 H 
ATOM     34  C   LIG d   1       4.786  -0.352  -4.292  0.00  0.00     0.130 A 
ATOM     35  H   LIG d   1       4.621   1.757  -3.962  0.00  0.00     0.065 H 
BRANCH  34  36
ATOM     36  O   LIG d   1       4.983  -0.229  -5.630  0.00  0.00    -0.506 OA
ATOM     37  H   LIG d   1       4.800  -1.036  -6.130  0.00  0.00     0.292 HD
ENDBRANCH  34  36
ENDBRANCH  23  26
ENDBRANCH   1  22
TORSDOF 7
ENDMDL
MODEL 2
REMARK VINA RESULT:      -6.3      0.157      5.749
REMARK  7 active torsions:
REMARK  status: ('A' for Active; 'I' for Inactive)
REMARK    1  A    between atoms: C_3  and  C_8 
REMARK    2  A    between atoms: C_4  and  O_7 
REMARK    3  A    between atoms: N_9  and  C_10 
REMARK    4  A    between atoms: C_10  and  C_11 
REMARK    5  A    between atoms: C_11  and  N_12 
REMARK    6  A    between atoms: C_13  and  C_14 
REMARK    7  A    between atoms: C_15  and  O_20 
ROOT
ATOM      1  C   LIG d   1       4.119  -3.860  -7.705  0.00  0.00     0.162 C 
ATOM      2  H   LIG d   1       4.873  -4.324  -8.340  0.00  0.00     0.104 H 
ATOM      3  H   LIG d   1       3.135  -4.254  -7.961  0.00  0.00     0.104 H 
ENDROOT
BRANCH   1   4
ATOM      4  C   LIG d   1       4.426  -4.171  -6.239  0.00  0.00     0.098 C 
ATOM      5  H   LIG d   1       5.458  -4.508  -6.148  0.00  0.00     0.057 H 
ATOM      6  H   LIG d   1       3.756  -4.956  -5.886  0.00  0.00     0.057 H 
BRANCH   4   7
ATOM      7  N   LIG d   1       4.232  -2.964  -5.431  0.00  0.00    -0.285 NA
ATOM      8  C   LIG d   1       5.010  -2.728  -4.424  0.00  0.00     0.033 C 
ATOM      9  H   LIG d   1       5.802  -3.420  -4.179  0.00  0.00     0.083 H 
BRANCH   8  10
ATOM     10  C   LIG d   1       4.816  -1.513  -3.612  0.00  0.00     0.034 A 
ATOM     11  C   LIG d   1       4.603  -1.615  -2.236  0.00  0.00    -0.050 A 
ATOM     12  C   LIG d   1       4.423  -0.475  -1.481  0.00  0.00    -0.061 A 
ATOM     13  H   LIG d   1       4.581  -2.586  -1.762  0.00  0.00     0.062 H 
ATOM     14  C   LIG d   1       4.451   0.772  -2.083  0.00  0.00    -0.058 A 
ATOM     15  H   LIG d   1       4.254  -0.555  -0.418  0.00  0.00     0.062 H 
ATOM     16  C   LIG d   1       4.661   0.887  -3.444  0.00  0.00    -0.019 A 
ATOM     17  H   LIG d   1       4.308   1.660  -1.485  0.00  0.00     0.062 H 
ATOM     18  C   LIG d   1       4.844  -0.249  -4.217  0.00  0.00     0.125 A 
ATOM     19  H   LIG d   1       4.682   1.863  -3.906  0.00  0.00     0.065 H 
BRANCH  18  20
ATOM     20  O   LIG d   1       5.050  -0.137  -5.554  0.00  0.00    -0.506 OA
ATOM     21  H   LIG d   1       4.658   0.655  -5.947  0.00  0.00     0.292 HD
ENDBRANCH  18  20
ENDBRANCH   8  10
ENDBRANCH   4   7
ENDBRANCH   1   4
BRANCH   1  22
ATOM     22  N   LIG d   1       4.133  -2.409  -7.911  0.00  0.00    -0.245 N 
ATOM     23  C   LIG d   1       3.564  -1.898  -8.954  0.00  0.00     0.175 C 
ATOM     24  H   LIG d   1       3.148  -2.544  -9.714  0.00  0.00     0.138 H 
ATOM     25  H   LIG d   1       4.569  -1.832  -7.265  0.00  0.00     0.445 HD
BRANCH  23  26
ATOM     26  C   LIG d   1       3.482  -0.435  -9.106  0.00  0.00     0.079 A 
ATOM     27  C   LIG d   1       3.951   0.178 -10.271  0.00  0.00    -0.045 A 
ATOM     28  C   LIG d   1       3.866   1.547 -10.410  0.00  0.00    -0.061 A 
ATOM     29  H   LIG d   1       4.376  -0.421 -11.063  0.00  0.00     0.063 H 
ATOM     30  C   LIG d   1       3.327   2.319  -9.394  0.00  0.00    -0.058 A 
ATOM     31  H   LIG d   1       4.224   2.019 -11.311  0.00  0.00     0.062 H 
ATOM     32  C   LIG d   1       2.865   1.726  -8.235  0.00  0.00    -0.019 A 
ATOM     33  H   LIG d   1       3.267   3.391  -9.510  0.00  0.00     0.062 H 
ATOM     34  C   LIG d   1       2.937   0.352  -8.082  0.00  0.00     0.130 A 
ATOM     35  H   LIG d   1       2.446   2.337  -7.448  0.00  0.00     0.065 H 
BRANCH  34  36
ATOM     36  O   LIG d   1       2.482  -0.233  -6.943  0.00  0.00    -0.506 OA
ATOM     37  H   LIG d   1       1.888  -0.980  -7.095  0.00  0.00     0.292 HD
ENDBRANCH  34  36
ENDBRANCH  23  26
ENDBRANCH   1  22
TORSDOF 7
ENDMDL
MODEL 3
REMARK VINA RESULT:      -6.2      2.479      3.343
REMARK  7 active torsions:
REMARK  status: ('A' for Active; 'I' for Inactive)
REMARK    1  A    between atoms: C_3  and  C_8 
REMARK    2  A    between atoms: C_4  and  O_7 
REMARK    3  A    between atoms: N_9  and  C_10 
REMARK    4  A    between atoms: C_10  and  C_11 
REMARK    5  A    between atoms: C_11  and  N_12 
REMARK    6  A    between atoms: C_13  and  C_14 
REMARK    7  A    between atoms: C_15  and  O_20 
ROOT
ATOM      1  C   LIG d   1       8.083   1.434  -6.024  0.00  0.00     0.162 C 
ATOM      2  H   LIG d   1       8.939   0.762  -5.975  0.00  0.00     0.104 H 
ATOM      3  H   LIG d   1       8.327   2.372  -5.523  0.00  0.00     0.104 H 
ENDROOT
BRANCH   1   4
ATOM      4  C   LIG d   1       7.739   1.715  -7.489  0.00  0.00     0.098 C 
ATOM      5  H   LIG d   1       8.534   1.332  -8.128  0.00  0.00     0.057 H 
ATOM      6  H   LIG d   1       7.639   2.791  -7.638  0.00  0.00     0.057 H 
BRANCH   4   7
ATOM      7  N   LIG d   1       6.476   1.055  -7.830  0.00  0.00    -0.285 NA
ATOM      8  C   LIG d   1       5.702   1.567  -8.732  0.00  0.00     0.033 C 
ATOM      9  H   LIG d   1       5.986   2.480  -9.233  0.00  0.00     0.083 H 
BRANCH   8  10
ATOM     10  C   LIG d   1       4.432   0.903  -9.076  0.00  0.00     0.034 A 
ATOM     11  C   LIG d   1       4.052   0.761 -10.411  0.00  0.00    -0.050 A 
ATOM     12  C   LIG d   1       2.863   0.138 -10.726  0.00  0.00    -0.061 A 
ATOM     13  H   LIG d   1       4.690   1.138 -11.198  0.00  0.00     0.062 H 
ATOM     14  C   LIG d   1       2.042  -0.348  -9.723  0.00  0.00    -0.058 A 
ATOM     15  H   LIG d   1       2.568   0.033 -11.760  0.00  0.00     0.062 H 
ATOM     16  C   LIG d   1       2.406  -0.214  -8.396  0.00  0.00    -0.019 A 
ATOM     17  H   LIG d   1       1.112  -0.833  -9.978  0.00  0.00     0.062 H 
ATOM     18  C   LIG d   1       3.598   0.409  -8.062  0.00  0.00     0.125 A 
ATOM     19  H   LIG d   1       1.760  -0.596  -7.618  0.00  0.00     0.065 H 
BRANCH  18  20
ATOM     20  O   LIG d   1       3.956   0.541  -6.759  0.00  0.00    -0.506 OA
ATOM     21  H   LIG d   1       3.589   1.325  -6.328  0.00  0.00     0.292 HD
ENDBRANCH  18  20
ENDBRANCH   8  10
ENDBRANCH   4   7
ENDBRANCH   1   4
BRANCH   1  22
ATOM     22  N   LIG d   1       6.934   0.811  -5.362  0.00  0.00    -0.245 N 
ATOM     23  C   LIG d   1       7.121  -0.084  -4.448  0.00  0.00     0.175 C 
ATOM     24  H   LIG d   1       8.120  -0.431  -4.228  0.00  0.00     0.138 H 
ATOM     25  H   LIG d   1       6.032   1.070  -5.610  0.00  0.00     0.445 HD
BRANCH  23  26
ATOM     26  C   LIG d   1       5.971  -0.631  -3.705  0.00  0.00     0.079 A 
ATOM     27  C   LIG d   1       5.537  -1.937  -3.947  0.00  0.00    -0.045 A 
ATOM     28  C   LIG d   1       4.464  -2.445  -3.245  0.00  0.00    -0.061 A 
ATOM     29  H   LIG d   1       6.042  -2.548  -4.679  0.00  0.00     0.063 H 
ATOM     30  C   LIG d   1       3.809  -1.662  -2.309  0.00  0.00    -0.058 A 
ATOM     31  H   LIG d   1       4.132  -3.455  -3.427  0.00  0.00     0.062 H 
ATOM     32  C   LIG d   1       4.225  -0.367  -2.065  0.00  0.00    -0.019 A 
ATOM     33  H   LIG d   1       2.968  -2.066  -1.766  0.00  0.00     0.062 H 
ATOM     34  C   LIG d   1       5.305   0.157  -2.757  0.00  0.00     0.130 A 
ATOM     35  H   LIG d   1       3.708   0.236  -1.333  0.00  0.00     0.065 H 
BRANCH  34  36
ATOM     36  O   LIG d   1       5.716   1.429  -2.518  0.00  0.00    -0.506 OA
ATOM     37  H   LIG d   1       5.678   1.686  -1.587  0.00  0.00     0.292 HD
ENDBRANCH  34  36
ENDBRANCH  23  26
ENDBRANCH   1  22
TORSDOF 7
ENDMDL
MODEL 4
REMARK VINA RESULT:      -6.2      6.182      8.683
REMARK  7 active torsions:
REMARK  status: ('A' for Active; 'I' for Inactive)
REMARK    1  A    between atoms: C_3  and  C_8 
REMARK    2  A    between atoms: C_4  and  O_7 
REMARK    3  A    between atoms: N_9  and  C_10 
REMARK    4  A    between atoms: C_10  and  C_11 
REMARK    5  A    between atoms: C_11  and  N_12 
REMARK    6  A    between atoms: C_13  and  C_14 
REMARK    7  A    between atoms: C_15  and  O_20 
ROOT
ATOM      1  C   LIG d   1       8.507   2.702  -4.780  0.00  0.00     0.162 C 
ATOM      2  H   LIG d   1       8.306   3.773  -4.804  0.00  0.00     0.104 H 
ATOM      3  H   LIG d   1       8.832   2.372  -5.767  0.00  0.00     0.104 H 
ENDROOT
BRANCH   1   4
ATOM      4  C   LIG d   1       9.608   2.412  -3.758  0.00  0.00     0.098 C 
ATOM      5  H   LIG d   1      10.568   2.343  -4.269  0.00  0.00     0.057 H 
ATOM      6  H   LIG d   1       9.396   1.469  -3.254  0.00  0.00     0.057 H 
BRANCH   4   7
ATOM      7  N   LIG d   1       9.656   3.494  -2.770  0.00  0.00    -0.285 NA
ATOM      8  C   LIG d   1      10.096   4.662  -3.112  0.00  0.00     0.033 C 
ATOM      9  H   LIG d   1      10.427   4.840  -4.125  0.00  0.00     0.083 H 
BRANCH   8  10
ATOM     10  C   LIG d   1      10.145   5.750  -2.119  0.00  0.00     0.034 A 
ATOM     11  C   LIG d   1       9.493   6.959  -2.370  0.00  0.00    -0.050 A 
ATOM     12  C   LIG d   1       9.542   7.973  -1.436  0.00  0.00    -0.061 A 
ATOM     13  H   LIG d   1       8.949   7.100  -3.292  0.00  0.00     0.062 H 
ATOM     14  C   LIG d   1      10.236   7.798  -0.251  0.00  0.00    -0.058 A 
ATOM     15  H   LIG d   1       9.041   8.909  -1.633  0.00  0.00     0.062 H 
ATOM     16  C   LIG d   1      10.886   6.607   0.009  0.00  0.00    -0.019 A 
ATOM     17  H   LIG d   1      10.270   8.598   0.474  0.00  0.00     0.062 H 
ATOM     18  C   LIG d   1      10.846   5.577  -0.918  0.00  0.00     0.125 A 
ATOM     19  H   LIG d   1      11.425   6.477   0.936  0.00  0.00     0.065 H 
BRANCH  18  20
ATOM     20  O   LIG d   1      11.485   4.406  -0.663  0.00  0.00    -0.506 OA
ATOM     21  H   LIG d   1      11.526   4.178   0.276  0.00  0.00     0.292 HD
ENDBRANCH  18  20
ENDBRANCH   8  10
ENDBRANCH   4   7
ENDBRANCH   1   4
BRANCH   1  22
ATOM     22  N   LIG d   1       7.286   1.985  -4.402  0.00  0.00    -0.245 N 
ATOM     23  C   LIG d   1       7.346   1.007  -3.558  0.00  0.00     0.175 C 
ATOM     24  H   LIG d   1       8.305   0.665  -3.194  0.00  0.00     0.138 H 
ATOM     25  H   LIG d   1       6.433   2.245  -4.784  0.00  0.00     0.445 HD
BRANCH  23  26
ATOM     26  C   LIG d   1       6.108   0.357  -3.093  0.00  0.00     0.079 A 
ATOM     27  C   LIG d   1       5.056   1.128  -2.592  0.00  0.00    -0.045 A 
ATOM     28  C   LIG d   1       3.898   0.515  -2.164  0.00  0.00    -0.061 A 
ATOM     29  H   LIG d   1       5.149   2.203  -2.542  0.00  0.00     0.063 H 
ATOM     30  C   LIG d   1       3.776  -0.864  -2.219  0.00  0.00    -0.058 A 
ATOM     31  H   LIG d   1       3.083   1.110  -1.782  0.00  0.00     0.062 H 
ATOM     32  C   LIG d   1       4.811  -1.638  -2.708  0.00  0.00    -0.019 A 
ATOM     33  H   LIG d   1       2.867  -1.336  -1.880  0.00  0.00     0.062 H 
ATOM     34  C   LIG d   1       5.980  -1.037  -3.147  0.00  0.00     0.130 A 
ATOM     35  H   LIG d   1       4.708  -2.712  -2.748  0.00  0.00     0.065 H 
BRANCH  34  36
ATOM     36  O   LIG d   1       6.998  -1.797  -3.629  0.00  0.00    -0.506 OA
ATOM     37  H   LIG d   1       7.763  -1.846  -3.040  0.00  0.00     0.292 HD
ENDBRANCH  34  36
ENDBRANCH  23  26
ENDBRANCH   1  22
TORSDOF 7
ENDMDL
MODEL 5
REMARK VINA RESULT:      -6.1      2.453      6.699
REMARK  7 active torsions:
REMARK  status: ('A' for Active; 'I' for Inactive)
REMARK    1  A    between atoms: C_3  and  C_8 
REMARK    2  A    between atoms: C_4  and  O_7 
REMARK    3  A    between atoms: N_9  and  C_10 
REMARK    4  A    between atoms: C_10  and  C_11 
REMARK    5  A    between atoms: C_11  and  N_12 
REMARK    6  A    between atoms: C_13  and  C_14 
REMARK    7  A    between atoms: C_15  and  O_20 
ROOT
ATOM      1  C   LIG d   1       7.634   1.766  -7.486  0.00  0.00     0.162 C 
ATOM      2  H   LIG d   1       7.496   2.842  -7.374  0.00  0.00     0.104 H 
ATOM      3  H   LIG d   1       8.382   1.575  -8.256  0.00  0.00     0.104 H 
ENDROOT
BRANCH   1   4
ATOM      4  C   LIG d   1       8.107   1.172  -6.158  0.00  0.00     0.098 C 
ATOM      5  H   LIG d   1       8.616   1.941  -5.577  0.00  0.00     0.057 H 
ATOM      6  H   LIG d   1       8.796   0.349  -6.353  0.00  0.00     0.057 H 
BRANCH   4   7
ATOM      7  N   LIG d   1       6.953   0.675  -5.405  0.00  0.00    -0.285 NA
ATOM      8  C   LIG d   1       7.124  -0.184  -4.452  0.00  0.00     0.033 C 
ATOM      9  H   LIG d   1       8.117  -0.534  -4.211  0.00  0.00     0.083 H 
BRANCH   8  10
ATOM     10  C   LIG d   1       5.963  -0.685  -3.695  0.00  0.00     0.034 A 
ATOM     11  C   LIG d   1       5.499  -1.986  -3.898  0.00  0.00    -0.050 A 
ATOM     12  C   LIG d   1       4.412  -2.448  -3.185  0.00  0.00    -0.061 A 
ATOM     13  H   LIG d   1       5.991  -2.630  -4.611  0.00  0.00     0.062 H 
ATOM     14  C   LIG d   1       3.778  -1.627  -2.268  0.00  0.00    -0.058 A 
ATOM     15  H   LIG d   1       4.052  -3.453  -3.347  0.00  0.00     0.062 H 
ATOM     16  C   LIG d   1       4.227  -0.337  -2.057  0.00  0.00    -0.019 A 
ATOM     17  H   LIG d   1       2.928  -1.996  -1.715  0.00  0.00     0.062 H 
ATOM     18  C   LIG d   1       5.318   0.144  -2.765  0.00  0.00     0.125 A 
ATOM     19  H   LIG d   1       3.727   0.298  -1.340  0.00  0.00     0.065 H 
BRANCH  18  20
ATOM     20  O   LIG d   1       5.759   1.411  -2.558  0.00  0.00    -0.506 OA
ATOM     21  H   LIG d   1       6.450   1.481  -1.885  0.00  0.00     0.292 HD
ENDBRANCH  18  20
ENDBRANCH   8  10
ENDBRANCH   4   7
ENDBRANCH   1   4
BRANCH   1  22
ATOM     22  N   LIG d   1       6.363   1.149  -7.873  0.00  0.00    -0.245 N 
ATOM     23  C   LIG d   1       5.676   1.641  -8.852  0.00  0.00     0.175 C 
ATOM     24  H   LIG d   1       5.997   2.555  -9.332  0.00  0.00     0.138 H 
ATOM     25  H   LIG d   1       6.037   0.370  -7.396  0.00  0.00     0.445 HD
BRANCH  23  26
ATOM     26  C   LIG d   1       4.455   0.957  -9.313  0.00  0.00     0.079 A 
ATOM     27  C   LIG d   1       4.276   0.679 -10.671  0.00  0.00    -0.045 A 
ATOM     28  C   LIG d   1       3.134   0.034 -11.095  0.00  0.00    -0.061 A 
ATOM     29  H   LIG d   1       5.032   0.966 -11.386  0.00  0.00     0.063 H 
ATOM     30  C   LIG d   1       2.158  -0.330 -10.183  0.00  0.00    -0.058 A 
ATOM     31  H   LIG d   1       2.998  -0.185 -12.143  0.00  0.00     0.062 H 
ATOM     32  C   LIG d   1       2.321  -0.056  -8.838  0.00  0.00    -0.019 A 
ATOM     33  H   LIG d   1       1.266  -0.833 -10.524  0.00  0.00     0.062 H 
ATOM     34  C   LIG d   1       3.465   0.586  -8.394  0.00  0.00     0.130 A 
ATOM     35  H   LIG d   1       1.555  -0.344  -8.134  0.00  0.00     0.065 H 
BRANCH  34  36
ATOM     36  O   LIG d   1       3.626   0.856  -7.073  0.00  0.00    -0.506 OA
ATOM     37  H   LIG d   1       2.811   0.793  -6.556  0.00  0.00     0.292 HD
ENDBRANCH  34  36
ENDBRANCH  23  26
ENDBRANCH   1  22
TORSDOF 7
ENDMDL
MODEL 6
REMARK VINA RESULT:      -6.0      1.634      5.958
REMARK  7 active torsions:
REMARK  status: ('A' for Active; 'I' for Inactive)
REMARK    1  A    between atoms: C_3  and  C_8 
REMARK    2  A    between atoms: C_4  and  O_7 
REMARK    3  A    between atoms: N_9  and  C_10 
REMARK    4  A    between atoms: C_10  and  C_11 
REMARK    5  A    between atoms: C_11  and  N_12 
REMARK    6  A    between atoms: C_13  and  C_14 
REMARK    7  A    between atoms: C_15  and  O_20 
ROOT
ATOM      1  C   LIG d   1       5.201  -4.294  -6.623  0.00  0.00     0.162 C 
ATOM      2  H   LIG d   1       6.128  -3.721  -6.666  0.00  0.00     0.104 H 
ATOM      3  H   LIG d   1       5.339  -5.246  -7.138  0.00  0.00     0.104 H 
ENDROOT
BRANCH   1   4
ATOM      4  C   LIG d   1       4.832  -4.555  -5.161  0.00  0.00     0.098 C 
ATOM      5  H   LIG d   1       5.718  -4.879  -4.615  0.00  0.00     0.057 H 
ATOM      6  H   LIG d   1       4.070  -5.334  -5.113  0.00  0.00     0.057 H 
BRANCH   4   7
ATOM      7  N   LIG d   1       4.312  -3.324  -4.560  0.00  0.00    -0.285 NA
ATOM      8  C   LIG d   1       5.130  -2.433  -4.100  0.00  0.00     0.033 C 
ATOM      9  H   LIG d   1       6.196  -2.597  -4.159  0.00  0.00     0.083 H 
BRANCH   8  10
ATOM     10  C   LIG d   1       4.608  -1.195  -3.496  0.00  0.00     0.034 A 
ATOM     11  C   LIG d   1       5.002  -0.819  -2.211  0.00  0.00    -0.050 A 
ATOM     12  C   LIG d   1       4.510   0.342  -1.652  0.00  0.00    -0.061 A 
ATOM     13  H   LIG d   1       5.694  -1.435  -1.655  0.00  0.00     0.062 H 
ATOM     14  C   LIG d   1       3.625   1.137  -2.359  0.00  0.00    -0.058 A 
ATOM     15  H   LIG d   1       4.812   0.629  -0.656  0.00  0.00     0.062 H 
ATOM     16  C   LIG d   1       3.225   0.776  -3.633  0.00  0.00    -0.019 A 
ATOM     17  H   LIG d   1       3.243   2.043  -1.914  0.00  0.00     0.062 H 
ATOM     18  C   LIG d   1       3.711  -0.387  -4.210  0.00  0.00     0.125 A 
ATOM     19  H   LIG d   1       2.534   1.402  -4.179  0.00  0.00     0.065 H 
BRANCH  18  20
ATOM     20  O   LIG d   1       3.319  -0.741  -5.460  0.00  0.00    -0.506 OA
ATOM     21  H   LIG d   1       3.480  -0.062  -6.129  0.00  0.00     0.292 HD
ENDBRANCH  18  20
ENDBRANCH   8  10
ENDBRANCH   4   7
ENDBRANCH   1   4
BRANCH   1  22
ATOM     22  N   LIG d   1       4.128  -3.537  -7.271  0.00  0.00    -0.245 N 
ATOM     23  C   LIG d   1       4.411  -2.661  -8.180  0.00  0.00     0.175 C 
ATOM     24  H   LIG d   1       5.442  -2.429  -8.404  0.00  0.00     0.138 H 
ATOM     25  H   LIG d   1       3.204  -3.693  -7.019  0.00  0.00     0.445 HD
BRANCH  23  26
ATOM     26  C   LIG d   1       3.327  -1.980  -8.910  0.00  0.00     0.079 A 
ATOM     27  C   LIG d   1       3.266  -0.583  -8.933  0.00  0.00    -0.045 A 
ATOM     28  C   LIG d   1       2.253   0.048  -9.623  0.00  0.00    -0.061 A 
ATOM     29  H   LIG d   1       4.013  -0.001  -8.416  0.00  0.00     0.063 H 
ATOM     30  C   LIG d   1       1.288  -0.695 -10.282  0.00  0.00    -0.058 A 
ATOM     31  H   LIG d   1       2.209   1.126  -9.645  0.00  0.00     0.062 H 
ATOM     32  C   LIG d   1       1.334  -2.076 -10.262  0.00  0.00    -0.019 A 
ATOM     33  H   LIG d   1       0.497  -0.192 -10.817  0.00  0.00     0.062 H 
ATOM     34  C   LIG d   1       2.348  -2.727  -9.579  0.00  0.00     0.130 A 
ATOM     35  H   LIG d   1       0.578  -2.647 -10.779  0.00  0.00     0.065 H 
BRANCH  34  36
ATOM     36  O   LIG d   1       2.395  -4.084  -9.558  0.00  0.00    -0.506 OA
ATOM     37  H   LIG d   1       1.538  -4.504  -9.404  0.00  0.00     0.292 HD
ENDBRANCH  34  36
ENDBRANCH  23  26
ENDBRANCH   1  22
TORSDOF 7
ENDMDL
MODEL 7
REMARK VINA RESULT:      -5.9      6.190      8.269
REMARK  7 active torsions:
REMARK  status: ('A' for Active; 'I' for Inactive)
REMARK    1  A    between atoms: C_3  and  C_8 
REMARK    2  A    between atoms: C_4  and  O_7 
REMARK    3  A    between atoms: N_9  and  C_10 
REMARK    4  A    between atoms: C_10  and  C_11 
REMARK    5  A    between atoms: C_11  and  N_12 
REMARK    6  A    between atoms: C_13  and  C_14 
REMARK    7  A    between atoms: C_15  and  O_20 
ROOT
ATOM      1  C   LIG d   1       9.747   2.329  -3.789  0.00  0.00     0.162 C 
ATOM      2  H   LIG d   1       9.909   1.515  -3.082  0.00  0.00     0.104 H 
ATOM      3  H   LIG d   1      10.616   2.422  -4.441  0.00  0.00     0.104 H 
ENDROOT
BRANCH   1   4
ATOM      4  C   LIG d   1       8.506   2.031  -4.634  0.00  0.00     0.098 C 
ATOM      5  H   LIG d   1       8.803   1.505  -5.541  0.00  0.00     0.057 H 
ATOM      6  H   LIG d   1       8.016   2.967  -4.901  0.00  0.00     0.057 H 
BRANCH   4   7
ATOM      7  N   LIG d   1       7.580   1.195  -3.865  0.00  0.00    -0.285 NA
ATOM      8  C   LIG d   1       6.714   0.456  -4.480  0.00  0.00     0.033 C 
ATOM      9  H   LIG d   1       6.674   0.454  -5.560  0.00  0.00     0.083 H 
BRANCH   8  10
ATOM     10  C   LIG d   1       5.782  -0.385  -3.708  0.00  0.00     0.034 A 
ATOM     11  C   LIG d   1       5.549  -1.707  -4.088  0.00  0.00    -0.050 A 
ATOM     12  C   LIG d   1       4.676  -2.489  -3.360  0.00  0.00    -0.061 A 
ATOM     13  H   LIG d   1       6.053  -2.119  -4.950  0.00  0.00     0.062 H 
ATOM     14  C   LIG d   1       4.029  -1.967  -2.254  0.00  0.00    -0.058 A 
ATOM     15  H   LIG d   1       4.493  -3.510  -3.659  0.00  0.00     0.062 H 
ATOM     16  C   LIG d   1       4.250  -0.659  -1.866  0.00  0.00    -0.019 A 
ATOM     17  H   LIG d   1       3.346  -2.585  -1.690  0.00  0.00     0.062 H 
ATOM     18  C   LIG d   1       5.125   0.140  -2.586  0.00  0.00     0.125 A 
ATOM     19  H   LIG d   1       3.741  -0.259  -1.001  0.00  0.00     0.065 H 
BRANCH  18  20
ATOM     20  O   LIG d   1       5.343   1.425  -2.206  0.00  0.00    -0.506 OA
ATOM     21  H   LIG d   1       4.998   2.082  -2.826  0.00  0.00     0.292 HD
ENDBRANCH  18  20
ENDBRANCH   8  10
ENDBRANCH   4   7
ENDBRANCH   1   4
BRANCH   1  22
ATOM     22  N   LIG d   1       9.550   3.582  -3.055  0.00  0.00    -0.245 N 
ATOM     23  C   LIG d   1      10.550   4.150  -2.465  0.00  0.00     0.175 C 
ATOM     24  H   LIG d   1      11.514   3.662  -2.445  0.00  0.00     0.138 H 
ATOM     25  H   LIG d   1       8.668   3.985  -3.012  0.00  0.00     0.445 HD
BRANCH  23  26
ATOM     26  C   LIG d   1      10.376   5.464  -1.821  0.00  0.00     0.079 A 
ATOM     27  C   LIG d   1       9.681   6.483  -2.479  0.00  0.00    -0.045 A 
ATOM     28  C   LIG d   1       9.516   7.708  -1.868  0.00  0.00    -0.061 A 
ATOM     29  H   LIG d   1       9.270   6.309  -3.462  0.00  0.00     0.063 H 
ATOM     30  C   LIG d   1      10.048   7.937  -0.610  0.00  0.00    -0.058 A 
ATOM     31  H   LIG d   1       8.975   8.492  -2.374  0.00  0.00     0.062 H 
ATOM     32  C   LIG d   1      10.742   6.941   0.049  0.00  0.00    -0.019 A 
ATOM     33  H   LIG d   1       9.917   8.901  -0.140  0.00  0.00     0.062 H 
ATOM     34  C   LIG d   1      10.911   5.702  -0.548  0.00  0.00     0.130 A 
ATOM     35  H   LIG d   1      11.152   7.129   1.030  0.00  0.00     0.065 H 
BRANCH  34  36
ATOM     36  O   LIG d   1      11.593   4.721   0.099  0.00  0.00    -0.506 OA
ATOM     37  H   LIG d   1      12.444   4.503  -0.304  0.00  0.00     0.292 HD
ENDBRANCH  34  36
ENDBRANCH  23  26
ENDBRANCH   1  22
TORSDOF 7
ENDMDL
MODEL 8
REMARK VINA RESULT:      -5.7      5.238      7.366
REMARK  7 active torsions:
REMARK  status: ('A' for Active; 'I' for Inactive)
REMARK    1  A    between atoms: C_3  and  C_8 
REMARK    2  A    between atoms: C_4  and  O_7 
REMARK    3  A    between atoms: N_9  and  C_10 
REMARK    4  A    between atoms: C_10  and  C_11 
REMARK    5  A    between atoms: C_11  and  N_12 
REMARK    6  A    between atoms: C_13  and  C_14 
REMARK    7  A    between atoms: C_15  and  O_20 
ROOT
ATOM      1  C   LIG d   1      10.133   0.301  -4.986  0.00  0.00     0.162 C 
ATOM      2  H   LIG d   1      10.216  -0.523  -4.277  0.00  0.00     0.104 H 
ATOM      3  H   LIG d   1      11.047   0.363  -5.579  0.00  0.00     0.104 H 
ENDROOT
BRANCH   1   4
ATOM      4  C   LIG d   1       8.941   0.055  -5.914  0.00  0.00     0.098 C 
ATOM      5  H   LIG d   1       9.034  -0.929  -6.371  0.00  0.00     0.057 H 
ATOM      6  H   LIG d   1       8.925   0.818  -6.694  0.00  0.00     0.057 H 
BRANCH   4   7
ATOM      7  N   LIG d   1       7.698   0.120  -5.141  0.00  0.00    -0.285 NA
ATOM      8  C   LIG d   1       7.497  -0.711  -4.169  0.00  0.00     0.033 C 
ATOM      9  H   LIG d   1       8.246  -1.451  -3.927  0.00  0.00     0.083 H 
BRANCH   8  10
ATOM     10  C   LIG d   1       6.247  -0.646  -3.391  0.00  0.00     0.034 A 
ATOM     11  C   LIG d   1       5.533  -1.813  -3.112  0.00  0.00    -0.050 A 
ATOM     12  C   LIG d   1       4.364  -1.745  -2.383  0.00  0.00    -0.061 A 
ATOM     13  H   LIG d   1       5.895  -2.767  -3.465  0.00  0.00     0.062 H 
ATOM     14  C   LIG d   1       3.895  -0.525  -1.926  0.00  0.00    -0.058 A 
ATOM     15  H   LIG d   1       3.810  -2.647  -2.171  0.00  0.00     0.062 H 
ATOM     16  C   LIG d   1       4.592   0.637  -2.196  0.00  0.00    -0.019 A 
ATOM     17  H   LIG d   1       2.978  -0.481  -1.357  0.00  0.00     0.062 H 
ATOM     18  C   LIG d   1       5.769   0.587  -2.927  0.00  0.00     0.125 A 
ATOM     19  H   LIG d   1       4.220   1.586  -1.837  0.00  0.00     0.065 H 
BRANCH  18  20
ATOM     20  O   LIG d   1       6.455   1.728  -3.192  0.00  0.00    -0.506 OA
ATOM     21  H   LIG d   1       6.596   2.290  -2.418  0.00  0.00     0.292 HD
ENDBRANCH  18  20
ENDBRANCH   8  10
ENDBRANCH   4   7
ENDBRANCH   1   4
BRANCH   1  22
ATOM     22  N   LIG d   1       9.936   1.556  -4.257  0.00  0.00    -0.245 N 
ATOM     23  C   LIG d   1      10.461   2.651  -4.701  0.00  0.00     0.175 C 
ATOM     24  H   LIG d   1      11.112   2.628  -5.563  0.00  0.00     0.138 H 
ATOM     25  H   LIG d   1       9.410   1.566  -3.442  0.00  0.00     0.445 HD
BRANCH  23  26
ATOM     26  C   LIG d   1      10.173   3.932  -4.030  0.00  0.00     0.079 A 
ATOM     27  C   LIG d   1       9.626   4.995  -4.753  0.00  0.00    -0.045 A 
ATOM     28  C   LIG d   1       9.352   6.188  -4.118  0.00  0.00    -0.061 A 
ATOM     29  H   LIG d   1       9.413   4.881  -5.805  0.00  0.00     0.063 H 
ATOM     30  C   LIG d   1       9.629   6.341  -2.769  0.00  0.00    -0.058 A 
ATOM     31  H   LIG d   1       8.925   7.008  -4.675  0.00  0.00     0.062 H 
ATOM     32  C   LIG d   1      10.176   5.299  -2.045  0.00  0.00    -0.019 A 
ATOM     33  H   LIG d   1       9.415   7.280  -2.281  0.00  0.00     0.062 H 
ATOM     34  C   LIG d   1      10.450   4.091  -2.666  0.00  0.00     0.130 A 
ATOM     35  H   LIG d   1      10.387   5.427  -0.994  0.00  0.00     0.065 H 
BRANCH  34  36
ATOM     36  O   LIG d   1      10.987   3.066  -1.955  0.00  0.00    -0.506 OA
ATOM     37  H   LIG d   1      10.372   2.338  -1.790  0.00  0.00     0.292 HD
ENDBRANCH  34  36
ENDBRANCH  23  26
ENDBRANCH   1  22
TORSDOF 7
ENDMDL
MODEL 9
REMARK VINA RESULT:      -5.7      2.568      7.039
REMARK  7 active torsions:
REMARK  status: ('A' for Active; 'I' for Inactive)
REMARK    1  A    between atoms: C_3  and  C_8 
REMARK    2  A    between atoms: C_4  and  O_7 
REMARK    3  A    between atoms: N_9  and  C_10 
REMARK    4  A    between atoms: C_10  and  C_11 
REMARK    5  A    between atoms: C_11  and  N_12 
REMARK    6  A    between atoms: C_13  and  C_14 
REMARK    7  A    between atoms: C_15  and  O_20 
ROOT
ATOM      1  C   LIG d   1       3.646  -0.283  -8.748  0.00  0.00     0.162 C 
ATOM      2  H   LIG d   1       3.839   0.262  -9.672  0.00  0.00     0.104 H 
ATOM      3  H   LIG d   1       4.588  -0.654  -8.342  0.00  0.00     0.104 H 
ENDROOT
BRANCH   1   4
ATOM      4  C   LIG d   1       2.986   0.653  -7.733  0.00  0.00     0.098 C 
ATOM      5  H   LIG d   1       1.916   0.450  -7.695  0.00  0.00     0.057 H 
ATOM      6  H   LIG d   1       3.149   1.688  -8.035  0.00  0.00     0.057 H 
BRANCH   4   7
ATOM      7  N   LIG d   1       3.574   0.431  -6.410  0.00  0.00    -0.285 NA
ATOM      8  C   LIG d   1       2.807   0.306  -5.374  0.00  0.00     0.033 C 
ATOM      9  H   LIG d   1       1.734   0.365  -5.486  0.00  0.00     0.083 H 
BRANCH   8  10
ATOM     10  C   LIG d   1       3.397   0.083  -4.042  0.00  0.00     0.034 A 
ATOM     11  C   LIG d   1       3.599   1.157  -3.175  0.00  0.00    -0.050 A 
ATOM     12  C   LIG d   1       4.151   0.941  -1.929  0.00  0.00    -0.061 A 
ATOM     13  H   LIG d   1       3.321   2.157  -3.477  0.00  0.00     0.062 H 
ATOM     14  C   LIG d   1       4.507  -0.337  -1.536  0.00  0.00    -0.058 A 
ATOM     15  H   LIG d   1       4.311   1.774  -1.261  0.00  0.00     0.062 H 
ATOM     16  C   LIG d   1       4.313  -1.410  -2.385  0.00  0.00    -0.019 A 
ATOM     17  H   LIG d   1       4.940  -0.498  -0.559  0.00  0.00     0.062 H 
ATOM     18  C   LIG d   1       3.759  -1.211  -3.640  0.00  0.00     0.125 A 
ATOM     19  H   LIG d   1       4.593  -2.405  -2.071  0.00  0.00     0.065 H 
BRANCH  18  20
ATOM     20  O   LIG d   1       3.568  -2.264  -4.475  0.00  0.00    -0.506 OA
ATOM     21  H   LIG d   1       2.726  -2.240  -4.951  0.00  0.00     0.292 HD
ENDBRANCH  18  20
ENDBRANCH   8  10
ENDBRANCH   4   7
ENDBRANCH   1   4
BRANCH   1  22
ATOM     22  N   LIG d   1       2.755  -1.412  -9.025  0.00  0.00    -0.245 N 
ATOM     23  C   LIG d   1       3.108  -2.324  -9.871  0.00  0.00     0.175 C 
ATOM     24  H   LIG d   1       4.023  -2.213 -10.435  0.00  0.00     0.138 H 
ATOM     25  H   LIG d   1       1.899  -1.476  -8.572  0.00  0.00     0.445 HD
BRANCH  23  26
ATOM     26  C   LIG d   1       2.263  -3.515 -10.068  0.00  0.00     0.079 A 
ATOM     27  C   LIG d   1       2.759  -4.786  -9.767  0.00  0.00    -0.045 A 
ATOM     28  C   LIG d   1       1.961  -5.896  -9.947  0.00  0.00    -0.061 A 
ATOM     29  H   LIG d   1       3.765  -4.899  -9.390  0.00  0.00     0.063 H 
ATOM     30  C   LIG d   1       0.673  -5.757 -10.436  0.00  0.00    -0.058 A 
ATOM     31  H   LIG d   1       2.343  -6.877  -9.710  0.00  0.00     0.062 H 
ATOM     32  C   LIG d   1       0.172  -4.507 -10.743  0.00  0.00    -0.019 A 
ATOM     33  H   LIG d   1       0.056  -6.632 -10.578  0.00  0.00     0.062 H 
ATOM     34  C   LIG d   1       0.959  -3.381 -10.562  0.00  0.00     0.130 A 
ATOM     35  H   LIG d   1      -0.834  -4.408 -11.124  0.00  0.00     0.065 H 
BRANCH  34  36
ATOM     36  O   LIG d   1       0.467  -2.151 -10.862  0.00  0.00    -0.506 OA
ATOM     37  H   LIG d   1      -0.291  -2.166 -11.463  0.00  0.00     0.292 HD
ENDBRANCH  34  36
ENDBRANCH  23  26
ENDBRANCH   1  22
TORSDOF 7
ENDMDL
