MODEL 1
REMARK VINA RESULT:      -5.1      0.000      0.000
REMARK  4 active torsions:
REMARK  status: ('A' for Active; 'I' for Inactive)
REMARK    1  A    between atoms: C_1  and  C_2 
REMARK    2  A    between atoms: C_4  and  N_31 
REMARK    3  A    between atoms: C_14  and  N_31 
REMARK    4  A    between atoms: C_15  and  N_31 
ROOT
ATOM      1  C   LIG d   1       7.094   0.234  -5.023  0.00  0.00     0.140 C 
ATOM      2  H   LIG d   1       7.602   0.615  -5.909  0.00  0.00     0.079 H 
ATOM      3  C   LIG d   1       7.464  -1.239  -4.810  0.00  0.00     0.020 C 
ATOM      4  H   LIG d   1       7.087  -1.837  -5.639  0.00  0.00     0.089 H 
ATOM      5  C   LIG d   1       6.824  -1.710  -3.501  0.00  0.00     0.022 C 
ATOM      6  C   LIG d   1       5.374  -1.301  -3.469  0.00  0.00    -0.000 A 
ATOM      7  C   LIG d   1       4.523  -1.931  -2.577  0.00  0.00    -0.055 A 
ATOM      8  C   LIG d   1       3.189  -1.579  -2.518  0.00  0.00    -0.061 A 
ATOM      9  C   LIG d   1       2.697  -0.592  -3.353  0.00  0.00    -0.058 A 
ATOM     10  C   LIG d   1       3.539   0.037  -4.245  0.00  0.00    -0.020 A 
ATOM     11  C   LIG d   1       4.884  -0.316  -4.309  0.00  0.00     0.124 A 
ATOM     12  O   LIG d   1       5.680   0.320  -5.207  0.00  0.00    -0.483 OA
ATOM     13  H   LIG d   1       7.347  -1.259  -2.658  0.00  0.00     0.037 H 
ATOM     14  H   LIG d   1       6.897  -2.796  -3.433  0.00  0.00     0.037 H 
ATOM     15  H   LIG d   1       4.905  -2.702  -1.923  0.00  0.00     0.062 H 
ATOM     16  H   LIG d   1       2.530  -2.073  -1.819  0.00  0.00     0.062 H 
ATOM     17  H   LIG d   1       1.654  -0.316  -3.307  0.00  0.00     0.062 H 
ATOM     18  H   LIG d   1       3.155   0.808  -4.898  0.00  0.00     0.065 H 
ENDROOT
BRANCH   3  19
ATOM     19  N   LIG d   1       8.933  -1.357  -4.700  0.00  0.00     0.236 N 
ATOM     20  H   LIG d   1       9.255  -0.800  -3.900  0.00  0.00     0.203 HD
BRANCH  19  21
ATOM     21  C   LIG d   1       9.311  -2.770  -4.486  0.00  0.00    -0.043 C 
ATOM     22  H   LIG d   1       8.907  -3.135  -3.542  0.00  0.00     0.078 H 
ATOM     23  H   LIG d   1       8.918  -3.371  -5.306  0.00  0.00     0.078 H 
ATOM     24  H   LIG d   1      10.398  -2.846  -4.469  0.00  0.00     0.078 H 
ENDBRANCH  19  21
BRANCH  19  25
ATOM     25  C   LIG d   1       9.574  -0.844  -5.931  0.00  0.00    -0.043 C 
ATOM     26  H   LIG d   1      10.394  -1.508  -6.205  0.00  0.00     0.078 H 
ATOM     27  H   LIG d   1       8.837  -0.825  -6.732  0.00  0.00     0.078 H 
ATOM     28  H   LIG d   1       9.961   0.162  -5.768  0.00  0.00     0.078 H 
ENDBRANCH  19  25
ENDBRANCH   3  19
BRANCH   1  29
ATOM     29  C   LIG d   1       7.505   1.054  -3.800  0.00  0.00    -0.022 C 
ATOM     30  H   LIG d   1       8.384   0.602  -3.339  0.00  0.00     0.027 H 
ATOM     31  H   LIG d   1       7.740   2.074  -4.107  0.00  0.00     0.027 H 
ATOM     32  H   LIG d   1       6.687   1.071  -3.081  0.00  0.00     0.027 H 
ENDBRANCH   1  29
TORSDOF 4
ENDMDL
MODEL 2
REMARK VINA RESULT:      -5.0      1.860      2.841
REMARK  4 active torsions:
REMARK  status: ('A' for Active; 'I' for Inactive)
REMARK    1  A    between atoms: C_1  and  C_2 
REMARK    2  A    between atoms: C_4  and  N_31 
REMARK    3  A    between atoms: C_14  and  N_31 
REMARK    4  A    between atoms: C_15  and  N_31 
ROOT
ATOM      1  C   LIG d   1       7.864  -0.536  -5.103  0.00  0.00     0.140 C 
ATOM      2  H   LIG d   1       8.701  -1.094  -5.525  0.00  0.00     0.079 H 
ATOM      3  C   LIG d   1       8.392   0.678  -4.328  0.00  0.00     0.020 C 
ATOM      4  H   LIG d   1       8.977   0.341  -3.472  0.00  0.00     0.089 H 
ATOM      5  C   LIG d   1       7.193   1.497  -3.845  0.00  0.00     0.022 C 
ATOM      6  C   LIG d   1       6.185   0.586  -3.193  0.00  0.00    -0.000 A 
ATOM      7  C   LIG d   1       5.221   1.139  -2.368  0.00  0.00    -0.055 A 
ATOM      8  C   LIG d   1       4.280   0.335  -1.757  0.00  0.00    -0.061 A 
ATOM      9  C   LIG d   1       4.297  -1.032  -1.968  0.00  0.00    -0.058 A 
ATOM     10  C   LIG d   1       5.256  -1.589  -2.788  0.00  0.00    -0.020 A 
ATOM     11  C   LIG d   1       6.208  -0.782  -3.404  0.00  0.00     0.124 A 
ATOM     12  O   LIG d   1       7.141  -1.369  -4.196  0.00  0.00    -0.483 OA
ATOM     13  H   LIG d   1       6.731   2.000  -4.694  0.00  0.00     0.037 H 
ATOM     14  H   LIG d   1       7.530   2.241  -3.123  0.00  0.00     0.037 H 
ATOM     15  H   LIG d   1       5.205   2.207  -2.201  0.00  0.00     0.062 H 
ATOM     16  H   LIG d   1       3.529   0.772  -1.114  0.00  0.00     0.062 H 
ATOM     17  H   LIG d   1       3.560  -1.662  -1.492  0.00  0.00     0.062 H 
ATOM     18  H   LIG d   1       5.269  -2.657  -2.952  0.00  0.00     0.065 H 
ENDROOT
BRANCH   3  19
ATOM     19  N   LIG d   1       9.214   1.509  -5.232  0.00  0.00     0.236 N 
ATOM     20  H   LIG d   1       9.001   1.256  -6.205  0.00  0.00     0.203 HD
BRANCH  19  21
ATOM     21  C   LIG d   1       8.901   2.939  -5.028  0.00  0.00    -0.043 C 
ATOM     22  H   LIG d   1       9.718   3.564  -5.385  0.00  0.00     0.078 H 
ATOM     23  H   LIG d   1       7.989   3.184  -5.573  0.00  0.00     0.078 H 
ATOM     24  H   LIG d   1       8.746   3.118  -3.964  0.00  0.00     0.078 H 
ENDBRANCH  19  21
BRANCH  19  25
ATOM     25  C   LIG d   1      10.650   1.265  -4.977  0.00  0.00    -0.043 C 
ATOM     26  H   LIG d   1      10.973   1.893  -4.148  0.00  0.00     0.078 H 
ATOM     27  H   LIG d   1      10.790   0.217  -4.716  0.00  0.00     0.078 H 
ATOM     28  H   LIG d   1      11.240   1.500  -5.864  0.00  0.00     0.078 H 
ENDBRANCH  19  25
ENDBRANCH   3  19
BRANCH   1  29
ATOM     29  C   LIG d   1       6.937  -0.070  -6.226  0.00  0.00    -0.022 C 
ATOM     30  H   LIG d   1       6.639  -0.927  -6.830  0.00  0.00     0.027 H 
ATOM     31  H   LIG d   1       6.050   0.397  -5.796  0.00  0.00     0.027 H 
ATOM     32  H   LIG d   1       7.459   0.652  -6.853  0.00  0.00     0.027 H 
ENDBRANCH   1  29
TORSDOF 4
ENDMDL
MODEL 3
REMARK VINA RESULT:      -5.0      2.485      3.025
REMARK  4 active torsions:
REMARK  status: ('A' for Active; 'I' for Inactive)
REMARK    1  A    between atoms: C_1  and  C_2 
REMARK    2  A    between atoms: C_4  and  N_31 
REMARK    3  A    between atoms: C_14  and  N_31 
REMARK    4  A    between atoms: C_15  and  N_31 
ROOT
ATOM      1  C   LIG d   1       4.426  -1.335  -6.210  0.00  0.00     0.140 C 
ATOM      2  H   LIG d   1       3.948  -1.650  -7.139  0.00  0.00     0.079 H 
ATOM      3  C   LIG d   1       4.659  -2.556  -5.311  0.00  0.00     0.020 C 
ATOM      4  H   LIG d   1       3.701  -2.982  -5.014  0.00  0.00     0.089 H 
ATOM      5  C   LIG d   1       5.428  -2.098  -4.070  0.00  0.00     0.022 C 
ATOM      6  C   LIG d   1       4.774  -0.869  -3.491  0.00  0.00    -0.000 A 
ATOM      7  C   LIG d   1       5.065  -0.510  -2.186  0.00  0.00    -0.055 A 
ATOM      8  C   LIG d   1       4.486   0.611  -1.626  0.00  0.00    -0.061 A 
ATOM      9  C   LIG d   1       3.611   1.382  -2.369  0.00  0.00    -0.058 A 
ATOM     10  C   LIG d   1       3.316   1.028  -3.669  0.00  0.00    -0.020 A 
ATOM     11  C   LIG d   1       3.896  -0.102  -4.237  0.00  0.00     0.124 A 
ATOM     12  O   LIG d   1       3.573  -0.423  -5.517  0.00  0.00    -0.483 OA
ATOM     13  H   LIG d   1       6.457  -1.865  -4.345  0.00  0.00     0.037 H 
ATOM     14  H   LIG d   1       5.424  -2.895  -3.326  0.00  0.00     0.037 H 
ATOM     15  H   LIG d   1       5.748  -1.111  -1.603  0.00  0.00     0.062 H 
ATOM     16  H   LIG d   1       4.716   0.887  -0.607  0.00  0.00     0.062 H 
ATOM     17  H   LIG d   1       3.158   2.260  -1.932  0.00  0.00     0.062 H 
ATOM     18  H   LIG d   1       2.632   1.631  -4.250  0.00  0.00     0.065 H 
ENDROOT
BRANCH   3  19
ATOM     19  N   LIG d   1       5.471  -3.549  -6.045  0.00  0.00     0.236 N 
ATOM     20  H   LIG d   1       5.906  -3.092  -6.856  0.00  0.00     0.203 HD
BRANCH  19  21
ATOM     21  C   LIG d   1       6.534  -4.081  -5.166  0.00  0.00    -0.043 C 
ATOM     22  H   LIG d   1       6.386  -5.145  -4.988  0.00  0.00     0.078 H 
ATOM     23  H   LIG d   1       7.501  -3.923  -5.644  0.00  0.00     0.078 H 
ATOM     24  H   LIG d   1       6.507  -3.547  -4.216  0.00  0.00     0.078 H 
ENDBRANCH  19  21
BRANCH  19  25
ATOM     25  C   LIG d   1       4.610  -4.653  -6.521  0.00  0.00    -0.043 C 
ATOM     26  H   LIG d   1       3.700  -4.232  -6.947  0.00  0.00     0.078 H 
ATOM     27  H   LIG d   1       5.145  -5.214  -7.287  0.00  0.00     0.078 H 
ATOM     28  H   LIG d   1       4.352  -5.318  -5.697  0.00  0.00     0.078 H 
ENDBRANCH  19  25
ENDBRANCH   3  19
BRANCH   1  29
ATOM     29  C   LIG d   1       5.761  -0.659  -6.521  0.00  0.00    -0.022 C 
ATOM     30  H   LIG d   1       6.095  -0.954  -7.516  0.00  0.00     0.027 H 
ATOM     31  H   LIG d   1       5.637   0.424  -6.486  0.00  0.00     0.027 H 
ATOM     32  H   LIG d   1       6.504  -0.963  -5.784  0.00  0.00     0.027 H 
ENDBRANCH   1  29
TORSDOF 4
ENDMDL
MODEL 4
REMARK VINA RESULT:      -4.9      2.443      3.042
REMARK  4 active torsions:
REMARK  status: ('A' for Active; 'I' for Inactive)
REMARK    1  A    between atoms: C_1  and  C_2 
REMARK    2  A    between atoms: C_4  and  N_31 
REMARK    3  A    between atoms: C_14  and  N_31 
REMARK    4  A    between atoms: C_15  and  N_31 
ROOT
ATOM      1  C   LIG d   1       7.097  -2.220  -5.056  0.00  0.00     0.140 C 
ATOM      2  H   LIG d   1       7.686  -2.293  -5.970  0.00  0.00     0.079 H 
ATOM      3  C   LIG d   1       5.739  -2.902  -5.262  0.00  0.00     0.020 C 
ATOM      4  H   LIG d   1       5.167  -2.362  -6.017  0.00  0.00     0.089 H 
ATOM      5  C   LIG d   1       4.983  -2.880  -3.930  0.00  0.00     0.022 C 
ATOM      6  C   LIG d   1       5.033  -1.493  -3.341  0.00  0.00    -0.000 A 
ATOM      7  C   LIG d   1       4.123  -1.156  -2.354  0.00  0.00    -0.055 A 
ATOM      8  C   LIG d   1       4.142   0.105  -1.789  0.00  0.00    -0.061 A 
ATOM      9  C   LIG d   1       5.073   1.036  -2.210  0.00  0.00    -0.058 A 
ATOM     10  C   LIG d   1       5.981   0.706  -3.194  0.00  0.00    -0.020 A 
ATOM     11  C   LIG d   1       5.964  -0.562  -3.767  0.00  0.00     0.124 A 
ATOM     12  O   LIG d   1       6.868  -0.847  -4.740  0.00  0.00    -0.483 OA
ATOM     13  H   LIG d   1       5.446  -3.584  -3.239  0.00  0.00     0.037 H 
ATOM     14  H   LIG d   1       3.945  -3.166  -4.098  0.00  0.00     0.037 H 
ATOM     15  H   LIG d   1       3.394  -1.882  -2.023  0.00  0.00     0.062 H 
ATOM     16  H   LIG d   1       3.429   0.363  -1.019  0.00  0.00     0.062 H 
ATOM     17  H   LIG d   1       5.089   2.022  -1.768  0.00  0.00     0.062 H 
ATOM     18  H   LIG d   1       6.708   1.435  -3.523  0.00  0.00     0.065 H 
ENDROOT
BRANCH   3  19
ATOM     19  N   LIG d   1       5.958  -4.304  -5.671  0.00  0.00     0.236 N 
ATOM     20  H   LIG d   1       6.726  -4.699  -5.115  0.00  0.00     0.203 HD
BRANCH  19  21
ATOM     21  C   LIG d   1       4.734  -5.098  -5.430  0.00  0.00    -0.043 C 
ATOM     22  H   LIG d   1       4.947  -6.163  -5.515  0.00  0.00     0.078 H 
ATOM     23  H   LIG d   1       4.361  -4.880  -4.430  0.00  0.00     0.078 H 
ATOM     24  H   LIG d   1       3.981  -4.818  -6.167  0.00  0.00     0.078 H 
ENDBRANCH  19  21
BRANCH  19  25
ATOM     25  C   LIG d   1       6.323  -4.361  -7.103  0.00  0.00    -0.043 C 
ATOM     26  H   LIG d   1       5.572  -4.944  -7.636  0.00  0.00     0.078 H 
ATOM     27  H   LIG d   1       6.349  -3.348  -7.502  0.00  0.00     0.078 H 
ATOM     28  H   LIG d   1       7.301  -4.827  -7.229  0.00  0.00     0.078 H 
ENDBRANCH  19  25
ENDBRANCH   3  19
BRANCH   1  29
ATOM     29  C   LIG d   1       7.846  -2.896  -3.906  0.00  0.00    -0.022 C 
ATOM     30  H   LIG d   1       8.909  -2.943  -4.143  0.00  0.00     0.027 H 
ATOM     31  H   LIG d   1       7.703  -2.320  -2.991  0.00  0.00     0.027 H 
ATOM     32  H   LIG d   1       7.460  -3.905  -3.763  0.00  0.00     0.027 H 
ENDBRANCH   1  29
TORSDOF 4
ENDMDL
MODEL 5
REMARK VINA RESULT:      -4.9      1.936      2.689
REMARK  4 active torsions:
REMARK  status: ('A' for Active; 'I' for Inactive)
REMARK    1  A    between atoms: C_1  and  C_2 
REMARK    2  A    between atoms: C_4  and  N_31 
REMARK    3  A    between atoms: C_14  and  N_31 
REMARK    4  A    between atoms: C_15  and  N_31 
ROOT
ATOM      1  C   LIG d   1       5.361  -3.165  -4.894  0.00  0.00     0.140 C 
ATOM      2  H   LIG d   1       5.263  -4.226  -5.121  0.00  0.00     0.079 H 
ATOM      3  C   LIG d   1       6.692  -2.913  -4.174  0.00  0.00     0.020 C 
ATOM      4  H   LIG d   1       6.688  -3.417  -3.208  0.00  0.00     0.089 H 
ATOM      5  C   LIG d   1       6.849  -1.404  -3.969  0.00  0.00     0.022 C 
ATOM      6  C   LIG d   1       5.579  -0.834  -3.393  0.00  0.00    -0.000 A 
ATOM      7  C   LIG d   1       5.620   0.411  -2.789  0.00  0.00    -0.055 A 
ATOM      8  C   LIG d   1       4.474   0.964  -2.253  0.00  0.00    -0.061 A 
ATOM      9  C   LIG d   1       3.277   0.275  -2.319  0.00  0.00    -0.058 A 
ATOM     10  C   LIG d   1       3.230  -0.967  -2.917  0.00  0.00    -0.020 A 
ATOM     11  C   LIG d   1       4.384  -1.530  -3.457  0.00  0.00     0.124 A 
ATOM     12  O   LIG d   1       4.299  -2.758  -4.030  0.00  0.00    -0.483 OA
ATOM     13  H   LIG d   1       7.058  -0.928  -4.927  0.00  0.00     0.037 H 
ATOM     14  H   LIG d   1       7.675  -1.216  -3.284  0.00  0.00     0.037 H 
ATOM     15  H   LIG d   1       6.553   0.952  -2.736  0.00  0.00     0.062 H 
ATOM     16  H   LIG d   1       4.512   1.936  -1.783  0.00  0.00     0.062 H 
ATOM     17  H   LIG d   1       2.380   0.707  -1.901  0.00  0.00     0.062 H 
ATOM     18  H   LIG d   1       2.295  -1.506  -2.968  0.00  0.00     0.065 H 
ENDROOT
BRANCH   3  19
ATOM     19  N   LIG d   1       7.800  -3.405  -5.019  0.00  0.00     0.236 N 
ATOM     20  H   LIG d   1       7.483  -3.446  -5.996  0.00  0.00     0.203 HD
BRANCH  19  21
ATOM     21  C   LIG d   1       8.953  -2.485  -4.926  0.00  0.00    -0.043 C 
ATOM     22  H   LIG d   1       8.698  -1.611  -4.330  0.00  0.00     0.078 H 
ATOM     23  H   LIG d   1       9.788  -3.011  -4.462  0.00  0.00     0.078 H 
ATOM     24  H   LIG d   1       9.236  -2.171  -5.931  0.00  0.00     0.078 H 
ENDBRANCH  19  21
BRANCH  19  25
ATOM     25  C   LIG d   1       8.200  -4.762  -4.588  0.00  0.00    -0.043 C 
ATOM     26  H   LIG d   1       7.905  -4.904  -3.548  0.00  0.00     0.078 H 
ATOM     27  H   LIG d   1       7.692  -5.496  -5.213  0.00  0.00     0.078 H 
ATOM     28  H   LIG d   1       9.279  -4.889  -4.681  0.00  0.00     0.078 H 
ENDBRANCH  19  25
ENDBRANCH   3  19
BRANCH   1  29
ATOM     29  C   LIG d   1       5.312  -2.354  -6.189  0.00  0.00    -0.022 C 
ATOM     30  H   LIG d   1       4.612  -1.526  -6.073  0.00  0.00     0.027 H 
ATOM     31  H   LIG d   1       6.305  -1.961  -6.410  0.00  0.00     0.027 H 
ATOM     32  H   LIG d   1       4.985  -2.994  -7.008  0.00  0.00     0.027 H 
ENDBRANCH   1  29
TORSDOF 4
ENDMDL
MODEL 6
REMARK VINA RESULT:      -4.2      2.642      4.633
REMARK  4 active torsions:
REMARK  status: ('A' for Active; 'I' for Inactive)
REMARK    1  A    between atoms: C_1  and  C_2 
REMARK    2  A    between atoms: C_4  and  N_31 
REMARK    3  A    between atoms: C_14  and  N_31 
REMARK    4  A    between atoms: C_15  and  N_31 
ROOT
ATOM      1  C   LIG d   1       6.516  -0.806  -3.472  0.00  0.00     0.140 C 
ATOM      2  H   LIG d   1       6.866  -0.095  -2.724  0.00  0.00     0.079 H 
ATOM      3  C   LIG d   1       5.106  -1.287  -3.107  0.00  0.00     0.020 C 
ATOM      4  H   LIG d   1       5.138  -1.844  -2.171  0.00  0.00     0.089 H 
ATOM      5  C   LIG d   1       4.601  -2.195  -4.231  0.00  0.00     0.022 C 
ATOM      6  C   LIG d   1       5.660  -3.210  -4.578  0.00  0.00    -0.000 A 
ATOM      7  C   LIG d   1       5.293  -4.342  -5.286  0.00  0.00    -0.055 A 
ATOM      8  C   LIG d   1       6.238  -5.290  -5.624  0.00  0.00    -0.061 A 
ATOM      9  C   LIG d   1       7.559  -5.112  -5.255  0.00  0.00    -0.058 A 
ATOM     10  C   LIG d   1       7.930  -3.987  -4.548  0.00  0.00    -0.020 A 
ATOM     11  C   LIG d   1       6.981  -3.029  -4.204  0.00  0.00     0.124 A 
ATOM     12  O   LIG d   1       7.384  -1.940  -3.500  0.00  0.00    -0.483 OA
ATOM     13  H   LIG d   1       4.375  -1.592  -5.111  0.00  0.00     0.037 H 
ATOM     14  H   LIG d   1       3.698  -2.710  -3.903  0.00  0.00     0.037 H 
ATOM     15  H   LIG d   1       4.262  -4.484  -5.575  0.00  0.00     0.062 H 
ATOM     16  H   LIG d   1       5.946  -6.171  -6.176  0.00  0.00     0.062 H 
ATOM     17  H   LIG d   1       8.299  -5.853  -5.520  0.00  0.00     0.062 H 
ATOM     18  H   LIG d   1       8.963  -3.848  -4.260  0.00  0.00     0.065 H 
ENDROOT
BRANCH   3  19
ATOM     19  N   LIG d   1       4.211  -0.117  -2.991  0.00  0.00     0.236 N 
ATOM     20  H   LIG d   1       4.368   0.505  -3.794  0.00  0.00     0.203 HD
BRANCH  19  21
ATOM     21  C   LIG d   1       2.800  -0.558  -2.993  0.00  0.00    -0.043 C 
ATOM     22  H   LIG d   1       2.729  -1.615  -2.742  0.00  0.00     0.078 H 
ATOM     23  H   LIG d   1       2.245   0.029  -2.261  0.00  0.00     0.078 H 
ATOM     24  H   LIG d   1       2.380  -0.391  -3.985  0.00  0.00     0.078 H 
ENDBRANCH  19  21
BRANCH  19  25
ATOM     25  C   LIG d   1       4.506   0.624  -1.746  0.00  0.00    -0.043 C 
ATOM     26  H   LIG d   1       5.198   0.038  -1.142  0.00  0.00     0.078 H 
ATOM     27  H   LIG d   1       4.965   1.579  -2.002  0.00  0.00     0.078 H 
ATOM     28  H   LIG d   1       3.590   0.801  -1.181  0.00  0.00     0.078 H 
ENDBRANCH  19  25
ENDBRANCH   3  19
BRANCH   1  29
ATOM     29  C   LIG d   1       6.495  -0.139  -4.848  0.00  0.00    -0.022 C 
ATOM     30  H   LIG d   1       7.501  -0.142  -5.268  0.00  0.00     0.027 H 
ATOM     31  H   LIG d   1       5.823  -0.688  -5.509  0.00  0.00     0.027 H 
ATOM     32  H   LIG d   1       6.146   0.888  -4.749  0.00  0.00     0.027 H 
ENDBRANCH   1  29
TORSDOF 4
ENDMDL
MODEL 7
REMARK VINA RESULT:      -4.2      5.571      6.732
REMARK  4 active torsions:
REMARK  status: ('A' for Active; 'I' for Inactive)
REMARK    1  A    between atoms: C_1  and  C_2 
REMARK    2  A    between atoms: C_4  and  N_31 
REMARK    3  A    between atoms: C_14  and  N_31 
REMARK    4  A    between atoms: C_15  and  N_31 
ROOT
ATOM      1  C   LIG d   1       4.759   0.614  -8.763  0.00  0.00     0.140 C 
ATOM      2  H   LIG d   1       5.791   0.729  -8.433  0.00  0.00     0.079 H 
ATOM      3  C   LIG d   1       3.995  -0.270  -7.770  0.00  0.00     0.020 C 
ATOM      4  H   LIG d   1       4.414  -1.276  -7.776  0.00  0.00     0.089 H 
ATOM      5  C   LIG d   1       2.527  -0.320  -8.201  0.00  0.00     0.022 C 
ATOM      6  C   LIG d   1       2.441  -0.621  -9.676  0.00  0.00    -0.000 A 
ATOM      7  C   LIG d   1       1.240  -1.074 -10.195  0.00  0.00    -0.055 A 
ATOM      8  C   LIG d   1       1.125  -1.356 -11.542  0.00  0.00    -0.061 A 
ATOM      9  C   LIG d   1       2.212  -1.185 -12.380  0.00  0.00    -0.058 A 
ATOM     10  C   LIG d   1       3.411  -0.735 -11.868  0.00  0.00    -0.020 A 
ATOM     11  C   LIG d   1       3.532  -0.452 -10.510  0.00  0.00     0.124 A 
ATOM     12  O   LIG d   1       4.732  -0.020 -10.043  0.00  0.00    -0.483 OA
ATOM     13  H   LIG d   1       2.056   0.642  -7.999  0.00  0.00     0.037 H 
ATOM     14  H   LIG d   1       2.011  -1.100  -7.641  0.00  0.00     0.037 H 
ATOM     15  H   LIG d   1       0.389  -1.209  -9.543  0.00  0.00     0.062 H 
ATOM     16  H   LIG d   1       0.185  -1.709 -11.942  0.00  0.00     0.062 H 
ATOM     17  H   LIG d   1       2.122  -1.404 -13.433  0.00  0.00     0.062 H 
ATOM     18  H   LIG d   1       4.260  -0.602 -12.522  0.00  0.00     0.065 H 
ENDROOT
BRANCH   3  19
ATOM     19  N   LIG d   1       4.083   0.328  -6.422  0.00  0.00     0.236 N 
ATOM     20  H   LIG d   1       4.406   1.300  -6.508  0.00  0.00     0.203 HD
BRANCH  19  21
ATOM     21  C   LIG d   1       2.753   0.318  -5.776  0.00  0.00    -0.043 C 
ATOM     22  H   LIG d   1       2.852   0.423  -4.697  0.00  0.00     0.078 H 
ATOM     23  H   LIG d   1       2.163   1.146  -6.170  0.00  0.00     0.078 H 
ATOM     24  H   LIG d   1       2.257  -0.624  -6.006  0.00  0.00     0.078 H 
ENDBRANCH  19  21
BRANCH  19  25
ATOM     25  C   LIG d   1       5.051  -0.427  -5.596  0.00  0.00    -0.043 C 
ATOM     26  H   LIG d   1       5.817   0.258  -5.234  0.00  0.00     0.078 H 
ATOM     27  H   LIG d   1       4.526  -0.867  -4.749  0.00  0.00     0.078 H 
ATOM     28  H   LIG d   1       5.518  -1.217  -6.184  0.00  0.00     0.078 H 
ENDBRANCH  19  25
ENDBRANCH   3  19
BRANCH   1  29
ATOM     29  C   LIG d   1       4.091   1.987  -8.853  0.00  0.00    -0.022 C 
ATOM     30  H   LIG d   1       4.331   2.566  -7.961  0.00  0.00     0.027 H 
ATOM     31  H   LIG d   1       4.457   2.513  -9.736  0.00  0.00     0.027 H 
ATOM     32  H   LIG d   1       3.011   1.863  -8.926  0.00  0.00     0.027 H 
ENDBRANCH   1  29
TORSDOF 4
ENDMDL
MODEL 8
REMARK VINA RESULT:      -4.1      7.155      8.283
REMARK  4 active torsions:
REMARK  status: ('A' for Active; 'I' for Inactive)
REMARK    1  A    between atoms: C_1  and  C_2 
REMARK    2  A    between atoms: C_4  and  N_31 
REMARK    3  A    between atoms: C_14  and  N_31 
REMARK    4  A    between atoms: C_15  and  N_31 
ROOT
ATOM      1  C   LIG d   1       3.353  -1.479 -12.098  0.00  0.00     0.140 C 
ATOM      2  H   LIG d   1       3.388  -1.778 -13.145  0.00  0.00     0.079 H 
ATOM      3  C   LIG d   1       1.955  -1.752 -11.529  0.00  0.00     0.020 C 
ATOM      4  H   LIG d   1       1.224  -1.121 -12.034  0.00  0.00     0.089 H 
ATOM      5  C   LIG d   1       1.972  -1.427 -10.034  0.00  0.00     0.022 C 
ATOM      6  C   LIG d   1       2.608  -0.078  -9.815  0.00  0.00    -0.000 A 
ATOM      7  C   LIG d   1       2.397   0.572  -8.610  0.00  0.00    -0.055 A 
ATOM      8  C   LIG d   1       2.967   1.807  -8.375  0.00  0.00    -0.061 A 
ATOM      9  C   LIG d   1       3.755   2.401  -9.344  0.00  0.00    -0.058 A 
ATOM     10  C   LIG d   1       3.967   1.760 -10.546  0.00  0.00    -0.020 A 
ATOM     11  C   LIG d   1       3.393   0.515 -10.789  0.00  0.00     0.124 A 
ATOM     12  O   LIG d   1       3.618  -0.080 -11.988  0.00  0.00    -0.483 OA
ATOM     13  H   LIG d   1       2.545  -2.188  -9.503  0.00  0.00     0.037 H 
ATOM     14  H   LIG d   1       0.951  -1.412  -9.654  0.00  0.00     0.037 H 
ATOM     15  H   LIG d   1       1.783   0.110  -7.851  0.00  0.00     0.062 H 
ATOM     16  H   LIG d   1       2.799   2.309  -7.433  0.00  0.00     0.062 H 
ATOM     17  H   LIG d   1       4.202   3.367  -9.160  0.00  0.00     0.062 H 
ATOM     18  H   LIG d   1       4.582   2.225 -11.304  0.00  0.00     0.065 H 
ENDROOT
BRANCH   3  19
ATOM     19  N   LIG d   1       1.630  -3.182 -11.710  0.00  0.00     0.236 N 
ATOM     20  H   LIG d   1       2.501  -3.726 -11.710  0.00  0.00     0.203 HD
BRANCH  19  21
ATOM     21  C   LIG d   1       0.771  -3.649 -10.601  0.00  0.00    -0.043 C 
ATOM     22  H   LIG d   1       1.199  -4.535 -10.133  0.00  0.00     0.078 H 
ATOM     23  H   LIG d   1       0.685  -2.853  -9.861  0.00  0.00     0.078 H 
ATOM     24  H   LIG d   1      -0.216  -3.888 -10.995  0.00  0.00     0.078 H 
ENDBRANCH  19  21
BRANCH  19  25
ATOM     25  C   LIG d   1       0.939  -3.384 -13.002  0.00  0.00    -0.043 C 
ATOM     26  H   LIG d   1       1.586  -3.034 -13.807  0.00  0.00     0.078 H 
ATOM     27  H   LIG d   1       0.737  -4.446 -13.134  0.00  0.00     0.078 H 
ATOM     28  H   LIG d   1       0.000  -2.830 -13.023  0.00  0.00     0.078 H 
ENDBRANCH  19  25
ENDBRANCH   3  19
BRANCH   1  29
ATOM     29  C   LIG d   1       4.397  -2.265 -11.303  0.00  0.00    -0.022 C 
ATOM     30  H   LIG d   1       4.519  -3.255 -11.743  0.00  0.00     0.027 H 
ATOM     31  H   LIG d   1       5.350  -1.736 -11.331  0.00  0.00     0.027 H 
ATOM     32  H   LIG d   1       4.068  -2.366 -10.269  0.00  0.00     0.027 H 
ENDBRANCH   1  29
TORSDOF 4
ENDMDL
MODEL 9
REMARK VINA RESULT:      -4.0      7.299      9.400
REMARK  4 active torsions:
REMARK  status: ('A' for Active; 'I' for Inactive)
REMARK    1  A    between atoms: C_1  and  C_2 
REMARK    2  A    between atoms: C_4  and  N_31 
REMARK    3  A    between atoms: C_14  and  N_31 
REMARK    4  A    between atoms: C_15  and  N_31 
ROOT
ATOM      1  C   LIG d   1      10.060   8.315  -1.586  0.00  0.00     0.140 C 
ATOM      2  H   LIG d   1      10.411   9.333  -1.419  0.00  0.00     0.079 H 
ATOM      3  C   LIG d   1      10.975   7.327  -0.851  0.00  0.00     0.020 C 
ATOM      4  H   LIG d   1      11.975   7.362  -1.282  0.00  0.00     0.089 H 
ATOM      5  C   LIG d   1      10.392   5.921  -1.012  0.00  0.00     0.022 C 
ATOM      6  C   LIG d   1      10.051   5.675  -2.460  0.00  0.00    -0.000 A 
ATOM      7  C   LIG d   1       9.868   4.372  -2.890  0.00  0.00    -0.055 A 
ATOM      8  C   LIG d   1       9.552   4.111  -4.208  0.00  0.00    -0.061 A 
ATOM      9  C   LIG d   1       9.417   5.153  -5.107  0.00  0.00    -0.058 A 
ATOM     10  C   LIG d   1       9.601   6.454  -4.684  0.00  0.00    -0.020 A 
ATOM     11  C   LIG d   1       9.921   6.721  -3.357  0.00  0.00     0.124 A 
ATOM     12  O   LIG d   1      10.103   8.014  -2.981  0.00  0.00    -0.483 OA
ATOM     13  H   LIG d   1       9.489   5.830  -0.407  0.00  0.00     0.037 H 
ATOM     14  H   LIG d   1      11.124   5.185  -0.681  0.00  0.00     0.037 H 
ATOM     15  H   LIG d   1       9.972   3.555  -2.190  0.00  0.00     0.062 H 
ATOM     16  H   LIG d   1       9.409   3.092  -4.538  0.00  0.00     0.062 H 
ATOM     17  H   LIG d   1       9.169   4.950  -6.138  0.00  0.00     0.062 H 
ATOM     18  H   LIG d   1       9.495   7.268  -5.387  0.00  0.00     0.065 H 
ENDROOT
BRANCH   3  19
ATOM     19  N   LIG d   1      11.008   7.676   0.585  0.00  0.00     0.236 N 
ATOM     20  H   LIG d   1      10.129   8.142   0.836  0.00  0.00     0.203 HD
BRANCH  19  21
ATOM     21  C   LIG d   1      11.153   6.450   1.399  0.00  0.00    -0.043 C 
ATOM     22  H   LIG d   1      11.021   5.563   0.781  0.00  0.00     0.078 H 
ATOM     23  H   LIG d   1      12.146   6.438   1.847  0.00  0.00     0.078 H 
ATOM     24  H   LIG d   1      10.399   6.459   2.187  0.00  0.00     0.078 H 
ENDBRANCH  19  21
BRANCH  19  25
ATOM     25  C   LIG d   1      12.133   8.597   0.855  0.00  0.00    -0.043 C 
ATOM     26  H   LIG d   1      12.572   8.345   1.820  0.00  0.00     0.078 H 
ATOM     27  H   LIG d   1      12.883   8.479   0.073  0.00  0.00     0.078 H 
ATOM     28  H   LIG d   1      11.785   9.630   0.872  0.00  0.00     0.078 H 
ENDBRANCH  19  25
ENDBRANCH   3  19
BRANCH   1  29
ATOM     29  C   LIG d   1       8.627   8.174  -1.071  0.00  0.00    -0.022 C 
ATOM     30  H   LIG d   1       7.929   8.313  -1.898  0.00  0.00     0.027 H 
ATOM     31  H   LIG d   1       8.490   7.179  -0.645  0.00  0.00     0.027 H 
ATOM     32  H   LIG d   1       8.439   8.926  -0.306  0.00  0.00     0.027 H 
ENDBRANCH   1  29
TORSDOF 4
ENDMDL
MODEL 10
REMARK VINA RESULT:      -3.9      8.743     10.874
REMARK  4 active torsions:
REMARK  status: ('A' for Active; 'I' for Inactive)
REMARK    1  A    between atoms: C_1  and  C_2 
REMARK    2  A    between atoms: C_4  and  N_31 
REMARK    3  A    between atoms: C_14  and  N_31 
REMARK    4  A    between atoms: C_15  and  N_31 
ROOT
ATOM      1  C   LIG d   1      12.156   6.201   0.086  0.00  0.00     0.140 C 
ATOM      2  H   LIG d   1      13.037   5.560   0.057  0.00  0.00     0.079 H 
ATOM      3  C   LIG d   1      11.543   6.297  -1.317  0.00  0.00     0.020 C 
ATOM      4  H   LIG d   1      12.242   6.795  -1.990  0.00  0.00     0.089 H 
ATOM      5  C   LIG d   1      10.250   7.111  -1.222  0.00  0.00     0.022 C 
ATOM      6  C   LIG d   1      10.501   8.373  -0.437  0.00  0.00    -0.000 A 
ATOM      7  C   LIG d   1       9.595   9.415  -0.542  0.00  0.00    -0.055 A 
ATOM      8  C   LIG d   1       9.792  10.585   0.165  0.00  0.00    -0.061 A 
ATOM      9  C   LIG d   1      10.898  10.720   0.983  0.00  0.00    -0.058 A 
ATOM     10  C   LIG d   1      11.805   9.686   1.091  0.00  0.00    -0.020 A 
ATOM     11  C   LIG d   1      11.611   8.506   0.378  0.00  0.00     0.124 A 
ATOM     12  O   LIG d   1      12.531   7.515   0.503  0.00  0.00    -0.483 OA
ATOM     13  H   LIG d   1       9.485   6.518  -0.720  0.00  0.00     0.037 H 
ATOM     14  H   LIG d   1       9.909   7.368  -2.224  0.00  0.00     0.037 H 
ATOM     15  H   LIG d   1       8.730   9.312  -1.181  0.00  0.00     0.062 H 
ATOM     16  H   LIG d   1       9.082  11.394   0.079  0.00  0.00     0.062 H 
ATOM     17  H   LIG d   1      11.052  11.634   1.537  0.00  0.00     0.062 H 
ATOM     18  H   LIG d   1      12.670   9.792   1.730  0.00  0.00     0.065 H 
ENDROOT
BRANCH   3  19
ATOM     19  N   LIG d   1      11.225   4.938  -1.800  0.00  0.00     0.236 N 
ATOM     20  H   LIG d   1      11.122   4.311  -0.992  0.00  0.00     0.203 HD
BRANCH  19  21
ATOM     21  C   LIG d   1       9.958   4.955  -2.560  0.00  0.00    -0.043 C 
ATOM     22  H   LIG d   1       9.875   5.870  -3.145  0.00  0.00     0.078 H 
ATOM     23  H   LIG d   1       9.933   4.093  -3.227  0.00  0.00     0.078 H 
ATOM     24  H   LIG d   1       9.125   4.895  -1.860  0.00  0.00     0.078 H 
ENDBRANCH  19  21
BRANCH  19  25
ATOM     25  C   LIG d   1      12.322   4.437  -2.657  0.00  0.00    -0.043 C 
ATOM     26  H   LIG d   1      13.247   4.432  -2.081  0.00  0.00     0.078 H 
ATOM     27  H   LIG d   1      12.086   3.422  -2.977  0.00  0.00     0.078 H 
ATOM     28  H   LIG d   1      12.442   5.075  -3.534  0.00  0.00     0.078 H 
ENDBRANCH  19  25
ENDBRANCH   3  19
BRANCH   1  29
ATOM     29  C   LIG d   1      11.130   5.624   1.061  0.00  0.00    -0.022 C 
ATOM     30  H   LIG d   1      10.731   6.424   1.684  0.00  0.00     0.027 H 
ATOM     31  H   LIG d   1      10.317   5.160   0.500  0.00  0.00     0.027 H 
ATOM     32  H   LIG d   1      11.607   4.875   1.692  0.00  0.00     0.027 H 
ENDBRANCH   1  29
TORSDOF 4
ENDMDL
