MODEL 1
REMARK VINA RESULT:      -4.9      0.000      0.000
REMARK  2 active torsions:
REMARK  status: ('A' for Active; 'I' for Inactive)
REMARK    1  A    between atoms: C_1  and  O_2 
REMARK    2  A    between atoms: O_2  and  C_3 
ROOT
ATOM      1  C   LIG d   1       7.128   1.074  -3.528  0.00  0.00     0.120 A 
ATOM      2  C   LIG d   1       7.582  -0.143  -4.014  0.00  0.00    -0.019 A 
ATOM      3  C   LIG d   1       6.748  -1.242  -4.001  0.00  0.00    -0.050 A 
ATOM      4  C   LIG d   1       5.456  -1.137  -3.505  0.00  0.00     0.001 A 
ATOM      5  C   LIG d   1       5.005   0.072  -3.019  0.00  0.00    -0.031 A 
ATOM      6  C   LIG d   1       5.840   1.177  -3.026  0.00  0.00    -0.016 A 
ATOM      7  C   LIG d   1       3.611   0.225  -2.464  0.00  0.00     0.013 C 
ATOM      8  C   LIG d   1       2.746  -0.957  -2.904  0.00  0.00    -0.029 C 
ATOM      9  N   LIG d   1       3.459  -2.203  -2.585  0.00  0.00     0.231 N 
ATOM     10  C   LIG d   1       4.580  -2.363  -3.516  0.00  0.00    -0.007 C 
ATOM     11  H   LIG d   1       8.586  -0.231  -4.402  0.00  0.00     0.065 H 
ATOM     12  H   LIG d   1       7.101  -2.189  -4.379  0.00  0.00     0.062 H 
ATOM     13  H   LIG d   1       5.486   2.123  -2.644  0.00  0.00     0.066 H 
ATOM     14  H   LIG d   1       3.656   0.256  -1.376  0.00  0.00     0.036 H 
ATOM     15  H   LIG d   1       3.173   1.152  -2.835  0.00  0.00     0.036 H 
ATOM     16  H   LIG d   1       1.796  -0.932  -2.371  0.00  0.00     0.082 H 
ATOM     17  H   LIG d   1       2.569  -0.901  -3.977  0.00  0.00     0.082 H 
ATOM     18  H   LIG d   1       3.808  -2.160  -1.640  0.00  0.00     0.202 HD
ATOM     19  H   LIG d   1       4.192  -2.518  -4.522  0.00  0.00     0.087 H 
ATOM     20  H   LIG d   1       5.172  -3.229  -3.221  0.00  0.00     0.087 H 
ATOM     21  H   LIG d   1       2.829  -2.986  -2.678  0.00  0.00     0.202 HD
ENDROOT
BRANCH   1  22
ATOM     22  O   LIG d   1       7.944   2.161  -3.540  0.00  0.00    -0.495 OA
BRANCH  22  23
ATOM     23  C   LIG d   1       8.517   2.528  -4.796  0.00  0.00     0.079 C 
ATOM     24  H   LIG d   1       7.808   2.316  -5.595  0.00  0.00     0.066 H 
ATOM     25  H   LIG d   1       8.751   3.593  -4.791  0.00  0.00     0.066 H 
ATOM     26  H   LIG d   1       9.431   1.956  -4.959  0.00  0.00     0.066 H 
ENDBRANCH  22  23
ENDBRANCH   1  22
TORSDOF 2
ENDMDL
MODEL 2
REMARK VINA RESULT:      -4.9      2.850      4.295
REMARK  2 active torsions:
REMARK  status: ('A' for Active; 'I' for Inactive)
REMARK    1  A    between atoms: C_1  and  O_2 
REMARK    2  A    between atoms: O_2  and  C_3 
ROOT
ATOM      1  C   LIG d   1       4.837  -3.237  -4.237  0.00  0.00     0.120 A 
ATOM      2  C   LIG d   1       6.078  -2.840  -4.713  0.00  0.00    -0.019 A 
ATOM      3  C   LIG d   1       6.559  -1.582  -4.412  0.00  0.00    -0.050 A 
ATOM      4  C   LIG d   1       5.808  -0.711  -3.635  0.00  0.00     0.001 A 
ATOM      5  C   LIG d   1       4.573  -1.103  -3.164  0.00  0.00    -0.031 A 
ATOM      6  C   LIG d   1       4.084  -2.363  -3.467  0.00  0.00    -0.016 A 
ATOM      7  C   LIG d   1       3.724  -0.183  -2.324  0.00  0.00     0.013 C 
ATOM      8  C   LIG d   1       4.582   0.961  -1.782  0.00  0.00    -0.029 C 
ATOM      9  N   LIG d   1       5.317   1.568  -2.902  0.00  0.00     0.231 N 
ATOM     10  C   LIG d   1       6.377   0.650  -3.328  0.00  0.00    -0.007 C 
ATOM     11  H   LIG d   1       6.666  -3.514  -5.317  0.00  0.00     0.065 H 
ATOM     12  H   LIG d   1       7.524  -1.274  -4.782  0.00  0.00     0.062 H 
ATOM     13  H   LIG d   1       3.116  -2.668  -3.098  0.00  0.00     0.066 H 
ATOM     14  H   LIG d   1       2.919   0.225  -2.934  0.00  0.00     0.036 H 
ATOM     15  H   LIG d   1       3.298  -0.742  -1.491  0.00  0.00     0.036 H 
ATOM     16  H   LIG d   1       3.940   1.711  -1.317  0.00  0.00     0.082 H 
ATOM     17  H   LIG d   1       5.288   0.574  -1.048  0.00  0.00     0.082 H 
ATOM     18  H   LIG d   1       4.685   1.734  -3.670  0.00  0.00     0.202 HD
ATOM     19  H   LIG d   1       7.116   0.560  -2.533  0.00  0.00     0.087 H 
ATOM     20  H   LIG d   1       6.859   1.047  -4.222  0.00  0.00     0.087 H 
ATOM     21  H   LIG d   1       5.726   2.441  -2.605  0.00  0.00     0.202 HD
ENDROOT
BRANCH   1  22
ATOM     22  O   LIG d   1       4.357  -4.475  -4.528  0.00  0.00    -0.495 OA
BRANCH  22  23
ATOM     23  C   LIG d   1       4.744  -5.041  -5.782  0.00  0.00     0.079 C 
ATOM     24  H   LIG d   1       3.986  -5.751  -6.109  0.00  0.00     0.066 H 
ATOM     25  H   LIG d   1       4.843  -4.248  -6.523  0.00  0.00     0.066 H 
ATOM     26  H   LIG d   1       5.699  -5.554  -5.669  0.00  0.00     0.066 H 
ENDBRANCH  22  23
ENDBRANCH   1  22
TORSDOF 2
ENDMDL
MODEL 3
REMARK VINA RESULT:      -4.4      1.074      2.125
REMARK  2 active torsions:
REMARK  status: ('A' for Active; 'I' for Inactive)
REMARK    1  A    between atoms: C_1  and  O_2 
REMARK    2  A    between atoms: O_2  and  C_3 
ROOT
ATOM      1  C   LIG d   1       7.634   0.124  -4.178  0.00  0.00     0.120 A 
ATOM      2  C   LIG d   1       7.119   1.302  -3.659  0.00  0.00    -0.019 A 
ATOM      3  C   LIG d   1       5.871   1.305  -3.070  0.00  0.00    -0.050 A 
ATOM      4  C   LIG d   1       5.127   0.136  -2.994  0.00  0.00     0.001 A 
ATOM      5  C   LIG d   1       5.638  -1.036  -3.513  0.00  0.00    -0.031 A 
ATOM      6  C   LIG d   1       6.889  -1.043  -4.109  0.00  0.00    -0.016 A 
ATOM      7  C   LIG d   1       4.858  -2.326  -3.458  0.00  0.00     0.013 C 
ATOM      8  C   LIG d   1       3.725  -2.201  -2.438  0.00  0.00    -0.029 C 
ATOM      9  N   LIG d   1       2.967  -0.975  -2.727  0.00  0.00     0.231 N 
ATOM     10  C   LIG d   1       3.772   0.186  -2.338  0.00  0.00    -0.007 C 
ATOM     11  H   LIG d   1       7.692   2.215  -3.716  0.00  0.00     0.065 H 
ATOM     12  H   LIG d   1       5.470   2.222  -2.666  0.00  0.00     0.062 H 
ATOM     13  H   LIG d   1       7.286  -1.961  -4.516  0.00  0.00     0.066 H 
ATOM     14  H   LIG d   1       4.440  -2.539  -4.441  0.00  0.00     0.036 H 
ATOM     15  H   LIG d   1       5.523  -3.138  -3.163  0.00  0.00     0.036 H 
ATOM     16  H   LIG d   1       3.066  -3.066  -2.518  0.00  0.00     0.082 H 
ATOM     17  H   LIG d   1       4.141  -2.146  -1.433  0.00  0.00     0.082 H 
ATOM     18  H   LIG d   1       2.763  -0.928  -3.714  0.00  0.00     0.202 HD
ATOM     19  H   LIG d   1       3.897   0.190  -1.255  0.00  0.00     0.087 H 
ATOM     20  H   LIG d   1       3.260   1.099  -2.644  0.00  0.00     0.087 H 
ATOM     21  H   LIG d   1       2.105  -0.978  -2.203  0.00  0.00     0.202 HD
ENDROOT
BRANCH   1  22
ATOM     22  O   LIG d   1       8.863   0.114  -4.759  0.00  0.00    -0.495 OA
BRANCH  22  23
ATOM     23  C   LIG d   1       9.545   1.366  -4.856  0.00  0.00     0.079 C 
ATOM     24  H   LIG d   1      10.467   1.235  -5.421  0.00  0.00     0.066 H 
ATOM     25  H   LIG d   1       8.906   2.088  -5.365  0.00  0.00     0.066 H 
ATOM     26  H   LIG d   1       9.779   1.730  -3.856  0.00  0.00     0.066 H 
ENDBRANCH  22  23
ENDBRANCH   1  22
TORSDOF 2
ENDMDL
MODEL 4
REMARK VINA RESULT:      -4.3      3.380      4.328
REMARK  2 active torsions:
REMARK  status: ('A' for Active; 'I' for Inactive)
REMARK    1  A    between atoms: C_1  and  O_2 
REMARK    2  A    between atoms: O_2  and  C_3 
ROOT
ATOM      1  C   LIG d   1       3.466   0.014  -6.910  0.00  0.00     0.120 A 
ATOM      2  C   LIG d   1       2.468   0.618  -6.160  0.00  0.00    -0.019 A 
ATOM      3  C   LIG d   1       2.387   0.376  -4.803  0.00  0.00    -0.050 A 
ATOM      4  C   LIG d   1       3.298  -0.468  -4.185  0.00  0.00     0.001 A 
ATOM      5  C   LIG d   1       4.290  -1.071  -4.931  0.00  0.00    -0.031 A 
ATOM      6  C   LIG d   1       4.372  -0.834  -6.293  0.00  0.00    -0.016 A 
ATOM      7  C   LIG d   1       5.294  -2.000  -4.298  0.00  0.00     0.013 C 
ATOM      8  C   LIG d   1       5.285  -1.815  -2.780  0.00  0.00    -0.029 C 
ATOM      9  N   LIG d   1       3.896  -1.909  -2.304  0.00  0.00     0.231 N 
ATOM     10  C   LIG d   1       3.174  -0.697  -2.701  0.00  0.00    -0.007 C 
ATOM     11  H   LIG d   1       1.755   1.275  -6.635  0.00  0.00     0.065 H 
ATOM     12  H   LIG d   1       1.610   0.846  -4.220  0.00  0.00     0.062 H 
ATOM     13  H   LIG d   1       5.148  -1.309  -6.876  0.00  0.00     0.066 H 
ATOM     14  H   LIG d   1       5.037  -3.031  -4.539  0.00  0.00     0.036 H 
ATOM     15  H   LIG d   1       6.289  -1.776  -4.684  0.00  0.00     0.036 H 
ATOM     16  H   LIG d   1       5.885  -2.597  -2.313  0.00  0.00     0.082 H 
ATOM     17  H   LIG d   1       5.693  -0.837  -2.527  0.00  0.00     0.082 H 
ATOM     18  H   LIG d   1       3.452  -2.716  -2.715  0.00  0.00     0.202 HD
ATOM     19  H   LIG d   1       3.588   0.159  -2.169  0.00  0.00     0.087 H 
ATOM     20  H   LIG d   1       2.120  -0.805  -2.443  0.00  0.00     0.087 H 
ATOM     21  H   LIG d   1       3.888  -1.993  -1.300  0.00  0.00     0.202 HD
ENDROOT
BRANCH   1  22
ATOM     22  O   LIG d   1       3.552   0.249  -8.246  0.00  0.00    -0.495 OA
BRANCH  22  23
ATOM     23  C   LIG d   1       2.918   1.431  -8.739  0.00  0.00     0.079 C 
ATOM     24  H   LIG d   1       3.677   2.161  -9.018  0.00  0.00     0.066 H 
ATOM     25  H   LIG d   1       2.314   1.183  -9.611  0.00  0.00     0.066 H 
ATOM     26  H   LIG d   1       2.279   1.851  -7.962  0.00  0.00     0.066 H 
ENDBRANCH  22  23
ENDBRANCH   1  22
TORSDOF 2
ENDMDL
MODEL 5
REMARK VINA RESULT:      -4.2      2.641      4.642
REMARK  2 active torsions:
REMARK  status: ('A' for Active; 'I' for Inactive)
REMARK    1  A    between atoms: C_1  and  O_2 
REMARK    2  A    between atoms: O_2  and  C_3 
ROOT
ATOM      1  C   LIG d   1       5.103  -0.306  -2.690  0.00  0.00     0.120 A 
ATOM      2  C   LIG d   1       5.519   1.006  -2.863  0.00  0.00    -0.019 A 
ATOM      3  C   LIG d   1       6.706   1.269  -3.516  0.00  0.00    -0.050 A 
ATOM      4  C   LIG d   1       7.487   0.229  -3.999  0.00  0.00     0.001 A 
ATOM      5  C   LIG d   1       7.075  -1.076  -3.825  0.00  0.00    -0.031 A 
ATOM      6  C   LIG d   1       5.886  -1.345  -3.167  0.00  0.00    -0.016 A 
ATOM      7  C   LIG d   1       7.899  -2.234  -4.328  0.00  0.00     0.013 C 
ATOM      8  C   LIG d   1       8.927  -1.734  -5.344  0.00  0.00    -0.029 C 
ATOM      9  N   LIG d   1       9.657  -0.603  -4.754  0.00  0.00     0.231 N 
ATOM     10  C   LIG d   1       8.772   0.565  -4.709  0.00  0.00    -0.007 C 
ATOM     11  H   LIG d   1       4.916   1.819  -2.489  0.00  0.00     0.065 H 
ATOM     12  H   LIG d   1       7.030   2.290  -3.651  0.00  0.00     0.062 H 
ATOM     13  H   LIG d   1       5.566  -2.367  -3.029  0.00  0.00     0.066 H 
ATOM     14  H   LIG d   1       8.414  -2.703  -3.491  0.00  0.00     0.036 H 
ATOM     15  H   LIG d   1       7.244  -2.964  -4.805  0.00  0.00     0.036 H 
ATOM     16  H   LIG d   1       9.626  -2.537  -5.581  0.00  0.00     0.082 H 
ATOM     17  H   LIG d   1       8.419  -1.409  -6.250  0.00  0.00     0.082 H 
ATOM     18  H   LIG d   1       9.949  -0.840  -3.817  0.00  0.00     0.202 HD
ATOM     19  H   LIG d   1       8.548   0.884  -5.727  0.00  0.00     0.087 H 
ATOM     20  H   LIG d   1       9.272   1.376  -4.180  0.00  0.00     0.087 H 
ATOM     21  H   LIG d   1      10.467  -0.391  -5.317  0.00  0.00     0.202 HD
ENDROOT
BRANCH   1  22
ATOM     22  O   LIG d   1       3.933  -0.572  -2.049  0.00  0.00    -0.495 OA
BRANCH  22  23
ATOM     23  C   LIG d   1       2.795  -0.849  -2.867  0.00  0.00     0.079 C 
ATOM     24  H   LIG d   1       3.126  -1.137  -3.864  0.00  0.00     0.066 H 
ATOM     25  H   LIG d   1       2.221  -1.664  -2.426  0.00  0.00     0.066 H 
ATOM     26  H   LIG d   1       2.171   0.042  -2.934  0.00  0.00     0.066 H 
ENDBRANCH  22  23
ENDBRANCH   1  22
TORSDOF 2
ENDMDL
MODEL 6
REMARK VINA RESULT:      -4.2      7.264      7.565
REMARK  2 active torsions:
REMARK  status: ('A' for Active; 'I' for Inactive)
REMARK    1  A    between atoms: C_1  and  O_2 
REMARK    2  A    between atoms: O_2  and  C_3 
ROOT
ATOM      1  C   LIG d   1       4.562   1.752  -9.565  0.00  0.00     0.120 A 
ATOM      2  C   LIG d   1       3.597   1.660  -8.573  0.00  0.00    -0.019 A 
ATOM      3  C   LIG d   1       2.513   0.824  -8.746  0.00  0.00    -0.050 A 
ATOM      4  C   LIG d   1       2.381   0.075  -9.906  0.00  0.00     0.001 A 
ATOM      5  C   LIG d   1       3.339   0.168 -10.894  0.00  0.00    -0.031 A 
ATOM      6  C   LIG d   1       4.428   1.008 -10.727  0.00  0.00    -0.016 A 
ATOM      7  C   LIG d   1       3.229  -0.624 -12.173  0.00  0.00     0.013 C 
ATOM      8  C   LIG d   1       2.213  -1.753 -11.996  0.00  0.00    -0.029 C 
ATOM      9  N   LIG d   1       0.970  -1.185 -11.453  0.00  0.00     0.231 N 
ATOM     10  C   LIG d   1       1.183  -0.827 -10.048  0.00  0.00    -0.007 C 
ATOM     11  H   LIG d   1       3.694   2.241  -7.668  0.00  0.00     0.065 H 
ATOM     12  H   LIG d   1       1.762   0.753  -7.974  0.00  0.00     0.062 H 
ATOM     13  H   LIG d   1       5.176   1.081 -11.502  0.00  0.00     0.066 H 
ATOM     14  H   LIG d   1       2.904   0.033 -12.979  0.00  0.00     0.036 H 
ATOM     15  H   LIG d   1       4.202  -1.048 -12.421  0.00  0.00     0.036 H 
ATOM     16  H   LIG d   1       2.012  -2.218 -12.961  0.00  0.00     0.082 H 
ATOM     17  H   LIG d   1       2.608  -2.496 -11.304  0.00  0.00     0.082 H 
ATOM     18  H   LIG d   1       0.719  -0.360 -11.977  0.00  0.00     0.202 HD
ATOM     19  H   LIG d   1       1.346  -1.735  -9.467  0.00  0.00     0.087 H 
ATOM     20  H   LIG d   1       0.300  -0.312  -9.669  0.00  0.00     0.087 H 
ATOM     21  H   LIG d   1       0.229  -1.866 -11.519  0.00  0.00     0.202 HD
ENDROOT
BRANCH   1  22
ATOM     22  O   LIG d   1       5.634   2.572  -9.401  0.00  0.00    -0.495 OA
BRANCH  22  23
ATOM     23  C   LIG d   1       6.818   1.989  -8.853  0.00  0.00     0.079 C 
ATOM     24  H   LIG d   1       7.421   2.765  -8.383  0.00  0.00     0.066 H 
ATOM     25  H   LIG d   1       6.544   1.242  -8.108  0.00  0.00     0.066 H 
ATOM     26  H   LIG d   1       7.391   1.515  -9.649  0.00  0.00     0.066 H 
ENDBRANCH  22  23
ENDBRANCH   1  22
TORSDOF 2
ENDMDL
MODEL 7
REMARK VINA RESULT:      -4.2      3.576      3.913
REMARK  2 active torsions:
REMARK  status: ('A' for Active; 'I' for Inactive)
REMARK    1  A    between atoms: C_1  and  O_2 
REMARK    2  A    between atoms: O_2  and  C_3 
ROOT
ATOM      1  C   LIG d   1       3.300   0.296  -7.044  0.00  0.00     0.120 A 
ATOM      2  C   LIG d   1       4.582  -0.179  -7.273  0.00  0.00    -0.019 A 
ATOM      3  C   LIG d   1       5.286  -0.778  -6.249  0.00  0.00    -0.050 A 
ATOM      4  C   LIG d   1       4.719  -0.908  -4.989  0.00  0.00     0.001 A 
ATOM      5  C   LIG d   1       3.444  -0.433  -4.759  0.00  0.00    -0.031 A 
ATOM      6  C   LIG d   1       2.735   0.172  -5.784  0.00  0.00    -0.016 A 
ATOM      7  C   LIG d   1       2.796  -0.548  -3.403  0.00  0.00     0.013 C 
ATOM      8  C   LIG d   1       3.551  -1.571  -2.553  0.00  0.00    -0.029 C 
ATOM      9  N   LIG d   1       4.983  -1.238  -2.582  0.00  0.00     0.231 N 
ATOM     10  C   LIG d   1       5.524  -1.573  -3.903  0.00  0.00    -0.007 C 
ATOM     11  H   LIG d   1       5.029  -0.080  -8.251  0.00  0.00     0.065 H 
ATOM     12  H   LIG d   1       6.284  -1.147  -6.428  0.00  0.00     0.062 H 
ATOM     13  H   LIG d   1       1.739   0.545  -5.601  0.00  0.00     0.066 H 
ATOM     14  H   LIG d   1       2.818   0.422  -2.907  0.00  0.00     0.036 H 
ATOM     15  H   LIG d   1       1.761  -0.870  -3.522  0.00  0.00     0.036 H 
ATOM     16  H   LIG d   1       3.188  -1.532  -1.526  0.00  0.00     0.082 H 
ATOM     17  H   LIG d   1       3.399  -2.569  -2.961  0.00  0.00     0.082 H 
ATOM     18  H   LIG d   1       5.105  -0.252  -2.408  0.00  0.00     0.202 HD
ATOM     19  H   LIG d   1       5.490  -2.653  -4.042  0.00  0.00     0.087 H 
ATOM     20  H   LIG d   1       6.558  -1.235  -3.965  0.00  0.00     0.087 H 
ATOM     21  H   LIG d   1       5.468  -1.769  -1.875  0.00  0.00     0.202 HD
ENDROOT
BRANCH   1  22
ATOM     22  O   LIG d   1       2.600   0.886  -8.049  0.00  0.00    -0.495 OA
BRANCH  22  23
ATOM     23  C   LIG d   1       3.176   2.052  -8.642  0.00  0.00     0.079 C 
ATOM     24  H   LIG d   1       3.265   2.835  -7.891  0.00  0.00     0.066 H 
ATOM     25  H   LIG d   1       4.164   1.810  -9.033  0.00  0.00     0.066 H 
ATOM     26  H   LIG d   1       2.537   2.398  -9.455  0.00  0.00     0.066 H 
ENDBRANCH  22  23
ENDBRANCH   1  22
TORSDOF 2
ENDMDL
MODEL 8
REMARK VINA RESULT:      -4.1      3.659      4.696
REMARK  2 active torsions:
REMARK  status: ('A' for Active; 'I' for Inactive)
REMARK    1  A    between atoms: C_1  and  O_2 
REMARK    2  A    between atoms: O_2  and  C_3 
ROOT
ATOM      1  C   LIG d   1       4.216  -0.197  -3.785  0.00  0.00     0.120 A 
ATOM      2  C   LIG d   1       2.985   0.394  -4.030  0.00  0.00    -0.019 A 
ATOM      3  C   LIG d   1       2.504   0.468  -5.321  0.00  0.00    -0.050 A 
ATOM      4  C   LIG d   1       3.243  -0.047  -6.377  0.00  0.00     0.001 A 
ATOM      5  C   LIG d   1       4.468  -0.633  -6.135  0.00  0.00    -0.031 A 
ATOM      6  C   LIG d   1       4.958  -0.705  -4.841  0.00  0.00    -0.016 A 
ATOM      7  C   LIG d   1       5.305  -1.196  -7.255  0.00  0.00     0.013 C 
ATOM      8  C   LIG d   1       4.442  -1.379  -8.504  0.00  0.00    -0.029 C 
ATOM      9  N   LIG d   1       3.730  -0.121  -8.771  0.00  0.00     0.231 N 
ATOM     10  C   LIG d   1       2.674   0.051  -7.768  0.00  0.00    -0.007 C 
ATOM     11  H   LIG d   1       2.406   0.797  -3.213  0.00  0.00     0.065 H 
ATOM     12  H   LIG d   1       1.546   0.928  -5.512  0.00  0.00     0.062 H 
ATOM     13  H   LIG d   1       5.917  -1.162  -4.653  0.00  0.00     0.066 H 
ATOM     14  H   LIG d   1       6.122  -0.511  -7.476  0.00  0.00     0.036 H 
ATOM     15  H   LIG d   1       5.713  -2.160  -6.952  0.00  0.00     0.036 H 
ATOM     16  H   LIG d   1       5.078  -1.627  -9.354  0.00  0.00     0.082 H 
ATOM     17  H   LIG d   1       3.721  -2.179  -8.337  0.00  0.00     0.082 H 
ATOM     18  H   LIG d   1       4.377   0.652  -8.715  0.00  0.00     0.202 HD
ATOM     19  H   LIG d   1       1.920  -0.724  -7.904  0.00  0.00     0.087 H 
ATOM     20  H   LIG d   1       2.211   1.029  -7.898  0.00  0.00     0.087 H 
ATOM     21  H   LIG d   1       3.319  -0.153  -9.691  0.00  0.00     0.202 HD
ENDROOT
BRANCH   1  22
ATOM     22  O   LIG d   1       4.696  -0.273  -2.516  0.00  0.00    -0.495 OA
BRANCH  22  23
ATOM     23  C   LIG d   1       4.555   0.891  -1.698  0.00  0.00     0.079 C 
ATOM     24  H   LIG d   1       3.845   0.688  -0.897  0.00  0.00     0.066 H 
ATOM     25  H   LIG d   1       5.522   1.152  -1.269  0.00  0.00     0.066 H 
ATOM     26  H   LIG d   1       4.191   1.719  -2.306  0.00  0.00     0.066 H 
ENDBRANCH  22  23
ENDBRANCH   1  22
TORSDOF 2
ENDMDL
MODEL 9
REMARK VINA RESULT:      -4.1      7.933      9.694
REMARK  2 active torsions:
REMARK  status: ('A' for Active; 'I' for Inactive)
REMARK    1  A    between atoms: C_1  and  O_2 
REMARK    2  A    between atoms: O_2  and  C_3 
ROOT
ATOM      1  C   LIG d   1       9.530   9.124  -0.912  0.00  0.00     0.120 A 
ATOM      2  C   LIG d   1      10.415   9.195   0.153  0.00  0.00    -0.019 A 
ATOM      3  C   LIG d   1      11.176   8.093   0.487  0.00  0.00    -0.050 A 
ATOM      4  C   LIG d   1      11.061   6.914  -0.236  0.00  0.00     0.001 A 
ATOM      5  C   LIG d   1      10.179   6.843  -1.294  0.00  0.00    -0.031 A 
ATOM      6  C   LIG d   1       9.410   7.945  -1.630  0.00  0.00    -0.016 A 
ATOM      7  C   LIG d   1      10.019   5.578  -2.099  0.00  0.00     0.013 C 
ATOM      8  C   LIG d   1      11.203   4.646  -1.839  0.00  0.00    -0.029 C 
ATOM      9  N   LIG d   1      11.371   4.495  -0.386  0.00  0.00     0.231 N 
ATOM     10  C   LIG d   1      11.916   5.740   0.163  0.00  0.00    -0.007 C 
ATOM     11  H   LIG d   1      10.509  10.109   0.720  0.00  0.00     0.065 H 
ATOM     12  H   LIG d   1      11.865   8.148   1.317  0.00  0.00     0.062 H 
ATOM     13  H   LIG d   1       8.719   7.886  -2.457  0.00  0.00     0.066 H 
ATOM     14  H   LIG d   1       9.095   5.079  -1.811  0.00  0.00     0.036 H 
ATOM     15  H   LIG d   1       9.980   5.827  -3.160  0.00  0.00     0.036 H 
ATOM     16  H   LIG d   1      11.007   3.672  -2.288  0.00  0.00     0.082 H 
ATOM     17  H   LIG d   1      12.108   5.074  -2.269  0.00  0.00     0.082 H 
ATOM     18  H   LIG d   1      10.476   4.302   0.039  0.00  0.00     0.202 HD
ATOM     19  H   LIG d   1      12.928   5.887  -0.216  0.00  0.00     0.087 H 
ATOM     20  H   LIG d   1      11.947   5.671   1.250  0.00  0.00     0.087 H 
ATOM     21  H   LIG d   1      12.006   3.736  -0.196  0.00  0.00     0.202 HD
ENDROOT
BRANCH   1  22
ATOM     22  O   LIG d   1       8.778  10.206  -1.247  0.00  0.00    -0.495 OA
BRANCH  22  23
ATOM     23  C   LIG d   1       9.222  10.983  -2.362  0.00  0.00     0.079 C 
ATOM     24  H   LIG d   1       9.405  10.328  -3.212  0.00  0.00     0.066 H 
ATOM     25  H   LIG d   1       8.456  11.713  -2.623  0.00  0.00     0.066 H 
ATOM     26  H   LIG d   1      10.144  11.502  -2.098  0.00  0.00     0.066 H 
ENDBRANCH  22  23
ENDBRANCH   1  22
TORSDOF 2
ENDMDL
MODEL 10
REMARK VINA RESULT:      -4.0      2.826      4.125
REMARK  2 active torsions:
REMARK  status: ('A' for Active; 'I' for Inactive)
REMARK    1  A    between atoms: C_1  and  O_2 
REMARK    2  A    between atoms: O_2  and  C_3 
ROOT
ATOM      1  C   LIG d   1       4.851  -1.252  -2.850  0.00  0.00     0.120 A 
ATOM      2  C   LIG d   1       6.208  -0.969  -2.835  0.00  0.00    -0.019 A 
ATOM      3  C   LIG d   1       7.083  -1.761  -3.551  0.00  0.00    -0.050 A 
ATOM      4  C   LIG d   1       6.612  -2.840  -4.286  0.00  0.00     0.001 A 
ATOM      5  C   LIG d   1       5.262  -3.124  -4.299  0.00  0.00    -0.031 A 
ATOM      6  C   LIG d   1       4.381  -2.334  -3.578  0.00  0.00    -0.016 A 
ATOM      7  C   LIG d   1       4.712  -4.292  -5.078  0.00  0.00     0.013 C 
ATOM      8  C   LIG d   1       5.751  -4.772  -6.092  0.00  0.00    -0.029 C 
ATOM      9  N   LIG d   1       7.029  -4.979  -5.393  0.00  0.00     0.231 N 
ATOM     10  C   LIG d   1       7.603  -3.673  -5.056  0.00  0.00    -0.007 C 
ATOM     11  H   LIG d   1       6.581  -0.131  -2.265  0.00  0.00     0.065 H 
ATOM     12  H   LIG d   1       8.139  -1.540  -3.540  0.00  0.00     0.062 H 
ATOM     13  H   LIG d   1       3.325  -2.559  -3.588  0.00  0.00     0.066 H 
ATOM     14  H   LIG d   1       4.472  -5.104  -4.392  0.00  0.00     0.036 H 
ATOM     15  H   LIG d   1       3.809  -3.983  -5.604  0.00  0.00     0.036 H 
ATOM     16  H   LIG d   1       5.422  -5.712  -6.536  0.00  0.00     0.082 H 
ATOM     17  H   LIG d   1       5.878  -4.022  -6.871  0.00  0.00     0.082 H 
ATOM     18  H   LIG d   1       6.870  -5.506  -4.547  0.00  0.00     0.202 HD
ATOM     19  H   LIG d   1       7.875  -3.152  -5.974  0.00  0.00     0.087 H 
ATOM     20  H   LIG d   1       8.497  -3.819  -4.448  0.00  0.00     0.087 H 
ATOM     21  H   LIG d   1       7.665  -5.483  -5.991  0.00  0.00     0.202 HD
ENDROOT
BRANCH   1  22
ATOM     22  O   LIG d   1       3.984  -0.475  -2.148  0.00  0.00    -0.495 OA
BRANCH  22  23
ATOM     23  C   LIG d   1       4.439   0.826  -1.772  0.00  0.00     0.079 C 
ATOM     24  H   LIG d   1       5.466   0.963  -2.107  0.00  0.00     0.066 H 
ATOM     25  H   LIG d   1       3.803   1.581  -2.234  0.00  0.00     0.066 H 
ATOM     26  H   LIG d   1       4.393   0.927  -0.687  0.00  0.00     0.066 H 
ENDBRANCH  22  23
ENDBRANCH   1  22
TORSDOF 2
ENDMDL
