MODEL 1
REMARK VINA RESULT:      -6.8      0.000      0.000
REMARK  11 active torsions:
REMARK  status: ('A' for Active; 'I' for Inactive)
REMARK    1  A    between atoms: C_1  and  O_2 
REMARK    2  A    between atoms: O_2  and  C_3 
REMARK    3  A    between atoms: C_6  and  C_11 
REMARK    4  A    between atoms: C_8  and  O_9 
REMARK    5  A    between atoms: O_9  and  C_10 
REMARK    6  A    between atoms: C_14  and  N_33 
REMARK    7  A    between atoms: C_16  and  C_17 
REMARK    8  A    between atoms: C_20  and  O_24 
REMARK    9  A    between atoms: C_22  and  O_23 
REMARK   10  A    between atoms: O_24  and  C_25 
REMARK   11  A    between atoms: C_25  and  C_26 
ROOT
ATOM      1  C   LIG d   1       3.821  -3.638  -9.739  0.00  0.00     0.027 A 
ATOM      2  C   LIG d   1       3.205  -4.019 -10.931  0.00  0.00     0.041 A 
ATOM      3  N   LIG d   1       3.092  -5.305 -11.215  0.00  0.00    -0.223 NA
ATOM      4  C   LIG d   1       3.559  -6.232 -10.391  0.00  0.00     0.213 A 
ATOM      5  N   LIG d   1       4.156  -5.922  -9.251  0.00  0.00    -0.214 NA
ATOM      6  C   LIG d   1       4.310  -4.650  -8.889  0.00  0.00     0.087 A 
ATOM      7  H   LIG d   1       2.820  -3.273 -11.611  0.00  0.00     0.084 H 
ENDROOT
BRANCH   6   8
ATOM      8  C   LIG d   1       4.976  -4.305  -7.615  0.00  0.00     0.043 A 
ATOM      9  C   LIG d   1       4.333  -4.554  -6.396  0.00  0.00     0.130 A 
ATOM     10  C   LIG d   1       4.962  -4.228  -5.207  0.00  0.00     0.022 A 
ATOM     11  C   LIG d   1       6.227  -3.658  -5.224  0.00  0.00     0.124 A 
ATOM     12  H   LIG d   1       4.469  -4.418  -4.265  0.00  0.00     0.069 H 
ATOM     13  C   LIG d   1       6.864  -3.407  -6.434  0.00  0.00    -0.019 A 
ATOM     14  C   LIG d   1       6.248  -3.732  -7.622  0.00  0.00    -0.046 A 
ATOM     15  H   LIG d   1       7.847  -2.959  -6.442  0.00  0.00     0.065 H 
ATOM     16  H   LIG d   1       6.748  -3.538  -8.561  0.00  0.00     0.063 H 
BRANCH   9  17
ATOM     17  O   LIG d   1       3.095  -5.112  -6.380  0.00  0.00    -0.506 OA
ATOM     18  H   LIG d   1       2.932  -5.726  -7.110  0.00  0.00     0.292 HD
ENDBRANCH   9  17
BRANCH  11  19
ATOM     19  O   LIG d   1       6.842  -3.340  -4.056  0.00  0.00    -0.487 OA
BRANCH  19  20
ATOM     20  C   LIG d   1       7.413  -2.033  -3.958  0.00  0.00     0.115 C 
ATOM     21  H   LIG d   1       7.674  -1.676  -4.954  0.00  0.00     0.075 H 
ATOM     22  H   LIG d   1       8.310  -2.075  -3.340  0.00  0.00     0.075 H 
BRANCH  20  23
ATOM     23  C   LIG d   1       6.415  -1.095  -3.331  0.00  0.00    -0.010 A 
ATOM     24  C   LIG d   1       6.559   0.271  -3.485  0.00  0.00    -0.053 A 
ATOM     25  C   LIG d   1       5.641   1.132  -2.915  0.00  0.00    -0.026 A 
ATOM     26  H   LIG d   1       7.390   0.665  -4.052  0.00  0.00     0.062 H 
ATOM     27  C   LIG d   1       4.576   0.627  -2.189  0.00  0.00     0.123 A 
ATOM     28  H   LIG d   1       5.754   2.199  -3.036  0.00  0.00     0.065 H 
ATOM     29  C   LIG d   1       4.433  -0.742  -2.034  0.00  0.00    -0.026 A 
ATOM     30  F   LIG d   1       3.678   1.467  -1.631  0.00  0.00    -0.205 F 
ATOM     31  C   LIG d   1       5.352  -1.601  -2.606  0.00  0.00    -0.053 A 
ATOM     32  H   LIG d   1       3.602  -1.137  -1.468  0.00  0.00     0.065 H 
ATOM     33  H   LIG d   1       5.241  -2.669  -2.486  0.00  0.00     0.062 H 
ENDBRANCH  20  23
ENDBRANCH  19  20
ENDBRANCH  11  19
ENDBRANCH   6   8
BRANCH   1  34
ATOM     34  C   LIG d   1       3.963  -2.208  -9.379  0.00  0.00    -0.011 A 
ATOM     35  C   LIG d   1       4.830  -1.389 -10.102  0.00  0.00    -0.050 A 
ATOM     36  C   LIG d   1       4.962  -0.056  -9.766  0.00  0.00    -0.016 A 
ATOM     37  H   LIG d   1       5.397  -1.796 -10.926  0.00  0.00     0.062 H 
ATOM     38  C   LIG d   1       4.236   0.470  -8.709  0.00  0.00     0.162 A 
ATOM     39  H   LIG d   1       5.633   0.577 -10.327  0.00  0.00     0.066 H 
ATOM     40  C   LIG d   1       3.370  -0.342  -7.983  0.00  0.00     0.162 A 
ATOM     41  C   LIG d   1       3.228  -1.677  -8.319  0.00  0.00    -0.009 A 
ATOM     42  H   LIG d   1       2.553  -2.308  -7.760  0.00  0.00     0.066 H 
BRANCH  38  43
ATOM     43  O   LIG d   1       4.370   1.783  -8.381  0.00  0.00    -0.491 OA
BRANCH  43  44
ATOM     44  C   LIG d   1       4.040   2.741  -9.389  0.00  0.00     0.079 C 
ATOM     45  H   LIG d   1       3.083   3.205  -9.151  0.00  0.00     0.066 H 
ATOM     46  H   LIG d   1       4.815   3.506  -9.431  0.00  0.00     0.066 H 
ATOM     47  H   LIG d   1       3.971   2.241 -10.356  0.00  0.00     0.066 H 
ENDBRANCH  43  44
ENDBRANCH  38  43
BRANCH  40  48
ATOM     48  O   LIG d   1       2.657   0.176  -6.946  0.00  0.00    -0.491 OA
BRANCH  48  49
ATOM     49  C   LIG d   1       3.193  -0.005  -5.635  0.00  0.00     0.079 C 
ATOM     50  H   LIG d   1       2.871   0.817  -4.995  0.00  0.00     0.066 H 
ATOM     51  H   LIG d   1       2.835  -0.948  -5.222  0.00  0.00     0.066 H 
ATOM     52  H   LIG d   1       4.282  -0.020  -5.685  0.00  0.00     0.066 H 
ENDBRANCH  48  49
ENDBRANCH  40  48
ENDBRANCH   1  34
BRANCH   4  53
ATOM     53  N   LIG d   1       3.418  -7.567 -10.732  0.00  0.00    -0.328 N 
ATOM     54  H   LIG d   1       2.977  -7.812 -11.559  0.00  0.00     0.145 HD
ATOM     55  H   LIG d   1       3.761  -8.257 -10.142  0.00  0.00     0.145 HD
ENDBRANCH   4  53
TORSDOF 11
ENDMDL
MODEL 2
REMARK VINA RESULT:      -6.6      7.732     10.725
REMARK  11 active torsions:
REMARK  status: ('A' for Active; 'I' for Inactive)
REMARK    1  A    between atoms: C_1  and  O_2 
REMARK    2  A    between atoms: O_2  and  C_3 
REMARK    3  A    between atoms: C_6  and  C_11 
REMARK    4  A    between atoms: C_8  and  O_9 
REMARK    5  A    between atoms: O_9  and  C_10 
REMARK    6  A    between atoms: C_14  and  N_33 
REMARK    7  A    between atoms: C_16  and  C_17 
REMARK    8  A    between atoms: C_20  and  O_24 
REMARK    9  A    between atoms: C_22  and  O_23 
REMARK   10  A    between atoms: O_24  and  C_25 
REMARK   11  A    between atoms: C_25  and  C_26 
ROOT
ATOM      1  C   LIG d   1      12.646   5.597  -3.915  0.00  0.00     0.027 A 
ATOM      2  C   LIG d   1      13.913   6.165  -4.036  0.00  0.00     0.041 A 
ATOM      3  N   LIG d   1      14.821   5.561  -4.785  0.00  0.00    -0.223 NA
ATOM      4  C   LIG d   1      14.545   4.426  -5.412  0.00  0.00     0.213 A 
ATOM      5  N   LIG d   1      13.360   3.845  -5.324  0.00  0.00    -0.214 NA
ATOM      6  C   LIG d   1      12.390   4.388  -4.592  0.00  0.00     0.087 A 
ATOM      7  H   LIG d   1      14.150   7.089  -3.529  0.00  0.00     0.084 H 
ENDROOT
BRANCH   6   8
ATOM      8  C   LIG d   1      11.065   3.738  -4.496  0.00  0.00     0.043 A 
ATOM      9  C   LIG d   1      10.844   2.730  -3.548  0.00  0.00     0.130 A 
ATOM     10  C   LIG d   1       9.601   2.125  -3.464  0.00  0.00     0.022 A 
ATOM     11  C   LIG d   1       8.579   2.518  -4.317  0.00  0.00     0.124 A 
ATOM     12  H   LIG d   1       9.427   1.348  -2.735  0.00  0.00     0.069 H 
ATOM     13  C   LIG d   1       8.799   3.514  -5.261  0.00  0.00    -0.019 A 
ATOM     14  C   LIG d   1      10.031   4.125  -5.349  0.00  0.00    -0.046 A 
ATOM     15  H   LIG d   1       8.002   3.813  -5.925  0.00  0.00     0.065 H 
ATOM     16  H   LIG d   1      10.197   4.902  -6.081  0.00  0.00     0.063 H 
BRANCH   9  17
ATOM     17  O   LIG d   1      11.845   2.348  -2.714  0.00  0.00    -0.506 OA
ATOM     18  H   LIG d   1      11.561   1.755  -2.005  0.00  0.00     0.292 HD
ENDBRANCH   9  17
BRANCH  11  19
ATOM     19  O   LIG d   1       7.362   1.922  -4.232  0.00  0.00    -0.487 OA
BRANCH  19  20
ATOM     20  C   LIG d   1       7.318   0.616  -3.652  0.00  0.00     0.115 C 
ATOM     21  H   LIG d   1       7.912   0.604  -2.738  0.00  0.00     0.075 H 
ATOM     22  H   LIG d   1       7.723  -0.108  -4.358  0.00  0.00     0.075 H 
BRANCH  20  23
ATOM     23  C   LIG d   1       5.891   0.257  -3.329  0.00  0.00    -0.010 A 
ATOM     24  C   LIG d   1       5.045   1.206  -2.788  0.00  0.00    -0.053 A 
ATOM     25  C   LIG d   1       3.734   0.879  -2.496  0.00  0.00    -0.026 A 
ATOM     26  H   LIG d   1       5.408   2.204  -2.592  0.00  0.00     0.062 H 
ATOM     27  C   LIG d   1       3.268  -0.401  -2.747  0.00  0.00     0.123 A 
ATOM     28  H   LIG d   1       3.073   1.621  -2.073  0.00  0.00     0.065 H 
ATOM     29  C   LIG d   1       4.117  -1.351  -3.289  0.00  0.00    -0.026 A 
ATOM     30  F   LIG d   1       1.988  -0.722  -2.463  0.00  0.00    -0.205 F 
ATOM     31  C   LIG d   1       5.428  -1.021  -3.580  0.00  0.00    -0.053 A 
ATOM     32  H   LIG d   1       3.755  -2.350  -3.485  0.00  0.00     0.065 H 
ATOM     33  H   LIG d   1       6.090  -1.763  -4.002  0.00  0.00     0.062 H 
ENDBRANCH  20  23
ENDBRANCH  19  20
ENDBRANCH  11  19
ENDBRANCH   6   8
BRANCH   1  34
ATOM     34  C   LIG d   1      11.597   6.244  -3.091  0.00  0.00    -0.011 A 
ATOM     35  C   LIG d   1      10.784   7.232  -3.644  0.00  0.00    -0.050 A 
ATOM     36  C   LIG d   1       9.808   7.834  -2.876  0.00  0.00    -0.016 A 
ATOM     37  H   LIG d   1      10.917   7.525  -4.675  0.00  0.00     0.062 H 
ATOM     38  C   LIG d   1       9.635   7.459  -1.552  0.00  0.00     0.162 A 
ATOM     39  H   LIG d   1       9.179   8.598  -3.307  0.00  0.00     0.066 H 
ATOM     40  C   LIG d   1      10.444   6.474  -0.993  0.00  0.00     0.162 A 
ATOM     41  C   LIG d   1      11.420   5.862  -1.761  0.00  0.00    -0.009 A 
ATOM     42  H   LIG d   1      12.045   5.094  -1.331  0.00  0.00     0.066 H 
BRANCH  38  43
ATOM     43  O   LIG d   1       8.672   8.055  -0.799  0.00  0.00    -0.491 OA
BRANCH  43  44
ATOM     44  C   LIG d   1       8.711   9.480  -0.705  0.00  0.00     0.079 C 
ATOM     45  H   LIG d   1       8.035   9.912  -1.443  0.00  0.00     0.066 H 
ATOM     46  H   LIG d   1       8.403   9.787   0.293  0.00  0.00     0.066 H 
ATOM     47  H   LIG d   1       9.727   9.829  -0.894  0.00  0.00     0.066 H 
ENDBRANCH  43  44
ENDBRANCH  38  43
BRANCH  40  48
ATOM     48  O   LIG d   1      10.272   6.106   0.305  0.00  0.00    -0.491 OA
BRANCH  48  49
ATOM     49  C   LIG d   1      11.169   6.669   1.263  0.00  0.00     0.079 C 
ATOM     50  H   LIG d   1      10.687   6.694   2.241  0.00  0.00     0.066 H 
ATOM     51  H   LIG d   1      12.071   6.060   1.319  0.00  0.00     0.066 H 
ATOM     52  H   LIG d   1      11.433   7.683   0.963  0.00  0.00     0.066 H 
ENDBRANCH  48  49
ENDBRANCH  40  48
ENDBRANCH   1  34
BRANCH   4  53
ATOM     53  N   LIG d   1      15.528   3.831  -6.184  0.00  0.00    -0.328 N 
ATOM     54  H   LIG d   1      15.349   2.991  -6.635  0.00  0.00     0.145 HD
ATOM     55  H   LIG d   1      16.397   4.254  -6.275  0.00  0.00     0.145 HD
ENDBRANCH   4  53
TORSDOF 11
ENDMDL
MODEL 3
REMARK VINA RESULT:      -6.4      3.182      6.259
REMARK  11 active torsions:
REMARK  status: ('A' for Active; 'I' for Inactive)
REMARK    1  A    between atoms: C_1  and  O_2 
REMARK    2  A    between atoms: O_2  and  C_3 
REMARK    3  A    between atoms: C_6  and  C_11 
REMARK    4  A    between atoms: C_8  and  O_9 
REMARK    5  A    between atoms: O_9  and  C_10 
REMARK    6  A    between atoms: C_14  and  N_33 
REMARK    7  A    between atoms: C_16  and  C_17 
REMARK    8  A    between atoms: C_20  and  O_24 
REMARK    9  A    between atoms: C_22  and  O_23 
REMARK   10  A    between atoms: O_24  and  C_25 
REMARK   11  A    between atoms: C_25  and  C_26 
ROOT
ATOM      1  C   LIG d   1       7.826  -3.209  -4.033  0.00  0.00     0.027 A 
ATOM      2  C   LIG d   1       8.731  -3.636  -3.062  0.00  0.00     0.041 A 
ATOM      3  N   LIG d   1       9.422  -4.744  -3.268  0.00  0.00    -0.223 NA
ATOM      4  C   LIG d   1       9.262  -5.455  -4.376  0.00  0.00     0.213 A 
ATOM      5  N   LIG d   1       8.412  -5.095  -5.324  0.00  0.00    -0.214 NA
ATOM      6  C   LIG d   1       7.678  -3.992  -5.195  0.00  0.00     0.087 A 
ATOM      7  H   LIG d   1       8.870  -3.066  -2.155  0.00  0.00     0.084 H 
ENDROOT
BRANCH   6   8
ATOM      8  C   LIG d   1       6.729  -3.591  -6.256  0.00  0.00     0.043 A 
ATOM      9  C   LIG d   1       5.416  -4.079  -6.246  0.00  0.00     0.130 A 
ATOM     10  C   LIG d   1       4.533  -3.700  -7.243  0.00  0.00     0.022 A 
ATOM     11  C   LIG d   1       4.950  -2.838  -8.248  0.00  0.00     0.124 A 
ATOM     12  H   LIG d   1       3.521  -4.074  -7.239  0.00  0.00     0.069 H 
ATOM     13  C   LIG d   1       6.254  -2.357  -8.261  0.00  0.00    -0.019 A 
ATOM     14  C   LIG d   1       7.138  -2.725  -7.271  0.00  0.00    -0.046 A 
ATOM     15  H   LIG d   1       6.574  -1.690  -9.048  0.00  0.00     0.065 H 
ATOM     16  H   LIG d   1       8.150  -2.346  -7.283  0.00  0.00     0.063 H 
BRANCH   9  17
ATOM     17  O   LIG d   1       5.010  -4.921  -5.262  0.00  0.00    -0.506 OA
ATOM     18  H   LIG d   1       5.666  -5.591  -5.022  0.00  0.00     0.292 HD
ENDBRANCH   9  17
BRANCH  11  19
ATOM     19  O   LIG d   1       4.081  -2.468  -9.224  0.00  0.00    -0.487 OA
BRANCH  19  20
ATOM     20  C   LIG d   1       2.944  -1.700  -8.823  0.00  0.00     0.115 C 
ATOM     21  H   LIG d   1       2.693  -1.934  -7.789  0.00  0.00     0.075 H 
ATOM     22  H   LIG d   1       2.098  -1.942  -9.466  0.00  0.00     0.075 H 
BRANCH  20  23
ATOM     23  C   LIG d   1       3.262  -0.232  -8.945  0.00  0.00    -0.010 A 
ATOM     24  C   LIG d   1       2.719   0.669  -8.049  0.00  0.00    -0.053 A 
ATOM     25  C   LIG d   1       3.014   2.015  -8.157  0.00  0.00    -0.026 A 
ATOM     26  H   LIG d   1       2.063   0.321  -7.265  0.00  0.00     0.062 H 
ATOM     27  C   LIG d   1       3.855   2.460  -9.163  0.00  0.00     0.123 A 
ATOM     28  H   LIG d   1       2.589   2.719  -7.457  0.00  0.00     0.065 H 
ATOM     29  C   LIG d   1       4.398   1.557 -10.061  0.00  0.00    -0.026 A 
ATOM     30  F   LIG d   1       4.144   3.775  -9.270  0.00  0.00    -0.205 F 
ATOM     31  C   LIG d   1       4.101   0.211  -9.950  0.00  0.00    -0.053 A 
ATOM     32  H   LIG d   1       5.054   1.903 -10.846  0.00  0.00     0.065 H 
ATOM     33  H   LIG d   1       4.524  -0.494 -10.651  0.00  0.00     0.062 H 
ENDBRANCH  20  23
ENDBRANCH  19  20
ENDBRANCH  11  19
ENDBRANCH   6   8
BRANCH   1  34
ATOM     34  C   LIG d   1       7.035  -1.970  -3.844  0.00  0.00    -0.011 A 
ATOM     35  C   LIG d   1       5.795  -2.024  -3.209  0.00  0.00    -0.050 A 
ATOM     36  C   LIG d   1       5.058  -0.869  -3.034  0.00  0.00    -0.016 A 
ATOM     37  H   LIG d   1       5.410  -2.968  -2.853  0.00  0.00     0.062 H 
ATOM     38  C   LIG d   1       5.549   0.345  -3.490  0.00  0.00     0.162 A 
ATOM     39  H   LIG d   1       4.098  -0.912  -2.541  0.00  0.00     0.066 H 
ATOM     40  C   LIG d   1       6.786   0.404  -4.125  0.00  0.00     0.162 A 
ATOM     41  C   LIG d   1       7.531  -0.749  -4.298  0.00  0.00    -0.009 A 
ATOM     42  H   LIG d   1       8.493  -0.704  -4.786  0.00  0.00     0.066 H 
BRANCH  38  43
ATOM     43  O   LIG d   1       4.820   1.480  -3.315  0.00  0.00    -0.491 OA
BRANCH  43  44
ATOM     44  C   LIG d   1       3.619   1.368  -2.550  0.00  0.00     0.079 C 
ATOM     45  H   LIG d   1       3.276   2.363  -2.264  0.00  0.00     0.066 H 
ATOM     46  H   LIG d   1       2.851   0.877  -3.147  0.00  0.00     0.066 H 
ATOM     47  H   LIG d   1       3.813   0.779  -1.653  0.00  0.00     0.066 H 
ENDBRANCH  43  44
ENDBRANCH  38  43
BRANCH  40  48
ATOM     48  O   LIG d   1       7.266   1.597  -4.571  0.00  0.00    -0.491 OA
BRANCH  48  49
ATOM     49  C   LIG d   1       8.412   2.126  -3.903  0.00  0.00     0.079 C 
ATOM     50  H   LIG d   1       8.187   2.253  -2.843  0.00  0.00     0.066 H 
ATOM     51  H   LIG d   1       9.249   1.437  -4.016  0.00  0.00     0.066 H 
ATOM     52  H   LIG d   1       8.673   3.091  -4.337  0.00  0.00     0.066 H 
ENDBRANCH  48  49
ENDBRANCH  40  48
ENDBRANCH   1  34
BRANCH   4  53
ATOM     53  N   LIG d   1      10.008  -6.608  -4.547  0.00  0.00    -0.328 N 
ATOM     54  H   LIG d   1      10.059  -7.029  -5.419  0.00  0.00     0.145 HD
ATOM     55  H   LIG d   1      10.480  -6.997  -3.794  0.00  0.00     0.145 HD
ENDBRANCH   4  53
TORSDOF 11
ENDMDL
MODEL 4
REMARK VINA RESULT:      -6.3      7.757     10.844
REMARK  11 active torsions:
REMARK  status: ('A' for Active; 'I' for Inactive)
REMARK    1  A    between atoms: C_1  and  O_2 
REMARK    2  A    between atoms: O_2  and  C_3 
REMARK    3  A    between atoms: C_6  and  C_11 
REMARK    4  A    between atoms: C_8  and  O_9 
REMARK    5  A    between atoms: O_9  and  C_10 
REMARK    6  A    between atoms: C_14  and  N_33 
REMARK    7  A    between atoms: C_16  and  C_17 
REMARK    8  A    between atoms: C_20  and  O_24 
REMARK    9  A    between atoms: C_22  and  O_23 
REMARK   10  A    between atoms: O_24  and  C_25 
REMARK   11  A    between atoms: C_25  and  C_26 
ROOT
ATOM      1  C   LIG d   1      12.421   5.962  -4.359  0.00  0.00     0.027 A 
ATOM      2  C   LIG d   1      13.372   6.891  -4.779  0.00  0.00     0.041 A 
ATOM      3  N   LIG d   1      13.857   6.806  -6.007  0.00  0.00    -0.223 NA
ATOM      4  C   LIG d   1      13.458   5.852  -6.836  0.00  0.00     0.213 A 
ATOM      5  N   LIG d   1      12.562   4.944  -6.483  0.00  0.00    -0.214 NA
ATOM      6  C   LIG d   1      12.024   4.959  -5.265  0.00  0.00     0.087 A 
ATOM      7  H   LIG d   1      13.706   7.673  -4.113  0.00  0.00     0.084 H 
ENDROOT
BRANCH   6   8
ATOM      8  C   LIG d   1      11.022   3.944  -4.873  0.00  0.00     0.043 A 
ATOM      9  C   LIG d   1      11.436   2.723  -4.327  0.00  0.00     0.130 A 
ATOM     10  C   LIG d   1      10.493   1.777  -3.962  0.00  0.00     0.022 A 
ATOM     11  C   LIG d   1       9.142   2.041  -4.137  0.00  0.00     0.124 A 
ATOM     12  H   LIG d   1      10.808   0.834  -3.541  0.00  0.00     0.069 H 
ATOM     13  C   LIG d   1       8.730   3.252  -4.683  0.00  0.00    -0.019 A 
ATOM     14  C   LIG d   1       9.661   4.201  -5.044  0.00  0.00    -0.046 A 
ATOM     15  H   LIG d   1       7.678   3.450  -4.821  0.00  0.00     0.065 H 
ATOM     16  H   LIG d   1       9.338   5.142  -5.465  0.00  0.00     0.063 H 
BRANCH   9  17
ATOM     17  O   LIG d   1      12.758   2.466  -4.156  0.00  0.00    -0.506 OA
ATOM     18  H   LIG d   1      13.081   2.644  -3.261  0.00  0.00     0.292 HD
ENDBRANCH   9  17
BRANCH  11  19
ATOM     19  O   LIG d   1       8.219   1.111  -3.778  0.00  0.00    -0.487 OA
BRANCH  19  20
ATOM     20  C   LIG d   1       6.894   1.580  -3.516  0.00  0.00     0.115 C 
ATOM     21  H   LIG d   1       6.492   2.051  -4.413  0.00  0.00     0.075 H 
ATOM     22  H   LIG d   1       6.920   2.307  -2.705  0.00  0.00     0.075 H 
BRANCH  20  23
ATOM     23  C   LIG d   1       6.019   0.419  -3.121  0.00  0.00    -0.010 A 
ATOM     24  C   LIG d   1       6.357  -0.864  -3.506  0.00  0.00    -0.053 A 
ATOM     25  C   LIG d   1       5.558  -1.930  -3.139  0.00  0.00    -0.026 A 
ATOM     26  H   LIG d   1       7.247  -1.034  -4.094  0.00  0.00     0.062 H 
ATOM     27  C   LIG d   1       4.418  -1.713  -2.385  0.00  0.00     0.123 A 
ATOM     28  H   LIG d   1       5.823  -2.933  -3.441  0.00  0.00     0.065 H 
ATOM     29  C   LIG d   1       4.078  -0.426  -2.001  0.00  0.00    -0.026 A 
ATOM     30  F   LIG d   1       3.636  -2.753  -2.027  0.00  0.00    -0.205 F 
ATOM     31  C   LIG d   1       4.880   0.638  -2.369  0.00  0.00    -0.053 A 
ATOM     32  H   LIG d   1       3.189  -0.255  -1.413  0.00  0.00     0.065 H 
ATOM     33  H   LIG d   1       4.616   1.642  -2.069  0.00  0.00     0.062 H 
ENDBRANCH  20  23
ENDBRANCH  19  20
ENDBRANCH  11  19
ENDBRANCH   6   8
BRANCH   1  34
ATOM     34  C   LIG d   1      11.848   6.024  -2.994  0.00  0.00    -0.011 A 
ATOM     35  C   LIG d   1      12.493   5.384  -1.936  0.00  0.00    -0.050 A 
ATOM     36  C   LIG d   1      11.959   5.442  -0.664  0.00  0.00    -0.016 A 
ATOM     37  H   LIG d   1      13.413   4.845  -2.111  0.00  0.00     0.062 H 
ATOM     38  C   LIG d   1      10.779   6.134  -0.436  0.00  0.00     0.162 A 
ATOM     39  H   LIG d   1      12.461   4.947   0.154  0.00  0.00     0.066 H 
ATOM     40  C   LIG d   1      10.130   6.774  -1.488  0.00  0.00     0.162 A 
ATOM     41  C   LIG d   1      10.664   6.725  -2.763  0.00  0.00    -0.009 A 
ATOM     42  H   LIG d   1      10.165   7.225  -3.580  0.00  0.00     0.066 H 
BRANCH  38  43
ATOM     43  O   LIG d   1      10.257   6.188   0.818  0.00  0.00    -0.491 OA
BRANCH  43  44
ATOM     44  C   LIG d   1      11.006   5.561   1.861  0.00  0.00     0.079 C 
ATOM     45  H   LIG d   1      10.337   4.962   2.480  0.00  0.00     0.066 H 
ATOM     46  H   LIG d   1      11.770   4.919   1.425  0.00  0.00     0.066 H 
ATOM     47  H   LIG d   1      11.482   6.326   2.476  0.00  0.00     0.066 H 
ENDBRANCH  43  44
ENDBRANCH  38  43
BRANCH  40  48
ATOM     48  O   LIG d   1       8.973   7.453  -1.262  0.00  0.00    -0.491 OA
BRANCH  48  49
ATOM     49  C   LIG d   1       9.089   8.832  -0.909  0.00  0.00     0.079 C 
ATOM     50  H   LIG d   1       8.094   9.273  -0.834  0.00  0.00     0.066 H 
ATOM     51  H   LIG d   1       9.598   8.921   0.051  0.00  0.00     0.066 H 
ATOM     52  H   LIG d   1       9.661   9.357  -1.674  0.00  0.00     0.066 H 
ENDBRANCH  48  49
ENDBRANCH  40  48
ENDBRANCH   1  34
BRANCH   4  53
ATOM     53  N   LIG d   1      13.994   5.804  -8.111  0.00  0.00    -0.328 N 
ATOM     54  H   LIG d   1      14.954   5.842  -8.236  0.00  0.00     0.145 HD
ATOM     55  H   LIG d   1      13.408   5.732  -8.882  0.00  0.00     0.145 HD
ENDBRANCH   4  53
TORSDOF 11
ENDMDL
MODEL 5
REMARK VINA RESULT:      -5.8     11.453     15.329
REMARK  11 active torsions:
REMARK  status: ('A' for Active; 'I' for Inactive)
REMARK    1  A    between atoms: C_1  and  O_2 
REMARK    2  A    between atoms: O_2  and  C_3 
REMARK    3  A    between atoms: C_6  and  C_11 
REMARK    4  A    between atoms: C_8  and  O_9 
REMARK    5  A    between atoms: O_9  and  C_10 
REMARK    6  A    between atoms: C_14  and  N_33 
REMARK    7  A    between atoms: C_16  and  C_17 
REMARK    8  A    between atoms: C_20  and  O_24 
REMARK    9  A    between atoms: C_22  and  O_23 
REMARK   10  A    between atoms: O_24  and  C_25 
REMARK   11  A    between atoms: C_25  and  C_26 
ROOT
ATOM      1  C   LIG d   1      10.332  10.883  -0.320  0.00  0.00     0.027 A 
ATOM      2  C   LIG d   1      10.304  11.451   0.953  0.00  0.00     0.041 A 
ATOM      3  N   LIG d   1      10.208  12.765   1.070  0.00  0.00    -0.223 NA
ATOM      4  C   LIG d   1      10.145  13.545   0.000  0.00  0.00     0.213 A 
ATOM      5  N   LIG d   1      10.173  13.055  -1.228  0.00  0.00    -0.214 NA
ATOM      6  C   LIG d   1      10.267  11.743  -1.435  0.00  0.00     0.087 A 
ATOM      7  H   LIG d   1      10.356  10.826   1.832  0.00  0.00     0.084 H 
ENDROOT
BRANCH   6   8
ATOM      8  C   LIG d   1      10.297  11.197  -2.809  0.00  0.00     0.043 A 
ATOM      9  C   LIG d   1       9.125  11.156  -3.574  0.00  0.00     0.130 A 
ATOM     10  C   LIG d   1       9.160  10.644  -4.860  0.00  0.00     0.022 A 
ATOM     11  C   LIG d   1      10.354  10.174  -5.387  0.00  0.00     0.124 A 
ATOM     12  H   LIG d   1       8.258  10.610  -5.453  0.00  0.00     0.069 H 
ATOM     13  C   LIG d   1      11.517  10.210  -4.627  0.00  0.00    -0.019 A 
ATOM     14  C   LIG d   1      11.494  10.722  -3.348  0.00  0.00    -0.046 A 
ATOM     15  H   LIG d   1      12.443   9.839  -5.041  0.00  0.00     0.065 H 
ATOM     16  H   LIG d   1      12.400  10.752  -2.761  0.00  0.00     0.063 H 
BRANCH   9  17
ATOM     17  O   LIG d   1       7.957  11.617  -3.057  0.00  0.00    -0.506 OA
ATOM     18  H   LIG d   1       7.847  11.435  -2.113  0.00  0.00     0.292 HD
ENDBRANCH   9  17
BRANCH  11  19
ATOM     19  O   LIG d   1      10.385   9.672  -6.649  0.00  0.00    -0.487 OA
BRANCH  19  20
ATOM     20  C   LIG d   1       9.250   8.913  -7.073  0.00  0.00     0.115 C 
ATOM     21  H   LIG d   1       9.081   9.077  -8.137  0.00  0.00     0.075 H 
ATOM     22  H   LIG d   1       8.371   9.232  -6.512  0.00  0.00     0.075 H 
BRANCH  20  23
ATOM     23  C   LIG d   1       9.502   7.449  -6.822  0.00  0.00    -0.010 A 
ATOM     24  C   LIG d   1       9.300   6.919  -5.562  0.00  0.00    -0.053 A 
ATOM     25  C   LIG d   1       9.525   5.575  -5.332  0.00  0.00    -0.026 A 
ATOM     26  H   LIG d   1       8.965   7.556  -4.756  0.00  0.00     0.062 H 
ATOM     27  C   LIG d   1       9.954   4.759  -6.365  0.00  0.00     0.123 A 
ATOM     28  H   LIG d   1       9.367   5.161  -4.347  0.00  0.00     0.065 H 
ATOM     29  C   LIG d   1      10.157   5.291  -7.628  0.00  0.00    -0.026 A 
ATOM     30  F   LIG d   1      10.175   3.446  -6.142  0.00  0.00    -0.205 F 
ATOM     31  C   LIG d   1       9.930   6.636  -7.854  0.00  0.00    -0.053 A 
ATOM     32  H   LIG d   1      10.491   4.655  -8.434  0.00  0.00     0.065 H 
ATOM     33  H   LIG d   1      10.089   7.051  -8.839  0.00  0.00     0.062 H 
ENDBRANCH  20  23
ENDBRANCH  19  20
ENDBRANCH  11  19
ENDBRANCH   6   8
BRANCH   1  34
ATOM     34  C   LIG d   1      10.433   9.415  -0.497  0.00  0.00    -0.011 A 
ATOM     35  C   LIG d   1       9.370   8.704  -1.051  0.00  0.00    -0.050 A 
ATOM     36  C   LIG d   1       9.465   7.336  -1.216  0.00  0.00    -0.016 A 
ATOM     37  H   LIG d   1       8.471   9.223  -1.353  0.00  0.00     0.062 H 
ATOM     38  C   LIG d   1      10.616   6.667  -0.829  0.00  0.00     0.162 A 
ATOM     39  H   LIG d   1       8.640   6.787  -1.646  0.00  0.00     0.066 H 
ATOM     40  C   LIG d   1      11.681   7.372  -0.275  0.00  0.00     0.162 A 
ATOM     41  C   LIG d   1      11.594   8.743  -0.114  0.00  0.00    -0.009 A 
ATOM     42  H   LIG d   1      12.421   9.292   0.311  0.00  0.00     0.066 H 
BRANCH  38  43
ATOM     43  O   LIG d   1      10.705   5.320  -0.993  0.00  0.00    -0.491 OA
BRANCH  43  44
ATOM     44  C   LIG d   1      10.303   4.792  -2.259  0.00  0.00     0.079 C 
ATOM     45  H   LIG d   1       9.820   5.576  -2.843  0.00  0.00     0.066 H 
ATOM     46  H   LIG d   1      11.179   4.428  -2.795  0.00  0.00     0.066 H 
ATOM     47  H   LIG d   1       9.604   3.970  -2.104  0.00  0.00     0.066 H 
ENDBRANCH  43  44
ENDBRANCH  38  43
BRANCH  40  48
ATOM     48  O   LIG d   1      12.810   6.714   0.102  0.00  0.00    -0.491 OA
BRANCH  48  49
ATOM     49  C   LIG d   1      13.936   6.804  -0.771  0.00  0.00     0.079 C 
ATOM     50  H   LIG d   1      13.600   6.727  -1.806  0.00  0.00     0.066 H 
ATOM     51  H   LIG d   1      14.437   7.760  -0.623  0.00  0.00     0.066 H 
ATOM     52  H   LIG d   1      14.631   5.992  -0.555  0.00  0.00     0.066 H 
ENDBRANCH  48  49
ENDBRANCH  40  48
ENDBRANCH   1  34
BRANCH   4  53
ATOM     53  N   LIG d   1      10.046  14.915   0.174  0.00  0.00    -0.328 N 
ATOM     54  H   LIG d   1       9.930  15.494  -0.595  0.00  0.00     0.145 HD
ATOM     55  H   LIG d   1      10.093  15.296   1.065  0.00  0.00     0.145 HD
ENDBRANCH   4  53
TORSDOF 11
ENDMDL
MODEL 6
REMARK VINA RESULT:      -5.8      8.380     11.315
REMARK  11 active torsions:
REMARK  status: ('A' for Active; 'I' for Inactive)
REMARK    1  A    between atoms: C_1  and  O_2 
REMARK    2  A    between atoms: O_2  and  C_3 
REMARK    3  A    between atoms: C_6  and  C_11 
REMARK    4  A    between atoms: C_8  and  O_9 
REMARK    5  A    between atoms: O_9  and  C_10 
REMARK    6  A    between atoms: C_14  and  N_33 
REMARK    7  A    between atoms: C_16  and  C_17 
REMARK    8  A    between atoms: C_20  and  O_24 
REMARK    9  A    between atoms: C_22  and  O_23 
REMARK   10  A    between atoms: O_24  and  C_25 
REMARK   11  A    between atoms: C_25  and  C_26 
ROOT
ATOM      1  C   LIG d   1      11.318   7.001  -3.431  0.00  0.00     0.027 A 
ATOM      2  C   LIG d   1      11.501   8.318  -3.014  0.00  0.00     0.041 A 
ATOM      3  N   LIG d   1      10.617   8.863  -2.194  0.00  0.00    -0.223 NA
ATOM      4  C   LIG d   1       9.562   8.179  -1.772  0.00  0.00     0.213 A 
ATOM      5  N   LIG d   1       9.342   6.929  -2.144  0.00  0.00    -0.214 NA
ATOM      6  C   LIG d   1      10.184   6.306  -2.966  0.00  0.00     0.087 A 
ATOM      7  H   LIG d   1      12.355   8.886  -3.351  0.00  0.00     0.084 H 
ENDROOT
BRANCH   6   8
ATOM      8  C   LIG d   1       9.936   4.908  -3.380  0.00  0.00     0.043 A 
ATOM      9  C   LIG d   1      10.392   3.849  -2.584  0.00  0.00     0.130 A 
ATOM     10  C   LIG d   1      10.156   2.542  -2.977  0.00  0.00     0.022 A 
ATOM     11  C   LIG d   1       9.470   2.285  -4.155  0.00  0.00     0.124 A 
ATOM     12  H   LIG d   1      10.507   1.723  -2.367  0.00  0.00     0.069 H 
ATOM     13  C   LIG d   1       9.021   3.335  -4.947  0.00  0.00    -0.019 A 
ATOM     14  C   LIG d   1       9.246   4.639  -4.563  0.00  0.00    -0.046 A 
ATOM     15  H   LIG d   1       8.492   3.129  -5.866  0.00  0.00     0.065 H 
ATOM     16  H   LIG d   1       8.893   5.453  -5.179  0.00  0.00     0.063 H 
BRANCH   9  17
ATOM     17  O   LIG d   1      11.062   4.103  -1.431  0.00  0.00    -0.506 OA
ATOM     18  H   LIG d   1      12.022   4.009  -1.506  0.00  0.00     0.292 HD
ENDBRANCH   9  17
BRANCH  11  19
ATOM     19  O   LIG d   1       9.241   1.002  -4.538  0.00  0.00    -0.487 OA
BRANCH  19  20
ATOM     20  C   LIG d   1       7.994   0.730  -5.182  0.00  0.00     0.115 C 
ATOM     21  H   LIG d   1       8.140  -0.029  -5.950  0.00  0.00     0.075 H 
ATOM     22  H   LIG d   1       7.617   1.644  -5.642  0.00  0.00     0.075 H 
BRANCH  20  23
ATOM     23  C   LIG d   1       7.001   0.233  -4.165  0.00  0.00    -0.010 A 
ATOM     24  C   LIG d   1       6.837  -1.123  -3.963  0.00  0.00    -0.053 A 
ATOM     25  C   LIG d   1       5.930  -1.580  -3.026  0.00  0.00    -0.026 A 
ATOM     26  H   LIG d   1       7.420  -1.828  -4.538  0.00  0.00     0.062 H 
ATOM     27  C   LIG d   1       5.184  -0.676  -2.289  0.00  0.00     0.123 A 
ATOM     28  H   LIG d   1       5.803  -2.641  -2.869  0.00  0.00     0.065 H 
ATOM     29  C   LIG d   1       5.347   0.684  -2.492  0.00  0.00    -0.026 A 
ATOM     30  F   LIG d   1       4.296  -1.120  -1.373  0.00  0.00    -0.205 F 
ATOM     31  C   LIG d   1       6.256   1.137  -3.430  0.00  0.00    -0.053 A 
ATOM     32  H   LIG d   1       4.765   1.389  -1.917  0.00  0.00     0.065 H 
ATOM     33  H   LIG d   1       6.383   2.198  -3.589  0.00  0.00     0.062 H 
ENDBRANCH  20  23
ENDBRANCH  19  20
ENDBRANCH  11  19
ENDBRANCH   6   8
BRANCH   1  34
ATOM     34  C   LIG d   1      12.287   6.350  -4.345  0.00  0.00    -0.011 A 
ATOM     35  C   LIG d   1      12.137   6.475  -5.725  0.00  0.00    -0.050 A 
ATOM     36  C   LIG d   1      13.040   5.869  -6.576  0.00  0.00    -0.016 A 
ATOM     37  H   LIG d   1      11.315   7.048  -6.130  0.00  0.00     0.062 H 
ATOM     38  C   LIG d   1      14.095   5.133  -6.059  0.00  0.00     0.162 A 
ATOM     39  H   LIG d   1      12.923   5.968  -7.644  0.00  0.00     0.066 H 
ATOM     40  C   LIG d   1      14.250   5.003  -4.682  0.00  0.00     0.162 A 
ATOM     41  C   LIG d   1      13.352   5.615  -3.825  0.00  0.00    -0.009 A 
ATOM     42  H   LIG d   1      13.473   5.520  -2.756  0.00  0.00     0.066 H 
BRANCH  38  43
ATOM     43  O   LIG d   1      14.982   4.537  -6.901  0.00  0.00    -0.491 OA
BRANCH  43  44
ATOM     44  C   LIG d   1      14.550   3.346  -7.562  0.00  0.00     0.079 C 
ATOM     45  H   LIG d   1      13.563   3.065  -7.195  0.00  0.00     0.066 H 
ATOM     46  H   LIG d   1      14.500   3.524  -8.636  0.00  0.00     0.066 H 
ATOM     47  H   LIG d   1      15.257   2.541  -7.360  0.00  0.00     0.066 H 
ENDBRANCH  43  44
ENDBRANCH  38  43
BRANCH  40  48
ATOM     48  O   LIG d   1      15.287   4.282  -4.178  0.00  0.00    -0.491 OA
BRANCH  48  49
ATOM     49  C   LIG d   1      16.376   5.016  -3.617  0.00  0.00     0.079 C 
ATOM     50  H   LIG d   1      16.538   4.695  -2.587  0.00  0.00     0.066 H 
ATOM     51  H   LIG d   1      17.278   4.832  -4.200  0.00  0.00     0.066 H 
ATOM     52  H   LIG d   1      16.144   6.081  -3.633  0.00  0.00     0.066 H 
ENDBRANCH  48  49
ENDBRANCH  40  48
ENDBRANCH   1  34
BRANCH   4  53
ATOM     53  N   LIG d   1       8.664   8.792  -0.915  0.00  0.00    -0.328 N 
ATOM     54  H   LIG d   1       7.712   8.728  -1.083  0.00  0.00     0.145 HD
ATOM     55  H   LIG d   1       8.988   9.288  -0.146  0.00  0.00     0.145 HD
ENDBRANCH   4  53
TORSDOF 11
ENDMDL
MODEL 7
REMARK VINA RESULT:      -5.7      2.979      5.549
REMARK  11 active torsions:
REMARK  status: ('A' for Active; 'I' for Inactive)
REMARK    1  A    between atoms: C_1  and  O_2 
REMARK    2  A    between atoms: O_2  and  C_3 
REMARK    3  A    between atoms: C_6  and  C_11 
REMARK    4  A    between atoms: C_8  and  O_9 
REMARK    5  A    between atoms: O_9  and  C_10 
REMARK    6  A    between atoms: C_14  and  N_33 
REMARK    7  A    between atoms: C_16  and  C_17 
REMARK    8  A    between atoms: C_20  and  O_24 
REMARK    9  A    between atoms: C_22  and  O_23 
REMARK   10  A    between atoms: O_24  and  C_25 
REMARK   11  A    between atoms: C_25  and  C_26 
ROOT
ATOM      1  C   LIG d   1       2.666  -2.547 -12.797  0.00  0.00     0.027 A 
ATOM      2  C   LIG d   1       2.696  -2.714 -14.181  0.00  0.00     0.041 A 
ATOM      3  N   LIG d   1       3.328  -1.821 -14.924  0.00  0.00    -0.223 NA
ATOM      4  C   LIG d   1       3.925  -0.772 -14.374  0.00  0.00     0.213 A 
ATOM      5  N   LIG d   1       3.919  -0.567 -13.067  0.00  0.00    -0.214 NA
ATOM      6  C   LIG d   1       3.306  -1.418 -12.248  0.00  0.00     0.087 A 
ATOM      7  H   LIG d   1       2.213  -3.563 -14.640  0.00  0.00     0.084 H 
ENDROOT
BRANCH   6   8
ATOM      8  C   LIG d   1       3.302  -1.187 -10.787  0.00  0.00     0.043 A 
ATOM      9  C   LIG d   1       4.418  -1.541 -10.017  0.00  0.00     0.130 A 
ATOM     10  C   LIG d   1       4.408  -1.322  -8.650  0.00  0.00     0.022 A 
ATOM     11  C   LIG d   1       3.295  -0.754  -8.047  0.00  0.00     0.124 A 
ATOM     12  H   LIG d   1       5.265  -1.593  -8.053  0.00  0.00     0.069 H 
ATOM     13  C   LIG d   1       2.186  -0.407  -8.809  0.00  0.00    -0.019 A 
ATOM     14  C   LIG d   1       2.188  -0.616 -10.171  0.00  0.00    -0.046 A 
ATOM     15  H   LIG d   1       1.320   0.031  -8.334  0.00  0.00     0.065 H 
ATOM     16  H   LIG d   1       1.326  -0.342 -10.761  0.00  0.00     0.063 H 
BRANCH   9  17
ATOM     17  O   LIG d   1       5.506  -2.096 -10.609  0.00  0.00    -0.506 OA
ATOM     18  H   LIG d   1       5.456  -2.124 -11.575  0.00  0.00     0.292 HD
ENDBRANCH   9  17
BRANCH  11  19
ATOM     19  O   LIG d   1       3.288  -0.541  -6.705  0.00  0.00    -0.487 OA
BRANCH  19  20
ATOM     20  C   LIG d   1       4.318  -1.175  -5.943  0.00  0.00     0.115 C 
ATOM     21  H   LIG d   1       5.269  -1.075  -6.465  0.00  0.00     0.075 H 
ATOM     22  H   LIG d   1       4.079  -2.231  -5.820  0.00  0.00     0.075 H 
BRANCH  20  23
ATOM     23  C   LIG d   1       4.415  -0.521  -4.589  0.00  0.00    -0.010 A 
ATOM     24  C   LIG d   1       5.643  -0.114  -4.104  0.00  0.00    -0.053 A 
ATOM     25  C   LIG d   1       5.732   0.491  -2.865  0.00  0.00    -0.026 A 
ATOM     26  H   LIG d   1       6.534  -0.268  -4.695  0.00  0.00     0.062 H 
ATOM     27  C   LIG d   1       4.590   0.688  -2.108  0.00  0.00     0.123 A 
ATOM     28  H   LIG d   1       6.693   0.809  -2.487  0.00  0.00     0.065 H 
ATOM     29  C   LIG d   1       3.360   0.279  -2.593  0.00  0.00    -0.026 A 
ATOM     30  F   LIG d   1       4.676   1.278  -0.896  0.00  0.00    -0.205 F 
ATOM     31  C   LIG d   1       3.274  -0.325  -3.834  0.00  0.00    -0.053 A 
ATOM     32  H   LIG d   1       2.468   0.432  -2.004  0.00  0.00     0.065 H 
ATOM     33  H   LIG d   1       2.314  -0.645  -4.213  0.00  0.00     0.062 H 
ENDBRANCH  20  23
ENDBRANCH  19  20
ENDBRANCH  11  19
ENDBRANCH   6   8
BRANCH   1  34
ATOM     34  C   LIG d   1       1.973  -3.526 -11.927  0.00  0.00    -0.011 A 
ATOM     35  C   LIG d   1       0.586  -3.483 -11.794  0.00  0.00    -0.050 A 
ATOM     36  C   LIG d   1      -0.059  -4.396 -10.983  0.00  0.00    -0.016 A 
ATOM     37  H   LIG d   1       0.015  -2.736 -12.326  0.00  0.00     0.062 H 
ATOM     38  C   LIG d   1       0.671  -5.356 -10.299  0.00  0.00     0.162 A 
ATOM     39  H   LIG d   1      -1.134  -4.361 -10.882  0.00  0.00     0.066 H 
ATOM     40  C   LIG d   1       2.056  -5.404 -10.427  0.00  0.00     0.162 A 
ATOM     41  C   LIG d   1       2.707  -4.496 -11.243  0.00  0.00    -0.009 A 
ATOM     42  H   LIG d   1       3.781  -4.534 -11.348  0.00  0.00     0.066 H 
BRANCH  38  43
ATOM     43  O   LIG d   1       0.031  -6.253  -9.501  0.00  0.00    -0.491 OA
BRANCH  43  44
ATOM     44  C   LIG d   1      -0.924  -7.112 -10.127  0.00  0.00     0.079 C 
ATOM     45  H   LIG d   1      -1.502  -6.544 -10.856  0.00  0.00     0.066 H 
ATOM     46  H   LIG d   1      -0.405  -7.927 -10.631  0.00  0.00     0.066 H 
ATOM     47  H   LIG d   1      -1.594  -7.522  -9.370  0.00  0.00     0.066 H 
ENDBRANCH  43  44
ENDBRANCH  38  43
BRANCH  40  48
ATOM     48  O   LIG d   1       2.770  -6.347  -9.756  0.00  0.00    -0.491 OA
BRANCH  48  49
ATOM     49  C   LIG d   1       3.094  -7.543 -10.466  0.00  0.00     0.079 C 
ATOM     50  H   LIG d   1       3.542  -8.263  -9.780  0.00  0.00     0.066 H 
ATOM     51  H   LIG d   1       2.187  -7.969 -10.895  0.00  0.00     0.066 H 
ATOM     52  H   LIG d   1       3.800  -7.314 -11.263  0.00  0.00     0.066 H 
ENDBRANCH  48  49
ENDBRANCH  40  48
ENDBRANCH   1  34
BRANCH   4  53
ATOM     53  N   LIG d   1       4.574   0.136 -15.193  0.00  0.00    -0.328 N 
ATOM     54  H   LIG d   1       4.063   0.698 -15.796  0.00  0.00     0.145 HD
ATOM     55  H   LIG d   1       5.541   0.211 -15.163  0.00  0.00     0.145 HD
ENDBRANCH   4  53
TORSDOF 11
ENDMDL
MODEL 8
REMARK VINA RESULT:      -5.7      3.065      5.685
REMARK  11 active torsions:
REMARK  status: ('A' for Active; 'I' for Inactive)
REMARK    1  A    between atoms: C_1  and  O_2 
REMARK    2  A    between atoms: O_2  and  C_3 
REMARK    3  A    between atoms: C_6  and  C_11 
REMARK    4  A    between atoms: C_8  and  O_9 
REMARK    5  A    between atoms: O_9  and  C_10 
REMARK    6  A    between atoms: C_14  and  N_33 
REMARK    7  A    between atoms: C_16  and  C_17 
REMARK    8  A    between atoms: C_20  and  O_24 
REMARK    9  A    between atoms: C_22  and  O_23 
REMARK   10  A    between atoms: O_24  and  C_25 
REMARK   11  A    between atoms: C_25  and  C_26 
ROOT
ATOM      1  C   LIG d   1       3.319  -3.450 -12.833  0.00  0.00     0.027 A 
ATOM      2  C   LIG d   1       3.503  -3.896 -14.142  0.00  0.00     0.041 A 
ATOM      3  N   LIG d   1       3.532  -3.012 -15.125  0.00  0.00    -0.223 NA
ATOM      4  C   LIG d   1       3.383  -1.716 -14.886  0.00  0.00     0.213 A 
ATOM      5  N   LIG d   1       3.200  -1.245 -13.663  0.00  0.00    -0.214 NA
ATOM      6  C   LIG d   1       3.159  -2.067 -12.616  0.00  0.00     0.087 A 
ATOM      7  H   LIG d   1       3.624  -4.948 -14.350  0.00  0.00     0.084 H 
ENDROOT
BRANCH   6   8
ATOM      8  C   LIG d   1       2.956  -1.538 -11.251  0.00  0.00     0.043 A 
ATOM      9  C   LIG d   1       1.668  -1.217 -10.806  0.00  0.00     0.130 A 
ATOM     10  C   LIG d   1       1.485  -0.722  -9.526  0.00  0.00     0.022 A 
ATOM     11  C   LIG d   1       2.577  -0.545  -8.688  0.00  0.00     0.124 A 
ATOM     12  H   LIG d   1       0.493  -0.473  -9.179  0.00  0.00     0.069 H 
ATOM     13  C   LIG d   1       3.856  -0.860  -9.130  0.00  0.00    -0.019 A 
ATOM     14  C   LIG d   1       4.048  -1.357 -10.400  0.00  0.00    -0.046 A 
ATOM     15  H   LIG d   1       4.703  -0.716  -8.475  0.00  0.00     0.065 H 
ATOM     16  H   LIG d   1       5.044  -1.604 -10.740  0.00  0.00     0.063 H 
BRANCH   9  17
ATOM     17  O   LIG d   1       0.601  -1.391 -11.627  0.00  0.00    -0.506 OA
ATOM     18  H   LIG d   1       0.649  -2.189 -12.171  0.00  0.00     0.292 HD
ENDBRANCH   9  17
BRANCH  11  19
ATOM     19  O   LIG d   1       2.394  -0.059  -7.433  0.00  0.00    -0.487 OA
BRANCH  19  20
ATOM     20  C   LIG d   1       3.567   0.303  -6.700  0.00  0.00     0.115 C 
ATOM     21  H   LIG d   1       3.560   1.376  -6.509  0.00  0.00     0.075 H 
ATOM     22  H   LIG d   1       4.452   0.043  -7.282  0.00  0.00     0.075 H 
BRANCH  20  23
ATOM     23  C   LIG d   1       3.592  -0.442  -5.391  0.00  0.00    -0.010 A 
ATOM     24  C   LIG d   1       2.762  -0.053  -4.358  0.00  0.00    -0.053 A 
ATOM     25  C   LIG d   1       2.780  -0.739  -3.158  0.00  0.00    -0.026 A 
ATOM     26  H   LIG d   1       2.099   0.790  -4.487  0.00  0.00     0.062 H 
ATOM     27  C   LIG d   1       3.631  -1.818  -2.992  0.00  0.00     0.123 A 
ATOM     28  H   LIG d   1       2.132  -0.433  -2.351  0.00  0.00     0.065 H 
ATOM     29  C   LIG d   1       4.463  -2.209  -4.028  0.00  0.00    -0.026 A 
ATOM     30  F   LIG d   1       3.650  -2.490  -1.821  0.00  0.00    -0.205 F 
ATOM     31  C   LIG d   1       4.442  -1.520  -5.227  0.00  0.00    -0.053 A 
ATOM     32  H   LIG d   1       5.127  -3.051  -3.900  0.00  0.00     0.065 H 
ATOM     33  H   LIG d   1       5.091  -1.824  -6.035  0.00  0.00     0.062 H 
ENDBRANCH  20  23
ENDBRANCH  19  20
ENDBRANCH  11  19
ENDBRANCH   6   8
BRANCH   1  34
ATOM     34  C   LIG d   1       3.285  -4.406 -11.702  0.00  0.00    -0.011 A 
ATOM     35  C   LIG d   1       4.474  -4.819 -11.100  0.00  0.00    -0.050 A 
ATOM     36  C   LIG d   1       4.442  -5.709 -10.046  0.00  0.00    -0.016 A 
ATOM     37  H   LIG d   1       5.420  -4.440 -11.458  0.00  0.00     0.062 H 
ATOM     38  C   LIG d   1       3.229  -6.197  -9.584  0.00  0.00     0.162 A 
ATOM     39  H   LIG d   1       5.363  -6.027  -9.581  0.00  0.00     0.066 H 
ATOM     40  C   LIG d   1       2.039  -5.790 -10.180  0.00  0.00     0.162 A 
ATOM     41  C   LIG d   1       2.065  -4.892 -11.233  0.00  0.00    -0.009 A 
ATOM     42  H   LIG d   1       1.142  -4.571 -11.694  0.00  0.00     0.066 H 
BRANCH  38  43
ATOM     43  O   LIG d   1       3.202  -7.074  -8.545  0.00  0.00    -0.491 OA
BRANCH  43  44
ATOM     44  C   LIG d   1       4.346  -7.101  -7.689  0.00  0.00     0.079 C 
ATOM     45  H   LIG d   1       4.374  -8.049  -7.150  0.00  0.00     0.066 H 
ATOM     46  H   LIG d   1       5.251  -6.997  -8.286  0.00  0.00     0.066 H 
ATOM     47  H   LIG d   1       4.285  -6.279  -6.976  0.00  0.00     0.066 H 
ENDBRANCH  43  44
ENDBRANCH  38  43
BRANCH  40  48
ATOM     48  O   LIG d   1       0.850  -6.269  -9.725  0.00  0.00    -0.491 OA
BRANCH  48  49
ATOM     49  C   LIG d   1      -0.087  -6.719 -10.704  0.00  0.00     0.079 C 
ATOM     50  H   LIG d   1      -0.238  -5.937 -11.449  0.00  0.00     0.066 H 
ATOM     51  H   LIG d   1       0.299  -7.614 -11.193  0.00  0.00     0.066 H 
ATOM     52  H   LIG d   1      -1.036  -6.950 -10.222  0.00  0.00     0.066 H 
ENDBRANCH  48  49
ENDBRANCH  40  48
ENDBRANCH   1  34
BRANCH   4  53
ATOM     53  N   LIG d   1       3.420  -0.829 -15.947  0.00  0.00    -0.328 N 
ATOM     54  H   LIG d   1       2.749  -0.878 -16.645  0.00  0.00     0.145 HD
ATOM     55  H   LIG d   1       4.120  -0.157 -15.994  0.00  0.00     0.145 HD
ENDBRANCH   4  53
TORSDOF 11
ENDMDL
MODEL 9
REMARK VINA RESULT:      -5.6      4.142      7.957
REMARK  11 active torsions:
REMARK  status: ('A' for Active; 'I' for Inactive)
REMARK    1  A    between atoms: C_1  and  O_2 
REMARK    2  A    between atoms: O_2  and  C_3 
REMARK    3  A    between atoms: C_6  and  C_11 
REMARK    4  A    between atoms: C_8  and  O_9 
REMARK    5  A    between atoms: O_9  and  C_10 
REMARK    6  A    between atoms: C_14  and  N_33 
REMARK    7  A    between atoms: C_16  and  C_17 
REMARK    8  A    between atoms: C_20  and  O_24 
REMARK    9  A    between atoms: C_22  and  O_23 
REMARK   10  A    between atoms: O_24  and  C_25 
REMARK   11  A    between atoms: C_25  and  C_26 
ROOT
ATOM      1  C   LIG d   1       4.995  -1.873  -4.062  0.00  0.00     0.027 A 
ATOM      2  C   LIG d   1       4.869  -1.959  -2.676  0.00  0.00     0.041 A 
ATOM      3  N   LIG d   1       4.577  -0.869  -1.987  0.00  0.00    -0.223 NA
ATOM      4  C   LIG d   1       4.410   0.299  -2.591  0.00  0.00     0.213 A 
ATOM      5  N   LIG d   1       4.525   0.434  -3.902  0.00  0.00    -0.214 NA
ATOM      6  C   LIG d   1       4.815  -0.615  -4.670  0.00  0.00     0.087 A 
ATOM      7  H   LIG d   1       5.003  -2.905  -2.173  0.00  0.00     0.084 H 
ENDROOT
BRANCH   6   8
ATOM      8  C   LIG d   1       4.942  -0.462  -6.136  0.00  0.00     0.043 A 
ATOM      9  C   LIG d   1       3.804  -0.224  -6.918  0.00  0.00     0.130 A 
ATOM     10  C   LIG d   1       3.930  -0.083  -8.289  0.00  0.00     0.022 A 
ATOM     11  C   LIG d   1       5.180  -0.176  -8.885  0.00  0.00     0.124 A 
ATOM     12  H   LIG d   1       3.055   0.100  -8.896  0.00  0.00     0.069 H 
ATOM     13  C   LIG d   1       6.308  -0.416  -8.110  0.00  0.00    -0.019 A 
ATOM     14  C   LIG d   1       6.194  -0.553  -6.744  0.00  0.00    -0.046 A 
ATOM     15  H   LIG d   1       7.278  -0.492  -8.579  0.00  0.00     0.065 H 
ATOM     16  H   LIG d   1       7.074  -0.737  -6.144  0.00  0.00     0.063 H 
BRANCH   9  17
ATOM     17  O   LIG d   1       2.582  -0.133  -6.333  0.00  0.00    -0.506 OA
ATOM     18  H   LIG d   1       2.588  -0.308  -5.382  0.00  0.00     0.292 HD
ENDBRANCH   9  17
BRANCH  11  19
ATOM     19  O   LIG d   1       5.299  -0.036 -10.231  0.00  0.00    -0.487 OA
BRANCH  19  20
ATOM     20  C   LIG d   1       4.243   0.650 -10.908  0.00  0.00     0.115 C 
ATOM     21  H   LIG d   1       4.660   1.467 -11.496  0.00  0.00     0.075 H 
ATOM     22  H   LIG d   1       3.542   1.049 -10.175  0.00  0.00     0.075 H 
BRANCH  20  23
ATOM     23  C   LIG d   1       3.524  -0.310 -11.819  0.00  0.00    -0.010 A 
ATOM     24  C   LIG d   1       4.142  -0.772 -12.965  0.00  0.00    -0.053 A 
ATOM     25  C   LIG d   1       3.484  -1.657 -13.798  0.00  0.00    -0.026 A 
ATOM     26  H   LIG d   1       5.141  -0.441 -13.210  0.00  0.00     0.062 H 
ATOM     27  C   LIG d   1       2.204  -2.081 -13.484  0.00  0.00     0.123 A 
ATOM     28  H   LIG d   1       3.968  -2.017 -14.693  0.00  0.00     0.065 H 
ATOM     29  C   LIG d   1       1.585  -1.618 -12.336  0.00  0.00    -0.026 A 
ATOM     30  F   LIG d   1       1.560  -2.946 -14.297  0.00  0.00    -0.205 F 
ATOM     31  C   LIG d   1       2.245  -0.733 -11.504  0.00  0.00    -0.053 A 
ATOM     32  H   LIG d   1       0.586  -1.949 -12.090  0.00  0.00     0.065 H 
ATOM     33  H   LIG d   1       1.762  -0.371 -10.608  0.00  0.00     0.062 H 
ENDBRANCH  20  23
ENDBRANCH  19  20
ENDBRANCH  11  19
ENDBRANCH   6   8
BRANCH   1  34
ATOM     34  C   LIG d   1       5.315  -3.071  -4.874  0.00  0.00    -0.011 A 
ATOM     35  C   LIG d   1       6.615  -3.575  -4.890  0.00  0.00    -0.050 A 
ATOM     36  C   LIG d   1       6.913  -4.692  -5.646  0.00  0.00    -0.016 A 
ATOM     37  H   LIG d   1       7.389  -3.095  -4.309  0.00  0.00     0.062 H 
ATOM     38  C   LIG d   1       5.922  -5.311  -6.392  0.00  0.00     0.162 A 
ATOM     39  H   LIG d   1       7.920  -5.082  -5.656  0.00  0.00     0.066 H 
ATOM     40  C   LIG d   1       4.623  -4.811  -6.381  0.00  0.00     0.162 A 
ATOM     41  C   LIG d   1       4.317  -3.697  -5.620  0.00  0.00    -0.009 A 
ATOM     42  H   LIG d   1       3.309  -3.311  -5.606  0.00  0.00     0.066 H 
BRANCH  38  43
ATOM     43  O   LIG d   1       6.221  -6.410  -7.136  0.00  0.00    -0.491 OA
BRANCH  43  44
ATOM     44  C   LIG d   1       7.229  -6.261  -8.137  0.00  0.00     0.079 C 
ATOM     45  H   LIG d   1       7.505  -5.210  -8.222  0.00  0.00     0.066 H 
ATOM     46  H   LIG d   1       8.106  -6.846  -7.860  0.00  0.00     0.066 H 
ATOM     47  H   LIG d   1       6.845  -6.615  -9.095  0.00  0.00     0.066 H 
ENDBRANCH  43  44
ENDBRANCH  38  43
BRANCH  40  48
ATOM     48  O   LIG d   1       3.653  -5.421  -7.113  0.00  0.00    -0.491 OA
BRANCH  48  49
ATOM     49  C   LIG d   1       3.489  -4.988  -8.464  0.00  0.00     0.079 C 
ATOM     50  H   LIG d   1       2.902  -5.725  -9.013  0.00  0.00     0.066 H 
ATOM     51  H   LIG d   1       2.971  -4.029  -8.478  0.00  0.00     0.066 H 
ATOM     52  H   LIG d   1       4.467  -4.880  -8.933  0.00  0.00     0.066 H 
ENDBRANCH  48  49
ENDBRANCH  40  48
ENDBRANCH   1  34
BRANCH   4  53
ATOM     53  N   LIG d   1       4.106   1.412  -1.827  0.00  0.00    -0.328 N 
ATOM     54  H   LIG d   1       3.391   2.008  -2.099  0.00  0.00     0.145 HD
ATOM     55  H   LIG d   1       4.609   1.598  -1.017  0.00  0.00     0.145 HD
ENDBRANCH   4  53
TORSDOF 11
ENDMDL
