MODEL 1
REMARK VINA RESULT:      -6.0      0.000      0.000
REMARK  8 active torsions:
REMARK  status: ('A' for Active; 'I' for Inactive)
REMARK    1  A    between atoms: C_1  and  C_2 
REMARK       I    between atoms: C_2  and  N_4 
REMARK    2  A    between atoms: N_7  and  C_10 
REMARK    3  A    between atoms: C_12  and  O_32 
REMARK    4  A    between atoms: C_14  and  N_23 
REMARK    5  A    between atoms: N_23  and  C_24 
REMARK    6  A    between atoms: C_24  and  C_25 
REMARK    7  A    between atoms: C_28  and  C_30 
REMARK    8  A    between atoms: C_30  and  O_31 
ROOT
ATOM      1  C   LIG d   1       4.886  -0.843  -8.819  0.00  0.00     0.093 C 
ATOM      2  H   LIG d   1       5.889  -1.131  -9.166  0.00  0.00     0.054 H 
ATOM      3  C   LIG d   1       4.965   0.319  -7.823  0.00  0.00     0.120 C 
ATOM      4  H   LIG d   1       5.540   0.039  -6.928  0.00  0.00     0.067 H 
ATOM      5  C   LIG d   1       3.527   0.784  -7.472  0.00  0.00     0.035 C 
ATOM      6  H   LIG d   1       3.534   1.668  -6.818  0.00  0.00     0.090 H 
ATOM      7  C   LIG d   1       2.787   1.056  -8.792  0.00  0.00     0.130 C 
ATOM      8  H   LIG d   1       1.810   1.524  -8.603  0.00  0.00     0.068 H 
ATOM      9  C   LIG d   1       3.730   1.854  -9.725  0.00  0.00     0.082 C 
ATOM     10  O   LIG d   1       4.442   0.854 -10.474  0.00  0.00    -0.347 OA
ATOM     11  C   LIG d   1       3.992  -0.428  -9.998  0.00  0.00     0.178 C 
ATOM     12  H   LIG d   1       3.984  -1.158 -10.821  0.00  0.00     0.093 H 
ATOM     13  O   LIG d   1       2.660  -0.212  -9.480  0.00  0.00    -0.339 OA
ATOM     14  H   LIG d   1       3.133   2.505 -10.379  0.00  0.00     0.059 H 
ATOM     15  H   LIG d   1       4.410   2.469  -9.118  0.00  0.00     0.059 H 
ENDROOT
BRANCH   1  16
ATOM     16  N   LIG d   1       4.310  -2.021  -8.157  0.00  0.00    -0.290 N 
ATOM     17  C   LIG d   1       5.197  -2.513  -7.094  0.00  0.00     0.015 C 
ATOM     18  C   LIG d   1       4.481  -3.623  -6.309  0.00  0.00     0.028 C 
ATOM     19  H   LIG d   1       5.452  -1.687  -6.413  0.00  0.00     0.044 H 
ATOM     20  H   LIG d   1       6.119  -2.916  -7.540  0.00  0.00     0.044 H 
ATOM     21  N   LIG d   1       4.028  -4.646  -7.263  0.00  0.00    -0.299 N 
ATOM     22  H   LIG d   1       3.612  -3.208  -5.776  0.00  0.00     0.048 H 
ATOM     23  H   LIG d   1       5.172  -4.078  -5.583  0.00  0.00     0.048 H 
ATOM     24  C   LIG d   1       4.317  -5.948  -7.070  0.00  0.00     0.212 C 
ATOM     25  C   LIG d   1       3.248  -4.210  -8.432  0.00  0.00     0.028 C 
ATOM     26  O   LIG d   1       3.859  -6.788  -7.816  0.00  0.00    -0.276 OA
ATOM     27  C   LIG d   1       4.009  -3.078  -9.130  0.00  0.00     0.015 C 
ATOM     28  H   LIG d   1       3.119  -5.057  -9.121  0.00  0.00     0.048 H 
ATOM     29  H   LIG d   1       2.262  -3.853  -8.101  0.00  0.00     0.048 H 
ATOM     30  H   LIG d   1       3.390  -2.665  -9.940  0.00  0.00     0.044 H 
ATOM     31  H   LIG d   1       4.947  -3.469  -9.550  0.00  0.00     0.044 H 
BRANCH  24  32
ATOM     32  C   LIG d   1       5.209  -6.361  -5.928  0.00  0.00     0.012 C 
ATOM     33  H   LIG d   1       4.625  -6.384  -4.996  0.00  0.00     0.032 H 
ATOM     34  H   LIG d   1       6.032  -5.638  -5.826  0.00  0.00     0.032 H 
ATOM     35  H   LIG d   1       5.622  -7.360  -6.128  0.00  0.00     0.032 H 
ENDBRANCH  24  32
ENDBRANCH   1  16
BRANCH   3  36
ATOM     36  O   LIG d   1       5.695   1.399  -8.408  0.00  0.00    -0.384 OA
ATOM     37  H   LIG d   1       5.411   2.439  -8.186  0.00  0.00     0.210 HD
ENDBRANCH   3  36
BRANCH   5  38
ATOM     38  N   LIG d   1       2.819  -0.257  -6.714  0.00  0.00     0.238 N 
ATOM     39  H   LIG d   1       1.897  -0.536  -7.248  0.00  0.00     0.202 HD
ATOM     40  H   LIG d   1       3.465  -1.140  -6.614  0.00  0.00     0.202 HD
BRANCH  38  41
ATOM     41  C   LIG d   1       2.460   0.221  -5.372  0.00  0.00     0.026 C 
ATOM     42  H   LIG d   1       2.612   1.310  -5.318  0.00  0.00     0.090 H 
ATOM     43  H   LIG d   1       1.403  -0.012  -5.171  0.00  0.00     0.090 H 
BRANCH  41  44
ATOM     44  C   LIG d   1       3.329  -0.460  -4.348  0.00  0.00     0.150 A 
ATOM     45  O   LIG d   1       4.652  -0.663  -4.450  0.00  0.00    -0.457 OA
ATOM     46  C   LIG d   1       5.095  -1.298  -3.353  0.00  0.00     0.131 A 
ATOM     47  C   LIG d   1       4.049  -1.509  -2.534  0.00  0.00    -0.018 A 
ATOM     48  C   LIG d   1       2.912  -0.964  -3.172  0.00  0.00    -0.015 A 
ATOM     49  H   LIG d   1       4.075  -1.997  -1.571  0.00  0.00     0.065 H 
ATOM     50  H   LIG d   1       1.902  -0.956  -2.790  0.00  0.00     0.065 H 
BRANCH  46  51
ATOM     51  C   LIG d   1       6.521  -1.706  -3.085  0.00  0.00     0.102 C 
ATOM     52  H   LIG d   1       6.602  -2.104  -2.062  0.00  0.00     0.064 H 
ATOM     53  H   LIG d   1       6.822  -2.479  -3.805  0.00  0.00     0.064 H 
BRANCH  51  54
ATOM     54  O   LIG d   1       7.375  -0.568  -3.221  0.00  0.00    -0.387 OA
ATOM     55  H   LIG d   1       8.028  -0.268  -2.389  0.00  0.00     0.210 HD
ENDBRANCH  51  54
ENDBRANCH  46  51
ENDBRANCH  41  44
ENDBRANCH  38  41
ENDBRANCH   5  38
TORSDOF 8
ENDMDL
MODEL 2
REMARK VINA RESULT:      -6.0      3.018      6.804
REMARK  8 active torsions:
REMARK  status: ('A' for Active; 'I' for Inactive)
REMARK    1  A    between atoms: C_1  and  C_2 
REMARK       I    between atoms: C_2  and  N_4 
REMARK    2  A    between atoms: N_7  and  C_10 
REMARK    3  A    between atoms: C_12  and  O_32 
REMARK    4  A    between atoms: C_14  and  N_23 
REMARK    5  A    between atoms: N_23  and  C_24 
REMARK    6  A    between atoms: C_24  and  C_25 
REMARK    7  A    between atoms: C_28  and  C_30 
REMARK    8  A    between atoms: C_30  and  O_31 
ROOT
ATOM      1  C   LIG d   1       5.459  -0.830  -3.636  0.00  0.00     0.093 C 
ATOM      2  H   LIG d   1       5.973  -1.518  -2.950  0.00  0.00     0.054 H 
ATOM      3  C   LIG d   1       4.632  -1.604  -4.667  0.00  0.00     0.120 C 
ATOM      4  H   LIG d   1       5.270  -2.251  -5.288  0.00  0.00     0.067 H 
ATOM      5  C   LIG d   1       3.815  -0.598  -5.521  0.00  0.00     0.035 C 
ATOM      6  H   LIG d   1       3.145  -1.112  -6.225  0.00  0.00     0.090 H 
ATOM      7  C   LIG d   1       3.039   0.312  -4.556  0.00  0.00     0.130 C 
ATOM      8  H   LIG d   1       2.333   0.953  -5.104  0.00  0.00     0.068 H 
ATOM      9  C   LIG d   1       2.405  -0.570  -3.453  0.00  0.00     0.082 C 
ATOM     10  O   LIG d   1       3.394  -0.625  -2.410  0.00  0.00    -0.347 OA
ATOM     11  C   LIG d   1       4.532   0.126  -2.870  0.00  0.00     0.178 C 
ATOM     12  H   LIG d   1       5.023   0.629  -2.023  0.00  0.00     0.093 H 
ATOM     13  O   LIG d   1       4.016   1.086  -3.818  0.00  0.00    -0.339 OA
ATOM     14  H   LIG d   1       1.471  -0.108  -3.105  0.00  0.00     0.059 H 
ATOM     15  H   LIG d   1       2.191  -1.568  -3.863  0.00  0.00     0.059 H 
ENDROOT
BRANCH   1  16
ATOM     16  N   LIG d   1       6.503  -0.057  -4.324  0.00  0.00    -0.290 N 
ATOM     17  C   LIG d   1       7.584  -0.933  -4.793  0.00  0.00     0.015 C 
ATOM     18  C   LIG d   1       8.556  -0.119  -5.662  0.00  0.00     0.028 C 
ATOM     19  H   LIG d   1       7.161  -1.756  -5.389  0.00  0.00     0.044 H 
ATOM     20  H   LIG d   1       8.124  -1.348  -3.929  0.00  0.00     0.044 H 
ATOM     21  N   LIG d   1       8.997   1.051  -4.888  0.00  0.00    -0.299 N 
ATOM     22  H   LIG d   1       8.051   0.217  -6.580  0.00  0.00     0.048 H 
ATOM     23  H   LIG d   1       9.430  -0.733  -5.928  0.00  0.00     0.048 H 
ATOM     24  C   LIG d   1      10.307   1.339  -4.754  0.00  0.00     0.212 C 
ATOM     25  C   LIG d   1       7.969   1.904  -4.269  0.00  0.00     0.028 C 
ATOM     26  O   LIG d   1      10.650   2.357  -4.192  0.00  0.00    -0.276 OA
ATOM     27  C   LIG d   1       7.021   1.012  -3.461  0.00  0.00     0.015 C 
ATOM     28  H   LIG d   1       8.453   2.636  -3.607  0.00  0.00     0.048 H 
ATOM     29  H   LIG d   1       7.411   2.432  -5.056  0.00  0.00     0.048 H 
ATOM     30  H   LIG d   1       6.183   1.617  -3.082  0.00  0.00     0.044 H 
ATOM     31  H   LIG d   1       7.565   0.569  -2.614  0.00  0.00     0.044 H 
BRANCH  24  32
ATOM     32  C   LIG d   1      11.346   0.394  -5.302  0.00  0.00     0.012 C 
ATOM     33  H   LIG d   1      11.738   0.790  -6.250  0.00  0.00     0.032 H 
ATOM     34  H   LIG d   1      10.888  -0.591  -5.478  0.00  0.00     0.032 H 
ATOM     35  H   LIG d   1      12.167   0.292  -4.577  0.00  0.00     0.032 H 
ENDBRANCH  24  32
ENDBRANCH   1  16
BRANCH   3  36
ATOM     36  O   LIG d   1       3.746  -2.499  -3.992  0.00  0.00    -0.384 OA
ATOM     37  H   LIG d   1       2.908  -2.101  -3.399  0.00  0.00     0.210 HD
ENDBRANCH   3  36
BRANCH   5  38
ATOM     38  N   LIG d   1       4.709   0.216  -6.355  0.00  0.00     0.238 N 
ATOM     39  H   LIG d   1       4.211   1.164  -6.610  0.00  0.00     0.202 HD
ATOM     40  H   LIG d   1       5.636   0.425  -5.802  0.00  0.00     0.202 HD
BRANCH  38  41
ATOM     41  C   LIG d   1       5.051  -0.486  -7.600  0.00  0.00     0.026 C 
ATOM     42  H   LIG d   1       5.797   0.100  -8.158  0.00  0.00     0.090 H 
ATOM     43  H   LIG d   1       5.467  -1.476  -7.360  0.00  0.00     0.090 H 
BRANCH  41  44
ATOM     44  C   LIG d   1       3.811  -0.652  -8.439  0.00  0.00     0.150 A 
ATOM     45  O   LIG d   1       3.292  -1.819  -8.852  0.00  0.00    -0.457 OA
ATOM     46  C   LIG d   1       2.187  -1.586  -9.579  0.00  0.00     0.131 A 
ATOM     47  C   LIG d   1       1.990  -0.257  -9.637  0.00  0.00    -0.018 A 
ATOM     48  C   LIG d   1       3.033   0.345  -8.898  0.00  0.00    -0.015 A 
ATOM     49  H   LIG d   1       1.185   0.251 -10.147  0.00  0.00     0.065 H 
ATOM     50  H   LIG d   1       3.179   1.402  -8.735  0.00  0.00     0.065 H 
BRANCH  46  51
ATOM     51  C   LIG d   1       1.316  -2.636 -10.221  0.00  0.00     0.102 C 
ATOM     52  H   LIG d   1       0.273  -2.491  -9.902  0.00  0.00     0.064 H 
ATOM     53  H   LIG d   1       1.382  -2.548 -11.314  0.00  0.00     0.064 H 
BRANCH  51  54
ATOM     54  O   LIG d   1       1.760  -3.934  -9.819  0.00  0.00    -0.387 OA
ATOM     55  H   LIG d   1       2.762  -4.061  -9.384  0.00  0.00     0.210 HD
ENDBRANCH  51  54
ENDBRANCH  46  51
ENDBRANCH  41  44
ENDBRANCH  38  41
ENDBRANCH   5  38
TORSDOF 8
ENDMDL
MODEL 3
REMARK VINA RESULT:      -5.9      1.720      5.216
REMARK  8 active torsions:
REMARK  status: ('A' for Active; 'I' for Inactive)
REMARK    1  A    between atoms: C_1  and  C_2 
REMARK       I    between atoms: C_2  and  N_4 
REMARK    2  A    between atoms: N_7  and  C_10 
REMARK    3  A    between atoms: C_12  and  O_32 
REMARK    4  A    between atoms: C_14  and  N_23 
REMARK    5  A    between atoms: N_23  and  C_24 
REMARK    6  A    between atoms: C_24  and  C_25 
REMARK    7  A    between atoms: C_28  and  C_30 
REMARK    8  A    between atoms: C_30  and  O_31 
ROOT
ATOM      1  C   LIG d   1       4.500  -3.824  -8.711  0.00  0.00     0.093 C 
ATOM      2  H   LIG d   1       4.111  -3.816  -9.740  0.00  0.00     0.054 H 
ATOM      3  C   LIG d   1       3.544  -4.568  -7.772  0.00  0.00     0.120 C 
ATOM      4  H   LIG d   1       2.560  -4.078  -7.733  0.00  0.00     0.067 H 
ATOM      5  C   LIG d   1       4.197  -4.679  -6.369  0.00  0.00     0.035 C 
ATOM      6  H   LIG d   1       3.581  -5.273  -5.679  0.00  0.00     0.090 H 
ATOM      7  C   LIG d   1       5.598  -5.286  -6.551  0.00  0.00     0.130 C 
ATOM      8  H   LIG d   1       6.053  -5.519  -5.577  0.00  0.00     0.068 H 
ATOM      9  C   LIG d   1       5.490  -6.479  -7.529  0.00  0.00     0.082 C 
ATOM     10  O   LIG d   1       5.704  -5.910  -8.833  0.00  0.00    -0.347 OA
ATOM     11  C   LIG d   1       5.881  -4.494  -8.648  0.00  0.00     0.178 C 
ATOM     12  H   LIG d   1       6.593  -4.100  -9.389  0.00  0.00     0.093 H 
ATOM     13  O   LIG d   1       6.384  -4.330  -7.304  0.00  0.00    -0.339 OA
ATOM     14  H   LIG d   1       6.257  -7.227  -7.281  0.00  0.00     0.059 H 
ATOM     15  H   LIG d   1       4.492  -6.934  -7.443  0.00  0.00     0.059 H 
ENDROOT
BRANCH   1  16
ATOM     16  N   LIG d   1       4.613  -2.422  -8.289  0.00  0.00    -0.290 N 
ATOM     17  C   LIG d   1       3.355  -1.699  -8.521  0.00  0.00     0.015 C 
ATOM     18  C   LIG d   1       3.454  -0.296  -7.899  0.00  0.00     0.028 C 
ATOM     19  H   LIG d   1       2.522  -2.248  -8.056  0.00  0.00     0.044 H 
ATOM     20  H   LIG d   1       3.176  -1.608  -9.602  0.00  0.00     0.044 H 
ATOM     21  N   LIG d   1       4.656   0.361  -8.433  0.00  0.00    -0.299 N 
ATOM     22  H   LIG d   1       3.534  -0.374  -6.804  0.00  0.00     0.048 H 
ATOM     23  H   LIG d   1       2.564   0.296  -8.161  0.00  0.00     0.048 H 
ATOM     24  C   LIG d   1       4.589   1.596  -8.970  0.00  0.00     0.212 C 
ATOM     25  C   LIG d   1       5.936  -0.362  -8.360  0.00  0.00     0.028 C 
ATOM     26  O   LIG d   1       5.603   2.160  -9.321  0.00  0.00    -0.276 OA
ATOM     27  C   LIG d   1       5.739  -1.759  -8.958  0.00  0.00     0.015 C 
ATOM     28  H   LIG d   1       6.699   0.187  -8.930  0.00  0.00     0.048 H 
ATOM     29  H   LIG d   1       6.250  -0.444  -7.309  0.00  0.00     0.048 H 
ATOM     30  H   LIG d   1       6.654  -2.353  -8.812  0.00  0.00     0.044 H 
ATOM     31  H   LIG d   1       5.527  -1.672 -10.034  0.00  0.00     0.044 H 
BRANCH  24  32
ATOM     32  C   LIG d   1       3.253   2.274  -9.135  0.00  0.00     0.012 C 
ATOM     33  H   LIG d   1       2.588   1.979  -8.310  0.00  0.00     0.032 H 
ATOM     34  H   LIG d   1       2.804   1.971 -10.093  0.00  0.00     0.032 H 
ATOM     35  H   LIG d   1       3.392   3.364  -9.123  0.00  0.00     0.032 H 
ENDBRANCH  24  32
ENDBRANCH   1  16
BRANCH   3  36
ATOM     36  O   LIG d   1       3.286  -5.874  -8.291  0.00  0.00    -0.384 OA
ATOM     37  H   LIG d   1       4.111  -6.476  -8.701  0.00  0.00     0.210 HD
ENDBRANCH   3  36
BRANCH   5  38
ATOM     38  N   LIG d   1       4.311  -3.352  -5.747  0.00  0.00     0.238 N 
ATOM     39  H   LIG d   1       4.809  -2.662  -6.444  0.00  0.00     0.202 HD
ATOM     40  H   LIG d   1       3.307  -2.972  -5.509  0.00  0.00     0.202 HD
BRANCH  38  41
ATOM     41  C   LIG d   1       5.096  -3.418  -4.507  0.00  0.00     0.026 C 
ATOM     42  H   LIG d   1       4.838  -4.336  -3.958  0.00  0.00     0.090 H 
ATOM     43  H   LIG d   1       6.169  -3.427  -4.752  0.00  0.00     0.090 H 
BRANCH  41  44
ATOM     44  C   LIG d   1       4.787  -2.216  -3.653  0.00  0.00     0.150 A 
ATOM     45  O   LIG d   1       5.288  -0.982  -3.821  0.00  0.00    -0.457 OA
ATOM     46  C   LIG d   1       4.793  -0.164  -2.878  0.00  0.00     0.131 A 
ATOM     47  C   LIG d   1       3.965  -0.875  -2.092  0.00  0.00    -0.018 A 
ATOM     48  C   LIG d   1       3.956  -2.196  -2.595  0.00  0.00    -0.015 A 
ATOM     49  H   LIG d   1       3.409  -0.506  -1.243  0.00  0.00     0.065 H 
ATOM     50  H   LIG d   1       3.393  -3.030  -2.203  0.00  0.00     0.065 H 
BRANCH  46  51
ATOM     51  C   LIG d   1       5.112   1.301  -2.725  0.00  0.00     0.102 C 
ATOM     52  H   LIG d   1       4.357   1.898  -3.259  0.00  0.00     0.064 H 
ATOM     53  H   LIG d   1       5.104   1.569  -1.659  0.00  0.00     0.064 H 
BRANCH  51  54
ATOM     54  O   LIG d   1       6.404   1.567  -3.275  0.00  0.00    -0.387 OA
ATOM     55  H   LIG d   1       6.535   1.634  -4.365  0.00  0.00     0.210 HD
ENDBRANCH  51  54
ENDBRANCH  46  51
ENDBRANCH  41  44
ENDBRANCH  38  41
ENDBRANCH   5  38
TORSDOF 8
ENDMDL
MODEL 4
REMARK VINA RESULT:      -5.8      2.813      6.471
REMARK  8 active torsions:
REMARK  status: ('A' for Active; 'I' for Inactive)
REMARK    1  A    between atoms: C_1  and  C_2 
REMARK       I    between atoms: C_2  and  N_4 
REMARK    2  A    between atoms: N_7  and  C_10 
REMARK    3  A    between atoms: C_12  and  O_32 
REMARK    4  A    between atoms: C_14  and  N_23 
REMARK    5  A    between atoms: N_23  and  C_24 
REMARK    6  A    between atoms: C_24  and  C_25 
REMARK    7  A    between atoms: C_28  and  C_30 
REMARK    8  A    between atoms: C_30  and  O_31 
ROOT
ATOM      1  C   LIG d   1       5.825  -0.941  -3.061  0.00  0.00     0.093 C 
ATOM      2  H   LIG d   1       6.337  -1.222  -2.129  0.00  0.00     0.054 H 
ATOM      3  C   LIG d   1       4.880  -2.055  -3.523  0.00  0.00     0.120 C 
ATOM      4  H   LIG d   1       5.432  -2.984  -3.734  0.00  0.00     0.067 H 
ATOM      5  C   LIG d   1       4.077  -1.560  -4.754  0.00  0.00     0.035 C 
ATOM      6  H   LIG d   1       3.328  -2.299  -5.076  0.00  0.00     0.090 H 
ATOM      7  C   LIG d   1       3.429  -0.217  -4.382  0.00  0.00     0.130 C 
ATOM      8  H   LIG d   1       2.732   0.112  -5.166  0.00  0.00     0.068 H 
ATOM      9  C   LIG d   1       2.814  -0.347  -2.967  0.00  0.00     0.082 C 
ATOM     10  O   LIG d   1       3.865   0.053  -2.069  0.00  0.00    -0.347 OA
ATOM     11  C   LIG d   1       5.017   0.353  -2.878  0.00  0.00     0.178 C 
ATOM     12  H   LIG d   1       5.596   1.172  -2.425  0.00  0.00     0.093 H 
ATOM     13  O   LIG d   1       4.503   0.733  -4.174  0.00  0.00    -0.339 OA
ATOM     14  H   LIG d   1       1.938   0.312  -2.887  0.00  0.00     0.059 H 
ATOM     15  H   LIG d   1       2.507  -1.389  -2.796  0.00  0.00     0.059 H 
ENDROOT
BRANCH   1  16
ATOM     16  N   LIG d   1       6.869  -0.729  -4.073  0.00  0.00    -0.290 N 
ATOM     17  C   LIG d   1       7.805  -1.861  -4.108  0.00  0.00     0.015 C 
ATOM     18  C   LIG d   1       8.765  -1.688  -5.296  0.00  0.00     0.028 C 
ATOM     19  H   LIG d   1       7.244  -2.801  -4.223  0.00  0.00     0.044 H 
ATOM     20  H   LIG d   1       8.382  -1.891  -3.172  0.00  0.00     0.044 H 
ATOM     21  N   LIG d   1       9.395  -0.364  -5.192  0.00  0.00    -0.299 N 
ATOM     22  H   LIG d   1       8.209  -1.757  -6.243  0.00  0.00     0.048 H 
ATOM     23  H   LIG d   1       9.541  -2.468  -5.270  0.00  0.00     0.048 H 
ATOM     24  C   LIG d   1      10.734  -0.228  -5.262  0.00  0.00     0.212 C 
ATOM     25  C   LIG d   1       8.524   0.809  -5.016  0.00  0.00     0.028 C 
ATOM     26  O   LIG d   1      11.232   0.878  -5.267  0.00  0.00    -0.276 OA
ATOM     27  C   LIG d   1       7.574   0.538  -3.845  0.00  0.00     0.015 C 
ATOM     28  H   LIG d   1       9.142   1.694  -4.803  0.00  0.00     0.048 H 
ATOM     29  H   LIG d   1       7.947   0.978  -5.938  0.00  0.00     0.048 H 
ATOM     30  H   LIG d   1       6.843   1.356  -3.769  0.00  0.00     0.044 H 
ATOM     31  H   LIG d   1       8.151   0.474  -2.911  0.00  0.00     0.044 H 
BRANCH  24  32
ATOM     32  C   LIG d   1      11.613  -1.450  -5.331  0.00  0.00     0.012 C 
ATOM     33  H   LIG d   1      12.612  -1.206  -4.940  0.00  0.00     0.032 H 
ATOM     34  H   LIG d   1      11.701  -1.778  -6.378  0.00  0.00     0.032 H 
ATOM     35  H   LIG d   1      11.169  -2.256  -4.730  0.00  0.00     0.032 H 
ENDBRANCH  24  32
ENDBRANCH   1  16
BRANCH   3  36
ATOM     36  O   LIG d   1       3.985  -2.391  -2.462  0.00  0.00    -0.384 OA
ATOM     37  H   LIG d   1       4.380  -2.769  -1.507  0.00  0.00     0.210 HD
ENDBRANCH   3  36
BRANCH   5  38
ATOM     38  N   LIG d   1       4.965  -1.376  -5.910  0.00  0.00     0.238 N 
ATOM     39  H   LIG d   1       5.194  -0.306  -6.029  0.00  0.00     0.202 HD
ATOM     40  H   LIG d   1       5.898  -1.935  -5.747  0.00  0.00     0.202 HD
BRANCH  38  41
ATOM     41  C   LIG d   1       4.332  -1.863  -7.143  0.00  0.00     0.026 C 
ATOM     42  H   LIG d   1       5.079  -2.392  -7.754  0.00  0.00     0.090 H 
ATOM     43  H   LIG d   1       3.513  -2.551  -6.888  0.00  0.00     0.090 H 
BRANCH  41  44
ATOM     44  C   LIG d   1       3.784  -0.694  -7.920  0.00  0.00     0.150 A 
ATOM     45  O   LIG d   1       4.451   0.430  -8.224  0.00  0.00    -0.457 OA
ATOM     46  C   LIG d   1       3.651   1.251  -8.925  0.00  0.00     0.131 A 
ATOM     47  C   LIG d   1       2.456   0.653  -9.075  0.00  0.00    -0.018 A 
ATOM     48  C   LIG d   1       2.543  -0.603  -8.433  0.00  0.00    -0.015 A 
ATOM     49  H   LIG d   1       1.597   1.054  -9.592  0.00  0.00     0.065 H 
ATOM     50  H   LIG d   1       1.763  -1.346  -8.365  0.00  0.00     0.065 H 
BRANCH  46  51
ATOM     51  C   LIG d   1       4.029   2.612  -9.453  0.00  0.00     0.102 C 
ATOM     52  H   LIG d   1       3.776   2.673 -10.522  0.00  0.00     0.064 H 
ATOM     53  H   LIG d   1       3.477   3.385  -8.900  0.00  0.00     0.064 H 
BRANCH  51  54
ATOM     54  O   LIG d   1       5.433   2.815  -9.283  0.00  0.00    -0.387 OA
ATOM     55  H   LIG d   1       6.082   2.931 -10.164  0.00  0.00     0.210 HD
ENDBRANCH  51  54
ENDBRANCH  46  51
ENDBRANCH  41  44
ENDBRANCH  38  41
ENDBRANCH   5  38
TORSDOF 8
ENDMDL
MODEL 5
REMARK VINA RESULT:      -5.8      3.203      5.856
REMARK  8 active torsions:
REMARK  status: ('A' for Active; 'I' for Inactive)
REMARK    1  A    between atoms: C_1  and  C_2 
REMARK       I    between atoms: C_2  and  N_4 
REMARK    2  A    between atoms: N_7  and  C_10 
REMARK    3  A    between atoms: C_12  and  O_32 
REMARK    4  A    between atoms: C_14  and  N_23 
REMARK    5  A    between atoms: N_23  and  C_24 
REMARK    6  A    between atoms: C_24  and  C_25 
REMARK    7  A    between atoms: C_28  and  C_30 
REMARK    8  A    between atoms: C_30  and  O_31 
ROOT
ATOM      1  C   LIG d   1       3.436  -0.601  -4.459  0.00  0.00     0.093 C 
ATOM      2  H   LIG d   1       2.344  -0.620  -4.594  0.00  0.00     0.054 H 
ATOM      3  C   LIG d   1       3.858   0.586  -3.587  0.00  0.00     0.120 C 
ATOM      4  H   LIG d   1       3.581   1.543  -4.053  0.00  0.00     0.067 H 
ATOM      5  C   LIG d   1       5.381   0.492  -3.306  0.00  0.00     0.035 C 
ATOM      6  H   LIG d   1       5.718   1.281  -2.618  0.00  0.00     0.090 H 
ATOM      7  C   LIG d   1       5.668  -0.912  -2.748  0.00  0.00     0.130 C 
ATOM      8  H   LIG d   1       6.709  -0.989  -2.398  0.00  0.00     0.068 H 
ATOM      9  C   LIG d   1       4.592  -1.247  -1.689  0.00  0.00     0.082 C 
ATOM     10  O   LIG d   1       3.537  -1.891  -2.425  0.00  0.00    -0.347 OA
ATOM     11  C   LIG d   1       3.934  -1.900  -3.808  0.00  0.00     0.178 C 
ATOM     12  H   LIG d   1       3.564  -2.810  -4.304  0.00  0.00     0.093 H 
ATOM     13  O   LIG d   1       5.378  -1.860  -3.805  0.00  0.00    -0.339 OA
ATOM     14  H   LIG d   1       5.022  -1.912  -0.927  0.00  0.00     0.059 H 
ATOM     15  H   LIG d   1       4.246  -0.318  -1.212  0.00  0.00     0.059 H 
ENDROOT
BRANCH   1  16
ATOM     16  N   LIG d   1       4.027  -0.463  -5.797  0.00  0.00    -0.290 N 
ATOM     17  C   LIG d   1       3.160   0.332  -6.676  0.00  0.00     0.015 C 
ATOM     18  C   LIG d   1       3.894   0.608  -7.998  0.00  0.00     0.028 C 
ATOM     19  H   LIG d   1       2.913   1.287  -6.187  0.00  0.00     0.044 H 
ATOM     20  H   LIG d   1       2.233  -0.224  -6.881  0.00  0.00     0.044 H 
ATOM     21  N   LIG d   1       4.334  -0.678  -8.558  0.00  0.00    -0.299 N 
ATOM     22  H   LIG d   1       4.770   1.248  -7.817  0.00  0.00     0.048 H 
ATOM     23  H   LIG d   1       3.217   1.105  -8.709  0.00  0.00     0.048 H 
ATOM     24  C   LIG d   1       4.054  -1.009  -9.835  0.00  0.00     0.212 C 
ATOM     25  C   LIG d   1       5.093  -1.592  -7.690  0.00  0.00     0.028 C 
ATOM     26  O   LIG d   1       4.504  -2.031 -10.309  0.00  0.00    -0.276 OA
ATOM     27  C   LIG d   1       4.316  -1.778  -6.383  0.00  0.00     0.015 C 
ATOM     28  H   LIG d   1       5.215  -2.561  -8.197  0.00  0.00     0.048 H 
ATOM     29  H   LIG d   1       6.083  -1.160  -7.482  0.00  0.00     0.048 H 
ATOM     30  H   LIG d   1       4.920  -2.369  -5.678  0.00  0.00     0.044 H 
ATOM     31  H   LIG d   1       3.373  -2.305  -6.587  0.00  0.00     0.044 H 
BRANCH  24  32
ATOM     32  C   LIG d   1       3.183  -0.110 -10.673  0.00  0.00     0.012 C 
ATOM     33  H   LIG d   1       3.446  -0.230 -11.734  0.00  0.00     0.032 H 
ATOM     34  H   LIG d   1       3.342   0.937 -10.373  0.00  0.00     0.032 H 
ATOM     35  H   LIG d   1       2.127  -0.378 -10.522  0.00  0.00     0.032 H 
ENDBRANCH  24  32
ENDBRANCH   1  16
BRANCH   3  36
ATOM     36  O   LIG d   1       3.134   0.553  -2.355  0.00  0.00    -0.384 OA
ATOM     37  H   LIG d   1       3.308  -0.262  -1.636  0.00  0.00     0.210 HD
ENDBRANCH   3  36
BRANCH   5  38
ATOM     38  N   LIG d   1       6.147   0.698  -4.542  0.00  0.00     0.238 N 
ATOM     39  H   LIG d   1       5.784   0.006  -5.318  0.00  0.00     0.202 HD
ATOM     40  H   LIG d   1       6.016   1.734  -4.885  0.00  0.00     0.202 HD
BRANCH  38  41
ATOM     41  C   LIG d   1       7.579   0.451  -4.323  0.00  0.00     0.026 C 
ATOM     42  H   LIG d   1       7.716  -0.086  -3.372  0.00  0.00     0.090 H 
ATOM     43  H   LIG d   1       7.976  -0.158  -5.148  0.00  0.00     0.090 H 
BRANCH  41  44
ATOM     44  C   LIG d   1       8.312   1.765  -4.269  0.00  0.00     0.150 A 
ATOM     45  O   LIG d   1       8.942   2.270  -3.196  0.00  0.00    -0.457 OA
ATOM     46  C   LIG d   1       9.485   3.457  -3.512  0.00  0.00     0.131 A 
ATOM     47  C   LIG d   1       9.204   3.723  -4.800  0.00  0.00    -0.018 A 
ATOM     48  C   LIG d   1       8.453   2.630  -5.290  0.00  0.00    -0.015 A 
ATOM     49  H   LIG d   1       9.500   4.601  -5.355  0.00  0.00     0.065 H 
ATOM     50  H   LIG d   1       8.065   2.513  -6.290  0.00  0.00     0.065 H 
BRANCH  46  51
ATOM     51  C   LIG d   1      10.275   4.342  -2.581  0.00  0.00     0.102 C 
ATOM     52  H   LIG d   1      10.969   4.963  -3.167  0.00  0.00     0.064 H 
ATOM     53  H   LIG d   1       9.587   4.990  -2.021  0.00  0.00     0.064 H 
BRANCH  51  54
ATOM     54  O   LIG d   1      11.017   3.530  -1.668  0.00  0.00    -0.387 OA
ATOM     55  H   LIG d   1      10.535   3.148  -0.757  0.00  0.00     0.210 HD
ENDBRANCH  51  54
ENDBRANCH  46  51
ENDBRANCH  41  44
ENDBRANCH  38  41
ENDBRANCH   5  38
TORSDOF 8
ENDMDL
MODEL 6
REMARK VINA RESULT:      -5.8      2.826      6.729
REMARK  8 active torsions:
REMARK  status: ('A' for Active; 'I' for Inactive)
REMARK    1  A    between atoms: C_1  and  C_2 
REMARK       I    between atoms: C_2  and  N_4 
REMARK    2  A    between atoms: N_7  and  C_10 
REMARK    3  A    between atoms: C_12  and  O_32 
REMARK    4  A    between atoms: C_14  and  N_23 
REMARK    5  A    between atoms: N_23  and  C_24 
REMARK    6  A    between atoms: C_24  and  C_25 
REMARK    7  A    between atoms: C_28  and  C_30 
REMARK    8  A    between atoms: C_30  and  O_31 
ROOT
ATOM      1  C   LIG d   1       5.797  -0.847  -3.914  0.00  0.00     0.093 C 
ATOM      2  H   LIG d   1       6.533  -1.520  -3.451  0.00  0.00     0.054 H 
ATOM      3  C   LIG d   1       4.658  -1.643  -4.558  0.00  0.00     0.120 C 
ATOM      4  H   LIG d   1       5.031  -2.300  -5.358  0.00  0.00     0.067 H 
ATOM      5  C   LIG d   1       3.576  -0.656  -5.071  0.00  0.00     0.035 C 
ATOM      6  H   LIG d   1       2.700  -1.184  -5.474  0.00  0.00     0.090 H 
ATOM      7  C   LIG d   1       3.197   0.271  -3.905  0.00  0.00     0.130 C 
ATOM      8  H   LIG d   1       2.334   0.899  -4.168  0.00  0.00     0.068 H 
ATOM      9  C   LIG d   1       3.018  -0.593  -2.633  0.00  0.00     0.082 C 
ATOM     10  O   LIG d   1       4.320  -0.624  -2.021  0.00  0.00    -0.347 OA
ATOM     11  C   LIG d   1       5.205   0.121  -2.878  0.00  0.00     0.178 C 
ATOM     12  H   LIG d   1       5.966   0.641  -2.278  0.00  0.00     0.093 H 
ATOM     13  O   LIG d   1       4.369   1.061  -3.588  0.00  0.00    -0.339 OA
ATOM     14  H   LIG d   1       2.271  -0.126  -1.975  0.00  0.00     0.059 H 
ATOM     15  H   LIG d   1       2.678  -1.599  -2.919  0.00  0.00     0.059 H 
ENDROOT
BRANCH   1  16
ATOM     16  N   LIG d   1       6.510  -0.084  -4.947  0.00  0.00    -0.290 N 
ATOM     17  C   LIG d   1       7.169  -0.983  -5.905  0.00  0.00     0.015 C 
ATOM     18  C   LIG d   1       7.743  -0.155  -7.066  0.00  0.00     0.028 C 
ATOM     19  H   LIG d   1       6.438  -1.706  -6.296  0.00  0.00     0.044 H 
ATOM     20  H   LIG d   1       7.984  -1.523  -5.402  0.00  0.00     0.044 H 
ATOM     21  N   LIG d   1       8.607   0.893  -6.502  0.00  0.00    -0.299 N 
ATOM     22  H   LIG d   1       6.927   0.311  -7.637  0.00  0.00     0.048 H 
ATOM     23  H   LIG d   1       8.336  -0.800  -7.732  0.00  0.00     0.048 H 
ATOM     24  C   LIG d   1       9.866   1.069  -6.952  0.00  0.00     0.212 C 
ATOM     25  C   LIG d   1       8.060   1.748  -5.437  0.00  0.00     0.028 C 
ATOM     26  O   LIG d   1      10.532   1.995  -6.542  0.00  0.00    -0.276 OA
ATOM     27  C   LIG d   1       7.471   0.849  -4.345  0.00  0.00     0.015 C 
ATOM     28  H   LIG d   1       8.864   2.371  -5.019  0.00  0.00     0.048 H 
ATOM     29  H   LIG d   1       7.274   2.395  -5.855  0.00  0.00     0.048 H 
ATOM     30  H   LIG d   1       6.959   1.469  -3.595  0.00  0.00     0.044 H 
ATOM     31  H   LIG d   1       8.280   0.281  -3.861  0.00  0.00     0.044 H 
BRANCH  24  32
ATOM     32  C   LIG d   1      10.444   0.114  -7.964  0.00  0.00     0.012 C 
ATOM     33  H   LIG d   1       9.630  -0.330  -8.556  0.00  0.00     0.032 H 
ATOM     34  H   LIG d   1      10.994  -0.684  -7.442  0.00  0.00     0.032 H 
ATOM     35  H   LIG d   1      11.130   0.657  -8.630  0.00  0.00     0.032 H 
ENDBRANCH  24  32
ENDBRANCH   1  16
BRANCH   3  36
ATOM     36  O   LIG d   1       4.088  -2.527  -3.591  0.00  0.00    -0.384 OA
ATOM     37  H   LIG d   1       4.718  -3.284  -3.099  0.00  0.00     0.210 HD
ENDBRANCH   3  36
BRANCH   5  38
ATOM     38  N   LIG d   1       4.096   0.145  -6.188  0.00  0.00     0.238 N 
ATOM     39  H   LIG d   1       4.712   0.968  -5.794  0.00  0.00     0.202 HD
ATOM     40  H   LIG d   1       4.711  -0.493  -6.840  0.00  0.00     0.202 HD
BRANCH  38  41
ATOM     41  C   LIG d   1       3.000   0.715  -6.983  0.00  0.00     0.026 C 
ATOM     42  H   LIG d   1       2.138   0.031  -6.962  0.00  0.00     0.090 H 
ATOM     43  H   LIG d   1       2.707   1.687  -6.559  0.00  0.00     0.090 H 
BRANCH  41  44
ATOM     44  C   LIG d   1       3.458   0.905  -8.406  0.00  0.00     0.150 A 
ATOM     45  O   LIG d   1       4.136   0.008  -9.139  0.00  0.00    -0.457 OA
ATOM     46  C   LIG d   1       4.375   0.515 -10.360  0.00  0.00     0.131 A 
ATOM     47  C   LIG d   1       3.848   1.751 -10.416  0.00  0.00    -0.018 A 
ATOM     48  C   LIG d   1       3.251   2.000  -9.159  0.00  0.00    -0.015 A 
ATOM     49  H   LIG d   1       3.871   2.422 -11.262  0.00  0.00     0.065 H 
ATOM     50  H   LIG d   1       2.732   2.898  -8.860  0.00  0.00     0.065 H 
BRANCH  46  51
ATOM     51  C   LIG d   1       5.110  -0.182 -11.476  0.00  0.00     0.102 C 
ATOM     52  H   LIG d   1       6.155   0.161 -11.497  0.00  0.00     0.064 H 
ATOM     53  H   LIG d   1       5.083  -1.268 -11.310  0.00  0.00     0.064 H 
BRANCH  51  54
ATOM     54  O   LIG d   1       4.483   0.125 -12.723  0.00  0.00    -0.387 OA
ATOM     55  H   LIG d   1       3.424  -0.123 -12.882  0.00  0.00     0.210 HD
ENDBRANCH  51  54
ENDBRANCH  46  51
ENDBRANCH  41  44
ENDBRANCH  38  41
ENDBRANCH   5  38
TORSDOF 8
ENDMDL
MODEL 7
REMARK VINA RESULT:      -5.6      2.040      2.437
REMARK  8 active torsions:
REMARK  status: ('A' for Active; 'I' for Inactive)
REMARK    1  A    between atoms: C_1  and  C_2 
REMARK       I    between atoms: C_2  and  N_4 
REMARK    2  A    between atoms: N_7  and  C_10 
REMARK    3  A    between atoms: C_12  and  O_32 
REMARK    4  A    between atoms: C_14  and  N_23 
REMARK    5  A    between atoms: N_23  and  C_24 
REMARK    6  A    between atoms: C_24  and  C_25 
REMARK    7  A    between atoms: C_28  and  C_30 
REMARK    8  A    between atoms: C_30  and  O_31 
ROOT
ATOM      1  C   LIG d   1       5.691  -0.245  -8.909  0.00  0.00     0.093 C 
ATOM      2  H   LIG d   1       6.765  -0.115  -9.106  0.00  0.00     0.054 H 
ATOM      3  C   LIG d   1       5.019   1.104  -8.634  0.00  0.00     0.120 C 
ATOM      4  H   LIG d   1       5.447   1.590  -7.744  0.00  0.00     0.067 H 
ATOM      5  C   LIG d   1       3.488   0.890  -8.503  0.00  0.00     0.035 C 
ATOM      6  H   LIG d   1       2.952   1.842  -8.382  0.00  0.00     0.090 H 
ATOM      7  C   LIG d   1       3.014   0.123  -9.749  0.00  0.00     0.130 C 
ATOM      8  H   LIG d   1       1.916   0.066  -9.779  0.00  0.00     0.068 H 
ATOM      9  C   LIG d   1       3.675   0.759 -10.995  0.00  0.00     0.082 C 
ATOM     10  O   LIG d   1       4.906   0.036 -11.171  0.00  0.00    -0.347 OA
ATOM     11  C   LIG d   1       4.989  -0.919 -10.097  0.00  0.00     0.178 C 
ATOM     12  H   LIG d   1       5.491  -1.835 -10.442  0.00  0.00     0.093 H 
ATOM     13  O   LIG d   1       3.626  -1.189  -9.702  0.00  0.00    -0.339 OA
ATOM     14  H   LIG d   1       3.008   0.646 -11.861  0.00  0.00     0.059 H 
ATOM     15  H   LIG d   1       3.854   1.828 -10.808  0.00  0.00     0.059 H 
ENDROOT
BRANCH   1  16
ATOM     16  N   LIG d   1       5.579  -1.102  -7.721  0.00  0.00    -0.290 N 
ATOM     17  C   LIG d   1       6.348  -0.550  -6.598  0.00  0.00     0.015 C 
ATOM     18  C   LIG d   1       6.056  -1.369  -5.330  0.00  0.00     0.028 C 
ATOM     19  H   LIG d   1       6.057   0.499  -6.431  0.00  0.00     0.044 H 
ATOM     20  H   LIG d   1       7.422  -0.599  -6.827  0.00  0.00     0.044 H 
ATOM     21  N   LIG d   1       6.319  -2.785  -5.626  0.00  0.00    -0.299 N 
ATOM     22  H   LIG d   1       5.003  -1.246  -5.035  0.00  0.00     0.048 H 
ATOM     23  H   LIG d   1       6.708  -1.038  -4.509  0.00  0.00     0.048 H 
ATOM     24  C   LIG d   1       7.112  -3.524  -4.824  0.00  0.00     0.212 C 
ATOM     25  C   LIG d   1       5.690  -3.376  -6.818  0.00  0.00     0.028 C 
ATOM     26  O   LIG d   1       7.244  -4.712  -5.030  0.00  0.00    -0.276 OA
ATOM     27  C   LIG d   1       5.992  -2.479  -8.023  0.00  0.00     0.015 C 
ATOM     28  H   LIG d   1       6.100  -4.382  -6.987  0.00  0.00     0.048 H 
ATOM     29  H   LIG d   1       4.603  -3.444  -6.662  0.00  0.00     0.048 H 
ATOM     30  H   LIG d   1       5.439  -2.844  -8.900  0.00  0.00     0.044 H 
ATOM     31  H   LIG d   1       7.071  -2.499  -8.235  0.00  0.00     0.044 H 
BRANCH  24  32
ATOM     32  C   LIG d   1       7.833  -2.874  -3.672  0.00  0.00     0.012 C 
ATOM     33  H   LIG d   1       8.764  -2.414  -4.035  0.00  0.00     0.032 H 
ATOM     34  H   LIG d   1       8.072  -3.634  -2.913  0.00  0.00     0.032 H 
ATOM     35  H   LIG d   1       7.190  -2.101  -3.226  0.00  0.00     0.032 H 
ENDBRANCH  24  32
ENDBRANCH   1  16
BRANCH   3  36
ATOM     36  O   LIG d   1       5.293   2.001  -9.712  0.00  0.00    -0.384 OA
ATOM     37  H   LIG d   1       5.130   3.082  -9.583  0.00  0.00     0.210 HD
ENDBRANCH   3  36
BRANCH   5  38
ATOM     38  N   LIG d   1       3.177   0.111  -7.297  0.00  0.00     0.238 N 
ATOM     39  H   LIG d   1       2.588  -0.777  -7.575  0.00  0.00     0.202 HD
ATOM     40  H   LIG d   1       4.113  -0.207  -6.815  0.00  0.00     0.202 HD
BRANCH  38  41
ATOM     41  C   LIG d   1       2.401   0.910  -6.339  0.00  0.00     0.026 C 
ATOM     42  H   LIG d   1       2.654   1.974  -6.460  0.00  0.00     0.090 H 
ATOM     43  H   LIG d   1       1.327   0.765  -6.526  0.00  0.00     0.090 H 
BRANCH  41  44
ATOM     44  C   LIG d   1       2.730   0.471  -4.936  0.00  0.00     0.150 A 
ATOM     45  O   LIG d   1       3.658   1.023  -4.138  0.00  0.00    -0.457 OA
ATOM     46  C   LIG d   1       3.678   0.378  -2.960  0.00  0.00     0.131 A 
ATOM     47  C   LIG d   1       2.755  -0.600  -2.997  0.00  0.00    -0.018 A 
ATOM     48  C   LIG d   1       2.140  -0.536  -4.267  0.00  0.00    -0.015 A 
ATOM     49  H   LIG d   1       2.525  -1.297  -2.204  0.00  0.00     0.065 H 
ATOM     50  H   LIG d   1       1.351  -1.175  -4.633  0.00  0.00     0.065 H 
BRANCH  46  51
ATOM     51  C   LIG d   1       4.580   0.695  -1.795  0.00  0.00     0.102 C 
ATOM     52  H   LIG d   1       4.016   1.259  -1.037  0.00  0.00     0.064 H 
ATOM     53  H   LIG d   1       4.952  -0.240  -1.354  0.00  0.00     0.064 H 
BRANCH  51  54
ATOM     54  O   LIG d   1       5.684   1.481  -2.249  0.00  0.00    -0.387 OA
ATOM     55  H   LIG d   1       6.678   1.344  -1.798  0.00  0.00     0.210 HD
ENDBRANCH  51  54
ENDBRANCH  46  51
ENDBRANCH  41  44
ENDBRANCH  38  41
ENDBRANCH   5  38
TORSDOF 8
ENDMDL
MODEL 8
REMARK VINA RESULT:      -5.5     11.134     12.779
REMARK  8 active torsions:
REMARK  status: ('A' for Active; 'I' for Inactive)
REMARK    1  A    between atoms: C_1  and  C_2 
REMARK       I    between atoms: C_2  and  N_4 
REMARK    2  A    between atoms: N_7  and  C_10 
REMARK    3  A    between atoms: C_12  and  O_32 
REMARK    4  A    between atoms: C_14  and  N_23 
REMARK    5  A    between atoms: N_23  and  C_24 
REMARK    6  A    between atoms: C_24  and  C_25 
REMARK    7  A    between atoms: C_28  and  C_30 
REMARK    8  A    between atoms: C_30  and  O_31 
ROOT
ATOM      1  C   LIG d   1      10.740  10.547  -4.391  0.00  0.00     0.093 C 
ATOM      2  H   LIG d   1      11.703  10.513  -4.921  0.00  0.00     0.054 H 
ATOM      3  C   LIG d   1      10.906  11.158  -2.995  0.00  0.00     0.120 C 
ATOM      4  H   LIG d   1      11.588  10.556  -2.374  0.00  0.00     0.067 H 
ATOM      5  C   LIG d   1       9.508  11.317  -2.342  0.00  0.00     0.035 C 
ATOM      6  H   LIG d   1       9.569  11.823  -1.368  0.00  0.00     0.090 H 
ATOM      7  C   LIG d   1       8.615  12.084  -3.330  0.00  0.00     0.130 C 
ATOM      8  H   LIG d   1       7.654  12.350  -2.864  0.00  0.00     0.068 H 
ATOM      9  C   LIG d   1       9.423  13.276  -3.896  0.00  0.00     0.082 C 
ATOM     10  O   LIG d   1      10.068  12.759  -5.074  0.00  0.00    -0.347 OA
ATOM     11  C   LIG d   1       9.707  11.370  -5.175  0.00  0.00     0.178 C 
ATOM     12  H   LIG d   1       9.621  11.075  -6.231  0.00  0.00     0.093 H 
ATOM     13  O   LIG d   1       8.439  11.240  -4.494  0.00  0.00    -0.339 OA
ATOM     14  H   LIG d   1       8.739  14.102  -4.135  0.00  0.00     0.059 H 
ATOM     15  H   LIG d   1      10.155  13.611  -3.146  0.00  0.00     0.059 H 
ENDROOT
BRANCH   1  16
ATOM     16  N   LIG d   1      10.274   9.159  -4.268  0.00  0.00    -0.290 N 
ATOM     17  C   LIG d   1      11.307   8.308  -3.663  0.00  0.00     0.015 C 
ATOM     18  C   LIG d   1      10.717   6.916  -3.384  0.00  0.00     0.028 C 
ATOM     19  H   LIG d   1      11.650   8.757  -2.719  0.00  0.00     0.044 H 
ATOM     20  H   LIG d   1      12.158   8.213  -4.354  0.00  0.00     0.044 H 
ATOM     21  N   LIG d   1      10.141   6.400  -4.634  0.00  0.00    -0.299 N 
ATOM     22  H   LIG d   1       9.930   6.986  -2.618  0.00  0.00     0.048 H 
ATOM     23  H   LIG d   1      11.508   6.235  -3.035  0.00  0.00     0.048 H 
ATOM     24  C   LIG d   1      10.463   5.172  -5.090  0.00  0.00     0.212 C 
ATOM     25  C   LIG d   1       9.198   7.256  -5.372  0.00  0.00     0.028 C 
ATOM     26  O   LIG d   1       9.908   4.725  -6.071  0.00  0.00    -0.276 OA
ATOM     27  C   LIG d   1       9.844   8.631  -5.569  0.00  0.00     0.015 C 
ATOM     28  H   LIG d   1       8.978   6.800  -6.348  0.00  0.00     0.048 H 
ATOM     29  H   LIG d   1       8.267   7.356  -4.795  0.00  0.00     0.048 H 
ATOM     30  H   LIG d   1       9.112   9.318  -6.020  0.00  0.00     0.044 H 
ATOM     31  H   LIG d   1      10.716   8.537  -6.233  0.00  0.00     0.044 H 
BRANCH  24  32
ATOM     32  C   LIG d   1      11.512   4.356  -4.379  0.00  0.00     0.012 C 
ATOM     33  H   LIG d   1      11.023   3.594  -3.754  0.00  0.00     0.032 H 
ATOM     34  H   LIG d   1      12.120   5.016  -3.742  0.00  0.00     0.032 H 
ATOM     35  H   LIG d   1      12.158   3.865  -5.121  0.00  0.00     0.032 H 
ENDBRANCH  24  32
ENDBRANCH   1  16
BRANCH   3  36
ATOM     36  O   LIG d   1      11.538  12.434  -3.106  0.00  0.00    -0.384 OA
ATOM     37  H   LIG d   1      12.247  12.766  -2.332  0.00  0.00     0.210 HD
ENDBRANCH   3  36
BRANCH   5  38
ATOM     38  N   LIG d   1       8.917  10.001  -2.062  0.00  0.00     0.238 N 
ATOM     39  H   LIG d   1       7.920   9.941  -2.525  0.00  0.00     0.202 HD
ATOM     40  H   LIG d   1       9.562   9.214  -2.478  0.00  0.00     0.202 HD
BRANCH  38  41
ATOM     41  C   LIG d   1       8.779   9.783  -0.616  0.00  0.00     0.026 C 
ATOM     42  H   LIG d   1       8.839  10.749  -0.092  0.00  0.00     0.090 H 
ATOM     43  H   LIG d   1       7.806   9.313  -0.407  0.00  0.00     0.090 H 
BRANCH  41  44
ATOM     44  C   LIG d   1       9.886   8.881  -0.136  0.00  0.00     0.150 A 
ATOM     45  O   LIG d   1       9.848   7.540  -0.101  0.00  0.00    -0.457 OA
ATOM     46  C   LIG d   1      11.009   7.070   0.383  0.00  0.00     0.131 A 
ATOM     47  C   LIG d   1      11.805   8.116   0.665  0.00  0.00    -0.018 A 
ATOM     48  C   LIG d   1      11.084   9.283   0.325  0.00  0.00    -0.015 A 
ATOM     49  H   LIG d   1      12.806   8.072   1.069  0.00  0.00     0.065 H 
ATOM     50  H   LIG d   1      11.428  10.302   0.420  0.00  0.00     0.065 H 
BRANCH  46  51
ATOM     51  C   LIG d   1      11.360   5.617   0.578  0.00  0.00     0.102 C 
ATOM     52  H   LIG d   1      11.117   5.055  -0.337  0.00  0.00     0.064 H 
ATOM     53  H   LIG d   1      12.434   5.525   0.790  0.00  0.00     0.064 H 
BRANCH  51  54
ATOM     54  O   LIG d   1      10.610   5.089   1.674  0.00  0.00    -0.387 OA
ATOM     55  H   LIG d   1      11.122   4.534   2.474  0.00  0.00     0.210 HD
ENDBRANCH  51  54
ENDBRANCH  46  51
ENDBRANCH  41  44
ENDBRANCH  38  41
ENDBRANCH   5  38
TORSDOF 8
ENDMDL
MODEL 9
REMARK VINA RESULT:      -5.5     11.855     14.928
REMARK  8 active torsions:
REMARK  status: ('A' for Active; 'I' for Inactive)
REMARK    1  A    between atoms: C_1  and  C_2 
REMARK       I    between atoms: C_2  and  N_4 
REMARK    2  A    between atoms: N_7  and  C_10 
REMARK    3  A    between atoms: C_12  and  O_32 
REMARK    4  A    between atoms: C_14  and  N_23 
REMARK    5  A    between atoms: N_23  and  C_24 
REMARK    6  A    between atoms: C_24  and  C_25 
REMARK    7  A    between atoms: C_28  and  C_30 
REMARK    8  A    between atoms: C_30  and  O_31 
ROOT
ATOM      1  C   LIG d   1      11.781   7.545  -1.180  0.00  0.00     0.093 C 
ATOM      2  H   LIG d   1      12.729   7.589  -0.623  0.00  0.00     0.054 H 
ATOM      3  C   LIG d   1      12.019   7.104  -2.628  0.00  0.00     0.120 C 
ATOM      4  H   LIG d   1      12.667   7.815  -3.162  0.00  0.00     0.067 H 
ATOM      5  C   LIG d   1      10.649   6.918  -3.333  0.00  0.00     0.035 C 
ATOM      6  H   LIG d   1      10.766   6.527  -4.354  0.00  0.00     0.090 H 
ATOM      7  C   LIG d   1       9.795   5.987  -2.458  0.00  0.00     0.130 C 
ATOM      8  H   LIG d   1       8.866   5.706  -2.977  0.00  0.00     0.068 H 
ATOM      9  C   LIG d   1      10.677   4.800  -2.001  0.00  0.00     0.082 C 
ATOM     10  O   LIG d   1      11.259   5.230  -0.758  0.00  0.00    -0.347 OA
ATOM     11  C   LIG d   1      10.795   6.571  -0.518  0.00  0.00     0.178 C 
ATOM     12  H   LIG d   1      10.668   6.742   0.561  0.00  0.00     0.093 H 
ATOM     13  O   LIG d   1       9.535   6.685  -1.216  0.00  0.00    -0.339 OA
ATOM     14  H   LIG d   1      10.051   3.907  -1.871  0.00  0.00     0.059 H 
ATOM     15  H   LIG d   1      11.446   4.602  -2.763  0.00  0.00     0.059 H 
ENDROOT
BRANCH   1  16
ATOM     16  N   LIG d   1      11.217   8.902  -1.166  0.00  0.00    -0.290 N 
ATOM     17  C   LIG d   1      12.251   9.905  -1.456  0.00  0.00     0.015 C 
ATOM     18  C   LIG d   1      11.589  11.283  -1.614  0.00  0.00     0.028 C 
ATOM     19  H   LIG d   1      12.772   9.639  -2.387  0.00  0.00     0.044 H 
ATOM     20  H   LIG d   1      12.974   9.939  -0.628  0.00  0.00     0.044 H 
ATOM     21  N   LIG d   1      10.784  11.549  -0.412  0.00  0.00    -0.299 N 
ATOM     22  H   LIG d   1      10.938  11.290  -2.500  0.00  0.00     0.048 H 
ATOM     23  H   LIG d   1      12.360  12.061  -1.720  0.00  0.00     0.048 H 
ATOM     24  C   LIG d   1      10.923  12.703   0.271  0.00  0.00     0.212 C 
ATOM     25  C   LIG d   1       9.821  10.526   0.021  0.00  0.00     0.028 C 
ATOM     26  O   LIG d   1      10.187  12.947   1.205  0.00  0.00    -0.276 OA
ATOM     27  C   LIG d   1      10.548   9.180   0.111  0.00  0.00     0.015 C 
ATOM     28  H   LIG d   1       9.414  10.800   1.005  0.00  0.00     0.048 H 
ATOM     29  H   LIG d   1       9.001  10.462  -0.710  0.00  0.00     0.048 H 
ATOM     30  H   LIG d   1       9.821   8.383   0.325  0.00  0.00     0.044 H 
ATOM     31  H   LIG d   1      11.296   9.220   0.917  0.00  0.00     0.044 H 
BRANCH  24  32
ATOM     32  C   LIG d   1      11.991  13.690  -0.124  0.00  0.00     0.012 C 
ATOM     33  H   LIG d   1      11.619  14.714   0.031  0.00  0.00     0.032 H 
ATOM     34  H   LIG d   1      12.245  13.549  -1.185  0.00  0.00     0.032 H 
ATOM     35  H   LIG d   1      12.887  13.527   0.493  0.00  0.00     0.032 H 
ENDBRANCH  24  32
ENDBRANCH   1  16
BRANCH   3  36
ATOM     36  O   LIG d   1      12.740   5.870  -2.638  0.00  0.00    -0.384 OA
ATOM     37  H   LIG d   1      12.893   5.329  -3.584  0.00  0.00     0.210 HD
ENDBRANCH   3  36
BRANCH   5  38
ATOM     38  N   LIG d   1       9.969   8.212  -3.486  0.00  0.00     0.238 N 
ATOM     39  H   LIG d   1       8.988   8.172  -2.988  0.00  0.00     0.202 HD
ATOM     40  H   LIG d   1      10.580   9.003  -3.029  0.00  0.00     0.202 HD
BRANCH  38  41
ATOM     41  C   LIG d   1       9.765   8.534  -4.905  0.00  0.00     0.026 C 
ATOM     42  H   LIG d   1      10.634   8.192  -5.487  0.00  0.00     0.090 H 
ATOM     43  H   LIG d   1       8.858   8.029  -5.269  0.00  0.00     0.090 H 
BRANCH  41  44
ATOM     44  C   LIG d   1       9.608  10.024  -5.064  0.00  0.00     0.150 A 
ATOM     45  O   LIG d   1       9.821  10.721  -6.191  0.00  0.00    -0.457 OA
ATOM     46  C   LIG d   1       9.584  12.024  -5.965  0.00  0.00     0.131 A 
ATOM     47  C   LIG d   1       9.216  12.171  -4.680  0.00  0.00    -0.018 A 
ATOM     48  C   LIG d   1       9.226  10.882  -4.100  0.00  0.00    -0.015 A 
ATOM     49  H   LIG d   1       8.958  13.097  -4.187  0.00  0.00     0.065 H 
ATOM     50  H   LIG d   1       8.977  10.634  -3.079  0.00  0.00     0.065 H 
BRANCH  46  51
ATOM     51  C   LIG d   1       9.710  13.132  -6.979  0.00  0.00     0.102 C 
ATOM     52  H   LIG d   1       9.451  14.092  -6.507  0.00  0.00     0.064 H 
ATOM     53  H   LIG d   1      10.744  13.174  -7.350  0.00  0.00     0.064 H 
BRANCH  51  54
ATOM     54  O   LIG d   1       8.821  12.883  -8.070  0.00  0.00    -0.387 OA
ATOM     55  H   LIG d   1       9.023  12.055  -8.765  0.00  0.00     0.210 HD
ENDBRANCH  51  54
ENDBRANCH  46  51
ENDBRANCH  41  44
ENDBRANCH  38  41
ENDBRANCH   5  38
TORSDOF 8
ENDMDL
