MODEL 1
REMARK VINA RESULT:      -4.8      0.000      0.000
REMARK  12 active torsions:
REMARK  status: ('A' for Active; 'I' for Inactive)
REMARK    1  A    between atoms: C_1  and  C_2 
REMARK    2  A    between atoms: C_7  and  N_9 
REMARK    3  A    between atoms: N_9  and  C_10 
REMARK    4  A    between atoms: C_12  and  C_32 
REMARK    5  A    between atoms: C_15  and  O_31 
REMARK    6  A    between atoms: C_17  and  C_21 
REMARK    7  A    between atoms: C_21  and  C_23 
REMARK    8  A    between atoms: C_21  and  C_24 
REMARK       I    between atoms: C_24  and  N_26 
REMARK    9  A    between atoms: N_26  and  C_27 
REMARK   10  A    between atoms: C_27  and  C_28 
REMARK   11  A    between atoms: C_28  and  O_29 
REMARK   12  A    between atoms: O_29  and  C_30 
ROOT
ATOM      1  C   LIG d   1       9.455   2.627  -6.520  0.00  0.00     0.005 C 
ATOM      2  H   LIG d   1      10.420   2.139  -6.661  0.00  0.00     0.036 H 
ATOM      3  C   LIG d   1       8.404   1.581  -6.184  0.00  0.00     0.057 A 
ATOM      4  C   LIG d   1       8.004   1.406  -4.899  0.00  0.00     0.015 A 
ATOM      5  S   LIG d   1       6.809   0.103  -5.038  0.00  0.00    -0.057 SA
ATOM      6  C   LIG d   1       6.923  -0.108  -6.759  0.00  0.00     0.158 A 
ATOM      7  N   LIG d   1       7.825   0.792  -7.089  0.00  0.00    -0.229 NA
ATOM      8  C   LIG d   1       8.471   2.139  -3.693  0.00  0.00    -0.014 C 
ATOM      9  C   LIG d   1       9.759   2.911  -4.041  0.00  0.00    -0.022 C 
ATOM     10  C   LIG d   1       9.573   3.639  -5.374  0.00  0.00    -0.001 C 
ATOM     11  H   LIG d   1       8.666   4.241  -5.338  0.00  0.00     0.034 H 
ATOM     12  C   LIG d   1      10.760   4.548  -5.666  0.00  0.00     0.063 C 
ATOM     13  H   LIG d   1      11.657   3.938  -5.762  0.00  0.00     0.060 H 
ATOM     14  C   LIG d   1      10.950   5.554  -4.532  0.00  0.00    -0.004 C 
ATOM     15  H   LIG d   1      11.800   6.200  -4.756  0.00  0.00     0.033 H 
ATOM     16  C   LIG d   1      11.215   4.790  -3.232  0.00  0.00    -0.047 C 
ATOM     17  C   LIG d   1       9.999   3.922  -2.915  0.00  0.00    -0.047 C 
ATOM     18  H   LIG d   1       8.676   1.430  -2.891  0.00  0.00     0.032 H 
ATOM     19  H   LIG d   1       7.700   2.842  -3.372  0.00  0.00     0.032 H 
ATOM     20  H   LIG d   1      12.094   4.157  -3.351  0.00  0.00     0.027 H 
ATOM     21  H   LIG d   1      11.380   5.498  -2.419  0.00  0.00     0.027 H 
ATOM     22  H   LIG d   1      10.170   3.388  -1.981  0.00  0.00     0.027 H 
ATOM     23  H   LIG d   1       9.119   4.558  -2.811  0.00  0.00     0.027 H 
ENDROOT
BRANCH  14  24
ATOM     24  C   LIG d   1       9.687   6.402  -4.380  0.00  0.00     0.038 C 
ATOM     25  H   LIG d   1       8.838   5.754  -4.164  0.00  0.00     0.040 H 
BRANCH  24  26
ATOM     26  C   LIG d   1       9.426   7.165  -5.681  0.00  0.00    -0.054 C 
ATOM     27  H   LIG d   1       9.018   8.149  -5.448  0.00  0.00     0.024 H 
ATOM     28  H   LIG d   1      10.361   7.281  -6.229  0.00  0.00     0.024 H 
ATOM     29  H   LIG d   1       8.713   6.611  -6.291  0.00  0.00     0.024 H 
ENDBRANCH  24  26
BRANCH  24  30
ATOM     30  C   LIG d   1       9.873   7.383  -3.251  0.00  0.00     0.216 C 
ATOM     31  O   LIG d   1      10.687   8.276  -3.352  0.00  0.00    -0.276 OA
ATOM     32  N   LIG d   1       9.133   7.267  -2.130  0.00  0.00    -0.313 N 
ATOM     33  H   LIG d   1       8.483   6.553  -2.049  0.00  0.00     0.149 HD
BRANCH  32  34
ATOM     34  C   LIG d   1       9.315   8.220  -1.032  0.00  0.00     0.035 C 
ATOM     35  H   LIG d   1       9.570   9.198  -1.439  0.00  0.00     0.048 H 
ATOM     36  H   LIG d   1       8.391   8.294  -0.458  0.00  0.00     0.048 H 
BRANCH  34  37
ATOM     37  C   LIG d   1      10.444   7.737  -0.119  0.00  0.00     0.063 C 
ATOM     38  H   LIG d   1      11.404   7.912  -0.602  0.00  0.00     0.058 H 
ATOM     39  H   LIG d   1      10.407   8.282   0.825  0.00  0.00     0.058 H 
BRANCH  37  40
ATOM     40  O   LIG d   1      10.286   6.339   0.134  0.00  0.00    -0.381 OA
BRANCH  40  41
ATOM     41  C   LIG d   1      11.080   5.851   1.218  0.00  0.00     0.036 C 
ATOM     42  H   LIG d   1      11.201   4.772   1.121  0.00  0.00     0.052 H 
ATOM     43  H   LIG d   1      12.058   6.330   1.194  0.00  0.00     0.052 H 
ATOM     44  H   LIG d   1      10.585   6.078   2.161  0.00  0.00     0.052 H 
ENDBRANCH  40  41
ENDBRANCH  37  40
ENDBRANCH  34  37
ENDBRANCH  32  34
ENDBRANCH  24  30
ENDBRANCH  14  24
BRANCH  12  45
ATOM     45  O   LIG d   1      10.538   5.252  -6.889  0.00  0.00    -0.391 OA
ATOM     46  H   LIG d   1      11.338   5.635  -7.274  0.00  0.00     0.210 HD
ENDBRANCH  12  45
BRANCH   1  47
ATOM     47  C   LIG d   1       9.059   3.354  -7.807  0.00  0.00    -0.057 C 
ATOM     48  H   LIG d   1       9.416   2.787  -8.667  0.00  0.00     0.024 H 
ATOM     49  H   LIG d   1       7.973   3.441  -7.855  0.00  0.00     0.024 H 
ATOM     50  H   LIG d   1       9.506   4.347  -7.816  0.00  0.00     0.024 H 
ENDBRANCH   1  47
BRANCH   9  51
ATOM     51  C   LIG d   1      10.939   1.943  -4.134  0.00  0.00    -0.059 C 
ATOM     52  H   LIG d   1      11.673   2.188  -3.367  0.00  0.00     0.024 H 
ATOM     53  H   LIG d   1      10.586   0.922  -3.986  0.00  0.00     0.024 H 
ATOM     54  H   LIG d   1      11.401   2.027  -5.118  0.00  0.00     0.024 H 
ENDBRANCH   9  51
BRANCH   6  55
ATOM     55  N   LIG d   1       6.237  -0.995  -7.575  0.00  0.00    -0.327 N 
ATOM     56  H   LIG d   1       6.727  -1.573  -8.180  0.00  0.00     0.148 HD
BRANCH  55  57
ATOM     57  C   LIG d   1       4.775  -1.059  -7.522  0.00  0.00    -0.001 C 
ATOM     58  H   LIG d   1       4.360  -0.674  -8.453  0.00  0.00     0.043 H 
ATOM     59  H   LIG d   1       4.461  -2.094  -7.385  0.00  0.00     0.043 H 
ATOM     60  H   LIG d   1       4.415  -0.457  -6.687  0.00  0.00     0.043 H 
ENDBRANCH  55  57
ENDBRANCH   6  55
TORSDOF 12
ENDMDL
MODEL 2
REMARK VINA RESULT:      -4.8      4.234      9.286
REMARK  12 active torsions:
REMARK  status: ('A' for Active; 'I' for Inactive)
REMARK    1  A    between atoms: C_1  and  C_2 
REMARK    2  A    between atoms: C_7  and  N_9 
REMARK    3  A    between atoms: N_9  and  C_10 
REMARK    4  A    between atoms: C_12  and  C_32 
REMARK    5  A    between atoms: C_15  and  O_31 
REMARK    6  A    between atoms: C_17  and  C_21 
REMARK    7  A    between atoms: C_21  and  C_23 
REMARK    8  A    between atoms: C_21  and  C_24 
REMARK       I    between atoms: C_24  and  N_26 
REMARK    9  A    between atoms: N_26  and  C_27 
REMARK   10  A    between atoms: C_27  and  C_28 
REMARK   11  A    between atoms: C_28  and  O_29 
REMARK   12  A    between atoms: O_29  and  C_30 
ROOT
ATOM      1  C   LIG d   1       7.026   0.343  -4.312  0.00  0.00     0.005 C 
ATOM      2  H   LIG d   1       7.504  -0.631  -4.200  0.00  0.00     0.036 H 
ATOM      3  C   LIG d   1       8.093   1.422  -4.400  0.00  0.00     0.057 A 
ATOM      4  C   LIG d   1       8.433   1.946  -5.605  0.00  0.00     0.015 A 
ATOM      5  S   LIG d   1       9.688   3.123  -5.178  0.00  0.00    -0.057 SA
ATOM      6  C   LIG d   1       9.669   2.842  -3.463  0.00  0.00     0.158 A 
ATOM      7  N   LIG d   1       8.745   1.911  -3.346  0.00  0.00    -0.229 NA
ATOM      8  C   LIG d   1       7.874   1.599  -6.939  0.00  0.00    -0.014 C 
ATOM      9  C   LIG d   1       7.081   0.282  -6.824  0.00  0.00    -0.022 C 
ATOM     10  C   LIG d   1       6.179   0.337  -5.589  0.00  0.00    -0.001 C 
ATOM     11  H   LIG d   1       5.573   1.242  -5.618  0.00  0.00     0.034 H 
ATOM     12  C   LIG d   1       5.254  -0.874  -5.538  0.00  0.00     0.063 C 
ATOM     13  H   LIG d   1       5.859  -1.776  -5.448  0.00  0.00     0.060 H 
ATOM     14  C   LIG d   1       4.413  -0.953  -6.810  0.00  0.00    -0.004 C 
ATOM     15  H   LIG d   1       3.754  -1.821  -6.758  0.00  0.00     0.033 H 
ATOM     16  C   LIG d   1       5.347  -1.090  -8.015  0.00  0.00    -0.047 C 
ATOM     17  C   LIG d   1       6.232   0.153  -8.093  0.00  0.00    -0.047 C 
ATOM     18  H   LIG d   1       8.686   1.474  -7.654  0.00  0.00     0.032 H 
ATOM     19  H   LIG d   1       7.210   2.396  -7.275  0.00  0.00     0.032 H 
ATOM     20  H   LIG d   1       5.970  -1.975  -7.898  0.00  0.00     0.027 H 
ATOM     21  H   LIG d   1       4.756  -1.175  -8.928  0.00  0.00     0.027 H 
ATOM     22  H   LIG d   1       6.889   0.074  -8.959  0.00  0.00     0.027 H 
ATOM     23  H   LIG d   1       5.604   1.037  -8.196  0.00  0.00     0.027 H 
ENDROOT
BRANCH  14  24
ATOM     24  C   LIG d   1       3.574   0.318  -6.951  0.00  0.00     0.038 C 
ATOM     25  H   LIG d   1       4.227   1.190  -6.911  0.00  0.00     0.040 H 
BRANCH  24  26
ATOM     26  C   LIG d   1       2.559   0.390  -5.808  0.00  0.00    -0.054 C 
ATOM     27  H   LIG d   1       1.550   0.347  -6.217  0.00  0.00     0.024 H 
ATOM     28  H   LIG d   1       2.713  -0.451  -5.132  0.00  0.00     0.024 H 
ATOM     29  H   LIG d   1       2.692   1.324  -5.262  0.00  0.00     0.024 H 
ENDBRANCH  24  26
BRANCH  24  30
ATOM     30  C   LIG d   1       2.845   0.295  -8.270  0.00  0.00     0.216 C 
ATOM     31  O   LIG d   1       2.820   1.287  -8.966  0.00  0.00    -0.276 OA
ATOM     32  N   LIG d   1       2.221  -0.829  -8.675  0.00  0.00    -0.313 N 
ATOM     33  H   LIG d   1       2.240  -1.623  -8.118  0.00  0.00     0.149 HD
BRANCH  32  34
ATOM     34  C   LIG d   1       1.511  -0.850  -9.956  0.00  0.00     0.035 C 
ATOM     35  H   LIG d   1       0.567  -1.382  -9.841  0.00  0.00     0.048 H 
ATOM     36  H   LIG d   1       1.315   0.173 -10.280  0.00  0.00     0.048 H 
BRANCH  34  37
ATOM     37  C   LIG d   1       2.371  -1.559 -11.004  0.00  0.00     0.063 C 
ATOM     38  H   LIG d   1       3.238  -2.008 -10.521  0.00  0.00     0.058 H 
ATOM     39  H   LIG d   1       1.784  -2.337 -11.492  0.00  0.00     0.058 H 
BRANCH  37  40
ATOM     40  O   LIG d   1       2.809  -0.611 -11.981  0.00  0.00    -0.381 OA
BRANCH  40  41
ATOM     41  C   LIG d   1       4.171  -0.207 -11.829  0.00  0.00     0.036 C 
ATOM     42  H   LIG d   1       4.769  -1.061 -11.509  0.00  0.00     0.052 H 
ATOM     43  H   LIG d   1       4.548   0.163 -12.782  0.00  0.00     0.052 H 
ATOM     44  H   LIG d   1       4.234   0.582 -11.081  0.00  0.00     0.052 H 
ENDBRANCH  40  41
ENDBRANCH  37  40
ENDBRANCH  34  37
ENDBRANCH  32  34
ENDBRANCH  24  30
ENDBRANCH  14  24
BRANCH  12  45
ATOM     45  O   LIG d   1       4.391  -0.773  -4.405  0.00  0.00    -0.391 OA
ATOM     46  H   LIG d   1       4.855  -0.649  -3.566  0.00  0.00     0.210 HD
ENDBRANCH  12  45
BRANCH   1  47
ATOM     47  C   LIG d   1       6.129   0.611  -3.102  0.00  0.00    -0.057 C 
ATOM     48  H   LIG d   1       6.408  -0.059  -2.288  0.00  0.00     0.024 H 
ATOM     49  H   LIG d   1       6.253   1.645  -2.779  0.00  0.00     0.024 H 
ATOM     50  H   LIG d   1       5.089   0.437  -3.375  0.00  0.00     0.024 H 
ENDBRANCH   1  47
BRANCH   9  51
ATOM     51  C   LIG d   1       8.044  -0.900  -6.716  0.00  0.00    -0.059 C 
ATOM     52  H   LIG d   1       7.796  -1.642  -7.475  0.00  0.00     0.024 H 
ATOM     53  H   LIG d   1       9.066  -0.553  -6.866  0.00  0.00     0.024 H 
ATOM     54  H   LIG d   1       7.956  -1.351  -5.727  0.00  0.00     0.024 H 
ENDBRANCH   9  51
BRANCH   6  55
ATOM     55  N   LIG d   1      10.429   3.445  -2.473  0.00  0.00    -0.327 N 
ATOM     56  H   LIG d   1      11.053   2.916  -1.951  0.00  0.00     0.148 HD
BRANCH  55  57
ATOM     57  C   LIG d   1      10.293   4.880  -2.216  0.00  0.00    -0.001 C 
ATOM     58  H   LIG d   1      10.935   5.163  -1.382  0.00  0.00     0.043 H 
ATOM     59  H   LIG d   1      10.584   5.438  -3.106  0.00  0.00     0.043 H 
ATOM     60  H   LIG d   1       9.255   5.107  -1.968  0.00  0.00     0.043 H 
ENDBRANCH  55  57
ENDBRANCH   6  55
TORSDOF 12
ENDMDL
MODEL 3
REMARK VINA RESULT:      -4.7      3.274      7.830
REMARK  12 active torsions:
REMARK  status: ('A' for Active; 'I' for Inactive)
REMARK    1  A    between atoms: C_1  and  C_2 
REMARK    2  A    between atoms: C_7  and  N_9 
REMARK    3  A    between atoms: N_9  and  C_10 
REMARK    4  A    between atoms: C_12  and  C_32 
REMARK    5  A    between atoms: C_15  and  O_31 
REMARK    6  A    between atoms: C_17  and  C_21 
REMARK    7  A    between atoms: C_21  and  C_23 
REMARK    8  A    between atoms: C_21  and  C_24 
REMARK       I    between atoms: C_24  and  N_26 
REMARK    9  A    between atoms: N_26  and  C_27 
REMARK   10  A    between atoms: C_27  and  C_28 
REMARK   11  A    between atoms: C_28  and  O_29 
REMARK   12  A    between atoms: O_29  and  C_30 
ROOT
ATOM      1  C   LIG d   1      10.194   6.132  -4.740  0.00  0.00     0.005 C 
ATOM      2  H   LIG d   1      11.270   6.095  -4.566  0.00  0.00     0.036 H 
ATOM      3  C   LIG d   1       9.872   7.294  -5.666  0.00  0.00     0.057 A 
ATOM      4  C   LIG d   1       9.629   7.068  -6.982  0.00  0.00     0.015 A 
ATOM      5  S   LIG d   1       9.323   8.699  -7.607  0.00  0.00    -0.057 SA
ATOM      6  C   LIG d   1       9.533   9.546  -6.104  0.00  0.00     0.158 A 
ATOM      7  N   LIG d   1       9.809   8.565  -5.270  0.00  0.00    -0.229 NA
ATOM      8  C   LIG d   1       9.627   5.764  -7.696  0.00  0.00    -0.014 C 
ATOM      9  C   LIG d   1      10.297   4.701  -6.804  0.00  0.00    -0.022 C 
ATOM     10  C   LIG d   1       9.749   4.812  -5.379  0.00  0.00    -0.001 C 
ATOM     11  H   LIG d   1       8.660   4.779  -5.403  0.00  0.00     0.034 H 
ATOM     12  C   LIG d   1      10.259   3.670  -4.510  0.00  0.00     0.063 C 
ATOM     13  H   LIG d   1      11.344   3.739  -4.437  0.00  0.00     0.060 H 
ATOM     14  C   LIG d   1       9.878   2.324  -5.125  0.00  0.00    -0.004 C 
ATOM     15  H   LIG d   1      10.246   1.516  -4.490  0.00  0.00     0.033 H 
ATOM     16  C   LIG d   1      10.512   2.216  -6.514  0.00  0.00    -0.047 C 
ATOM     17  C   LIG d   1       9.954   3.331  -7.397  0.00  0.00    -0.047 C 
ATOM     18  H   LIG d   1      10.181   5.858  -8.630  0.00  0.00     0.032 H 
ATOM     19  H   LIG d   1       8.599   5.466  -7.909  0.00  0.00     0.032 H 
ATOM     20  H   LIG d   1      11.593   2.321  -6.432  0.00  0.00     0.027 H 
ATOM     21  H   LIG d   1      10.270   1.247  -6.952  0.00  0.00     0.027 H 
ATOM     22  H   LIG d   1      10.386   3.251  -8.394  0.00  0.00     0.027 H 
ATOM     23  H   LIG d   1       8.871   3.230  -7.463  0.00  0.00     0.027 H 
ENDROOT
BRANCH  14  24
ATOM     24  C   LIG d   1       8.357   2.227  -5.246  0.00  0.00     0.038 C 
ATOM     25  H   LIG d   1       7.965   3.157  -5.659  0.00  0.00     0.040 H 
BRANCH  24  26
ATOM     26  C   LIG d   1       7.748   1.990  -3.862  0.00  0.00    -0.054 C 
ATOM     27  H   LIG d   1       6.759   1.546  -3.972  0.00  0.00     0.024 H 
ATOM     28  H   LIG d   1       8.388   1.314  -3.295  0.00  0.00     0.024 H 
ATOM     29  H   LIG d   1       7.665   2.940  -3.333  0.00  0.00     0.024 H 
ENDBRANCH  24  26
BRANCH  24  30
ATOM     30  C   LIG d   1       7.997   1.081  -6.155  0.00  0.00     0.216 C 
ATOM     31  O   LIG d   1       8.495  -0.010  -5.983  0.00  0.00    -0.276 OA
ATOM     32  N   LIG d   1       7.120   1.270  -7.162  0.00  0.00    -0.313 N 
ATOM     33  H   LIG d   1       6.721   2.143  -7.301  0.00  0.00     0.149 HD
BRANCH  32  34
ATOM     34  C   LIG d   1       6.771   0.156  -8.047  0.00  0.00     0.035 C 
ATOM     35  H   LIG d   1       7.614  -0.068  -8.699  0.00  0.00     0.048 H 
ATOM     36  H   LIG d   1       6.531  -0.723  -7.447  0.00  0.00     0.048 H 
BRANCH  34  37
ATOM     37  C   LIG d   1       5.556   0.539  -8.895  0.00  0.00     0.063 C 
ATOM     38  H   LIG d   1       5.865   0.682  -9.930  0.00  0.00     0.058 H 
ATOM     39  H   LIG d   1       4.811  -0.255  -8.844  0.00  0.00     0.058 H 
BRANCH  37  40
ATOM     40  O   LIG d   1       4.990   1.753  -8.395  0.00  0.00    -0.381 OA
BRANCH  40  41
ATOM     41  C   LIG d   1       4.211   2.470  -9.355  0.00  0.00     0.036 C 
ATOM     42  H   LIG d   1       3.804   3.369  -8.893  0.00  0.00     0.052 H 
ATOM     43  H   LIG d   1       4.842   2.749 -10.198  0.00  0.00     0.052 H 
ATOM     44  H   LIG d   1       3.395   1.839  -9.704  0.00  0.00     0.052 H 
ENDBRANCH  40  41
ENDBRANCH  37  40
ENDBRANCH  34  37
ENDBRANCH  32  34
ENDBRANCH  24  30
ENDBRANCH  14  24
BRANCH  12  45
ATOM     45  O   LIG d   1       9.694   3.770  -3.202  0.00  0.00    -0.391 OA
ATOM     46  H   LIG d   1       9.864   4.614  -2.763  0.00  0.00     0.210 HD
ENDBRANCH  12  45
BRANCH   1  47
ATOM     47  C   LIG d   1       9.470   6.327  -3.407  0.00  0.00    -0.057 C 
ATOM     48  H   LIG d   1       9.811   5.574  -2.695  0.00  0.00     0.024 H 
ATOM     49  H   LIG d   1       9.689   7.321  -3.016  0.00  0.00     0.024 H 
ATOM     50  H   LIG d   1       8.396   6.224  -3.558  0.00  0.00     0.024 H 
ENDBRANCH   1  47
BRANCH   9  51
ATOM     51  C   LIG d   1      11.812   4.904  -6.797  0.00  0.00    -0.059 C 
ATOM     52  H   LIG d   1      12.037   5.971  -6.799  0.00  0.00     0.024 H 
ATOM     53  H   LIG d   1      12.238   4.444  -5.905  0.00  0.00     0.024 H 
ATOM     54  H   LIG d   1      12.245   4.441  -7.684  0.00  0.00     0.024 H 
ENDBRANCH   9  51
BRANCH   6  55
ATOM     55  N   LIG d   1       9.433  10.905  -5.849  0.00  0.00    -0.327 N 
ATOM     56  H   LIG d   1       9.578  11.544  -6.564  0.00  0.00     0.148 HD
BRANCH  55  57
ATOM     57  C   LIG d   1       9.107  11.375  -4.501  0.00  0.00    -0.001 C 
ATOM     58  H   LIG d   1       9.779  10.909  -3.780  0.00  0.00     0.043 H 
ATOM     59  H   LIG d   1       9.219  12.458  -4.456  0.00  0.00     0.043 H 
ATOM     60  H   LIG d   1       8.077  11.107  -4.262  0.00  0.00     0.043 H 
ENDBRANCH  55  57
ENDBRANCH   6  55
TORSDOF 12
ENDMDL
MODEL 4
REMARK VINA RESULT:      -4.7      8.800     14.053
REMARK  12 active torsions:
REMARK  status: ('A' for Active; 'I' for Inactive)
REMARK    1  A    between atoms: C_1  and  C_2 
REMARK    2  A    between atoms: C_7  and  N_9 
REMARK    3  A    between atoms: N_9  and  C_10 
REMARK    4  A    between atoms: C_12  and  C_32 
REMARK    5  A    between atoms: C_15  and  O_31 
REMARK    6  A    between atoms: C_17  and  C_21 
REMARK    7  A    between atoms: C_21  and  C_23 
REMARK    8  A    between atoms: C_21  and  C_24 
REMARK       I    between atoms: C_24  and  N_26 
REMARK    9  A    between atoms: N_26  and  C_27 
REMARK   10  A    between atoms: C_27  and  C_28 
REMARK   11  A    between atoms: C_28  and  O_29 
REMARK   12  A    between atoms: O_29  and  C_30 
ROOT
ATOM      1  C   LIG d   1       3.444  -2.752  -9.383  0.00  0.00     0.005 C 
ATOM      2  H   LIG d   1       4.311  -2.676 -10.040  0.00  0.00     0.036 H 
ATOM      3  C   LIG d   1       3.409  -1.552  -8.451  0.00  0.00     0.057 A 
ATOM      4  C   LIG d   1       2.570  -0.516  -8.706  0.00  0.00     0.015 A 
ATOM      5  S   LIG d   1       2.909   0.599  -7.369  0.00  0.00    -0.057 SA
ATOM      6  C   LIG d   1       4.116  -0.374  -6.582  0.00  0.00     0.158 A 
ATOM      7  N   LIG d   1       4.169  -1.433  -7.363  0.00  0.00    -0.229 NA
ATOM      8  C   LIG d   1       1.613  -0.377  -9.835  0.00  0.00    -0.014 C 
ATOM      9  C   LIG d   1       1.947  -1.430 -10.910  0.00  0.00    -0.022 C 
ATOM     10  C   LIG d   1       2.174  -2.787 -10.241  0.00  0.00    -0.001 C 
ATOM     11  H   LIG d   1       1.322  -3.027  -9.604  0.00  0.00     0.034 H 
ATOM     12  C   LIG d   1       2.337  -3.886 -11.283  0.00  0.00     0.063 C 
ATOM     13  H   LIG d   1       3.224  -3.677 -11.881  0.00  0.00     0.060 H 
ATOM     14  C   LIG d   1       1.113  -3.939 -12.196  0.00  0.00    -0.004 C 
ATOM     15  H   LIG d   1       1.242  -4.732 -12.934  0.00  0.00     0.033 H 
ATOM     16  C   LIG d   1       0.968  -2.592 -12.909  0.00  0.00    -0.047 C 
ATOM     17  C   LIG d   1       0.749  -1.502 -11.861  0.00  0.00    -0.047 C 
ATOM     18  H   LIG d   1       1.697   0.621 -10.264  0.00  0.00     0.032 H 
ATOM     19  H   LIG d   1       0.596  -0.536  -9.474  0.00  0.00     0.032 H 
ATOM     20  H   LIG d   1       1.873  -2.378 -13.475  0.00  0.00     0.027 H 
ATOM     21  H   LIG d   1       0.112  -2.627 -13.584  0.00  0.00     0.027 H 
ATOM     22  H   LIG d   1       0.626  -0.542 -12.360  0.00  0.00     0.027 H 
ATOM     23  H   LIG d   1      -0.150  -1.729 -11.288  0.00  0.00     0.027 H 
ENDROOT
BRANCH  14  24
ATOM     24  C   LIG d   1      -0.138  -4.215 -11.361  0.00  0.00     0.038 C 
ATOM     25  H   LIG d   1      -0.251  -3.437 -10.607  0.00  0.00     0.040 H 
BRANCH  24  26
ATOM     26  C   LIG d   1      -0.002  -5.575 -10.671  0.00  0.00    -0.054 C 
ATOM     27  H   LIG d   1      -0.187  -6.368 -11.395  0.00  0.00     0.024 H 
ATOM     28  H   LIG d   1       1.005  -5.678 -10.268  0.00  0.00     0.024 H 
ATOM     29  H   LIG d   1      -0.727  -5.646  -9.860  0.00  0.00     0.024 H 
ENDBRANCH  24  26
BRANCH  24  30
ATOM     30  C   LIG d   1      -1.349  -4.226 -12.258  0.00  0.00     0.216 C 
ATOM     31  O   LIG d   1      -1.388  -4.969 -13.215  0.00  0.00    -0.276 OA
ATOM     32  N   LIG d   1      -2.389  -3.410 -11.995  0.00  0.00    -0.313 N 
ATOM     33  H   LIG d   1      -2.359  -2.815 -11.229  0.00  0.00     0.149 HD
BRANCH  32  34
ATOM     34  C   LIG d   1      -3.566  -3.420 -12.868  0.00  0.00     0.035 C 
ATOM     35  H   LIG d   1      -3.582  -2.510 -13.467  0.00  0.00     0.048 H 
ATOM     36  H   LIG d   1      -3.523  -4.289 -13.526  0.00  0.00     0.048 H 
BRANCH  34  37
ATOM     37  C   LIG d   1      -4.834  -3.491 -12.014  0.00  0.00     0.063 C 
ATOM     38  H   LIG d   1      -5.331  -2.522 -12.018  0.00  0.00     0.058 H 
ATOM     39  H   LIG d   1      -5.506  -4.246 -12.423  0.00  0.00     0.058 H 
BRANCH  37  40
ATOM     40  O   LIG d   1      -4.485  -3.843 -10.673  0.00  0.00    -0.381 OA
BRANCH  40  41
ATOM     41  C   LIG d   1      -5.487  -3.515  -9.708  0.00  0.00     0.036 C 
ATOM     42  H   LIG d   1      -6.259  -2.906 -10.179  0.00  0.00     0.052 H 
ATOM     43  H   LIG d   1      -5.933  -4.432  -9.322  0.00  0.00     0.052 H 
ATOM     44  H   LIG d   1      -5.034  -2.958  -8.888  0.00  0.00     0.052 H 
ENDBRANCH  40  41
ENDBRANCH  37  40
ENDBRANCH  34  37
ENDBRANCH  32  34
ENDBRANCH  24  30
ENDBRANCH  14  24
BRANCH  12  45
ATOM     45  O   LIG d   1       2.497  -5.148 -10.633  0.00  0.00    -0.391 OA
ATOM     46  H   LIG d   1       2.941  -5.095  -9.775  0.00  0.00     0.210 HD
ENDBRANCH  12  45
BRANCH   1  47
ATOM     47  C   LIG d   1       3.542  -4.036  -8.558  0.00  0.00    -0.057 C 
ATOM     48  H   LIG d   1       4.537  -4.467  -8.674  0.00  0.00     0.024 H 
ATOM     49  H   LIG d   1       3.367  -3.806  -7.506  0.00  0.00     0.024 H 
ATOM     50  H   LIG d   1       2.794  -4.749  -8.904  0.00  0.00     0.024 H 
ENDBRANCH   1  47
BRANCH   9  51
ATOM     51  C   LIG d   1       3.201  -1.011 -11.679  0.00  0.00    -0.059 C 
ATOM     52  H   LIG d   1       3.290   0.075 -11.667  0.00  0.00     0.024 H 
ATOM     53  H   LIG d   1       4.080  -1.453 -11.211  0.00  0.00     0.024 H 
ATOM     54  H   LIG d   1       3.127  -1.357 -12.711  0.00  0.00     0.024 H 
ENDBRANCH   9  51
BRANCH   6  55
ATOM     55  N   LIG d   1       4.835  -0.105  -5.428  0.00  0.00    -0.327 N 
ATOM     56  H   LIG d   1       5.692   0.346  -5.485  0.00  0.00     0.148 HD
BRANCH  55  57
ATOM     57  C   LIG d   1       4.301  -0.500  -4.123  0.00  0.00    -0.001 C 
ATOM     58  H   LIG d   1       3.960  -1.534  -4.166  0.00  0.00     0.043 H 
ATOM     59  H   LIG d   1       5.081  -0.405  -3.367  0.00  0.00     0.043 H 
ATOM     60  H   LIG d   1       3.463   0.148  -3.863  0.00  0.00     0.043 H 
ENDBRANCH  55  57
ENDBRANCH   6  55
TORSDOF 12
ENDMDL
MODEL 5
REMARK VINA RESULT:      -4.6      7.489      9.835
REMARK  12 active torsions:
REMARK  status: ('A' for Active; 'I' for Inactive)
REMARK    1  A    between atoms: C_1  and  C_2 
REMARK    2  A    between atoms: C_7  and  N_9 
REMARK    3  A    between atoms: N_9  and  C_10 
REMARK    4  A    between atoms: C_12  and  C_32 
REMARK    5  A    between atoms: C_15  and  O_31 
REMARK    6  A    between atoms: C_17  and  C_21 
REMARK    7  A    between atoms: C_21  and  C_23 
REMARK    8  A    between atoms: C_21  and  C_24 
REMARK       I    between atoms: C_24  and  N_26 
REMARK    9  A    between atoms: N_26  and  C_27 
REMARK   10  A    between atoms: C_27  and  C_28 
REMARK   11  A    between atoms: C_28  and  O_29 
REMARK   12  A    between atoms: O_29  and  C_30 
ROOT
ATOM      1  C   LIG d   1       2.323  -1.940 -10.724  0.00  0.00     0.005 C 
ATOM      2  H   LIG d   1       3.057  -1.773 -11.514  0.00  0.00     0.036 H 
ATOM      3  C   LIG d   1       1.635  -3.276 -10.946  0.00  0.00     0.057 A 
ATOM      4  C   LIG d   1       2.005  -4.362 -10.220  0.00  0.00     0.015 A 
ATOM      5  S   LIG d   1       0.938  -5.632 -10.847  0.00  0.00    -0.057 SA
ATOM      6  C   LIG d   1       0.091  -4.648 -12.003  0.00  0.00     0.158 A 
ATOM      7  N   LIG d   1       0.660  -3.472 -11.833  0.00  0.00    -0.229 NA
ATOM      8  C   LIG d   1       3.052  -4.438  -9.167  0.00  0.00    -0.014 C 
ATOM      9  C   LIG d   1       3.934  -3.177  -9.242  0.00  0.00    -0.022 C 
ATOM     10  C   LIG d   1       3.043  -1.939  -9.370  0.00  0.00    -0.001 C 
ATOM     11  H   LIG d   1       2.300  -1.939  -8.573  0.00  0.00     0.034 H 
ATOM     12  C   LIG d   1       3.870  -0.662  -9.275  0.00  0.00     0.063 C 
ATOM     13  H   LIG d   1       4.572  -0.634 -10.107  0.00  0.00     0.060 H 
ATOM     14  C   LIG d   1       4.644  -0.629  -7.958  0.00  0.00    -0.004 C 
ATOM     15  H   LIG d   1       5.228   0.291  -7.902  0.00  0.00     0.033 H 
ATOM     16  C   LIG d   1       5.583  -1.837  -7.904  0.00  0.00    -0.047 C 
ATOM     17  C   LIG d   1       4.744  -3.113  -7.944  0.00  0.00    -0.047 C 
ATOM     18  H   LIG d   1       3.667  -5.323  -9.327  0.00  0.00     0.032 H 
ATOM     19  H   LIG d   1       2.578  -4.494  -8.186  0.00  0.00     0.032 H 
ATOM     20  H   LIG d   1       6.257  -1.816  -8.760  0.00  0.00     0.027 H 
ATOM     21  H   LIG d   1       6.162  -1.809  -6.980  0.00  0.00     0.027 H 
ATOM     22  H   LIG d   1       5.403  -3.979  -7.887  0.00  0.00     0.027 H 
ATOM     23  H   LIG d   1       4.062  -3.122  -7.095  0.00  0.00     0.027 H 
ENDROOT
BRANCH  14  24
ATOM     24  C   LIG d   1       3.665  -0.686  -6.785  0.00  0.00     0.038 C 
ATOM     25  H   LIG d   1       3.024  -1.562  -6.889  0.00  0.00     0.040 H 
BRANCH  24  26
ATOM     26  C   LIG d   1       2.802   0.577  -6.778  0.00  0.00    -0.054 C 
ATOM     27  H   LIG d   1       3.393   1.422  -7.132  0.00  0.00     0.024 H 
ATOM     28  H   LIG d   1       1.944   0.434  -7.434  0.00  0.00     0.024 H 
ATOM     29  H   LIG d   1       2.455   0.775  -5.763  0.00  0.00     0.024 H 
ENDBRANCH  24  26
BRANCH  24  30
ATOM     30  C   LIG d   1       4.434  -0.777  -5.492  0.00  0.00     0.216 C 
ATOM     31  O   LIG d   1       5.291   0.043  -5.238  0.00  0.00    -0.276 OA
ATOM     32  N   LIG d   1       4.169  -1.769  -4.619  0.00  0.00    -0.313 N 
ATOM     33  H   LIG d   1       3.485  -2.425  -4.822  0.00  0.00     0.149 HD
BRANCH  32  34
ATOM     34  C   LIG d   1       4.918  -1.857  -3.363  0.00  0.00     0.035 C 
ATOM     35  H   LIG d   1       5.220  -2.889  -3.191  0.00  0.00     0.048 H 
ATOM     36  H   LIG d   1       5.803  -1.223  -3.422  0.00  0.00     0.048 H 
BRANCH  34  37
ATOM     37  C   LIG d   1       4.032  -1.386  -2.207  0.00  0.00     0.063 C 
ATOM     38  H   LIG d   1       3.021  -1.207  -2.572  0.00  0.00     0.058 H 
ATOM     39  H   LIG d   1       4.009  -2.151  -1.431  0.00  0.00     0.058 H 
BRANCH  37  40
ATOM     40  O   LIG d   1       4.563  -0.175  -1.664  0.00  0.00    -0.381 OA
BRANCH  40  41
ATOM     41  C   LIG d   1       3.920   1.008  -2.143  0.00  0.00     0.036 C 
ATOM     42  H   LIG d   1       4.285   1.238  -3.145  0.00  0.00     0.052 H 
ATOM     43  H   LIG d   1       2.843   0.847  -2.178  0.00  0.00     0.052 H 
ATOM     44  H   LIG d   1       4.144   1.839  -1.475  0.00  0.00     0.052 H 
ENDBRANCH  40  41
ENDBRANCH  37  40
ENDBRANCH  34  37
ENDBRANCH  32  34
ENDBRANCH  24  30
ENDBRANCH  14  24
BRANCH  12  45
ATOM     45  O   LIG d   1       3.010   0.475  -9.347  0.00  0.00    -0.391 OA
ATOM     46  H   LIG d   1       2.285   0.381  -9.980  0.00  0.00     0.210 HD
ENDBRANCH  12  45
BRANCH   1  47
ATOM     47  C   LIG d   1       1.282  -0.819 -10.752  0.00  0.00    -0.057 C 
ATOM     48  H   LIG d   1       0.873  -0.678  -9.751  0.00  0.00     0.024 H 
ATOM     49  H   LIG d   1       1.754   0.107 -11.084  0.00  0.00     0.024 H 
ATOM     50  H   LIG d   1       0.480  -1.085 -11.438  0.00  0.00     0.024 H 
ENDBRANCH   1  47
BRANCH   9  51
ATOM     51  C   LIG d   1       4.876  -3.269 -10.443  0.00  0.00    -0.059 C 
ATOM     52  H   LIG d   1       4.695  -4.202 -10.977  0.00  0.00     0.024 H 
ATOM     53  H   LIG d   1       4.697  -2.427 -11.112  0.00  0.00     0.024 H 
ATOM     54  H   LIG d   1       5.910  -3.243 -10.098  0.00  0.00     0.024 H 
ENDBRANCH   9  51
BRANCH   6  55
ATOM     55  N   LIG d   1      -0.923  -5.007 -12.876  0.00  0.00    -0.327 N 
ATOM     56  H   LIG d   1      -1.795  -5.253 -12.531  0.00  0.00     0.148 HD
BRANCH  55  57
ATOM     57  C   LIG d   1      -0.679  -5.013 -14.320  0.00  0.00    -0.001 C 
ATOM     58  H   LIG d   1      -0.455  -4.000 -14.656  0.00  0.00     0.043 H 
ATOM     59  H   LIG d   1       0.165  -5.665 -14.544  0.00  0.00     0.043 H 
ATOM     60  H   LIG d   1      -1.568  -5.378 -14.837  0.00  0.00     0.043 H 
ENDBRANCH  55  57
ENDBRANCH   6  55
TORSDOF 12
ENDMDL
MODEL 6
REMARK VINA RESULT:      -4.6      7.263     11.678
REMARK  12 active torsions:
REMARK  status: ('A' for Active; 'I' for Inactive)
REMARK    1  A    between atoms: C_1  and  C_2 
REMARK    2  A    between atoms: C_7  and  N_9 
REMARK    3  A    between atoms: N_9  and  C_10 
REMARK    4  A    between atoms: C_12  and  C_32 
REMARK    5  A    between atoms: C_15  and  O_31 
REMARK    6  A    between atoms: C_17  and  C_21 
REMARK    7  A    between atoms: C_21  and  C_23 
REMARK    8  A    between atoms: C_21  and  C_24 
REMARK       I    between atoms: C_24  and  N_26 
REMARK    9  A    between atoms: N_26  and  C_27 
REMARK   10  A    between atoms: C_27  and  C_28 
REMARK   11  A    between atoms: C_28  and  O_29 
REMARK   12  A    between atoms: O_29  and  C_30 
ROOT
ATOM      1  C   LIG d   1       5.419  -0.387  -7.699  0.00  0.00     0.005 C 
ATOM      2  H   LIG d   1       5.869   0.555  -8.013  0.00  0.00     0.036 H 
ATOM      3  C   LIG d   1       4.745  -0.200  -6.349  0.00  0.00     0.057 A 
ATOM      4  C   LIG d   1       3.398  -0.045  -6.277  0.00  0.00     0.015 A 
ATOM      5  S   LIG d   1       3.121   0.140  -4.535  0.00  0.00    -0.057 SA
ATOM      6  C   LIG d   1       4.780  -0.003  -4.039  0.00  0.00     0.158 A 
ATOM      7  N   LIG d   1       5.399  -0.174  -5.189  0.00  0.00    -0.229 NA
ATOM      8  C   LIG d   1       2.422  -0.035  -7.398  0.00  0.00    -0.014 C 
ATOM      9  C   LIG d   1       3.184   0.129  -8.727  0.00  0.00    -0.022 C 
ATOM     10  C   LIG d   1       4.386  -0.818  -8.746  0.00  0.00    -0.001 C 
ATOM     11  H   LIG d   1       4.055  -1.832  -8.523  0.00  0.00     0.034 H 
ATOM     12  C   LIG d   1       5.064  -0.809 -10.111  0.00  0.00     0.063 C 
ATOM     13  H   LIG d   1       5.447   0.192 -10.308  0.00  0.00     0.060 H 
ATOM     14  C   LIG d   1       4.065  -1.191 -11.202  0.00  0.00    -0.004 C 
ATOM     15  H   LIG d   1       4.565  -1.184 -12.172  0.00  0.00     0.033 H 
ATOM     16  C   LIG d   1       2.921  -0.174 -11.206  0.00  0.00    -0.047 C 
ATOM     17  C   LIG d   1       2.211  -0.229  -9.854  0.00  0.00    -0.047 C 
ATOM     18  H   LIG d   1       1.728   0.795  -7.271  0.00  0.00     0.032 H 
ATOM     19  H   LIG d   1       1.869  -0.976  -7.409  0.00  0.00     0.032 H 
ATOM     20  H   LIG d   1       3.320   0.826 -11.369  0.00  0.00     0.027 H 
ATOM     21  H   LIG d   1       2.215  -0.422 -11.999  0.00  0.00     0.027 H 
ATOM     22  H   LIG d   1       1.382   0.479  -9.854  0.00  0.00     0.027 H 
ATOM     23  H   LIG d   1       1.826  -1.235  -9.690  0.00  0.00     0.027 H 
ENDROOT
BRANCH  14  24
ATOM     24  C   LIG d   1       3.510  -2.588 -10.923  0.00  0.00     0.038 C 
ATOM     25  H   LIG d   1       3.149  -2.637  -9.895  0.00  0.00     0.040 H 
BRANCH  24  26
ATOM     26  C   LIG d   1       4.616  -3.627 -11.123  0.00  0.00    -0.054 C 
ATOM     27  H   LIG d   1       5.572  -3.203 -10.818  0.00  0.00     0.024 H 
ATOM     28  H   LIG d   1       4.400  -4.508 -10.518  0.00  0.00     0.024 H 
ATOM     29  H   LIG d   1       4.662  -3.911 -12.175  0.00  0.00     0.024 H 
ENDBRANCH  24  26
BRANCH  24  30
ATOM     30  C   LIG d   1       2.373  -2.876 -11.869  0.00  0.00     0.216 C 
ATOM     31  O   LIG d   1       2.552  -2.818 -13.067  0.00  0.00    -0.276 OA
ATOM     32  N   LIG d   1       1.158  -3.198 -11.383  0.00  0.00    -0.313 N 
ATOM     33  H   LIG d   1       1.014  -3.245 -10.425  0.00  0.00     0.149 HD
BRANCH  32  34
ATOM     34  C   LIG d   1       0.052  -3.477 -12.303  0.00  0.00     0.035 C 
ATOM     35  H   LIG d   1      -0.598  -2.605 -12.365  0.00  0.00     0.048 H 
ATOM     36  H   LIG d   1       0.451  -3.705 -13.293  0.00  0.00     0.048 H 
BRANCH  34  37
ATOM     37  C   LIG d   1      -0.749  -4.676 -11.790  0.00  0.00     0.063 C 
ATOM     38  H   LIG d   1      -1.761  -4.637 -12.193  0.00  0.00     0.058 H 
ATOM     39  H   LIG d   1      -0.266  -5.600 -12.109  0.00  0.00     0.058 H 
BRANCH  37  40
ATOM     40  O   LIG d   1      -0.803  -4.636 -10.362  0.00  0.00    -0.381 OA
BRANCH  40  41
ATOM     41  C   LIG d   1      -1.809  -5.477  -9.795  0.00  0.00     0.036 C 
ATOM     42  H   LIG d   1      -1.528  -6.522  -9.932  0.00  0.00     0.052 H 
ATOM     43  H   LIG d   1      -1.904  -5.263  -8.731  0.00  0.00     0.052 H 
ATOM     44  H   LIG d   1      -2.761  -5.289 -10.291  0.00  0.00     0.052 H 
ENDBRANCH  40  41
ENDBRANCH  37  40
ENDBRANCH  34  37
ENDBRANCH  32  34
ENDBRANCH  24  30
ENDBRANCH  14  24
BRANCH  12  45
ATOM     45  O   LIG d   1       6.149  -1.736 -10.116  0.00  0.00    -0.391 OA
ATOM     46  H   LIG d   1       6.252  -2.217 -10.949  0.00  0.00     0.210 HD
ENDBRANCH  12  45
BRANCH   1  47
ATOM     47  C   LIG d   1       6.507  -1.456  -7.581  0.00  0.00    -0.057 C 
ATOM     48  H   LIG d   1       6.399  -2.175  -8.394  0.00  0.00     0.024 H 
ATOM     49  H   LIG d   1       7.488  -0.984  -7.643  0.00  0.00     0.024 H 
ATOM     50  H   LIG d   1       6.410  -1.971  -6.626  0.00  0.00     0.024 H 
ENDBRANCH   1  47
BRANCH   9  51
ATOM     51  C   LIG d   1       3.656   1.575  -8.883  0.00  0.00    -0.059 C 
ATOM     52  H   LIG d   1       3.551   2.097  -7.932  0.00  0.00     0.024 H 
ATOM     53  H   LIG d   1       4.702   1.586  -9.190  0.00  0.00     0.024 H 
ATOM     54  H   LIG d   1       3.052   2.076  -9.640  0.00  0.00     0.024 H 
ENDBRANCH   9  51
BRANCH   6  55
ATOM     55  N   LIG d   1       5.315   0.048  -2.761  0.00  0.00    -0.327 N 
ATOM     56  H   LIG d   1       6.142  -0.418  -2.563  0.00  0.00     0.148 HD
BRANCH  55  57
ATOM     57  C   LIG d   1       4.633   0.807  -1.710  0.00  0.00    -0.001 C 
ATOM     58  H   LIG d   1       4.822   1.871  -1.849  0.00  0.00     0.043 H 
ATOM     59  H   LIG d   1       3.560   0.619  -1.763  0.00  0.00     0.043 H 
ATOM     60  H   LIG d   1       5.008   0.496  -0.735  0.00  0.00     0.043 H 
ENDBRANCH  55  57
ENDBRANCH   6  55
TORSDOF 12
ENDMDL
MODEL 7
REMARK VINA RESULT:      -4.5      2.684      4.127
REMARK  12 active torsions:
REMARK  status: ('A' for Active; 'I' for Inactive)
REMARK    1  A    between atoms: C_1  and  C_2 
REMARK    2  A    between atoms: C_7  and  N_9 
REMARK    3  A    between atoms: N_9  and  C_10 
REMARK    4  A    between atoms: C_12  and  C_32 
REMARK    5  A    between atoms: C_15  and  O_31 
REMARK    6  A    between atoms: C_17  and  C_21 
REMARK    7  A    between atoms: C_21  and  C_23 
REMARK    8  A    between atoms: C_21  and  C_24 
REMARK       I    between atoms: C_24  and  N_26 
REMARK    9  A    between atoms: N_26  and  C_27 
REMARK   10  A    between atoms: C_27  and  C_28 
REMARK   11  A    between atoms: C_28  and  O_29 
REMARK   12  A    between atoms: O_29  and  C_30 
ROOT
ATOM      1  C   LIG d   1      10.004   5.596  -4.300  0.00  0.00     0.005 C 
ATOM      2  H   LIG d   1      10.783   5.816  -5.031  0.00  0.00     0.036 H 
ATOM      3  C   LIG d   1       9.628   4.125  -4.391  0.00  0.00     0.057 A 
ATOM      4  C   LIG d   1      10.112   3.242  -3.481  0.00  0.00     0.015 A 
ATOM      5  S   LIG d   1       9.405   1.706  -4.016  0.00  0.00    -0.057 SA
ATOM      6  C   LIG d   1       8.533   2.336  -5.381  0.00  0.00     0.158 A 
ATOM      7  N   LIG d   1       8.831   3.618  -5.331  0.00  0.00    -0.229 NA
ATOM      8  C   LIG d   1      11.011   3.522  -2.330  0.00  0.00    -0.014 C 
ATOM      9  C   LIG d   1      11.628   4.924  -2.503  0.00  0.00    -0.022 C 
ATOM     10  C   LIG d   1      10.532   5.917  -2.898  0.00  0.00    -0.001 C 
ATOM     11  H   LIG d   1       9.710   5.856  -2.186  0.00  0.00     0.034 H 
ATOM     12  C   LIG d   1      11.070   7.343  -2.910  0.00  0.00     0.063 C 
ATOM     13  H   LIG d   1      11.853   7.418  -3.665  0.00  0.00     0.060 H 
ATOM     14  C   LIG d   1      11.650   7.703  -1.544  0.00  0.00    -0.004 C 
ATOM     15  H   LIG d   1      12.028   8.726  -1.566  0.00  0.00     0.033 H 
ATOM     16  C   LIG d   1      12.796   6.739  -1.221  0.00  0.00    -0.047 C 
ATOM     17  C   LIG d   1      12.239   5.319  -1.155  0.00  0.00    -0.047 C 
ATOM     18  H   LIG d   1      11.805   2.776  -2.298  0.00  0.00     0.032 H 
ATOM     19  H   LIG d   1      10.438   3.487  -1.403  0.00  0.00     0.032 H 
ATOM     20  H   LIG d   1      13.555   6.799  -2.000  0.00  0.00     0.027 H 
ATOM     21  H   LIG d   1      13.236   7.004  -0.260  0.00  0.00     0.027 H 
ATOM     22  H   LIG d   1      13.043   4.627  -0.908  0.00  0.00     0.027 H 
ATOM     23  H   LIG d   1      11.470   5.268  -0.385  0.00  0.00     0.027 H 
ENDROOT
BRANCH  14  24
ATOM     24  C   LIG d   1      10.562   7.582  -0.476  0.00  0.00     0.038 C 
ATOM     25  H   LIG d   1      10.167   6.566  -0.473  0.00  0.00     0.040 H 
BRANCH  24  26
ATOM     26  C   LIG d   1       9.431   8.566  -0.786  0.00  0.00    -0.054 C 
ATOM     27  H   LIG d   1       9.571   8.975  -1.786  0.00  0.00     0.024 H 
ATOM     28  H   LIG d   1       8.474   8.047  -0.736  0.00  0.00     0.024 H 
ATOM     29  H   LIG d   1       9.444   9.376  -0.056  0.00  0.00     0.024 H 
ENDBRANCH  24  26
BRANCH  24  30
ATOM     30  C   LIG d   1      11.147   7.899   0.876  0.00  0.00     0.216 C 
ATOM     31  O   LIG d   1      11.242   7.028   1.715  0.00  0.00    -0.276 OA
ATOM     32  N   LIG d   1      11.565   9.150   1.153  0.00  0.00    -0.313 N 
ATOM     33  H   LIG d   1      11.489   9.847   0.483  0.00  0.00     0.149 HD
BRANCH  32  34
ATOM     34  C   LIG d   1      12.132   9.458   2.468  0.00  0.00     0.035 C 
ATOM     35  H   LIG d   1      11.402   9.225   3.243  0.00  0.00     0.048 H 
ATOM     36  H   LIG d   1      13.032   8.861   2.624  0.00  0.00     0.048 H 
BRANCH  34  37
ATOM     37  C   LIG d   1      12.490  10.944   2.534  0.00  0.00     0.063 C 
ATOM     38  H   LIG d   1      13.460  11.106   2.065  0.00  0.00     0.058 H 
ATOM     39  H   LIG d   1      11.731  11.525   2.011  0.00  0.00     0.058 H 
BRANCH  37  40
ATOM     40  O   LIG d   1      12.547  11.359   3.901  0.00  0.00    -0.381 OA
BRANCH  40  41
ATOM     41  C   LIG d   1      12.703  10.284   4.829  0.00  0.00     0.036 C 
ATOM     42  H   LIG d   1      12.428   9.346   4.346  0.00  0.00     0.052 H 
ATOM     43  H   LIG d   1      13.742  10.233   5.155  0.00  0.00     0.052 H 
ATOM     44  H   LIG d   1      12.059  10.451   5.691  0.00  0.00     0.052 H 
ENDBRANCH  40  41
ENDBRANCH  37  40
ENDBRANCH  34  37
ENDBRANCH  32  34
ENDBRANCH  24  30
ENDBRANCH  14  24
BRANCH  12  45
ATOM     45  O   LIG d   1      10.018   8.252  -3.233  0.00  0.00    -0.391 OA
ATOM     46  H   LIG d   1      10.300   9.175  -3.292  0.00  0.00     0.210 HD
ENDBRANCH  12  45
BRANCH   1  47
ATOM     47  C   LIG d   1       8.773   6.456  -4.595  0.00  0.00    -0.057 C 
ATOM     48  H   LIG d   1       8.850   7.397  -4.050  0.00  0.00     0.024 H 
ATOM     49  H   LIG d   1       8.719   6.659  -5.665  0.00  0.00     0.024 H 
ATOM     50  H   LIG d   1       7.875   5.926  -4.278  0.00  0.00     0.024 H 
ENDBRANCH   1  47
BRANCH   9  51
ATOM     51  C   LIG d   1      12.713   4.888  -3.580  0.00  0.00    -0.059 C 
ATOM     52  H   LIG d   1      12.462   4.133  -4.325  0.00  0.00     0.024 H 
ATOM     53  H   LIG d   1      12.781   5.864  -4.060  0.00  0.00     0.024 H 
ATOM     54  H   LIG d   1      13.671   4.642  -3.122  0.00  0.00     0.024 H 
ENDBRANCH   9  51
BRANCH   6  55
ATOM     55  N   LIG d   1       7.729   1.663  -6.287  0.00  0.00    -0.327 N 
ATOM     56  H   LIG d   1       7.398   2.122  -7.075  0.00  0.00     0.148 HD
BRANCH  55  57
ATOM     57  C   LIG d   1       7.380   0.260  -6.056  0.00  0.00    -0.001 C 
ATOM     58  H   LIG d   1       7.292   0.078  -4.985  0.00  0.00     0.043 H 
ATOM     59  H   LIG d   1       6.431   0.035  -6.543  0.00  0.00     0.043 H 
ATOM     60  H   LIG d   1       8.160  -0.381  -6.469  0.00  0.00     0.043 H 
ENDBRANCH  55  57
ENDBRANCH   6  55
TORSDOF 12
ENDMDL
MODEL 8
REMARK VINA RESULT:      -4.5      8.048     12.611
REMARK  12 active torsions:
REMARK  status: ('A' for Active; 'I' for Inactive)
REMARK    1  A    between atoms: C_1  and  C_2 
REMARK    2  A    between atoms: C_7  and  N_9 
REMARK    3  A    between atoms: N_9  and  C_10 
REMARK    4  A    between atoms: C_12  and  C_32 
REMARK    5  A    between atoms: C_15  and  O_31 
REMARK    6  A    between atoms: C_17  and  C_21 
REMARK    7  A    between atoms: C_21  and  C_23 
REMARK    8  A    between atoms: C_21  and  C_24 
REMARK       I    between atoms: C_24  and  N_26 
REMARK    9  A    between atoms: N_26  and  C_27 
REMARK   10  A    between atoms: C_27  and  C_28 
REMARK   11  A    between atoms: C_28  and  O_29 
REMARK   12  A    between atoms: O_29  and  C_30 
ROOT
ATOM      1  C   LIG d   1       7.633  -3.514  -4.793  0.00  0.00     0.005 C 
ATOM      2  H   LIG d   1       7.956  -3.131  -5.762  0.00  0.00     0.036 H 
ATOM      3  C   LIG d   1       6.492  -2.660  -4.266  0.00  0.00     0.057 A 
ATOM      4  C   LIG d   1       5.211  -3.098  -4.368  0.00  0.00     0.015 A 
ATOM      5  S   LIG d   1       4.287  -1.773  -3.636  0.00  0.00    -0.057 SA
ATOM      6  C   LIG d   1       5.642  -0.756  -3.252  0.00  0.00     0.158 A 
ATOM      7  N   LIG d   1       6.658  -1.470  -3.691  0.00  0.00    -0.229 NA
ATOM      8  C   LIG d   1       4.731  -4.377  -4.955  0.00  0.00    -0.014 C 
ATOM      9  C   LIG d   1       5.870  -5.014  -5.774  0.00  0.00    -0.022 C 
ATOM     10  C   LIG d   1       7.168  -4.965  -4.964  0.00  0.00    -0.001 C 
ATOM     11  H   LIG d   1       7.002  -5.403  -3.980  0.00  0.00     0.034 H 
ATOM     12  C   LIG d   1       8.277  -5.738  -5.668  0.00  0.00     0.063 C 
ATOM     13  H   LIG d   1       8.485  -5.263  -6.627  0.00  0.00     0.060 H 
ATOM     14  C   LIG d   1       7.849  -7.185  -5.903  0.00  0.00    -0.004 C 
ATOM     15  H   LIG d   1       8.653  -7.726  -6.403  0.00  0.00     0.033 H 
ATOM     16  C   LIG d   1       6.597  -7.196  -6.783  0.00  0.00    -0.047 C 
ATOM     17  C   LIG d   1       5.473  -6.468  -6.048  0.00  0.00    -0.047 C 
ATOM     18  H   LIG d   1       3.879  -4.183  -5.606  0.00  0.00     0.032 H 
ATOM     19  H   LIG d   1       4.432  -5.056  -4.155  0.00  0.00     0.032 H 
ATOM     20  H   LIG d   1       6.806  -6.688  -7.724  0.00  0.00     0.027 H 
ATOM     21  H   LIG d   1       6.298  -8.225  -6.981  0.00  0.00     0.027 H 
ATOM     22  H   LIG d   1       4.571  -6.486  -6.659  0.00  0.00     0.027 H 
ATOM     23  H   LIG d   1       5.277  -6.971  -5.101  0.00  0.00     0.027 H 
ENDROOT
BRANCH  14  24
ATOM     24  C   LIG d   1       7.540  -7.853  -4.562  0.00  0.00     0.038 C 
ATOM     25  H   LIG d   1       6.806  -7.256  -4.020  0.00  0.00     0.040 H 
BRANCH  24  26
ATOM     26  C   LIG d   1       8.823  -7.956  -3.735  0.00  0.00    -0.054 C 
ATOM     27  H   LIG d   1       8.595  -8.403  -2.767  0.00  0.00     0.024 H 
ATOM     28  H   LIG d   1       9.545  -8.580  -4.261  0.00  0.00     0.024 H 
ATOM     29  H   LIG d   1       9.242  -6.961  -3.587  0.00  0.00     0.024 H 
ENDBRANCH  24  26
BRANCH  24  30
ATOM     30  C   LIG d   1       6.986  -9.233  -4.804  0.00  0.00     0.216 C 
ATOM     31  O   LIG d   1       7.590 -10.014  -5.507  0.00  0.00    -0.276 OA
ATOM     32  N   LIG d   1       5.818  -9.599  -4.238  0.00  0.00    -0.313 N 
ATOM     33  H   LIG d   1       5.334  -8.974  -3.676  0.00  0.00     0.149 HD
BRANCH  32  34
ATOM     34  C   LIG d   1       5.279 -10.940  -4.474  0.00  0.00     0.035 C 
ATOM     35  H   LIG d   1       5.161 -11.101  -5.545  0.00  0.00     0.048 H 
ATOM     36  H   LIG d   1       5.965 -11.685  -4.067  0.00  0.00     0.048 H 
BRANCH  34  37
ATOM     37  C   LIG d   1       3.919 -11.072  -3.785  0.00  0.00     0.063 C 
ATOM     38  H   LIG d   1       3.979 -11.829  -3.003  0.00  0.00     0.058 H 
ATOM     39  H   LIG d   1       3.640 -10.115  -3.344  0.00  0.00     0.058 H 
BRANCH  37  40
ATOM     40  O   LIG d   1       2.934 -11.458  -4.746  0.00  0.00    -0.381 OA
BRANCH  40  41
ATOM     41  C   LIG d   1       3.462 -12.176  -5.863  0.00  0.00     0.036 C 
ATOM     42  H   LIG d   1       4.432 -11.760  -6.136  0.00  0.00     0.052 H 
ATOM     43  H   LIG d   1       3.579 -13.226  -5.597  0.00  0.00     0.052 H 
ATOM     44  H   LIG d   1       2.779 -12.088  -6.708  0.00  0.00     0.052 H 
ENDBRANCH  40  41
ENDBRANCH  37  40
ENDBRANCH  34  37
ENDBRANCH  32  34
ENDBRANCH  24  30
ENDBRANCH  14  24
BRANCH  12  45
ATOM     45  O   LIG d   1       9.461  -5.718  -4.869  0.00  0.00    -0.391 OA
ATOM     46  H   LIG d   1       9.305  -5.890  -3.930  0.00  0.00     0.210 HD
ENDBRANCH  12  45
BRANCH   1  47
ATOM     47  C   LIG d   1       8.805  -3.464  -3.810  0.00  0.00    -0.057 C 
ATOM     48  H   LIG d   1       8.783  -2.517  -3.268  0.00  0.00     0.024 H 
ATOM     49  H   LIG d   1       8.720  -4.288  -3.101  0.00  0.00     0.024 H 
ATOM     50  H   LIG d   1       9.743  -3.548  -4.357  0.00  0.00     0.024 H 
ENDBRANCH   1  47
BRANCH   9  51
ATOM     51  C   LIG d   1       6.050  -4.263  -7.093  0.00  0.00    -0.059 C 
ATOM     52  H   LIG d   1       6.809  -3.491  -6.972  0.00  0.00     0.024 H 
ATOM     53  H   LIG d   1       6.361  -4.961  -7.870  0.00  0.00     0.024 H 
ATOM     54  H   LIG d   1       5.105  -3.800  -7.380  0.00  0.00     0.024 H 
ENDBRANCH   9  51
BRANCH   6  55
ATOM     55  N   LIG d   1       5.652   0.488  -2.638  0.00  0.00    -0.327 N 
ATOM     56  H   LIG d   1       6.419   1.073  -2.741  0.00  0.00     0.148 HD
BRANCH  55  57
ATOM     57  C   LIG d   1       4.504   0.919  -1.838  0.00  0.00    -0.001 C 
ATOM     58  H   LIG d   1       3.649   0.278  -2.053  0.00  0.00     0.043 H 
ATOM     59  H   LIG d   1       4.752   0.850  -0.779  0.00  0.00     0.043 H 
ATOM     60  H   LIG d   1       4.255   1.951  -2.086  0.00  0.00     0.043 H 
ENDBRANCH  55  57
ENDBRANCH   6  55
TORSDOF 12
ENDMDL
MODEL 9
REMARK VINA RESULT:      -4.5      2.238      3.121
REMARK  12 active torsions:
REMARK  status: ('A' for Active; 'I' for Inactive)
REMARK    1  A    between atoms: C_1  and  C_2 
REMARK    2  A    between atoms: C_7  and  N_9 
REMARK    3  A    between atoms: N_9  and  C_10 
REMARK    4  A    between atoms: C_12  and  C_32 
REMARK    5  A    between atoms: C_15  and  O_31 
REMARK    6  A    between atoms: C_17  and  C_21 
REMARK    7  A    between atoms: C_21  and  C_23 
REMARK    8  A    between atoms: C_21  and  C_24 
REMARK       I    between atoms: C_24  and  N_26 
REMARK    9  A    between atoms: N_26  and  C_27 
REMARK   10  A    between atoms: C_27  and  C_28 
REMARK   11  A    between atoms: C_28  and  O_29 
REMARK   12  A    between atoms: O_29  and  C_30 
ROOT
ATOM      1  C   LIG d   1       9.890   4.062  -7.074  0.00  0.00     0.005 C 
ATOM      2  H   LIG d   1      10.912   3.724  -7.248  0.00  0.00     0.036 H 
ATOM      3  C   LIG d   1       9.195   3.100  -6.124  0.00  0.00     0.057 A 
ATOM      4  C   LIG d   1       9.053   3.422  -4.813  0.00  0.00     0.015 A 
ATOM      5  S   LIG d   1       8.211   2.007  -4.154  0.00  0.00    -0.057 SA
ATOM      6  C   LIG d   1       8.107   1.110  -5.639  0.00  0.00     0.158 A 
ATOM      7  N   LIG d   1       8.697   1.920  -6.493  0.00  0.00    -0.229 NA
ATOM      8  C   LIG d   1       9.503   4.661  -4.127  0.00  0.00    -0.014 C 
ATOM      9  C   LIG d   1      10.491   5.412  -5.041  0.00  0.00    -0.022 C 
ATOM     10  C   LIG d   1       9.928   5.467  -6.463  0.00  0.00    -0.001 C 
ATOM     11  H   LIG d   1       8.917   5.872  -6.440  0.00  0.00     0.034 H 
ATOM     12  C   LIG d   1      10.794   6.348  -7.356  0.00  0.00     0.063 C 
ATOM     13  H   LIG d   1      11.789   5.909  -7.427  0.00  0.00     0.060 H 
ATOM     14  C   LIG d   1      10.902   7.754  -6.770  0.00  0.00    -0.004 C 
ATOM     15  H   LIG d   1      11.520   8.374  -7.420  0.00  0.00     0.033 H 
ATOM     16  C   LIG d   1      11.544   7.666  -5.383  0.00  0.00    -0.047 C 
ATOM     17  C   LIG d   1      10.643   6.828  -4.477  0.00  0.00    -0.047 C 
ATOM     18  H   LIG d   1       9.998   4.401  -3.191  0.00  0.00     0.032 H 
ATOM     19  H   LIG d   1       8.642   5.298  -3.921  0.00  0.00     0.032 H 
ATOM     20  H   LIG d   1      12.523   7.194  -5.462  0.00  0.00     0.027 H 
ATOM     21  H   LIG d   1      11.652   8.667  -4.965  0.00  0.00     0.027 H 
ATOM     22  H   LIG d   1      11.083   6.774  -3.482  0.00  0.00     0.027 H 
ATOM     23  H   LIG d   1       9.661   7.295  -4.413  0.00  0.00     0.027 H 
ENDROOT
BRANCH  14  24
ATOM     24  C   LIG d   1       9.507   8.370  -6.651  0.00  0.00     0.038 C 
ATOM     25  H   LIG d   1       8.888   7.745  -6.008  0.00  0.00     0.040 H 
BRANCH  24  26
ATOM     26  C   LIG d   1       8.868   8.459  -8.039  0.00  0.00    -0.054 C 
ATOM     27  H   LIG d   1       8.578   9.490  -8.239  0.00  0.00     0.024 H 
ATOM     28  H   LIG d   1       9.587   8.132  -8.791  0.00  0.00     0.024 H 
ATOM     29  H   LIG d   1       7.987   7.818  -8.077  0.00  0.00     0.024 H 
ENDBRANCH  24  26
BRANCH  24  30
ATOM     30  C   LIG d   1       9.615   9.751  -6.059  0.00  0.00     0.216 C 
ATOM     31  O   LIG d   1      10.185  10.630  -6.669  0.00  0.00    -0.276 OA
ATOM     32  N   LIG d   1       9.078  10.009  -4.850  0.00  0.00    -0.313 N 
ATOM     33  H   LIG d   1       8.622   9.306  -4.361  0.00  0.00     0.149 HD
BRANCH  32  34
ATOM     34  C   LIG d   1       9.184  11.352  -4.273  0.00  0.00     0.035 C 
ATOM     35  H   LIG d   1      10.209  11.709  -4.370  0.00  0.00     0.048 H 
ATOM     36  H   LIG d   1       8.511  12.028  -4.801  0.00  0.00     0.048 H 
BRANCH  34  37
ATOM     37  C   LIG d   1       8.798  11.304  -2.793  0.00  0.00     0.063 C 
ATOM     38  H   LIG d   1       9.054  12.251  -2.319  0.00  0.00     0.058 H 
ATOM     39  H   LIG d   1       7.726  11.129  -2.702  0.00  0.00     0.058 H 
BRANCH  37  40
ATOM     40  O   LIG d   1       9.509  10.242  -2.150  0.00  0.00    -0.381 OA
BRANCH  40  41
ATOM     41  C   LIG d   1       8.914   9.803  -0.928  0.00  0.00     0.036 C 
ATOM     42  H   LIG d   1       7.977   9.289  -1.144  0.00  0.00     0.052 H 
ATOM     43  H   LIG d   1       9.593   9.119  -0.419  0.00  0.00     0.052 H 
ATOM     44  H   LIG d   1       8.718  10.663  -0.289  0.00  0.00     0.052 H 
ENDBRANCH  40  41
ENDBRANCH  37  40
ENDBRANCH  34  37
ENDBRANCH  32  34
ENDBRANCH  24  30
ENDBRANCH  14  24
BRANCH  12  45
ATOM     45  O   LIG d   1      10.220   6.422  -8.661  0.00  0.00    -0.391 OA
ATOM     46  H   LIG d   1      10.419   7.242  -9.133  0.00  0.00     0.210 HD
ENDBRANCH  12  45
BRANCH   1  47
ATOM     47  C   LIG d   1       9.134   4.101  -8.404  0.00  0.00    -0.057 C 
ATOM     48  H   LIG d   1       8.933   3.082  -8.737  0.00  0.00     0.024 H 
ATOM     49  H   LIG d   1       8.190   4.631  -8.269  0.00  0.00     0.024 H 
ATOM     50  H   LIG d   1       9.737   4.615  -9.150  0.00  0.00     0.024 H 
ENDBRANCH   1  47
BRANCH   9  51
ATOM     51  C   LIG d   1      11.845   4.701  -5.042  0.00  0.00    -0.059 C 
ATOM     52  H   LIG d   1      11.973   4.165  -5.983  0.00  0.00     0.024 H 
ATOM     53  H   LIG d   1      12.642   5.436  -4.931  0.00  0.00     0.024 H 
ATOM     54  H   LIG d   1      11.886   3.994  -4.213  0.00  0.00     0.024 H 
ENDBRANCH   9  51
BRANCH   6  55
ATOM     55  N   LIG d   1       7.545  -0.137  -5.866  0.00  0.00    -0.327 N 
ATOM     56  H   LIG d   1       7.962  -0.749  -6.493  0.00  0.00     0.148 HD
BRANCH  55  57
ATOM     57  C   LIG d   1       6.326  -0.532  -5.158  0.00  0.00    -0.001 C 
ATOM     58  H   LIG d   1       6.193   0.101  -4.281  0.00  0.00     0.043 H 
ATOM     59  H   LIG d   1       5.468  -0.420  -5.820  0.00  0.00     0.043 H 
ATOM     60  H   LIG d   1       6.409  -1.573  -4.845  0.00  0.00     0.043 H 
ENDBRANCH  55  57
ENDBRANCH   6  55
TORSDOF 12
ENDMDL
MODEL 10
REMARK VINA RESULT:      -4.4      4.315      9.346
REMARK  12 active torsions:
REMARK  status: ('A' for Active; 'I' for Inactive)
REMARK    1  A    between atoms: C_1  and  C_2 
REMARK    2  A    between atoms: C_7  and  N_9 
REMARK    3  A    between atoms: N_9  and  C_10 
REMARK    4  A    between atoms: C_12  and  C_32 
REMARK    5  A    between atoms: C_15  and  O_31 
REMARK    6  A    between atoms: C_17  and  C_21 
REMARK    7  A    between atoms: C_21  and  C_23 
REMARK    8  A    between atoms: C_21  and  C_24 
REMARK       I    between atoms: C_24  and  N_26 
REMARK    9  A    between atoms: N_26  and  C_27 
REMARK   10  A    between atoms: C_27  and  C_28 
REMARK   11  A    between atoms: C_28  and  O_29 
REMARK   12  A    between atoms: O_29  and  C_30 
ROOT
ATOM      1  C   LIG d   1       9.902   9.550   0.036  0.00  0.00     0.005 C 
ATOM      2  H   LIG d   1       9.437   9.227   0.969  0.00  0.00     0.036 H 
ATOM      3  C   LIG d   1      10.888  10.670   0.325  0.00  0.00     0.057 A 
ATOM      4  C   LIG d   1      12.219  10.408   0.381  0.00  0.00     0.015 A 
ATOM      5  S   LIG d   1      12.914  11.998   0.744  0.00  0.00    -0.057 SA
ATOM      6  C   LIG d   1      11.417  12.880   0.791  0.00  0.00     0.158 A 
ATOM      7  N   LIG d   1      10.533  11.937   0.537  0.00  0.00    -0.229 NA
ATOM      8  C   LIG d   1      12.897   9.100   0.183  0.00  0.00    -0.014 C 
ATOM      9  C   LIG d   1      11.847   7.973   0.252  0.00  0.00    -0.022 C 
ATOM     10  C   LIG d   1      10.631   8.358  -0.593  0.00  0.00    -0.001 C 
ATOM     11  H   LIG d   1      10.955   8.630  -1.598  0.00  0.00     0.034 H 
ATOM     12  C   LIG d   1       9.647   7.198  -0.689  0.00  0.00     0.063 C 
ATOM     13  H   LIG d   1       9.278   6.966   0.309  0.00  0.00     0.060 H 
ATOM     14  C   LIG d   1      10.335   5.966  -1.274  0.00  0.00    -0.004 C 
ATOM     15  H   LIG d   1       9.618   5.145  -1.339  0.00  0.00     0.033 H 
ATOM     16  C   LIG d   1      11.494   5.563  -0.358  0.00  0.00    -0.047 C 
ATOM     17  C   LIG d   1      12.503   6.708  -0.311  0.00  0.00    -0.047 C 
ATOM     18  H   LIG d   1      13.641   8.953   0.965  0.00  0.00     0.032 H 
ATOM     19  H   LIG d   1      13.384   9.085  -0.793  0.00  0.00     0.032 H 
ATOM     20  H   LIG d   1      11.117   5.367   0.645  0.00  0.00     0.027 H 
ATOM     21  H   LIG d   1      11.976   4.667  -0.750  0.00  0.00     0.027 H 
ATOM     22  H   LIG d   1      13.342   6.424   0.324  0.00  0.00     0.027 H 
ATOM     23  H   LIG d   1      12.866   6.911  -1.318  0.00  0.00     0.027 H 
ENDROOT
BRANCH  14  24
ATOM     24  C   LIG d   1      10.871   6.290  -2.668  0.00  0.00     0.038 C 
ATOM     25  H   LIG d   1      11.611   7.087  -2.597  0.00  0.00     0.040 H 
BRANCH  24  26
ATOM     26  C   LIG d   1       9.718   6.746  -3.566  0.00  0.00    -0.054 C 
ATOM     27  H   LIG d   1       9.259   7.638  -3.141  0.00  0.00     0.024 H 
ATOM     28  H   LIG d   1      10.101   6.974  -4.561  0.00  0.00     0.024 H 
ATOM     29  H   LIG d   1       8.975   5.951  -3.636  0.00  0.00     0.024 H 
ENDBRANCH  24  26
BRANCH  24  30
ATOM     30  C   LIG d   1      11.512   5.061  -3.259  0.00  0.00     0.216 C 
ATOM     31  O   LIG d   1      12.690   5.069  -3.545  0.00  0.00    -0.276 OA
ATOM     32  N   LIG d   1      10.774   3.952  -3.470  0.00  0.00    -0.313 N 
ATOM     33  H   LIG d   1       9.832   3.945  -3.242  0.00  0.00     0.149 HD
BRANCH  32  34
ATOM     34  C   LIG d   1      11.397   2.757  -4.045  0.00  0.00     0.035 C 
ATOM     35  H   LIG d   1      11.816   3.000  -5.021  0.00  0.00     0.048 H 
ATOM     36  H   LIG d   1      12.192   2.408  -3.385  0.00  0.00     0.048 H 
BRANCH  34  37
ATOM     37  C   LIG d   1      10.345   1.657  -4.200  0.00  0.00     0.063 C 
ATOM     38  H   LIG d   1      10.074   1.558  -5.251  0.00  0.00     0.058 H 
ATOM     39  H   LIG d   1      10.750   0.712  -3.838  0.00  0.00     0.058 H 
BRANCH  37  40
ATOM     40  O   LIG d   1       9.184   1.999  -3.438  0.00  0.00    -0.381 OA
BRANCH  40  41
ATOM     41  C   LIG d   1       7.957   1.546  -4.015  0.00  0.00     0.036 C 
ATOM     42  H   LIG d   1       7.157   2.239  -3.756  0.00  0.00     0.052 H 
ATOM     43  H   LIG d   1       8.061   1.499  -5.099  0.00  0.00     0.052 H 
ATOM     44  H   LIG d   1       7.719   0.555  -3.629  0.00  0.00     0.052 H 
ENDBRANCH  40  41
ENDBRANCH  37  40
ENDBRANCH  34  37
ENDBRANCH  32  34
ENDBRANCH  24  30
ENDBRANCH  14  24
BRANCH  12  45
ATOM     45  O   LIG d   1       8.547   7.566  -1.522  0.00  0.00    -0.391 OA
ATOM     46  H   LIG d   1       7.844   8.042  -1.059  0.00  0.00     0.210 HD
ENDBRANCH  12  45
BRANCH   1  47
ATOM     47  C   LIG d   1       8.822  10.056  -0.922  0.00  0.00    -0.057 C 
ATOM     48  H   LIG d   1       9.281  10.338  -1.870  0.00  0.00     0.024 H 
ATOM     49  H   LIG d   1       8.090   9.266  -1.095  0.00  0.00     0.024 H 
ATOM     50  H   LIG d   1       8.326  10.922  -0.486  0.00  0.00     0.024 H 
ENDBRANCH   1  47
BRANCH   9  51
ATOM     51  C   LIG d   1      11.423   7.742   1.702  0.00  0.00    -0.059 C 
ATOM     52  H   LIG d   1      10.343   7.601   1.748  0.00  0.00     0.024 H 
ATOM     53  H   LIG d   1      11.922   6.854   2.091  0.00  0.00     0.024 H 
ATOM     54  H   LIG d   1      11.702   8.607   2.305  0.00  0.00     0.024 H 
ENDBRANCH   9  51
BRANCH   6  55
ATOM     55  N   LIG d   1      11.207  14.228   1.032  0.00  0.00    -0.327 N 
ATOM     56  H   LIG d   1      11.956  14.803   1.257  0.00  0.00     0.148 HD
BRANCH  55  57
ATOM     57  C   LIG d   1       9.856  14.787   0.945  0.00  0.00    -0.001 C 
ATOM     58  H   LIG d   1       9.125  13.981   0.985  0.00  0.00     0.043 H 
ATOM     59  H   LIG d   1       9.690  15.471   1.777  0.00  0.00     0.043 H 
ATOM     60  H   LIG d   1       9.748  15.329   0.004  0.00  0.00     0.043 H 
ENDBRANCH  55  57
ENDBRANCH   6  55
TORSDOF 12
ENDMDL
