MODEL 1
REMARK VINA RESULT:      -7.8      0.000      0.000
REMARK  2 active torsions:
REMARK  status: ('A' for Active; 'I' for Inactive)
REMARK    1  A    between atoms: C_12  and  C_16 
REMARK    2  A    between atoms: C_12  and  O_20 
ROOT
ATOM      1  C   LIG d   1       3.318   0.984  -2.592  0.00  0.00    -0.047 C 
ATOM      2  C   LIG d   1       3.019  -0.069  -3.661  0.00  0.00    -0.040 C 
ATOM      3  C   LIG d   1       3.066  -1.462  -3.031  0.00  0.00    -0.046 C 
ATOM      4  C   LIG d   1       4.464  -1.715  -2.455  0.00  0.00    -0.021 C 
ATOM      5  C   LIG d   1       4.761  -0.658  -1.385  0.00  0.00    -0.046 C 
ATOM      6  C   LIG d   1       4.714   0.734  -2.016  0.00  0.00    -0.040 C 
ATOM      7  C   LIG d   1       5.752   0.836  -3.135  0.00  0.00    -0.046 C 
ATOM      8  C   LIG d   1       5.455  -0.219  -4.206  0.00  0.00    -0.021 C 
ATOM      9  C   LIG d   1       4.057   0.033  -4.781  0.00  0.00    -0.046 C 
ATOM     10  C   LIG d   1       5.490  -1.599  -3.570  0.00  0.00     0.083 C 
ATOM     11  C   LIG d   1       6.906  -1.947  -3.064  0.00  0.00     0.031 C 
ATOM     12  C   LIG d   1       7.528  -2.752  -4.229  0.00  0.00     0.280 C 
ATOM     13  O   LIG d   1       6.550  -3.686  -4.733  0.00  0.00    -0.245 OA
ATOM     14  S   LIG d   1       5.224  -2.898  -4.829  0.00  0.00     0.166 S 
ATOM     15  O   LIG d   1       4.245  -3.816  -4.363  0.00  0.00    -0.227 OA
ATOM     16  H   LIG d   1       3.281   1.977  -3.040  0.00  0.00     0.027 H 
ATOM     17  H   LIG d   1       2.577   0.915  -1.796  0.00  0.00     0.027 H 
ATOM     18  H   LIG d   1       2.025   0.105  -4.073  0.00  0.00     0.030 H 
ATOM     19  H   LIG d   1       2.327  -1.524  -2.232  0.00  0.00     0.027 H 
ATOM     20  H   LIG d   1       2.844  -2.212  -3.790  0.00  0.00     0.027 H 
ATOM     21  H   LIG d   1       4.506  -2.714  -2.020  0.00  0.00     0.032 H 
ATOM     22  H   LIG d   1       4.016  -0.723  -0.592  0.00  0.00     0.027 H 
ATOM     23  H   LIG d   1       5.752  -0.834  -0.966  0.00  0.00     0.027 H 
ATOM     24  H   LIG d   1       4.931   1.484  -1.255  0.00  0.00     0.030 H 
ATOM     25  H   LIG d   1       5.709   1.829  -3.581  0.00  0.00     0.027 H 
ATOM     26  H   LIG d   1       6.747   0.666  -2.723  0.00  0.00     0.027 H 
ATOM     27  H   LIG d   1       6.197  -0.152  -5.002  0.00  0.00     0.032 H 
ATOM     28  H   LIG d   1       3.839  -0.711  -5.547  0.00  0.00     0.027 H 
ATOM     29  H   LIG d   1       4.019   1.030  -5.221  0.00  0.00     0.027 H 
ATOM     30  H   LIG d   1       7.479  -1.038  -2.879  0.00  0.00     0.034 H 
ATOM     31  H   LIG d   1       6.852  -2.557  -2.164  0.00  0.00     0.034 H 
ENDROOT
BRANCH  12  32
ATOM     32  C   LIG d   1       8.754  -3.516  -3.727  0.00  0.00     0.445 C 
ATOM     33  F   LIG d   1       9.913  -2.940  -4.260  0.00  0.00    -0.165 F 
ATOM     34  F   LIG d   1       8.803  -3.454  -2.330  0.00  0.00    -0.165 F 
ATOM     35  F   LIG d   1       8.669  -4.852  -4.132  0.00  0.00    -0.165 F 
ENDBRANCH  12  32
BRANCH  12  36
ATOM     36  O   LIG d   1       7.918  -1.858  -5.274  0.00  0.00    -0.357 OA
ATOM     37  H   LIG d   1       7.195  -1.604  -5.865  0.00  0.00     0.213 HD
ENDBRANCH  12  36
TORSDOF 2
ENDMDL
MODEL 2
REMARK VINA RESULT:      -7.2      4.173      5.365
REMARK  2 active torsions:
REMARK  status: ('A' for Active; 'I' for Inactive)
REMARK    1  A    between atoms: C_12  and  C_16 
REMARK    2  A    between atoms: C_12  and  O_20 
ROOT
ATOM      1  C   LIG d   1       4.453  -1.132  -1.648  0.00  0.00    -0.047 C 
ATOM      2  C   LIG d   1       5.395  -1.706  -2.708  0.00  0.00    -0.040 C 
ATOM      3  C   LIG d   1       6.199  -0.572  -3.344  0.00  0.00    -0.046 C 
ATOM      4  C   LIG d   1       5.241   0.422  -4.011  0.00  0.00    -0.021 C 
ATOM      5  C   LIG d   1       4.298   0.996  -2.947  0.00  0.00    -0.046 C 
ATOM      6  C   LIG d   1       3.495  -0.140  -2.311  0.00  0.00    -0.040 C 
ATOM      7  C   LIG d   1       2.675  -0.862  -3.383  0.00  0.00    -0.046 C 
ATOM      8  C   LIG d   1       3.617  -1.437  -4.446  0.00  0.00    -0.021 C 
ATOM      9  C   LIG d   1       4.576  -2.431  -3.779  0.00  0.00    -0.046 C 
ATOM     10  C   LIG d   1       4.423  -0.306  -5.064  0.00  0.00     0.083 C 
ATOM     11  C   LIG d   1       3.512   0.671  -5.838  0.00  0.00     0.031 C 
ATOM     12  C   LIG d   1       3.587   0.167  -7.298  0.00  0.00     0.280 C 
ATOM     13  O   LIG d   1       4.956  -0.156  -7.618  0.00  0.00    -0.245 OA
ATOM     14  S   LIG d   1       5.501  -0.934  -6.399  0.00  0.00     0.166 S 
ATOM     15  O   LIG d   1       6.816  -0.424  -6.225  0.00  0.00    -0.227 OA
ATOM     16  H   LIG d   1       3.882  -1.941  -1.193  0.00  0.00     0.027 H 
ATOM     17  H   LIG d   1       5.036  -0.620  -0.884  0.00  0.00     0.027 H 
ATOM     18  H   LIG d   1       6.080  -2.412  -2.239  0.00  0.00     0.030 H 
ATOM     19  H   LIG d   1       6.776  -0.060  -2.573  0.00  0.00     0.027 H 
ATOM     20  H   LIG d   1       6.877  -0.982  -4.093  0.00  0.00     0.027 H 
ATOM     21  H   LIG d   1       5.812   1.224  -4.480  0.00  0.00     0.032 H 
ATOM     22  H   LIG d   1       4.882   1.502  -2.178  0.00  0.00     0.027 H 
ATOM     23  H   LIG d   1       3.616   1.707  -3.412  0.00  0.00     0.027 H 
ATOM     24  H   LIG d   1       2.820   0.270  -1.559  0.00  0.00     0.030 H 
ATOM     25  H   LIG d   1       2.109  -1.672  -2.922  0.00  0.00     0.027 H 
ATOM     26  H   LIG d   1       1.987  -0.157  -3.849  0.00  0.00     0.027 H 
ATOM     27  H   LIG d   1       3.035  -1.948  -5.213  0.00  0.00     0.032 H 
ATOM     28  H   LIG d   1       5.247  -2.847  -4.530  0.00  0.00     0.027 H 
ATOM     29  H   LIG d   1       4.003  -3.235  -3.317  0.00  0.00     0.027 H 
ATOM     30  H   LIG d   1       2.489   0.616  -5.466  0.00  0.00     0.034 H 
ATOM     31  H   LIG d   1       3.893   1.689  -5.765  0.00  0.00     0.034 H 
ENDROOT
BRANCH  12  32
ATOM     32  C   LIG d   1       3.085   1.261  -8.244  0.00  0.00     0.445 C 
ATOM     33  F   LIG d   1       4.151   1.730  -9.020  0.00  0.00    -0.165 F 
ATOM     34  F   LIG d   1       2.094   0.737  -9.079  0.00  0.00    -0.165 F 
ATOM     35  F   LIG d   1       2.555   2.317  -7.495  0.00  0.00    -0.165 F 
ENDBRANCH  12  32
BRANCH  12  36
ATOM     36  O   LIG d   1       2.774  -0.999  -7.444  0.00  0.00    -0.357 OA
ATOM     37  H   LIG d   1       2.907  -1.661  -6.751  0.00  0.00     0.213 HD
ENDBRANCH  12  36
TORSDOF 2
ENDMDL
MODEL 3
REMARK VINA RESULT:      -7.1      3.137      3.809
REMARK  2 active torsions:
REMARK  status: ('A' for Active; 'I' for Inactive)
REMARK    1  A    between atoms: C_12  and  C_16 
REMARK    2  A    between atoms: C_12  and  O_20 
ROOT
ATOM      1  C   LIG d   1       4.608   0.388  -1.560  0.00  0.00    -0.047 C 
ATOM      2  C   LIG d   1       4.690   1.148  -2.886  0.00  0.00    -0.040 C 
ATOM      3  C   LIG d   1       3.400   0.934  -3.678  0.00  0.00    -0.046 C 
ATOM      4  C   LIG d   1       3.221  -0.561  -3.968  0.00  0.00    -0.021 C 
ATOM      5  C   LIG d   1       3.140  -1.321  -2.638  0.00  0.00    -0.046 C 
ATOM      6  C   LIG d   1       4.430  -1.105  -1.847  0.00  0.00    -0.040 C 
ATOM      7  C   LIG d   1       5.627  -1.614  -2.652  0.00  0.00    -0.046 C 
ATOM      8  C   LIG d   1       5.711  -0.855  -3.981  0.00  0.00    -0.021 C 
ATOM      9  C   LIG d   1       5.889   0.640  -3.691  0.00  0.00    -0.046 C 
ATOM     10  C   LIG d   1       4.420  -1.061  -4.756  0.00  0.00     0.083 C 
ATOM     11  C   LIG d   1       4.244  -2.539  -5.164  0.00  0.00     0.031 C 
ATOM     12  C   LIG d   1       4.812  -2.597  -6.601  0.00  0.00     0.280 C 
ATOM     13  O   LIG d   1       4.347  -1.449  -7.340  0.00  0.00    -0.245 OA
ATOM     14  S   LIG d   1       4.508  -0.242  -6.388  0.00  0.00     0.166 S 
ATOM     15  O   LIG d   1       3.328   0.521  -6.598  0.00  0.00    -0.227 OA
ATOM     16  H   LIG d   1       5.526   0.544  -0.994  0.00  0.00     0.027 H 
ATOM     17  H   LIG d   1       3.757   0.752  -0.985  0.00  0.00     0.027 H 
ATOM     18  H   LIG d   1       4.815   2.213  -2.686  0.00  0.00     0.030 H 
ATOM     19  H   LIG d   1       2.552   1.295  -3.095  0.00  0.00     0.027 H 
ATOM     20  H   LIG d   1       3.454   1.483  -4.618  0.00  0.00     0.027 H 
ATOM     21  H   LIG d   1       2.311  -0.716  -4.547  0.00  0.00     0.032 H 
ATOM     22  H   LIG d   1       2.293  -0.951  -2.060  0.00  0.00     0.027 H 
ATOM     23  H   LIG d   1       3.008  -2.385  -2.836  0.00  0.00     0.027 H 
ATOM     24  H   LIG d   1       4.373  -1.650  -0.905  0.00  0.00     0.030 H 
ATOM     25  H   LIG d   1       6.543  -1.453  -2.083  0.00  0.00     0.027 H 
ATOM     26  H   LIG d   1       5.505  -2.679  -2.849  0.00  0.00     0.027 H 
ATOM     27  H   LIG d   1       6.560  -1.219  -4.558  0.00  0.00     0.032 H 
ATOM     28  H   LIG d   1       5.953   1.187  -4.631  0.00  0.00     0.027 H 
ATOM     29  H   LIG d   1       6.803   0.794  -3.117  0.00  0.00     0.027 H 
ATOM     30  H   LIG d   1       4.814  -3.190  -4.501  0.00  0.00     0.034 H 
ATOM     31  H   LIG d   1       3.190  -2.814  -5.158  0.00  0.00     0.034 H 
ENDROOT
BRANCH  12  32
ATOM     32  C   LIG d   1       4.333  -3.877  -7.290  0.00  0.00     0.445 C 
ATOM     33  F   LIG d   1       3.806  -4.752  -6.334  0.00  0.00    -0.165 F 
ATOM     34  F   LIG d   1       3.345  -3.560  -8.228  0.00  0.00    -0.165 F 
ATOM     35  F   LIG d   1       5.412  -4.489  -7.937  0.00  0.00    -0.165 F 
ENDBRANCH  12  32
BRANCH  12  36
ATOM     36  O   LIG d   1       6.240  -2.588  -6.551  0.00  0.00    -0.357 OA
ATOM     37  H   LIG d   1       6.662  -3.118  -7.242  0.00  0.00     0.213 HD
ENDBRANCH  12  36
TORSDOF 2
ENDMDL
MODEL 4
REMARK VINA RESULT:      -6.9      3.320      4.174
REMARK  2 active torsions:
REMARK  status: ('A' for Active; 'I' for Inactive)
REMARK    1  A    between atoms: C_12  and  C_16 
REMARK    2  A    between atoms: C_12  and  O_20 
ROOT
ATOM      1  C   LIG d   1       4.467   0.348  -1.534  0.00  0.00    -0.047 C 
ATOM      2  C   LIG d   1       4.324  -1.117  -1.951  0.00  0.00    -0.040 C 
ATOM      3  C   LIG d   1       5.619  -1.586  -2.616  0.00  0.00    -0.046 C 
ATOM      4  C   LIG d   1       5.890  -0.734  -3.862  0.00  0.00    -0.021 C 
ATOM      5  C   LIG d   1       6.032   0.733  -3.441  0.00  0.00    -0.046 C 
ATOM      6  C   LIG d   1       4.737   1.201  -2.775  0.00  0.00    -0.040 C 
ATOM      7  C   LIG d   1       3.568   1.062  -3.753  0.00  0.00    -0.046 C 
ATOM      8  C   LIG d   1       3.424  -0.405  -4.173  0.00  0.00    -0.021 C 
ATOM      9  C   LIG d   1       3.154  -1.257  -2.927  0.00  0.00    -0.046 C 
ATOM     10  C   LIG d   1       4.719  -0.869  -4.820  0.00  0.00     0.083 C 
ATOM     11  C   LIG d   1       4.987  -0.111  -6.139  0.00  0.00     0.031 C 
ATOM     12  C   LIG d   1       4.411  -1.047  -7.226  0.00  0.00     0.280 C 
ATOM     13  O   LIG d   1       4.794  -2.407  -6.932  0.00  0.00    -0.245 OA
ATOM     14  S   LIG d   1       4.565  -2.590  -5.415  0.00  0.00     0.166 S 
ATOM     15  O   LIG d   1       5.692  -3.342  -4.985  0.00  0.00    -0.227 OA
ATOM     16  H   LIG d   1       3.545   0.682  -1.056  0.00  0.00     0.027 H 
ATOM     17  H   LIG d   1       5.297   0.448  -0.835  0.00  0.00     0.027 H 
ATOM     18  H   LIG d   1       4.133  -1.728  -1.068  0.00  0.00     0.030 H 
ATOM     19  H   LIG d   1       6.446  -1.479  -1.914  0.00  0.00     0.027 H 
ATOM     20  H   LIG d   1       5.521  -2.633  -2.905  0.00  0.00     0.027 H 
ATOM     21  H   LIG d   1       6.804  -1.077  -4.348  0.00  0.00     0.032 H 
ATOM     22  H   LIG d   1       6.858   0.832  -2.737  0.00  0.00     0.027 H 
ATOM     23  H   LIG d   1       6.230   1.345  -4.321  0.00  0.00     0.027 H 
ATOM     24  H   LIG d   1       4.837   2.246  -2.482  0.00  0.00     0.030 H 
ATOM     25  H   LIG d   1       2.649   1.393  -3.270  0.00  0.00     0.027 H 
ATOM     26  H   LIG d   1       3.757   1.675  -4.634  0.00  0.00     0.027 H 
ATOM     27  H   LIG d   1       2.595  -0.506  -4.873  0.00  0.00     0.032 H 
ATOM     28  H   LIG d   1       3.046  -2.302  -3.218  0.00  0.00     0.027 H 
ATOM     29  H   LIG d   1       2.237  -0.917  -2.446  0.00  0.00     0.027 H 
ATOM     30  H   LIG d   1       4.465   0.846  -6.143  0.00  0.00     0.034 H 
ATOM     31  H   LIG d   1       6.056   0.033  -6.286  0.00  0.00     0.034 H 
ENDROOT
BRANCH  12  32
ATOM     32  C   LIG d   1       4.965  -0.645  -8.595  0.00  0.00     0.445 C 
ATOM     33  F   LIG d   1       5.365   0.696  -8.559  0.00  0.00    -0.165 F 
ATOM     34  F   LIG d   1       6.063  -1.451  -8.910  0.00  0.00    -0.165 F 
ATOM     35  F   LIG d   1       3.972  -0.808  -9.566  0.00  0.00    -0.165 F 
ENDBRANCH  12  32
BRANCH  12  36
ATOM     36  O   LIG d   1       2.986  -0.945  -7.240  0.00  0.00    -0.357 OA
ATOM     37  H   LIG d   1       2.591  -1.058  -8.116  0.00  0.00     0.213 HD
ENDBRANCH  12  36
TORSDOF 2
ENDMDL
MODEL 5
REMARK VINA RESULT:      -6.9      2.428      3.696
REMARK  2 active torsions:
REMARK  status: ('A' for Active; 'I' for Inactive)
REMARK    1  A    between atoms: C_12  and  C_16 
REMARK    2  A    between atoms: C_12  and  O_20 
ROOT
ATOM      1  C   LIG d   1       3.624   1.063  -2.157  0.00  0.00    -0.047 C 
ATOM      2  C   LIG d   1       4.935   0.316  -1.905  0.00  0.00    -0.040 C 
ATOM      3  C   LIG d   1       5.858   0.486  -3.112  0.00  0.00    -0.046 C 
ATOM      4  C   LIG d   1       5.182  -0.095  -4.359  0.00  0.00    -0.021 C 
ATOM      5  C   LIG d   1       3.868   0.655  -4.609  0.00  0.00    -0.046 C 
ATOM      6  C   LIG d   1       2.945   0.485  -3.401  0.00  0.00    -0.040 C 
ATOM      7  C   LIG d   1       2.649  -1.000  -3.176  0.00  0.00    -0.046 C 
ATOM      8  C   LIG d   1       3.962  -1.750  -2.924  0.00  0.00    -0.021 C 
ATOM      9  C   LIG d   1       4.639  -1.168  -1.678  0.00  0.00    -0.046 C 
ATOM     10  C   LIG d   1       4.880  -1.566  -4.121  0.00  0.00     0.083 C 
ATOM     11  C   LIG d   1       4.290  -2.226  -5.386  0.00  0.00     0.031 C 
ATOM     12  C   LIG d   1       4.955  -3.622  -5.418  0.00  0.00     0.280 C 
ATOM     13  O   LIG d   1       6.357  -3.485  -5.104  0.00  0.00    -0.245 OA
ATOM     14  S   LIG d   1       6.427  -2.515  -3.903  0.00  0.00     0.166 S 
ATOM     15  O   LIG d   1       7.539  -1.682  -4.198  0.00  0.00    -0.227 OA
ATOM     16  H   LIG d   1       2.966   0.945  -1.295  0.00  0.00     0.027 H 
ATOM     17  H   LIG d   1       3.833   2.121  -2.315  0.00  0.00     0.027 H 
ATOM     18  H   LIG d   1       5.421   0.727  -1.021  0.00  0.00     0.030 H 
ATOM     19  H   LIG d   1       6.060   1.546  -3.268  0.00  0.00     0.027 H 
ATOM     20  H   LIG d   1       6.796  -0.039  -2.929  0.00  0.00     0.027 H 
ATOM     21  H   LIG d   1       5.845   0.009  -5.218  0.00  0.00     0.032 H 
ATOM     22  H   LIG d   1       4.077   1.714  -4.759  0.00  0.00     0.027 H 
ATOM     23  H   LIG d   1       3.382   0.251  -5.497  0.00  0.00     0.027 H 
ATOM     24  H   LIG d   1       2.010   1.014  -3.582  0.00  0.00     0.030 H 
ATOM     25  H   LIG d   1       1.995  -1.112  -2.312  0.00  0.00     0.027 H 
ATOM     26  H   LIG d   1       2.159  -1.410  -4.059  0.00  0.00     0.027 H 
ATOM     27  H   LIG d   1       3.754  -2.809  -2.768  0.00  0.00     0.032 H 
ATOM     28  H   LIG d   1       5.572  -1.700  -1.490  0.00  0.00     0.027 H 
ATOM     29  H   LIG d   1       3.977  -1.280  -0.819  0.00  0.00     0.027 H 
ATOM     30  H   LIG d   1       3.208  -2.321  -5.298  0.00  0.00     0.034 H 
ATOM     31  H   LIG d   1       4.555  -1.655  -6.275  0.00  0.00     0.034 H 
ENDROOT
BRANCH  12  32
ATOM     32  C   LIG d   1       4.801  -4.230  -6.814  0.00  0.00     0.445 C 
ATOM     33  F   LIG d   1       3.649  -5.023  -6.851  0.00  0.00    -0.165 F 
ATOM     34  F   LIG d   1       4.694  -3.206  -7.760  0.00  0.00    -0.165 F 
ATOM     35  F   LIG d   1       5.919  -5.019  -7.104  0.00  0.00    -0.165 F 
ENDBRANCH  12  32
BRANCH  12  36
ATOM     36  O   LIG d   1       4.330  -4.472  -4.455  0.00  0.00    -0.357 OA
ATOM     37  H   LIG d   1       3.850  -5.218  -4.842  0.00  0.00     0.213 HD
ENDBRANCH  12  36
TORSDOF 2
ENDMDL
MODEL 6
REMARK VINA RESULT:      -6.6      4.648      6.132
REMARK  2 active torsions:
REMARK  status: ('A' for Active; 'I' for Inactive)
REMARK    1  A    between atoms: C_12  and  C_16 
REMARK    2  A    between atoms: C_12  and  O_20 
ROOT
ATOM      1  C   LIG d   1       3.982   0.732 -11.028  0.00  0.00    -0.047 C 
ATOM      2  C   LIG d   1       4.750  -0.468 -10.471  0.00  0.00    -0.040 C 
ATOM      3  C   LIG d   1       3.759  -1.505  -9.941  0.00  0.00    -0.046 C 
ATOM      4  C   LIG d   1       2.919  -0.883  -8.819  0.00  0.00    -0.021 C 
ATOM      5  C   LIG d   1       2.152   0.320  -9.381  0.00  0.00    -0.046 C 
ATOM      6  C   LIG d   1       3.144   1.356  -9.911  0.00  0.00    -0.040 C 
ATOM      7  C   LIG d   1       4.066   1.822  -8.781  0.00  0.00    -0.046 C 
ATOM      8  C   LIG d   1       4.835   0.620  -8.221  0.00  0.00    -0.021 C 
ATOM      9  C   LIG d   1       5.674  -0.003  -9.342  0.00  0.00    -0.046 C 
ATOM     10  C   LIG d   1       3.843  -0.412  -7.709  0.00  0.00     0.083 C 
ATOM     11  C   LIG d   1       3.041   0.131  -6.507  0.00  0.00     0.031 C 
ATOM     12  C   LIG d   1       3.821  -0.387  -5.277  0.00  0.00     0.280 C 
ATOM     13  O   LIG d   1       4.195  -1.763  -5.499  0.00  0.00    -0.245 OA
ATOM     14  S   LIG d   1       4.717  -1.828  -6.952  0.00  0.00     0.166 S 
ATOM     15  O   LIG d   1       4.177  -3.042  -7.457  0.00  0.00    -0.227 OA
ATOM     16  H   LIG d   1       4.689   1.470 -11.409  0.00  0.00     0.027 H 
ATOM     17  H   LIG d   1       3.328   0.402 -11.834  0.00  0.00     0.027 H 
ATOM     18  H   LIG d   1       5.348  -0.917 -11.265  0.00  0.00     0.030 H 
ATOM     19  H   LIG d   1       3.104  -1.827 -10.750  0.00  0.00     0.027 H 
ATOM     20  H   LIG d   1       4.305  -2.365  -9.551  0.00  0.00     0.027 H 
ATOM     21  H   LIG d   1       2.223  -1.624  -8.428  0.00  0.00     0.032 H 
ATOM     22  H   LIG d   1       1.502  -0.009 -10.192  0.00  0.00     0.027 H 
ATOM     23  H   LIG d   1       1.548   0.767  -8.590  0.00  0.00     0.027 H 
ATOM     24  H   LIG d   1       2.597   2.213 -10.304  0.00  0.00     0.030 H 
ATOM     25  H   LIG d   1       4.771   2.556  -9.168  0.00  0.00     0.027 H 
ATOM     26  H   LIG d   1       3.469   2.273  -7.989  0.00  0.00     0.027 H 
ATOM     27  H   LIG d   1       5.488   0.948  -7.413  0.00  0.00     0.032 H 
ATOM     28  H   LIG d   1       6.227  -0.857  -8.950  0.00  0.00     0.027 H 
ATOM     29  H   LIG d   1       6.373   0.738  -9.728  0.00  0.00     0.027 H 
ATOM     30  H   LIG d   1       3.026   1.221  -6.519  0.00  0.00     0.034 H 
ATOM     31  H   LIG d   1       2.027  -0.267  -6.513  0.00  0.00     0.034 H 
ENDROOT
BRANCH  12  32
ATOM     32  C   LIG d   1       2.936  -0.293  -4.032  0.00  0.00     0.445 C 
ATOM     33  F   LIG d   1       3.387   0.753  -3.219  0.00  0.00    -0.165 F 
ATOM     34  F   LIG d   1       1.614  -0.048  -4.417  0.00  0.00    -0.165 F 
ATOM     35  F   LIG d   1       3.001  -1.496  -3.322  0.00  0.00    -0.165 F 
ENDBRANCH  12  32
BRANCH  12  36
ATOM     36  O   LIG d   1       4.996   0.403  -5.088  0.00  0.00    -0.357 OA
ATOM     37  H   LIG d   1       4.823   1.349  -4.990  0.00  0.00     0.213 HD
ENDBRANCH  12  36
TORSDOF 2
ENDMDL
MODEL 7
REMARK VINA RESULT:      -6.4      3.393      5.247
REMARK  2 active torsions:
REMARK  status: ('A' for Active; 'I' for Inactive)
REMARK    1  A    between atoms: C_12  and  C_16 
REMARK    2  A    between atoms: C_12  and  O_20 
ROOT
ATOM      1  C   LIG d   1       6.734  -4.885  -6.936  0.00  0.00    -0.047 C 
ATOM      2  C   LIG d   1       6.254  -3.588  -7.590  0.00  0.00    -0.040 C 
ATOM      3  C   LIG d   1       7.115  -2.422  -7.100  0.00  0.00    -0.046 C 
ATOM      4  C   LIG d   1       6.984  -2.294  -5.578  0.00  0.00    -0.021 C 
ATOM      5  C   LIG d   1       7.465  -3.596  -4.926  0.00  0.00    -0.046 C 
ATOM      6  C   LIG d   1       6.604  -4.761  -5.416  0.00  0.00    -0.040 C 
ATOM      7  C   LIG d   1       5.139  -4.518  -5.049  0.00  0.00    -0.046 C 
ATOM      8  C   LIG d   1       4.657  -3.218  -5.702  0.00  0.00    -0.021 C 
ATOM      9  C   LIG d   1       4.788  -3.345  -7.224  0.00  0.00    -0.046 C 
ATOM     10  C   LIG d   1       5.525  -2.066  -5.222  0.00  0.00     0.083 C 
ATOM     11  C   LIG d   1       5.350  -1.828  -3.707  0.00  0.00     0.031 C 
ATOM     12  C   LIG d   1       4.281  -0.714  -3.629  0.00  0.00     0.280 C 
ATOM     13  O   LIG d   1       4.572   0.292  -4.621  0.00  0.00    -0.245 OA
ATOM     14  S   LIG d   1       4.933  -0.480  -5.910  0.00  0.00     0.166 S 
ATOM     15  O   LIG d   1       6.032   0.243  -6.447  0.00  0.00    -0.227 OA
ATOM     16  H   LIG d   1       6.123  -5.717  -7.287  0.00  0.00     0.027 H 
ATOM     17  H   LIG d   1       7.777  -5.061  -7.199  0.00  0.00     0.027 H 
ATOM     18  H   LIG d   1       6.347  -3.672  -8.672  0.00  0.00     0.030 H 
ATOM     19  H   LIG d   1       8.157  -2.606  -7.362  0.00  0.00     0.027 H 
ATOM     20  H   LIG d   1       6.779  -1.499  -7.573  0.00  0.00     0.027 H 
ATOM     21  H   LIG d   1       7.583  -1.454  -5.228  0.00  0.00     0.032 H 
ATOM     22  H   LIG d   1       8.506  -3.775  -5.195  0.00  0.00     0.027 H 
ATOM     23  H   LIG d   1       7.380  -3.512  -3.842  0.00  0.00     0.027 H 
ATOM     24  H   LIG d   1       6.943  -5.685  -4.947  0.00  0.00     0.030 H 
ATOM     25  H   LIG d   1       4.532  -5.350  -5.405  0.00  0.00     0.027 H 
ATOM     26  H   LIG d   1       5.045  -4.437  -3.966  0.00  0.00     0.027 H 
ATOM     27  H   LIG d   1       3.615  -3.040  -5.438  0.00  0.00     0.032 H 
ATOM     28  H   LIG d   1       4.443  -2.426  -7.696  0.00  0.00     0.027 H 
ATOM     29  H   LIG d   1       4.183  -4.183  -7.573  0.00  0.00     0.027 H 
ATOM     30  H   LIG d   1       4.995  -2.734  -3.216  0.00  0.00     0.034 H 
ATOM     31  H   LIG d   1       6.286  -1.492  -3.262  0.00  0.00     0.034 H 
ENDROOT
BRANCH  12  32
ATOM     32  C   LIG d   1       4.302  -0.080  -2.236  0.00  0.00     0.445 C 
ATOM     33  F   LIG d   1       5.444   0.718  -2.106  0.00  0.00    -0.165 F 
ATOM     34  F   LIG d   1       3.159   0.707  -2.064  0.00  0.00    -0.165 F 
ATOM     35  F   LIG d   1       4.326  -1.088  -1.266  0.00  0.00    -0.165 F 
ENDBRANCH  12  32
BRANCH  12  36
ATOM     36  O   LIG d   1       2.989  -1.273  -3.878  0.00  0.00    -0.357 OA
ATOM     37  H   LIG d   1       3.004  -2.067  -4.429  0.00  0.00     0.213 HD
ENDBRANCH  12  36
TORSDOF 2
ENDMDL
MODEL 8
REMARK VINA RESULT:      -6.1      3.800      5.360
REMARK  2 active torsions:
REMARK  status: ('A' for Active; 'I' for Inactive)
REMARK    1  A    between atoms: C_12  and  C_16 
REMARK    2  A    between atoms: C_12  and  O_20 
ROOT
ATOM      1  C   LIG d   1       6.713  -3.017  -7.802  0.00  0.00    -0.047 C 
ATOM      2  C   LIG d   1       5.351  -2.371  -8.066  0.00  0.00    -0.040 C 
ATOM      3  C   LIG d   1       5.494  -0.848  -8.027  0.00  0.00    -0.046 C 
ATOM      4  C   LIG d   1       5.994  -0.417  -6.643  0.00  0.00    -0.021 C 
ATOM      5  C   LIG d   1       7.358  -1.067  -6.381  0.00  0.00    -0.046 C 
ATOM      6  C   LIG d   1       7.214  -2.589  -6.421  0.00  0.00    -0.040 C 
ATOM      7  C   LIG d   1       6.218  -3.047  -5.353  0.00  0.00    -0.046 C 
ATOM      8  C   LIG d   1       4.854  -2.400  -5.615  0.00  0.00    -0.021 C 
ATOM      9  C   LIG d   1       4.355  -2.830  -7.000  0.00  0.00    -0.046 C 
ATOM     10  C   LIG d   1       5.005  -0.888  -5.589  0.00  0.00     0.083 C 
ATOM     11  C   LIG d   1       5.409  -0.390  -4.184  0.00  0.00     0.031 C 
ATOM     12  C   LIG d   1       4.062  -0.008  -3.527  0.00  0.00     0.280 C 
ATOM     13  O   LIG d   1       3.255   0.708  -4.485  0.00  0.00    -0.245 OA
ATOM     14  S   LIG d   1       3.385  -0.071  -5.813  0.00  0.00     0.166 S 
ATOM     15  O   LIG d   1       3.500   0.945  -6.798  0.00  0.00    -0.227 OA
ATOM     16  H   LIG d   1       6.613  -4.102  -7.833  0.00  0.00     0.027 H 
ATOM     17  H   LIG d   1       7.422  -2.693  -8.563  0.00  0.00     0.027 H 
ATOM     18  H   LIG d   1       4.992  -2.672  -9.050  0.00  0.00     0.030 H 
ATOM     19  H   LIG d   1       6.208  -0.531  -8.787  0.00  0.00     0.027 H 
ATOM     20  H   LIG d   1       4.525  -0.387  -8.224  0.00  0.00     0.027 H 
ATOM     21  H   LIG d   1       6.080   0.669  -6.607  0.00  0.00     0.032 H 
ATOM     22  H   LIG d   1       8.065  -0.749  -7.147  0.00  0.00     0.027 H 
ATOM     23  H   LIG d   1       7.723  -0.761  -5.401  0.00  0.00     0.027 H 
ATOM     24  H   LIG d   1       8.183  -3.049  -6.229  0.00  0.00     0.030 H 
ATOM     25  H   LIG d   1       6.120  -4.132  -5.391  0.00  0.00     0.027 H 
ATOM     26  H   LIG d   1       6.579  -2.749  -4.369  0.00  0.00     0.027 H 
ATOM     27  H   LIG d   1       4.144  -2.721  -4.853  0.00  0.00     0.032 H 
ATOM     28  H   LIG d   1       3.382  -2.377  -7.192  0.00  0.00     0.027 H 
ATOM     29  H   LIG d   1       4.263  -3.916  -7.032  0.00  0.00     0.027 H 
ATOM     30  H   LIG d   1       5.896  -1.187  -3.622  0.00  0.00     0.034 H 
ATOM     31  H   LIG d   1       6.059   0.480  -4.259  0.00  0.00     0.034 H 
ENDROOT
BRANCH  12  32
ATOM     32  C   LIG d   1       4.321   0.882  -2.309  0.00  0.00     0.445 C 
ATOM     33  F   LIG d   1       3.216   1.713  -2.097  0.00  0.00    -0.165 F 
ATOM     34  F   LIG d   1       4.527   0.081  -1.181  0.00  0.00    -0.165 F 
ATOM     35  F   LIG d   1       5.457   1.666  -2.538  0.00  0.00    -0.165 F 
ENDBRANCH  12  32
BRANCH  12  36
ATOM     36  O   LIG d   1       3.377  -1.192  -3.115  0.00  0.00    -0.357 OA
ATOM     37  H   LIG d   1       3.881  -1.745  -2.501  0.00  0.00     0.213 HD
ENDBRANCH  12  36
TORSDOF 2
ENDMDL
MODEL 9
REMARK VINA RESULT:      -6.1      3.550      5.024
REMARK  2 active torsions:
REMARK  status: ('A' for Active; 'I' for Inactive)
REMARK    1  A    between atoms: C_12  and  C_16 
REMARK    2  A    between atoms: C_12  and  O_20 
ROOT
ATOM      1  C   LIG d   1       5.505  -2.561  -8.635  0.00  0.00    -0.047 C 
ATOM      2  C   LIG d   1       6.775  -2.137  -7.893  0.00  0.00    -0.040 C 
ATOM      3  C   LIG d   1       6.970  -3.029  -6.666  0.00  0.00    -0.046 C 
ATOM      4  C   LIG d   1       5.766  -2.877  -5.728  0.00  0.00    -0.021 C 
ATOM      5  C   LIG d   1       4.496  -3.302  -6.474  0.00  0.00    -0.046 C 
ATOM      6  C   LIG d   1       4.303  -2.409  -7.701  0.00  0.00    -0.040 C 
ATOM      7  C   LIG d   1       4.175  -0.947  -7.268  0.00  0.00    -0.046 C 
ATOM      8  C   LIG d   1       5.445  -0.521  -6.524  0.00  0.00    -0.021 C 
ATOM      9  C   LIG d   1       6.649  -0.675  -7.461  0.00  0.00    -0.046 C 
ATOM     10  C   LIG d   1       5.640  -1.421  -5.314  0.00  0.00     0.083 C 
ATOM     11  C   LIG d   1       4.504  -1.229  -4.286  0.00  0.00     0.031 C 
ATOM     12  C   LIG d   1       5.079  -0.197  -3.288  0.00  0.00     0.280 C 
ATOM     13  O   LIG d   1       6.448  -0.540  -2.990  0.00  0.00    -0.245 OA
ATOM     14  S   LIG d   1       7.099  -0.895  -4.346  0.00  0.00     0.166 S 
ATOM     15  O   LIG d   1       7.906  -2.028  -4.053  0.00  0.00    -0.227 OA
ATOM     16  H   LIG d   1       5.369  -1.927  -9.512  0.00  0.00     0.027 H 
ATOM     17  H   LIG d   1       5.597  -3.601  -8.946  0.00  0.00     0.027 H 
ATOM     18  H   LIG d   1       7.634  -2.246  -8.555  0.00  0.00     0.030 H 
ATOM     19  H   LIG d   1       7.055  -4.069  -6.983  0.00  0.00     0.027 H 
ATOM     20  H   LIG d   1       7.879  -2.734  -6.142  0.00  0.00     0.027 H 
ATOM     21  H   LIG d   1       5.910  -3.499  -4.844  0.00  0.00     0.032 H 
ATOM     22  H   LIG d   1       4.590  -4.340  -6.791  0.00  0.00     0.027 H 
ATOM     23  H   LIG d   1       3.636  -3.201  -5.812  0.00  0.00     0.027 H 
ATOM     24  H   LIG d   1       3.396  -2.708  -8.227  0.00  0.00     0.030 H 
ATOM     25  H   LIG d   1       4.041  -0.319  -8.148  0.00  0.00     0.027 H 
ATOM     26  H   LIG d   1       3.314  -0.838  -6.609  0.00  0.00     0.027 H 
ATOM     27  H   LIG d   1       5.355   0.518  -6.210  0.00  0.00     0.032 H 
ATOM     28  H   LIG d   1       7.556  -0.370  -6.940  0.00  0.00     0.027 H 
ATOM     29  H   LIG d   1       6.506  -0.047  -8.342  0.00  0.00     0.027 H 
ATOM     30  H   LIG d   1       3.612  -0.834  -4.772  0.00  0.00     0.034 H 
ATOM     31  H   LIG d   1       4.283  -2.168  -3.781  0.00  0.00     0.034 H 
ENDROOT
BRANCH  12  32
ATOM     32  C   LIG d   1       4.255  -0.217  -1.999  0.00  0.00     0.445 C 
ATOM     33  F   LIG d   1       4.425  -1.448  -1.357  0.00  0.00    -0.165 F 
ATOM     34  F   LIG d   1       4.683   0.813  -1.155  0.00  0.00    -0.165 F 
ATOM     35  F   LIG d   1       2.902  -0.036  -2.308  0.00  0.00    -0.165 F 
ENDBRANCH  12  32
BRANCH  12  36
ATOM     36  O   LIG d   1       5.028   1.108  -3.867  0.00  0.00    -0.357 OA
ATOM     37  H   LIG d   1       5.833   1.629  -3.736  0.00  0.00     0.213 HD
ENDBRANCH  12  36
TORSDOF 2
ENDMDL
MODEL 10
REMARK VINA RESULT:      -6.0      3.478      5.349
REMARK  2 active torsions:
REMARK  status: ('A' for Active; 'I' for Inactive)
REMARK    1  A    between atoms: C_12  and  C_16 
REMARK    2  A    between atoms: C_12  and  O_20 
ROOT
ATOM      1  C   LIG d   1       9.062  -2.386  -6.378  0.00  0.00    -0.047 C 
ATOM      2  C   LIG d   1       7.870  -2.069  -7.282  0.00  0.00    -0.040 C 
ATOM      3  C   LIG d   1       7.515  -0.586  -7.157  0.00  0.00    -0.046 C 
ATOM      4  C   LIG d   1       7.140  -0.272  -5.704  0.00  0.00    -0.021 C 
ATOM      5  C   LIG d   1       8.336  -0.592  -4.800  0.00  0.00    -0.046 C 
ATOM      6  C   LIG d   1       8.690  -2.075  -4.927  0.00  0.00    -0.040 C 
ATOM      7  C   LIG d   1       7.494  -2.934  -4.512  0.00  0.00    -0.046 C 
ATOM      8  C   LIG d   1       6.298  -2.616  -5.416  0.00  0.00    -0.021 C 
ATOM      9  C   LIG d   1       6.674  -2.929  -6.869  0.00  0.00    -0.046 C 
ATOM     10  C   LIG d   1       5.960  -1.139  -5.297  0.00  0.00     0.083 C 
ATOM     11  C   LIG d   1       5.475  -0.790  -3.874  0.00  0.00     0.031 C 
ATOM     12  C   LIG d   1       3.934  -0.868  -3.979  0.00  0.00     0.280 C 
ATOM     13  O   LIG d   1       3.510  -0.233  -5.203  0.00  0.00    -0.245 OA
ATOM     14  S   LIG d   1       4.484  -0.730  -6.295  0.00  0.00     0.166 S 
ATOM     15  O   LIG d   1       4.746   0.427  -7.076  0.00  0.00    -0.227 OA
ATOM     16  H   LIG d   1       9.317  -3.442  -6.470  0.00  0.00     0.027 H 
ATOM     17  H   LIG d   1       9.915  -1.777  -6.674  0.00  0.00     0.027 H 
ATOM     18  H   LIG d   1       8.132  -2.288  -8.317  0.00  0.00     0.030 H 
ATOM     19  H   LIG d   1       8.375   0.018  -7.450  0.00  0.00     0.027 H 
ATOM     20  H   LIG d   1       6.672  -0.358  -7.808  0.00  0.00     0.027 H 
ATOM     21  H   LIG d   1       6.870   0.780  -5.614  0.00  0.00     0.032 H 
ATOM     22  H   LIG d   1       9.191   0.012  -5.101  0.00  0.00     0.027 H 
ATOM     23  H   LIG d   1       8.079  -0.367  -3.765  0.00  0.00     0.027 H 
ATOM     24  H   LIG d   1       9.537  -2.302  -4.279  0.00  0.00     0.030 H 
ATOM     25  H   LIG d   1       7.753  -3.988  -4.609  0.00  0.00     0.027 H 
ATOM     26  H   LIG d   1       7.233  -2.717  -3.476  0.00  0.00     0.027 H 
ATOM     27  H   LIG d   1       5.443  -3.224  -5.120  0.00  0.00     0.032 H 
ATOM     28  H   LIG d   1       5.826  -2.710  -7.519  0.00  0.00     0.027 H 
ATOM     29  H   LIG d   1       6.937  -3.984  -6.958  0.00  0.00     0.027 H 
ATOM     30  H   LIG d   1       5.847  -1.518  -3.154  0.00  0.00     0.034 H 
ATOM     31  H   LIG d   1       5.789   0.217  -3.599  0.00  0.00     0.034 H 
ENDROOT
BRANCH  12  32
ATOM     32  C   LIG d   1       3.302  -0.150  -2.785  0.00  0.00     0.445 C 
ATOM     33  F   LIG d   1       2.018  -0.659  -2.562  0.00  0.00    -0.165 F 
ATOM     34  F   LIG d   1       4.089  -0.354  -1.647  0.00  0.00    -0.165 F 
ATOM     35  F   LIG d   1       3.219   1.220  -3.055  0.00  0.00    -0.165 F 
ENDBRANCH  12  32
BRANCH  12  36
ATOM     36  O   LIG d   1       3.524  -2.237  -3.984  0.00  0.00    -0.357 OA
ATOM     37  H   LIG d   1       3.269  -2.575  -3.114  0.00  0.00     0.213 HD
ENDBRANCH  12  36
TORSDOF 2
ENDMDL
