MODEL 1
REMARK VINA RESULT:      -5.5      0.000      0.000
REMARK  2 active torsions:
REMARK  status: ('A' for Active; 'I' for Inactive)
REMARK    1  A    between atoms: C_1  and  O_2 
REMARK    2  A    between atoms: O_2  and  P_3 
ROOT
ATOM      1  P   LIG d   1       4.889  -3.218  -4.917  0.00  0.00     0.361 P 
ATOM      2  S   LIG d   1       4.861  -2.413  -6.598  0.00  0.00     0.036 SA
ATOM      3  O   LIG d   1       6.334  -2.987  -4.211  0.00  0.00    -0.297 OA
ATOM      4  C   LIG d   1       6.698  -1.652  -3.838  0.00  0.00     0.086 C 
ATOM      5  C   LIG d   1       5.502  -0.902  -3.309  0.00  0.00     0.021 A 
ATOM      6  C   LIG d   1       5.769   0.321  -2.697  0.00  0.00    -0.053 A 
ATOM      7  C   LIG d   1       4.751   1.104  -2.199  0.00  0.00    -0.061 A 
ATOM      8  C   LIG d   1       3.441   0.673  -2.305  0.00  0.00    -0.058 A 
ATOM      9  C   LIG d   1       3.168  -0.538  -2.901  0.00  0.00    -0.019 A 
ATOM     10  C   LIG d   1       4.199  -1.340  -3.401  0.00  0.00     0.135 A 
ATOM     11  O   LIG d   1       3.805  -2.521  -3.948  0.00  0.00    -0.426 OA
ATOM     12  H   LIG d   1       7.471  -1.687  -3.057  0.00  0.00     0.062 H 
ATOM     13  H   LIG d   1       7.091  -1.121  -4.718  0.00  0.00     0.062 H 
ATOM     14  H   LIG d   1       6.791   0.660  -2.612  0.00  0.00     0.062 H 
ATOM     15  H   LIG d   1       4.974   2.049  -1.728  0.00  0.00     0.062 H 
ATOM     16  H   LIG d   1       2.636   1.283  -1.923  0.00  0.00     0.062 H 
ATOM     17  H   LIG d   1       2.145  -0.874  -2.982  0.00  0.00     0.065 H 
ENDROOT
BRANCH   1  18
ATOM     18  O   LIG d   1       4.582  -4.793  -5.051  0.00  0.00    -0.305 OA
BRANCH  18  19
ATOM     19  C   LIG d   1       4.132  -5.398  -6.266  0.00  0.00     0.046 C 
ATOM     20  H   LIG d   1       4.619  -4.908  -7.122  0.00  0.00     0.053 H 
ATOM     21  H   LIG d   1       3.042  -5.283  -6.350  0.00  0.00     0.053 H 
ATOM     22  H   LIG d   1       4.390  -6.467  -6.260  0.00  0.00     0.053 H 
ENDBRANCH  18  19
ENDBRANCH   1  18
TORSDOF 2
ENDMDL
MODEL 2
REMARK VINA RESULT:      -5.3      2.656      2.946
REMARK  2 active torsions:
REMARK  status: ('A' for Active; 'I' for Inactive)
REMARK    1  A    between atoms: C_1  and  O_2 
REMARK    2  A    between atoms: O_2  and  P_3 
ROOT
ATOM      1  P   LIG d   1       4.545  -0.769  -6.692  0.00  0.00     0.361 P 
ATOM      2  S   LIG d   1       6.332  -0.277  -6.888  0.00  0.00     0.036 SA
ATOM      3  O   LIG d   1       4.442  -2.276  -6.096  0.00  0.00    -0.297 OA
ATOM      4  C   LIG d   1       4.898  -2.507  -4.757  0.00  0.00     0.086 C 
ATOM      5  C   LIG d   1       4.536  -1.346  -3.864  0.00  0.00     0.021 A 
ATOM      6  C   LIG d   1       4.713  -1.548  -2.498  0.00  0.00    -0.053 A 
ATOM      7  C   LIG d   1       4.438  -0.548  -1.590  0.00  0.00    -0.061 A 
ATOM      8  C   LIG d   1       3.978   0.677  -2.039  0.00  0.00    -0.058 A 
ATOM      9  C   LIG d   1       3.792   0.882  -3.388  0.00  0.00    -0.019 A 
ATOM     10  C   LIG d   1       4.062  -0.132  -4.312  0.00  0.00     0.135 A 
ATOM     11  O   LIG d   1       3.821   0.185  -5.612  0.00  0.00    -0.426 OA
ATOM     12  H   LIG d   1       4.430  -3.419  -4.361  0.00  0.00     0.062 H 
ATOM     13  H   LIG d   1       5.991  -2.627  -4.757  0.00  0.00     0.062 H 
ATOM     14  H   LIG d   1       5.071  -2.503  -2.143  0.00  0.00     0.062 H 
ATOM     15  H   LIG d   1       4.580  -0.720  -0.534  0.00  0.00     0.062 H 
ATOM     16  H   LIG d   1       3.766   1.468  -1.335  0.00  0.00     0.062 H 
ATOM     17  H   LIG d   1       3.432   1.839  -3.736  0.00  0.00     0.065 H 
ENDROOT
BRANCH   1  18
ATOM     18  O   LIG d   1       3.786  -0.678  -8.109  0.00  0.00    -0.305 OA
BRANCH  18  19
ATOM     19  C   LIG d   1       2.411  -0.311  -8.233  0.00  0.00     0.046 C 
ATOM     20  H   LIG d   1       2.109  -0.371  -9.290  0.00  0.00     0.053 H 
ATOM     21  H   LIG d   1       2.272   0.718  -7.871  0.00  0.00     0.053 H 
ATOM     22  H   LIG d   1       1.792  -0.996  -7.635  0.00  0.00     0.053 H 
ENDBRANCH  18  19
ENDBRANCH   1  18
TORSDOF 2
ENDMDL
MODEL 3
REMARK VINA RESULT:      -5.2      3.334      4.335
REMARK  2 active torsions:
REMARK  status: ('A' for Active; 'I' for Inactive)
REMARK    1  A    between atoms: C_1  and  O_2 
REMARK    2  A    between atoms: O_2  and  P_3 
ROOT
ATOM      1  P   LIG d   1       4.108   0.291  -7.053  0.00  0.00     0.361 P 
ATOM      2  S   LIG d   1       3.543  -1.252  -7.933  0.00  0.00     0.036 SA
ATOM      3  O   LIG d   1       2.852   1.002  -6.308  0.00  0.00    -0.297 OA
ATOM      4  C   LIG d   1       2.241   0.314  -5.209  0.00  0.00     0.086 C 
ATOM      5  C   LIG d   1       3.283  -0.383  -4.371  0.00  0.00     0.021 A 
ATOM      6  C   LIG d   1       2.848  -0.888  -3.148  0.00  0.00    -0.053 A 
ATOM      7  C   LIG d   1       3.708  -1.565  -2.312  0.00  0.00    -0.061 A 
ATOM      8  C   LIG d   1       5.026  -1.748  -2.688  0.00  0.00    -0.058 A 
ATOM      9  C   LIG d   1       5.468  -1.245  -3.891  0.00  0.00    -0.019 A 
ATOM     10  C   LIG d   1       4.600  -0.550  -4.740  0.00  0.00     0.135 A 
ATOM     11  O   LIG d   1       5.159  -0.086  -5.890  0.00  0.00    -0.426 OA
ATOM     12  H   LIG d   1       1.701   1.035  -4.578  0.00  0.00     0.062 H 
ATOM     13  H   LIG d   1       1.534  -0.437  -5.593  0.00  0.00     0.062 H 
ATOM     14  H   LIG d   1       1.819  -0.746  -2.851  0.00  0.00     0.062 H 
ATOM     15  H   LIG d   1       3.355  -1.950  -1.368  0.00  0.00     0.062 H 
ATOM     16  H   LIG d   1       5.706  -2.283  -2.041  0.00  0.00     0.062 H 
ATOM     17  H   LIG d   1       6.498  -1.388  -4.182  0.00  0.00     0.065 H 
ENDROOT
BRANCH   1  18
ATOM     18  O   LIG d   1       4.782   1.312  -8.100  0.00  0.00    -0.305 OA
BRANCH  18  19
ATOM     19  C   LIG d   1       4.029   2.036  -9.076  0.00  0.00     0.046 C 
ATOM     20  H   LIG d   1       3.189   2.549  -8.585  0.00  0.00     0.053 H 
ATOM     21  H   LIG d   1       3.640   1.337  -9.831  0.00  0.00     0.053 H 
ATOM     22  H   LIG d   1       4.679   2.778  -9.564  0.00  0.00     0.053 H 
ENDBRANCH  18  19
ENDBRANCH   1  18
TORSDOF 2
ENDMDL
MODEL 4
REMARK VINA RESULT:      -4.9      2.697      3.755
REMARK  2 active torsions:
REMARK  status: ('A' for Active; 'I' for Inactive)
REMARK    1  A    between atoms: C_1  and  O_2 
REMARK    2  A    between atoms: O_2  and  P_3 
ROOT
ATOM      1  P   LIG d   1       8.081  -0.723  -5.058  0.00  0.00     0.361 P 
ATOM      2  S   LIG d   1       7.119  -0.443  -6.629  0.00  0.00     0.036 SA
ATOM      3  O   LIG d   1       8.395   0.697  -4.334  0.00  0.00    -0.297 OA
ATOM      4  C   LIG d   1       7.293   1.445  -3.805  0.00  0.00     0.086 C 
ATOM      5  C   LIG d   1       6.273   0.524  -3.185  0.00  0.00     0.021 A 
ATOM      6  C   LIG d   1       5.274   1.136  -2.432  0.00  0.00    -0.053 A 
ATOM      7  C   LIG d   1       4.275   0.394  -1.840  0.00  0.00    -0.061 A 
ATOM      8  C   LIG d   1       4.260  -0.980  -1.992  0.00  0.00    -0.058 A 
ATOM      9  C   LIG d   1       5.248  -1.595  -2.728  0.00  0.00    -0.019 A 
ATOM     10  C   LIG d   1       6.269  -0.847  -3.325  0.00  0.00     0.135 A 
ATOM     11  O   LIG d   1       7.197  -1.569  -4.008  0.00  0.00    -0.426 OA
ATOM     12  H   LIG d   1       7.657   2.142  -3.037  0.00  0.00     0.062 H 
ATOM     13  H   LIG d   1       6.813   2.013  -4.616  0.00  0.00     0.062 H 
ATOM     14  H   LIG d   1       5.282   2.209  -2.310  0.00  0.00     0.062 H 
ATOM     15  H   LIG d   1       3.508   0.884  -1.260  0.00  0.00     0.062 H 
ATOM     16  H   LIG d   1       3.477  -1.568  -1.537  0.00  0.00     0.062 H 
ATOM     17  H   LIG d   1       5.236  -2.668  -2.845  0.00  0.00     0.065 H 
ENDROOT
BRANCH   1  18
ATOM     18  O   LIG d   1       9.454  -1.498  -5.379  0.00  0.00    -0.305 OA
BRANCH  18  19
ATOM     19  C   LIG d   1      10.742  -0.896  -5.230  0.00  0.00     0.046 C 
ATOM     20  H   LIG d   1      10.748   0.086  -5.726  0.00  0.00     0.053 H 
ATOM     21  H   LIG d   1      11.504  -1.543  -5.688  0.00  0.00     0.053 H 
ATOM     22  H   LIG d   1      10.965  -0.768  -4.160  0.00  0.00     0.053 H 
ENDBRANCH  18  19
ENDBRANCH   1  18
TORSDOF 2
ENDMDL
MODEL 5
REMARK VINA RESULT:      -4.7      3.015      3.806
REMARK  2 active torsions:
REMARK  status: ('A' for Active; 'I' for Inactive)
REMARK    1  A    between atoms: C_1  and  O_2 
REMARK    2  A    between atoms: O_2  and  P_3 
ROOT
ATOM      1  P   LIG d   1       7.088   0.013  -5.536  0.00  0.00     0.361 P 
ATOM      2  S   LIG d   1       7.829   1.204  -4.310  0.00  0.00     0.036 SA
ATOM      3  O   LIG d   1       7.402  -1.517  -5.089  0.00  0.00    -0.297 OA
ATOM      4  C   LIG d   1       6.795  -2.009  -3.887  0.00  0.00     0.086 C 
ATOM      5  C   LIG d   1       5.387  -1.485  -3.749  0.00  0.00     0.021 A 
ATOM      6  C   LIG d   1       4.612  -2.072  -2.752  0.00  0.00    -0.053 A 
ATOM      7  C   LIG d   1       3.319  -1.656  -2.519  0.00  0.00    -0.061 A 
ATOM      8  C   LIG d   1       2.778  -0.640  -3.286  0.00  0.00    -0.058 A 
ATOM      9  C   LIG d   1       3.534  -0.060  -4.280  0.00  0.00    -0.019 A 
ATOM     10  C   LIG d   1       4.844  -0.484  -4.525  0.00  0.00     0.135 A 
ATOM     11  O   LIG d   1       5.482   0.152  -5.544  0.00  0.00    -0.426 OA
ATOM     12  H   LIG d   1       6.765  -3.107  -3.913  0.00  0.00     0.062 H 
ATOM     13  H   LIG d   1       7.384  -1.678  -3.018  0.00  0.00     0.062 H 
ATOM     14  H   LIG d   1       5.031  -2.866  -2.152  0.00  0.00     0.062 H 
ATOM     15  H   LIG d   1       2.732  -2.121  -1.743  0.00  0.00     0.062 H 
ATOM     16  H   LIG d   1       1.768  -0.304  -3.106  0.00  0.00     0.062 H 
ATOM     17  H   LIG d   1       3.110   0.732  -4.879  0.00  0.00     0.065 H 
ENDROOT
BRANCH   1  18
ATOM     18  O   LIG d   1       7.677   0.294  -7.007  0.00  0.00    -0.305 OA
BRANCH  18  19
ATOM     19  C   LIG d   1       7.822   1.608  -7.551  0.00  0.00     0.046 C 
ATOM     20  H   LIG d   1       8.878   1.787  -7.801  0.00  0.00     0.053 H 
ATOM     21  H   LIG d   1       7.490   2.349  -6.809  0.00  0.00     0.053 H 
ATOM     22  H   LIG d   1       7.208   1.698  -8.459  0.00  0.00     0.053 H 
ENDBRANCH  18  19
ENDBRANCH   1  18
TORSDOF 2
ENDMDL
MODEL 6
REMARK VINA RESULT:      -4.4      5.638      6.826
REMARK  2 active torsions:
REMARK  status: ('A' for Active; 'I' for Inactive)
REMARK    1  A    between atoms: C_1  and  O_2 
REMARK    2  A    between atoms: O_2  and  P_3 
ROOT
ATOM      1  P   LIG d   1       3.368   0.138  -7.060  0.00  0.00     0.361 P 
ATOM      2  S   LIG d   1       4.439  -1.349  -6.721  0.00  0.00     0.036 SA
ATOM      3  O   LIG d   1       4.198   1.241  -7.915  0.00  0.00    -0.297 OA
ATOM      4  C   LIG d   1       4.575   0.912  -9.258  0.00  0.00     0.086 C 
ATOM      5  C   LIG d   1       3.479   0.135  -9.943  0.00  0.00     0.021 A 
ATOM      6  C   LIG d   1       3.621  -0.041 -11.318  0.00  0.00    -0.053 A 
ATOM      7  C   LIG d   1       2.692  -0.755 -12.043  0.00  0.00    -0.061 A 
ATOM      8  C   LIG d   1       1.599  -1.307 -11.400  0.00  0.00    -0.058 A 
ATOM      9  C   LIG d   1       1.445  -1.131 -10.043  0.00  0.00    -0.019 A 
ATOM     10  C   LIG d   1       2.382  -0.400  -9.304  0.00  0.00     0.135 A 
ATOM     11  O   LIG d   1       2.110  -0.280  -7.977  0.00  0.00    -0.426 OA
ATOM     12  H   LIG d   1       4.764   1.835  -9.824  0.00  0.00     0.062 H 
ATOM     13  H   LIG d   1       5.488   0.298  -9.243  0.00  0.00     0.062 H 
ATOM     14  H   LIG d   1       4.473   0.389 -11.823  0.00  0.00     0.062 H 
ATOM     15  H   LIG d   1       2.817  -0.882 -13.107  0.00  0.00     0.062 H 
ATOM     16  H   LIG d   1       0.870  -1.873 -11.960  0.00  0.00     0.062 H 
ATOM     17  H   LIG d   1       0.591  -1.562  -9.543  0.00  0.00     0.065 H 
ENDROOT
BRANCH   1  18
ATOM     18  O   LIG d   1       2.857   0.780  -5.675  0.00  0.00    -0.305 OA
BRANCH  18  19
ATOM     19  C   LIG d   1       2.906   0.083  -4.428  0.00  0.00     0.046 C 
ATOM     20  H   LIG d   1       1.958  -0.453  -4.269  0.00  0.00     0.053 H 
ATOM     21  H   LIG d   1       3.062   0.803  -3.612  0.00  0.00     0.053 H 
ATOM     22  H   LIG d   1       3.737  -0.638  -4.444  0.00  0.00     0.053 H 
ENDBRANCH  18  19
ENDBRANCH   1  18
TORSDOF 2
ENDMDL
MODEL 7
REMARK VINA RESULT:      -4.4      2.398      2.941
REMARK  2 active torsions:
REMARK  status: ('A' for Active; 'I' for Inactive)
REMARK    1  A    between atoms: C_1  and  O_2 
REMARK    2  A    between atoms: O_2  and  P_3 
ROOT
ATOM      1  P   LIG d   1       7.063  -2.480  -4.614  0.00  0.00     0.361 P 
ATOM      2  S   LIG d   1       6.410  -3.974  -5.517  0.00  0.00     0.036 SA
ATOM      3  O   LIG d   1       6.967  -1.166  -5.564  0.00  0.00    -0.297 OA
ATOM      4  C   LIG d   1       5.665  -0.679  -5.915  0.00  0.00     0.086 C 
ATOM      5  C   LIG d   1       4.719  -0.802  -4.747  0.00  0.00     0.021 A 
ATOM      6  C   LIG d   1       3.495  -0.152  -4.882  0.00  0.00    -0.053 A 
ATOM      7  C   LIG d   1       2.542  -0.217  -3.889  0.00  0.00    -0.061 A 
ATOM      8  C   LIG d   1       2.801  -0.938  -2.738  0.00  0.00    -0.058 A 
ATOM      9  C   LIG d   1       4.012  -1.578  -2.592  0.00  0.00    -0.019 A 
ATOM     10  C   LIG d   1       4.985  -1.508  -3.594  0.00  0.00     0.135 A 
ATOM     11  O   LIG d   1       6.146  -2.164  -3.326  0.00  0.00    -0.426 OA
ATOM     12  H   LIG d   1       5.735   0.379  -6.206  0.00  0.00     0.062 H 
ATOM     13  H   LIG d   1       5.269  -1.265  -6.757  0.00  0.00     0.062 H 
ATOM     14  H   LIG d   1       3.289   0.413  -5.779  0.00  0.00     0.062 H 
ATOM     15  H   LIG d   1       1.598   0.293  -4.008  0.00  0.00     0.062 H 
ATOM     16  H   LIG d   1       2.058  -1.000  -1.957  0.00  0.00     0.062 H 
ATOM     17  H   LIG d   1       4.213  -2.140  -1.692  0.00  0.00     0.065 H 
ENDROOT
BRANCH   1  18
ATOM     18  O   LIG d   1       8.588  -2.728  -4.162  0.00  0.00    -0.305 OA
BRANCH  18  19
ATOM     19  C   LIG d   1       9.008  -3.893  -3.448  0.00  0.00     0.046 C 
ATOM     20  H   LIG d   1       8.617  -3.856  -2.421  0.00  0.00     0.053 H 
ATOM     21  H   LIG d   1      10.107  -3.928  -3.421  0.00  0.00     0.053 H 
ATOM     22  H   LIG d   1       8.625  -4.792  -3.954  0.00  0.00     0.053 H 
ENDBRANCH  18  19
ENDBRANCH   1  18
TORSDOF 2
ENDMDL
MODEL 8
REMARK VINA RESULT:      -4.3      2.391      3.229
REMARK  2 active torsions:
REMARK  status: ('A' for Active; 'I' for Inactive)
REMARK    1  A    between atoms: C_1  and  O_2 
REMARK    2  A    between atoms: O_2  and  P_3 
ROOT
ATOM      1  P   LIG d   1       7.619  -2.392  -5.113  0.00  0.00     0.361 P 
ATOM      2  S   LIG d   1       8.584  -3.346  -3.836  0.00  0.00     0.036 SA
ATOM      3  O   LIG d   1       6.268  -3.201  -5.513  0.00  0.00    -0.297 OA
ATOM      4  C   LIG d   1       5.251  -3.354  -4.515  0.00  0.00     0.086 C 
ATOM      5  C   LIG d   1       5.129  -2.102  -3.683  0.00  0.00     0.021 A 
ATOM      6  C   LIG d   1       4.024  -2.036  -2.838  0.00  0.00    -0.053 A 
ATOM      7  C   LIG d   1       3.824  -0.950  -2.014  0.00  0.00    -0.061 A 
ATOM      8  C   LIG d   1       4.731   0.094  -2.023  0.00  0.00    -0.058 A 
ATOM      9  C   LIG d   1       5.822   0.040  -2.862  0.00  0.00    -0.019 A 
ATOM     10  C   LIG d   1       6.025  -1.056  -3.706  0.00  0.00     0.135 A 
ATOM     11  O   LIG d   1       7.127  -0.984  -4.500  0.00  0.00    -0.426 OA
ATOM     12  H   LIG d   1       4.286  -3.554  -5.002  0.00  0.00     0.062 H 
ATOM     13  H   LIG d   1       5.510  -4.195  -3.855  0.00  0.00     0.062 H 
ATOM     14  H   LIG d   1       3.312  -2.848  -2.828  0.00  0.00     0.062 H 
ATOM     15  H   LIG d   1       2.963  -0.913  -1.364  0.00  0.00     0.062 H 
ATOM     16  H   LIG d   1       4.586   0.946  -1.376  0.00  0.00     0.062 H 
ATOM     17  H   LIG d   1       6.530   0.857  -2.869  0.00  0.00     0.065 H 
ENDROOT
BRANCH   1  18
ATOM     18  O   LIG d   1       8.524  -2.142  -6.420  0.00  0.00    -0.305 OA
BRANCH  18  19
ATOM     19  C   LIG d   1       8.003  -1.602  -7.637  0.00  0.00     0.046 C 
ATOM     20  H   LIG d   1       7.647  -2.421  -8.279  0.00  0.00     0.053 H 
ATOM     21  H   LIG d   1       8.795  -1.045  -8.159  0.00  0.00     0.053 H 
ATOM     22  H   LIG d   1       7.168  -0.924  -7.409  0.00  0.00     0.053 H 
ENDBRANCH  18  19
ENDBRANCH   1  18
TORSDOF 2
ENDMDL
MODEL 9
REMARK VINA RESULT:      -4.2      1.991      2.122
REMARK  2 active torsions:
REMARK  status: ('A' for Active; 'I' for Inactive)
REMARK    1  A    between atoms: C_1  and  O_2 
REMARK    2  A    between atoms: O_2  and  P_3 
ROOT
ATOM      1  P   LIG d   1       5.729  -2.244  -6.440  0.00  0.00     0.361 P 
ATOM      2  S   LIG d   1       4.336  -1.448  -7.387  0.00  0.00     0.036 SA
ATOM      3  O   LIG d   1       6.864  -1.140  -6.080  0.00  0.00    -0.297 OA
ATOM      4  C   LIG d   1       6.523  -0.094  -5.161  0.00  0.00     0.086 C 
ATOM      5  C   LIG d   1       5.647  -0.624  -4.054  0.00  0.00     0.021 A 
ATOM      6  C   LIG d   1       5.440   0.233  -2.975  0.00  0.00    -0.053 A 
ATOM      7  C   LIG d   1       4.637  -0.136  -1.918  0.00  0.00    -0.061 A 
ATOM      8  C   LIG d   1       4.025  -1.376  -1.923  0.00  0.00    -0.058 A 
ATOM      9  C   LIG d   1       4.231  -2.234  -2.981  0.00  0.00    -0.019 A 
ATOM     10  C   LIG d   1       5.051  -1.866  -4.053  0.00  0.00     0.135 A 
ATOM     11  O   LIG d   1       5.191  -2.805  -5.027  0.00  0.00    -0.426 OA
ATOM     12  H   LIG d   1       7.440   0.322  -4.721  0.00  0.00     0.062 H 
ATOM     13  H   LIG d   1       5.979   0.700  -5.695  0.00  0.00     0.062 H 
ATOM     14  H   LIG d   1       5.917   1.202  -2.967  0.00  0.00     0.062 H 
ATOM     15  H   LIG d   1       4.487   0.539  -1.089  0.00  0.00     0.062 H 
ATOM     16  H   LIG d   1       3.390  -1.672  -1.101  0.00  0.00     0.062 H 
ATOM     17  H   LIG d   1       3.753  -3.202  -2.983  0.00  0.00     0.065 H 
ENDROOT
BRANCH   1  18
ATOM     18  O   LIG d   1       6.373  -3.441  -7.303  0.00  0.00    -0.305 OA
BRANCH  18  19
ATOM     19  C   LIG d   1       7.694  -3.939  -7.080  0.00  0.00     0.046 C 
ATOM     20  H   LIG d   1       7.786  -4.283  -6.039  0.00  0.00     0.053 H 
ATOM     21  H   LIG d   1       8.423  -3.137  -7.267  0.00  0.00     0.053 H 
ATOM     22  H   LIG d   1       7.889  -4.779  -7.762  0.00  0.00     0.053 H 
ENDBRANCH  18  19
ENDBRANCH   1  18
TORSDOF 2
ENDMDL
MODEL 10
REMARK VINA RESULT:      -4.2      4.046      5.011
REMARK  2 active torsions:
REMARK  status: ('A' for Active; 'I' for Inactive)
REMARK    1  A    between atoms: C_1  and  O_2 
REMARK    2  A    between atoms: O_2  and  P_3 
ROOT
ATOM      1  P   LIG d   1       8.352   1.691  -4.899  0.00  0.00     0.361 P 
ATOM      2  S   LIG d   1       9.675   1.832  -3.595  0.00  0.00     0.036 SA
ATOM      3  O   LIG d   1       8.291   0.173  -5.474  0.00  0.00    -0.297 OA
ATOM      4  C   LIG d   1       7.860  -0.868  -4.589  0.00  0.00     0.086 C 
ATOM      5  C   LIG d   1       6.743  -0.383  -3.700  0.00  0.00     0.021 A 
ATOM      6  C   LIG d   1       6.080  -1.361  -2.962  0.00  0.00    -0.053 A 
ATOM      7  C   LIG d   1       5.059  -1.029  -2.098  0.00  0.00    -0.061 A 
ATOM      8  C   LIG d   1       4.683   0.294  -1.958  0.00  0.00    -0.058 A 
ATOM      9  C   LIG d   1       5.327   1.267  -2.691  0.00  0.00    -0.019 A 
ATOM     10  C   LIG d   1       6.358   0.934  -3.575  0.00  0.00     0.135 A 
ATOM     11  O   LIG d   1       6.902   1.979  -4.254  0.00  0.00    -0.426 OA
ATOM     12  H   LIG d   1       7.501  -1.725  -5.176  0.00  0.00     0.062 H 
ATOM     13  H   LIG d   1       8.704  -1.185  -3.958  0.00  0.00     0.062 H 
ATOM     14  H   LIG d   1       6.371  -2.395  -3.068  0.00  0.00     0.062 H 
ATOM     15  H   LIG d   1       4.556  -1.798  -1.533  0.00  0.00     0.062 H 
ATOM     16  H   LIG d   1       3.888   0.564  -1.279  0.00  0.00     0.062 H 
ATOM     17  H   LIG d   1       5.030   2.300  -2.582  0.00  0.00     0.065 H 
ENDROOT
BRANCH   1  18
ATOM     18  O   LIG d   1       8.642   2.727  -6.097  0.00  0.00    -0.305 OA
BRANCH  18  19
ATOM     19  C   LIG d   1       9.372   2.373  -7.273  0.00  0.00     0.046 C 
ATOM     20  H   LIG d   1       8.763   1.700  -7.895  0.00  0.00     0.053 H 
ATOM     21  H   LIG d   1      10.303   1.864  -6.986  0.00  0.00     0.053 H 
ATOM     22  H   LIG d   1       9.612   3.282  -7.844  0.00  0.00     0.053 H 
ENDBRANCH  18  19
ENDBRANCH   1  18
TORSDOF 2
ENDMDL
