MODEL 1
REMARK VINA RESULT:      -4.2      0.000      0.000
REMARK  1 active torsions:
REMARK  status: ('A' for Active; 'I' for Inactive)
REMARK    1  A    between atoms: C_5  and  O_8 
ROOT
ATOM      1  C   LIG d   1       5.406  -1.302  -3.568  0.00  0.00    -0.030 A 
ATOM      2  C   LIG d   1       5.491  -2.009  -4.754  0.00  0.00     0.020 A 
ATOM      3  C   LIG d   1       4.751  -1.612  -5.853  0.00  0.00    -0.030 A 
ATOM      4  C   LIG d   1       3.925  -0.507  -5.769  0.00  0.00     0.061 A 
ATOM      5  C   LIG d   1       3.838   0.203  -4.580  0.00  0.00     0.145 A 
ATOM      6  C   LIG d   1       4.582  -0.196  -3.479  0.00  0.00     0.061 A 
ATOM      7 BR   LIG d   1       4.466   0.770  -1.858  0.00  0.00    -0.046 Br
ATOM      8 BR   LIG d   1       2.914   0.035  -7.272  0.00  0.00    -0.046 Br
ATOM      9 BR   LIG d   1       6.621  -3.521  -4.873  0.00  0.00    -0.050 Br
ATOM     10  H   LIG d   1       5.982  -1.616  -2.711  0.00  0.00     0.064 H 
ATOM     11  H   LIG d   1       4.820  -2.165  -6.778  0.00  0.00     0.064 H 
ENDROOT
BRANCH   5  12
ATOM     12  O   LIG d   1       3.025   1.291  -4.495  0.00  0.00    -0.504 OA
ATOM     13  H   LIG d   1       3.316   1.949  -3.848  0.00  0.00     0.292 HD
ENDBRANCH   5  12
TORSDOF 1
ENDMDL
MODEL 2
REMARK VINA RESULT:      -4.1      0.074      2.960
REMARK  1 active torsions:
REMARK  status: ('A' for Active; 'I' for Inactive)
REMARK    1  A    between atoms: C_5  and  O_8 
ROOT
ATOM      1  C   LIG d   1       4.826  -1.648  -5.842  0.00  0.00    -0.030 A 
ATOM      2  C   LIG d   1       5.565  -2.035  -4.739  0.00  0.00     0.020 A 
ATOM      3  C   LIG d   1       5.463  -1.330  -3.553  0.00  0.00    -0.030 A 
ATOM      4  C   LIG d   1       4.621  -0.237  -3.468  0.00  0.00     0.061 A 
ATOM      5  C   LIG d   1       3.879   0.153  -4.573  0.00  0.00     0.145 A 
ATOM      6  C   LIG d   1       3.983  -0.555  -5.762  0.00  0.00     0.061 A 
ATOM      7 BR   LIG d   1       2.973  -0.026  -7.271  0.00  0.00    -0.046 Br
ATOM      8 BR   LIG d   1       4.481   0.726  -1.847  0.00  0.00    -0.046 Br
ATOM      9 BR   LIG d   1       6.718  -3.530  -4.851  0.00  0.00    -0.050 Br
ATOM     10  H   LIG d   1       4.911  -2.198  -6.767  0.00  0.00     0.064 H 
ATOM     11  H   LIG d   1       6.041  -1.634  -2.693  0.00  0.00     0.064 H 
ENDROOT
BRANCH   5  12
ATOM     12  O   LIG d   1       3.050   1.229  -4.492  0.00  0.00    -0.504 OA
ATOM     13  H   LIG d   1       3.167   1.755  -3.689  0.00  0.00     0.292 HD
ENDBRANCH   5  12
TORSDOF 1
ENDMDL
MODEL 3
REMARK VINA RESULT:      -4.0      2.150      2.833
REMARK  1 active torsions:
REMARK  status: ('A' for Active; 'I' for Inactive)
REMARK    1  A    between atoms: C_5  and  O_8 
ROOT
ATOM      1  C   LIG d   1       5.288  -2.100  -3.880  0.00  0.00    -0.030 A 
ATOM      2  C   LIG d   1       6.623  -2.162  -4.238  0.00  0.00     0.020 A 
ATOM      3  C   LIG d   1       7.392  -1.012  -4.250  0.00  0.00    -0.030 A 
ATOM      4  C   LIG d   1       6.828   0.202  -3.904  0.00  0.00     0.061 A 
ATOM      5  C   LIG d   1       5.490   0.266  -3.544  0.00  0.00     0.145 A 
ATOM      6  C   LIG d   1       4.720  -0.889  -3.532  0.00  0.00     0.061 A 
ATOM      7 BR   LIG d   1       2.895  -0.804  -3.043  0.00  0.00    -0.046 Br
ATOM      8 BR   LIG d   1       7.880   1.773  -3.919  0.00  0.00    -0.046 Br
ATOM      9 BR   LIG d   1       7.397  -3.821  -4.713  0.00  0.00    -0.050 Br
ATOM     10  H   LIG d   1       4.689  -2.998  -3.875  0.00  0.00     0.064 H 
ATOM     11  H   LIG d   1       8.434  -1.063  -4.530  0.00  0.00     0.064 H 
ENDROOT
BRANCH   5  12
ATOM     12  O   LIG d   1       4.933   1.459  -3.203  0.00  0.00    -0.504 OA
ATOM     13  H   LIG d   1       5.439   2.228  -3.500  0.00  0.00     0.292 HD
ENDBRANCH   5  12
TORSDOF 1
ENDMDL
MODEL 4
REMARK VINA RESULT:      -4.0      2.266      2.766
REMARK  1 active torsions:
REMARK  status: ('A' for Active; 'I' for Inactive)
REMARK    1  A    between atoms: C_5  and  O_8 
ROOT
ATOM      1  C   LIG d   1       7.591  -0.954  -4.192  0.00  0.00    -0.030 A 
ATOM      2  C   LIG d   1       6.860  -2.127  -4.121  0.00  0.00     0.020 A 
ATOM      3  C   LIG d   1       5.536  -2.095  -3.722  0.00  0.00    -0.030 A 
ATOM      4  C   LIG d   1       4.940  -0.892  -3.392  0.00  0.00     0.061 A 
ATOM      5  C   LIG d   1       5.672   0.284  -3.462  0.00  0.00     0.145 A 
ATOM      6  C   LIG d   1       7.000   0.251  -3.863  0.00  0.00     0.061 A 
ATOM      7 BR   LIG d   1       8.000   1.853  -3.959  0.00  0.00    -0.046 Br
ATOM      8 BR   LIG d   1       3.130  -0.850  -2.847  0.00  0.00    -0.046 Br
ATOM      9 BR   LIG d   1       7.672  -3.774  -4.571  0.00  0.00    -0.050 Br
ATOM     10  H   LIG d   1       8.626  -0.982  -4.500  0.00  0.00     0.064 H 
ATOM     11  H   LIG d   1       4.967  -3.012  -3.668  0.00  0.00     0.064 H 
ENDROOT
BRANCH   5  12
ATOM     12  O   LIG d   1       5.088   1.469  -3.139  0.00  0.00    -0.504 OA
ATOM     13  H   LIG d   1       4.168   1.545  -3.426  0.00  0.00     0.292 HD
ENDBRANCH   5  12
TORSDOF 1
ENDMDL
MODEL 5
REMARK VINA RESULT:      -3.9      2.519      3.715
REMARK  1 active torsions:
REMARK  status: ('A' for Active; 'I' for Inactive)
REMARK    1  A    between atoms: C_5  and  O_8 
ROOT
ATOM      1  C   LIG d   1       5.470   0.216  -3.505  0.00  0.00    -0.030 A 
ATOM      2  C   LIG d   1       6.802   0.109  -3.865  0.00  0.00     0.020 A 
ATOM      3  C   LIG d   1       7.324  -1.118  -4.236  0.00  0.00    -0.030 A 
ATOM      4  C   LIG d   1       6.515  -2.239  -4.249  0.00  0.00     0.061 A 
ATOM      5  C   LIG d   1       5.180  -2.134  -3.888  0.00  0.00     0.145 A 
ATOM      6  C   LIG d   1       4.658  -0.903  -3.516  0.00  0.00     0.061 A 
ATOM      7 BR   LIG d   1       2.838  -0.756  -3.023  0.00  0.00    -0.046 Br
ATOM      8 BR   LIG d   1       7.229  -3.914  -4.757  0.00  0.00    -0.046 Br
ATOM      9 BR   LIG d   1       7.910   1.641  -3.849  0.00  0.00    -0.050 Br
ATOM     10  H   LIG d   1       5.067   1.173  -3.212  0.00  0.00     0.064 H 
ATOM     11  H   LIG d   1       8.363  -1.198  -4.518  0.00  0.00     0.064 H 
ENDROOT
BRANCH   5  12
ATOM     12  O   LIG d   1       4.383  -3.236  -3.899  0.00  0.00    -0.504 OA
ATOM     13  H   LIG d   1       4.831  -4.048  -3.625  0.00  0.00     0.292 HD
ENDBRANCH   5  12
TORSDOF 1
ENDMDL
MODEL 6
REMARK VINA RESULT:      -3.9      2.930      4.358
REMARK  1 active torsions:
REMARK  status: ('A' for Active; 'I' for Inactive)
REMARK    1  A    between atoms: C_5  and  O_8 
ROOT
ATOM      1  C   LIG d   1       7.948  -0.351  -4.595  0.00  0.00    -0.030 A 
ATOM      2  C   LIG d   1       7.710   0.986  -4.333  0.00  0.00     0.020 A 
ATOM      3  C   LIG d   1       6.657   1.356  -3.515  0.00  0.00    -0.030 A 
ATOM      4  C   LIG d   1       5.842   0.390  -2.957  0.00  0.00     0.061 A 
ATOM      5  C   LIG d   1       6.079  -0.952  -3.218  0.00  0.00     0.145 A 
ATOM      6  C   LIG d   1       7.135  -1.321  -4.039  0.00  0.00     0.061 A 
ATOM      7 BR   LIG d   1       7.462  -3.149  -4.398  0.00  0.00    -0.046 Br
ATOM      8 BR   LIG d   1       4.404   0.896  -1.838  0.00  0.00    -0.046 Br
ATOM      9 BR   LIG d   1       8.824   2.311  -5.095  0.00  0.00    -0.050 Br
ATOM     10  H   LIG d   1       8.768  -0.637  -5.237  0.00  0.00     0.064 H 
ATOM     11  H   LIG d   1       6.474   2.401  -3.312  0.00  0.00     0.064 H 
ENDROOT
BRANCH   5  12
ATOM     12  O   LIG d   1       5.278  -1.905  -2.670  0.00  0.00    -0.504 OA
ATOM     13  H   LIG d   1       4.941  -2.549  -3.307  0.00  0.00     0.292 HD
ENDBRANCH   5  12
TORSDOF 1
ENDMDL
MODEL 7
REMARK VINA RESULT:      -3.8      3.330      4.673
REMARK  1 active torsions:
REMARK  status: ('A' for Active; 'I' for Inactive)
REMARK    1  A    between atoms: C_5  and  O_8 
ROOT
ATOM      1  C   LIG d   1       6.673   1.280  -3.574  0.00  0.00    -0.030 A 
ATOM      2  C   LIG d   1       5.924   0.281  -2.978  0.00  0.00     0.020 A 
ATOM      3  C   LIG d   1       6.228  -1.048  -3.215  0.00  0.00    -0.030 A 
ATOM      4  C   LIG d   1       7.281  -1.380  -4.047  0.00  0.00     0.061 A 
ATOM      5  C   LIG d   1       8.033  -0.379  -4.645  0.00  0.00     0.145 A 
ATOM      6  C   LIG d   1       7.727   0.953  -4.406  0.00  0.00     0.061 A 
ATOM      7 BR   LIG d   1       8.749   2.320  -5.220  0.00  0.00    -0.046 Br
ATOM      8 BR   LIG d   1       7.697  -3.196  -4.369  0.00  0.00    -0.046 Br
ATOM      9 BR   LIG d   1       4.483   0.731  -1.840  0.00  0.00    -0.050 Br
ATOM     10  H   LIG d   1       6.431   2.316  -3.390  0.00  0.00     0.064 H 
ATOM     11  H   LIG d   1       5.643  -1.827  -2.748  0.00  0.00     0.064 H 
ENDROOT
BRANCH   5  12
ATOM     12  O   LIG d   1       9.069  -0.703  -5.464  0.00  0.00    -0.504 OA
ATOM     13  H   LIG d   1       9.698   0.017  -5.606  0.00  0.00     0.292 HD
ENDBRANCH   5  12
TORSDOF 1
ENDMDL
MODEL 8
REMARK VINA RESULT:      -3.7      1.547      3.333
REMARK  1 active torsions:
REMARK  status: ('A' for Active; 'I' for Inactive)
REMARK    1  A    between atoms: C_5  and  O_8 
ROOT
ATOM      1  C   LIG d   1       5.603  -1.245  -3.493  0.00  0.00    -0.030 A 
ATOM      2  C   LIG d   1       4.711  -0.190  -3.430  0.00  0.00     0.020 A 
ATOM      3  C   LIG d   1       3.963   0.153  -4.541  0.00  0.00    -0.030 A 
ATOM      4  C   LIG d   1       4.104  -0.558  -5.718  0.00  0.00     0.061 A 
ATOM      5  C   LIG d   1       4.998  -1.617  -5.783  0.00  0.00     0.145 A 
ATOM      6  C   LIG d   1       5.748  -1.960  -4.667  0.00  0.00     0.061 A 
ATOM      7 BR   LIG d   1       6.967  -3.403  -4.753  0.00  0.00    -0.046 Br
ATOM      8 BR   LIG d   1       3.080  -0.090  -7.237  0.00  0.00    -0.046 Br
ATOM      9 BR   LIG d   1       4.515   0.786  -1.822  0.00  0.00    -0.050 Br
ATOM     10  H   LIG d   1       6.189  -1.508  -2.625  0.00  0.00     0.064 H 
ATOM     11  H   LIG d   1       3.266   0.977  -4.489  0.00  0.00     0.064 H 
ENDROOT
BRANCH   5  12
ATOM     12  O   LIG d   1       5.139  -2.319  -6.940  0.00  0.00    -0.504 OA
ATOM     13  H   LIG d   1       4.403  -2.917  -7.128  0.00  0.00     0.292 HD
ENDBRANCH   5  12
TORSDOF 1
ENDMDL
MODEL 9
REMARK VINA RESULT:      -3.7      2.492      2.973
REMARK  1 active torsions:
REMARK  status: ('A' for Active; 'I' for Inactive)
REMARK    1  A    between atoms: C_5  and  O_8 
ROOT
ATOM      1  C   LIG d   1       6.590  -0.013  -3.577  0.00  0.00    -0.030 A 
ATOM      2  C   LIG d   1       7.326  -0.720  -4.511  0.00  0.00     0.020 A 
ATOM      3  C   LIG d   1       6.869  -1.941  -4.975  0.00  0.00    -0.030 A 
ATOM      4  C   LIG d   1       5.676  -2.458  -4.506  0.00  0.00     0.061 A 
ATOM      5  C   LIG d   1       4.937  -1.751  -3.569  0.00  0.00     0.145 A 
ATOM      6  C   LIG d   1       5.396  -0.526  -3.105  0.00  0.00     0.061 A 
ATOM      7 BR   LIG d   1       4.390   0.440  -1.828  0.00  0.00    -0.046 Br
ATOM      8 BR   LIG d   1       5.052  -4.126  -5.140  0.00  0.00    -0.046 Br
ATOM      9 BR   LIG d   1       8.959  -0.017  -5.156  0.00  0.00    -0.050 Br
ATOM     10  H   LIG d   1       6.950   0.937  -3.214  0.00  0.00     0.064 H 
ATOM     11  H   LIG d   1       7.445  -2.491  -5.705  0.00  0.00     0.064 H 
ENDROOT
BRANCH   5  12
ATOM     12  O   LIG d   1       3.762  -2.257  -3.106  0.00  0.00    -0.504 OA
ATOM     13  H   LIG d   1       2.987  -1.728  -3.339  0.00  0.00     0.292 HD
ENDBRANCH   5  12
TORSDOF 1
ENDMDL
MODEL 10
REMARK VINA RESULT:      -3.7      1.435      3.279
REMARK  1 active torsions:
REMARK  status: ('A' for Active; 'I' for Inactive)
REMARK    1  A    between atoms: C_5  and  O_8 
ROOT
ATOM      1  C   LIG d   1       3.494   0.252  -5.050  0.00  0.00    -0.030 A 
ATOM      2  C   LIG d   1       3.695  -0.487  -6.202  0.00  0.00     0.020 A 
ATOM      3  C   LIG d   1       4.529  -1.590  -6.181  0.00  0.00    -0.030 A 
ATOM      4  C   LIG d   1       5.163  -1.957  -5.009  0.00  0.00     0.061 A 
ATOM      5  C   LIG d   1       4.963  -1.218  -3.853  0.00  0.00     0.145 A 
ATOM      6  C   LIG d   1       4.125  -0.111  -3.875  0.00  0.00     0.061 A 
ATOM      7 BR   LIG d   1       3.850   0.899  -2.300  0.00  0.00    -0.046 Br
ATOM      8 BR   LIG d   1       6.303  -3.466  -4.982  0.00  0.00    -0.046 Br
ATOM      9 BR   LIG d   1       2.830   0.013  -7.807  0.00  0.00    -0.050 Br
ATOM     10  H   LIG d   1       2.845   1.115  -5.069  0.00  0.00     0.064 H 
ATOM     11  H   LIG d   1       4.684  -2.165  -7.082  0.00  0.00     0.064 H 
ENDROOT
BRANCH   5  12
ATOM     12  O   LIG d   1       5.585  -1.577  -2.698  0.00  0.00    -0.504 OA
ATOM     13  H   LIG d   1       5.744  -2.527  -2.617  0.00  0.00     0.292 HD
ENDBRANCH   5  12
TORSDOF 1
ENDMDL
