MODEL 1
REMARK VINA RESULT:      -5.9      0.000      0.000
REMARK  15 active torsions:
REMARK  status: ('A' for Active; 'I' for Inactive)
REMARK    1  A    between atoms: C_1  and  C_2 
REMARK    2  A    between atoms: C_2  and  C_37 
REMARK    3  A    between atoms: C_3  and  C_4 
REMARK    4  A    between atoms: C_4  and  C_5 
REMARK    5  A    between atoms: C_7  and  C_9 
REMARK    6  A    between atoms: C_7  and  C_10 
REMARK    7  A    between atoms: C_12  and  O_35 
REMARK    8  A    between atoms: C_14  and  O_21 
REMARK    9  A    between atoms: O_21  and  C_22 
REMARK   10  A    between atoms: C_22  and  C_24 
REMARK   11  A    between atoms: C_25  and  C_26 
REMARK   12  A    between atoms: C_27  and  C_28 
REMARK   13  A    between atoms: C_29  and  C_30 
REMARK   14  A    between atoms: C_31  and  C_32 
REMARK   15  A    between atoms: O_35  and  C_36 
ROOT
ATOM      1  C   LIG d   1       4.375  -1.890  -4.945  0.00  0.00     0.051 C 
ATOM      2  H   LIG d   1       3.670  -2.603  -5.371  0.00  0.00     0.038 H 
ATOM      3  C   LIG d   1       4.576  -0.722  -5.916  0.00  0.00     0.103 C 
ATOM      4  H   LIG d   1       4.909  -1.106  -6.881  0.00  0.00     0.064 H 
ATOM      5  C   LIG d   1       3.254   0.026  -6.094  0.00  0.00     0.130 C 
ATOM      6  H   LIG d   1       2.489  -0.667  -6.444  0.00  0.00     0.076 H 
ATOM      7  C   LIG d   1       2.818   0.632  -4.760  0.00  0.00    -0.011 C 
ATOM      8  C   LIG d   1       2.560  -0.491  -3.750  0.00  0.00    -0.018 C 
ATOM      9  C   LIG d   1       3.822  -1.348  -3.625  0.00  0.00     0.101 A 
ATOM     10  C   LIG d   1       3.983  -2.209  -2.374  0.00  0.00     0.078 A 
ATOM     11  O   LIG d   1       4.750  -1.024  -2.592  0.00  0.00    -0.368 OA
ATOM     12  H   LIG d   1       3.605   1.285  -4.382  0.00  0.00     0.030 H 
ATOM     13  H   LIG d   1       1.905   1.210  -4.903  0.00  0.00     0.030 H 
ATOM     14  H   LIG d   1       2.314  -0.059  -2.779  0.00  0.00     0.029 H 
ATOM     15  H   LIG d   1       1.732  -1.109  -4.096  0.00  0.00     0.029 H 
ATOM     16  H   LIG d   1       3.191  -2.171  -1.625  0.00  0.00     0.059 H 
ATOM     17  H   LIG d   1       4.489  -3.168  -2.479  0.00  0.00     0.059 H 
ENDROOT
BRANCH   1  18
ATOM     18  C   LIG d   1       5.715  -2.583  -4.693  0.00  0.00     0.102 A 
ATOM     19  C   LIG d   1       5.780  -4.099  -4.883  0.00  0.00     0.092 A 
ATOM     20  H   LIG d   1       6.445  -4.665  -4.230  0.00  0.00     0.063 H 
ATOM     21  O   LIG d   1       6.375  -3.187  -5.808  0.00  0.00    -0.364 OA
BRANCH  19  22
ATOM     22  C   LIG d   1       4.501  -4.820  -5.314  0.00  0.00    -0.005 C 
ATOM     23  H   LIG d   1       4.070  -4.310  -6.175  0.00  0.00     0.033 H 
ATOM     24  H   LIG d   1       3.786  -4.813  -4.491  0.00  0.00     0.033 H 
BRANCH  22  25
ATOM     25  C   LIG d   1       4.827  -6.244  -5.684  0.00  0.00    -0.083 C 
ATOM     26  C   LIG d   1       4.515  -6.700  -6.871  0.00  0.00    -0.080 C 
ATOM     27  H   LIG d   1       5.318  -6.889  -4.970  0.00  0.00     0.057 H 
BRANCH  26  28
ATOM     28  C   LIG d   1       3.948  -5.768  -7.911  0.00  0.00    -0.044 C 
ATOM     29  H   LIG d   1       3.089  -5.240  -7.496  0.00  0.00     0.027 H 
ATOM     30  H   LIG d   1       4.709  -5.048  -8.207  0.00  0.00     0.027 H 
ATOM     31  H   LIG d   1       3.634  -6.344  -8.782  0.00  0.00     0.027 H 
ENDBRANCH  26  28
BRANCH  26  32
ATOM     32  C   LIG d   1       4.721  -8.157  -7.197  0.00  0.00    -0.044 C 
ATOM     33  H   LIG d   1       4.302  -8.770  -6.399  0.00  0.00     0.027 H 
ATOM     34  H   LIG d   1       4.222  -8.393  -8.137  0.00  0.00     0.027 H 
ATOM     35  H   LIG d   1       5.788  -8.361  -7.290  0.00  0.00     0.027 H 
ENDBRANCH  26  32
ENDBRANCH  22  25
ENDBRANCH  19  22
BRANCH  18  36
ATOM     36  C   LIG d   1       6.588  -1.964  -3.598  0.00  0.00    -0.033 C 
ATOM     37  H   LIG d   1       6.444  -0.883  -3.587  0.00  0.00     0.026 H 
ATOM     38  H   LIG d   1       6.304  -2.379  -2.630  0.00  0.00     0.026 H 
ATOM     39  H   LIG d   1       7.635  -2.190  -3.798  0.00  0.00     0.026 H 
ENDBRANCH  18  36
ENDBRANCH   1  18
BRANCH   3  40
ATOM     40  O   LIG d   1       5.563   0.170  -5.393  0.00  0.00    -0.376 OA
BRANCH  40  41
ATOM     41  C   LIG d   1       6.672   0.386  -6.267  0.00  0.00     0.037 C 
ATOM     42  H   LIG d   1       7.005  -0.570  -6.673  0.00  0.00     0.052 H 
ATOM     43  H   LIG d   1       6.369   1.043  -7.083  0.00  0.00     0.052 H 
ATOM     44  H   LIG d   1       7.488   0.849  -5.712  0.00  0.00     0.052 H 
ENDBRANCH  40  41
ENDBRANCH   3  40
BRANCH   5  45
ATOM     45  O   LIG d   1       3.424   1.070  -7.055  0.00  0.00    -0.456 OA
BRANCH  45  46
ATOM     46  C   LIG d   1       2.816   0.910  -8.248  0.00  0.00     0.332 C 
ATOM     47  O   LIG d   1       2.727   1.849  -9.016  0.00  0.00    -0.246 OA
BRANCH  46  48
ATOM     48  C   LIG d   1       2.263  -0.392  -8.619  0.00  0.00     0.022 C 
ATOM     49  C   LIG d   1       1.889  -0.630  -9.902  0.00  0.00    -0.055 C 
ATOM     50  H   LIG d   1       2.000   0.142 -10.649  0.00  0.00     0.062 H 
ATOM     51  H   LIG d   1       2.152  -1.164  -7.872  0.00  0.00     0.069 H 
BRANCH  49  52
ATOM     52  C   LIG d   1       1.356  -1.886 -10.260  0.00  0.00    -0.061 C 
ATOM     53  C   LIG d   1       2.099  -3.013 -10.094  0.00  0.00    -0.062 C 
ATOM     54  H   LIG d   1       3.097  -2.946  -9.688  0.00  0.00     0.062 H 
ATOM     55  H   LIG d   1       0.356  -1.952 -10.665  0.00  0.00     0.062 H 
BRANCH  53  56
ATOM     56  C   LIG d   1       1.566  -4.268 -10.450  0.00  0.00    -0.062 C 
ATOM     57  C   LIG d   1       0.218  -4.433 -10.543  0.00  0.00    -0.062 C 
ATOM     58  H   LIG d   1      -0.443  -3.603 -10.344  0.00  0.00     0.062 H 
ATOM     59  H   LIG d   1       2.227  -5.098 -10.649  0.00  0.00     0.062 H 
BRANCH  57  60
ATOM     60  C   LIG d   1      -0.315  -5.689 -10.899  0.00  0.00    -0.060 C 
ATOM     61  C   LIG d   1      -0.762  -6.535  -9.934  0.00  0.00    -0.039 C 
ATOM     62  H   LIG d   1      -0.708  -6.247  -8.895  0.00  0.00     0.064 H 
ATOM     63  H   LIG d   1      -0.370  -5.977 -11.939  0.00  0.00     0.062 H 
BRANCH  61  64
ATOM     64  C   LIG d   1      -1.298  -7.794 -10.292  0.00  0.00     0.065 C 
ATOM     65  O   LIG d   1      -2.398  -8.134  -9.874  0.00  0.00    -0.545 OA
ATOM     66  O   LIG d   1      -0.661  -8.545 -11.021  0.00  0.00    -0.545 OA
ENDBRANCH  61  64
ENDBRANCH  57  60
ENDBRANCH  53  56
ENDBRANCH  49  52
ENDBRANCH  46  48
ENDBRANCH  45  46
ENDBRANCH   5  45
TORSDOF 15
ENDMDL
MODEL 2
REMARK VINA RESULT:      -5.9      4.646     10.492
REMARK  15 active torsions:
REMARK  status: ('A' for Active; 'I' for Inactive)
REMARK    1  A    between atoms: C_1  and  C_2 
REMARK    2  A    between atoms: C_2  and  C_37 
REMARK    3  A    between atoms: C_3  and  C_4 
REMARK    4  A    between atoms: C_4  and  C_5 
REMARK    5  A    between atoms: C_7  and  C_9 
REMARK    6  A    between atoms: C_7  and  C_10 
REMARK    7  A    between atoms: C_12  and  O_35 
REMARK    8  A    between atoms: C_14  and  O_21 
REMARK    9  A    between atoms: O_21  and  C_22 
REMARK   10  A    between atoms: C_22  and  C_24 
REMARK   11  A    between atoms: C_25  and  C_26 
REMARK   12  A    between atoms: C_27  and  C_28 
REMARK   13  A    between atoms: C_29  and  C_30 
REMARK   14  A    between atoms: C_31  and  C_32 
REMARK   15  A    between atoms: O_35  and  C_36 
ROOT
ATOM      1  C   LIG d   1       4.897  -0.233  -7.665  0.00  0.00     0.051 C 
ATOM      2  H   LIG d   1       5.513  -0.411  -6.784  0.00  0.00     0.038 H 
ATOM      3  C   LIG d   1       5.411   1.005  -8.409  0.00  0.00     0.103 C 
ATOM      4  H   LIG d   1       5.420   1.859  -7.730  0.00  0.00     0.064 H 
ATOM      5  C   LIG d   1       6.830   0.741  -8.915  0.00  0.00     0.130 C 
ATOM      6  H   LIG d   1       7.472   0.476  -8.075  0.00  0.00     0.076 H 
ATOM      7  C   LIG d   1       6.815  -0.406  -9.925  0.00  0.00    -0.011 C 
ATOM      8  C   LIG d   1       6.346  -1.690  -9.232  0.00  0.00    -0.018 C 
ATOM      9  C   LIG d   1       4.975  -1.442  -8.599  0.00  0.00     0.101 A 
ATOM     10  C   LIG d   1       4.105  -2.655  -8.275  0.00  0.00     0.078 A 
ATOM     11  O   LIG d   1       3.817  -1.774  -9.363  0.00  0.00    -0.368 OA
ATOM     12  H   LIG d   1       6.133  -0.165 -10.740  0.00  0.00     0.030 H 
ATOM     13  H   LIG d   1       7.819  -0.554 -10.324  0.00  0.00     0.030 H 
ATOM     14  H   LIG d   1       6.271  -2.494  -9.965  0.00  0.00     0.029 H 
ATOM     15  H   LIG d   1       7.060  -1.967  -8.456  0.00  0.00     0.029 H 
ATOM     16  H   LIG d   1       4.501  -3.642  -8.512  0.00  0.00     0.059 H 
ATOM     17  H   LIG d   1       3.465  -2.599  -7.394  0.00  0.00     0.059 H 
ENDROOT
BRANCH   1  18
ATOM     18  C   LIG d   1       3.446  -0.007  -7.238  0.00  0.00     0.102 A 
ATOM     19  C   LIG d   1       3.068  -0.335  -5.792  0.00  0.00     0.092 A 
ATOM     20  H   LIG d   1       2.067  -0.722  -5.604  0.00  0.00     0.063 H 
ATOM     21  O   LIG d   1       3.185   1.008  -6.265  0.00  0.00    -0.364 OA
BRANCH  19  22
ATOM     22  C   LIG d   1       4.168  -0.866  -4.871  0.00  0.00    -0.005 C 
ATOM     23  H   LIG d   1       5.065  -1.067  -5.456  0.00  0.00     0.033 H 
ATOM     24  H   LIG d   1       3.830  -1.786  -4.394  0.00  0.00     0.033 H 
BRANCH  22  25
ATOM     25  C   LIG d   1       4.478   0.163  -3.814  0.00  0.00    -0.083 C 
ATOM     26  C   LIG d   1       4.407  -0.158  -2.547  0.00  0.00    -0.080 C 
ATOM     27  H   LIG d   1       4.758   1.166  -4.102  0.00  0.00     0.057 H 
BRANCH  26  28
ATOM     28  C   LIG d   1       4.143  -1.586  -2.144  0.00  0.00    -0.044 C 
ATOM     29  H   LIG d   1       4.420  -1.726  -1.099  0.00  0.00     0.027 H 
ATOM     30  H   LIG d   1       3.084  -1.810  -2.273  0.00  0.00     0.027 H 
ATOM     31  H   LIG d   1       4.734  -2.255  -2.770  0.00  0.00     0.027 H 
ENDBRANCH  26  28
BRANCH  26  32
ATOM     32  C   LIG d   1       4.589   0.901  -1.489  0.00  0.00    -0.044 C 
ATOM     33  H   LIG d   1       4.298   1.870  -1.893  0.00  0.00     0.027 H 
ATOM     34  H   LIG d   1       3.966   0.664  -0.627  0.00  0.00     0.027 H 
ATOM     35  H   LIG d   1       5.635   0.934  -1.184  0.00  0.00     0.027 H 
ENDBRANCH  26  32
ENDBRANCH  22  25
ENDBRANCH  19  22
BRANCH  18  36
ATOM     36  C   LIG d   1       2.390  -0.243  -8.321  0.00  0.00    -0.033 C 
ATOM     37  H   LIG d   1       1.670   0.575  -8.311  0.00  0.00     0.026 H 
ATOM     38  H   LIG d   1       2.876  -0.288  -9.297  0.00  0.00     0.026 H 
ATOM     39  H   LIG d   1       1.876  -1.185  -8.128  0.00  0.00     0.026 H 
ENDBRANCH  18  36
ENDBRANCH   1  18
BRANCH   3  40
ATOM     40  O   LIG d   1       4.553   1.286  -9.516  0.00  0.00    -0.376 OA
BRANCH  40  41
ATOM     41  C   LIG d   1       4.043   2.621  -9.532  0.00  0.00     0.037 C 
ATOM     42  H   LIG d   1       2.955   2.592  -9.614  0.00  0.00     0.052 H 
ATOM     43  H   LIG d   1       4.324   3.127  -8.608  0.00  0.00     0.052 H 
ATOM     44  H   LIG d   1       4.457   3.159 -10.383  0.00  0.00     0.052 H 
ENDBRANCH  40  41
ENDBRANCH   3  40
BRANCH   5  45
ATOM     45  O   LIG d   1       7.336   1.920  -9.545  0.00  0.00    -0.456 OA
BRANCH  45  46
ATOM     46  C   LIG d   1       8.579   2.313  -9.201  0.00  0.00     0.332 C 
ATOM     47  O   LIG d   1       9.515   2.093  -9.947  0.00  0.00    -0.246 OA
BRANCH  46  48
ATOM     48  C   LIG d   1       8.803   3.005  -7.933  0.00  0.00     0.022 C 
ATOM     49  C   LIG d   1       9.690   2.506  -7.034  0.00  0.00    -0.055 C 
ATOM     50  H   LIG d   1      10.230   1.599  -7.256  0.00  0.00     0.062 H 
ATOM     51  H   LIG d   1       8.262   3.913  -7.711  0.00  0.00     0.069 H 
BRANCH  49  52
ATOM     52  C   LIG d   1       9.905   3.174  -5.810  0.00  0.00    -0.061 C 
ATOM     53  C   LIG d   1       9.282   2.742  -4.681  0.00  0.00    -0.062 C 
ATOM     54  H   LIG d   1       8.622   1.889  -4.722  0.00  0.00     0.062 H 
ATOM     55  H   LIG d   1      10.566   4.028  -5.770  0.00  0.00     0.062 H 
BRANCH  53  56
ATOM     56  C   LIG d   1       9.497   3.408  -3.458  0.00  0.00    -0.062 C 
ATOM     57  C   LIG d   1       9.799   4.735  -3.450  0.00  0.00    -0.062 C 
ATOM     58  H   LIG d   1       9.874   5.278  -4.382  0.00  0.00     0.062 H 
ATOM     59  H   LIG d   1       9.423   2.866  -2.527  0.00  0.00     0.062 H 
BRANCH  57  60
ATOM     60  C   LIG d   1      10.015   5.402  -2.227  0.00  0.00    -0.060 C 
ATOM     61  C   LIG d   1      11.094   5.085  -1.462  0.00  0.00    -0.039 C 
ATOM     62  H   LIG d   1      11.784   4.323  -1.791  0.00  0.00     0.064 H 
ATOM     63  H   LIG d   1       9.325   6.165  -1.899  0.00  0.00     0.062 H 
BRANCH  61  64
ATOM     64  C   LIG d   1      11.311   5.755  -0.236  0.00  0.00     0.065 C 
ATOM     65  O   LIG d   1      12.441   5.833   0.229  0.00  0.00    -0.545 OA
ATOM     66  O   LIG d   1      10.366   6.258   0.362  0.00  0.00    -0.545 OA
ENDBRANCH  61  64
ENDBRANCH  57  60
ENDBRANCH  53  56
ENDBRANCH  49  52
ENDBRANCH  46  48
ENDBRANCH  45  46
ENDBRANCH   5  45
TORSDOF 15
ENDMDL
MODEL 3
REMARK VINA RESULT:      -5.9      4.970      9.858
REMARK  15 active torsions:
REMARK  status: ('A' for Active; 'I' for Inactive)
REMARK    1  A    between atoms: C_1  and  C_2 
REMARK    2  A    between atoms: C_2  and  C_37 
REMARK    3  A    between atoms: C_3  and  C_4 
REMARK    4  A    between atoms: C_4  and  C_5 
REMARK    5  A    between atoms: C_7  and  C_9 
REMARK    6  A    between atoms: C_7  and  C_10 
REMARK    7  A    between atoms: C_12  and  O_35 
REMARK    8  A    between atoms: C_14  and  O_21 
REMARK    9  A    between atoms: O_21  and  C_22 
REMARK   10  A    between atoms: C_22  and  C_24 
REMARK   11  A    between atoms: C_25  and  C_26 
REMARK   12  A    between atoms: C_27  and  C_28 
REMARK   13  A    between atoms: C_29  and  C_30 
REMARK   14  A    between atoms: C_31  and  C_32 
REMARK   15  A    between atoms: O_35  and  C_36 
ROOT
ATOM      1  C   LIG d   1       7.090 -10.232  -3.551  0.00  0.00     0.051 C 
ATOM      2  H   LIG d   1       7.873  -9.504  -3.762  0.00  0.00     0.038 H 
ATOM      3  C   LIG d   1       5.738  -9.680  -4.015  0.00  0.00     0.103 C 
ATOM      4  H   LIG d   1       5.552  -8.720  -3.531  0.00  0.00     0.064 H 
ATOM      5  C   LIG d   1       5.759  -9.491  -5.533  0.00  0.00     0.130 C 
ATOM      6  H   LIG d   1       6.583  -8.831  -5.804  0.00  0.00     0.076 H 
ATOM      7  C   LIG d   1       5.944 -10.844  -6.220  0.00  0.00    -0.011 C 
ATOM      8  C   LIG d   1       7.302 -11.434  -5.828  0.00  0.00    -0.018 C 
ATOM      9  C   LIG d   1       7.381 -11.532  -4.303  0.00  0.00     0.101 A 
ATOM     10  C   LIG d   1       8.398 -12.497  -3.697  0.00  0.00     0.078 A 
ATOM     11  O   LIG d   1       6.993 -12.760  -3.691  0.00  0.00    -0.368 OA
ATOM     12  H   LIG d   1       5.149 -11.522  -5.908  0.00  0.00     0.030 H 
ATOM     13  H   LIG d   1       5.903 -10.711  -7.302  0.00  0.00     0.030 H 
ATOM     14  H   LIG d   1       7.407 -12.428  -6.264  0.00  0.00     0.029 H 
ATOM     15  H   LIG d   1       8.100 -10.788  -6.193  0.00  0.00     0.029 H 
ATOM     16  H   LIG d   1       9.020 -13.075  -4.381  0.00  0.00     0.059 H 
ATOM     17  H   LIG d   1       8.866 -12.216  -2.754  0.00  0.00     0.059 H 
ENDROOT
BRANCH   1  18
ATOM     18  C   LIG d   1       7.041 -10.509  -2.047  0.00  0.00     0.102 A 
ATOM     19  C   LIG d   1       8.252 -10.101  -1.206  0.00  0.00     0.092 A 
ATOM     20  H   LIG d   1       8.510 -10.725  -0.351  0.00  0.00     0.063 H 
ATOM     21  O   LIG d   1       7.016  -9.387  -1.161  0.00  0.00    -0.364 OA
BRANCH  19  22
ATOM     22  C   LIG d   1       9.430  -9.443  -1.926  0.00  0.00    -0.005 C 
ATOM     23  H   LIG d   1       9.534  -9.873  -2.922  0.00  0.00     0.033 H 
ATOM     24  H   LIG d   1      10.345  -9.614  -1.358  0.00  0.00     0.033 H 
BRANCH  22  25
ATOM     25  C   LIG d   1       9.182  -7.961  -2.043  0.00  0.00    -0.083 C 
ATOM     26  C   LIG d   1      10.035  -7.111  -1.528  0.00  0.00    -0.080 C 
ATOM     27  H   LIG d   1       8.301  -7.599  -2.552  0.00  0.00     0.057 H 
BRANCH  26  28
ATOM     28  C   LIG d   1      11.328  -7.608  -0.932  0.00  0.00    -0.044 C 
ATOM     29  H   LIG d   1      11.815  -8.284  -1.635  0.00  0.00     0.027 H 
ATOM     30  H   LIG d   1      11.983  -6.761  -0.729  0.00  0.00     0.027 H 
ATOM     31  H   LIG d   1      11.119  -8.137  -0.003  0.00  0.00     0.027 H 
ENDBRANCH  26  28
BRANCH  26  32
ATOM     32  C   LIG d   1       9.725  -5.636  -1.530  0.00  0.00    -0.044 C 
ATOM     33  H   LIG d   1      10.433  -5.117  -2.177  0.00  0.00     0.027 H 
ATOM     34  H   LIG d   1       8.711  -5.478  -1.900  0.00  0.00     0.027 H 
ATOM     35  H   LIG d   1       9.806  -5.246  -0.515  0.00  0.00     0.027 H 
ENDBRANCH  26  32
ENDBRANCH  22  25
ENDBRANCH  19  22
BRANCH  18  36
ATOM     36  C   LIG d   1       6.273 -11.765  -1.628  0.00  0.00    -0.033 C 
ATOM     37  H   LIG d   1       6.865 -12.649  -1.866  0.00  0.00     0.026 H 
ATOM     38  H   LIG d   1       6.083 -11.733  -0.555  0.00  0.00     0.026 H 
ATOM     39  H   LIG d   1       5.325 -11.807  -2.164  0.00  0.00     0.026 H 
ENDBRANCH  18  36
ENDBRANCH   1  18
BRANCH   3  40
ATOM     40  O   LIG d   1       4.701 -10.598  -3.662  0.00  0.00    -0.376 OA
BRANCH  40  41
ATOM     41  C   LIG d   1       3.511  -9.973  -3.178  0.00  0.00     0.037 C 
ATOM     42  H   LIG d   1       3.641  -8.891  -3.185  0.00  0.00     0.052 H 
ATOM     43  H   LIG d   1       2.672 -10.243  -3.820  0.00  0.00     0.052 H 
ATOM     44  H   LIG d   1       3.312 -10.309  -2.161  0.00  0.00     0.052 H 
ENDBRANCH  40  41
ENDBRANCH   3  40
BRANCH   5  45
ATOM     45  O   LIG d   1       4.525  -8.909  -5.956  0.00  0.00    -0.456 OA
BRANCH  45  46
ATOM     46  C   LIG d   1       4.600  -7.784  -6.697  0.00  0.00     0.332 C 
ATOM     47  O   LIG d   1       4.640  -7.857  -7.911  0.00  0.00    -0.246 OA
BRANCH  46  48
ATOM     48  C   LIG d   1       4.633  -6.477  -6.043  0.00  0.00     0.022 C 
ATOM     49  C   LIG d   1       5.741  -5.700  -6.134  0.00  0.00    -0.055 C 
ATOM     50  H   LIG d   1       6.599  -6.046  -6.690  0.00  0.00     0.062 H 
ATOM     51  H   LIG d   1       3.774  -6.131  -5.486  0.00  0.00     0.069 H 
BRANCH  49  52
ATOM     52  C   LIG d   1       5.772  -4.439  -5.502  0.00  0.00    -0.061 C 
ATOM     53  C   LIG d   1       4.700  -4.013  -4.781  0.00  0.00    -0.062 C 
ATOM     54  H   LIG d   1       3.826  -4.639  -4.693  0.00  0.00     0.062 H 
ATOM     55  H   LIG d   1       6.649  -3.812  -5.589  0.00  0.00     0.062 H 
BRANCH  53  56
ATOM     56  C   LIG d   1       4.732  -2.754  -4.149  0.00  0.00    -0.062 C 
ATOM     57  C   LIG d   1       4.066  -2.564  -2.978  0.00  0.00    -0.062 C 
ATOM     58  H   LIG d   1       3.512  -3.378  -2.532  0.00  0.00     0.062 H 
ATOM     59  H   LIG d   1       5.284  -1.939  -4.595  0.00  0.00     0.062 H 
BRANCH  57  60
ATOM     60  C   LIG d   1       4.096  -1.304  -2.346  0.00  0.00    -0.060 C 
ATOM     61  C   LIG d   1       4.443  -0.196  -3.055  0.00  0.00    -0.039 C 
ATOM     62  H   LIG d   1       4.696  -0.282  -4.101  0.00  0.00     0.064 H 
ATOM     63  H   LIG d   1       3.842  -1.218  -1.300  0.00  0.00     0.062 H 
BRANCH  61  64
ATOM     64  C   LIG d   1       4.473   1.067  -2.421  0.00  0.00     0.065 C 
ATOM     65  O   LIG d   1       4.132   2.070  -3.035  0.00  0.00    -0.545 OA
ATOM     66  O   LIG d   1       4.840   1.159  -1.255  0.00  0.00    -0.545 OA
ENDBRANCH  61  64
ENDBRANCH  57  60
ENDBRANCH  53  56
ENDBRANCH  49  52
ENDBRANCH  46  48
ENDBRANCH  45  46
ENDBRANCH   5  45
TORSDOF 15
ENDMDL
MODEL 4
REMARK VINA RESULT:      -5.9      5.130     10.984
REMARK  15 active torsions:
REMARK  status: ('A' for Active; 'I' for Inactive)
REMARK    1  A    between atoms: C_1  and  C_2 
REMARK    2  A    between atoms: C_2  and  C_37 
REMARK    3  A    between atoms: C_3  and  C_4 
REMARK    4  A    between atoms: C_4  and  C_5 
REMARK    5  A    between atoms: C_7  and  C_9 
REMARK    6  A    between atoms: C_7  and  C_10 
REMARK    7  A    between atoms: C_12  and  O_35 
REMARK    8  A    between atoms: C_14  and  O_21 
REMARK    9  A    between atoms: O_21  and  C_22 
REMARK   10  A    between atoms: C_22  and  C_24 
REMARK   11  A    between atoms: C_25  and  C_26 
REMARK   12  A    between atoms: C_27  and  C_28 
REMARK   13  A    between atoms: C_29  and  C_30 
REMARK   14  A    between atoms: C_31  and  C_32 
REMARK   15  A    between atoms: O_35  and  C_36 
ROOT
ATOM      1  C   LIG d   1       5.354  -0.430  -6.181  0.00  0.00     0.051 C 
ATOM      2  H   LIG d   1       5.287   0.073  -5.216  0.00  0.00     0.038 H 
ATOM      3  C   LIG d   1       6.406   0.266  -7.051  0.00  0.00     0.103 C 
ATOM      4  H   LIG d   1       6.152   1.322  -7.152  0.00  0.00     0.064 H 
ATOM      5  C   LIG d   1       7.781   0.132  -6.394  0.00  0.00     0.130 C 
ATOM      6  H   LIG d   1       7.744   0.550  -5.388  0.00  0.00     0.076 H 
ATOM      7  C   LIG d   1       8.176  -1.343  -6.317  0.00  0.00    -0.011 C 
ATOM      8  C   LIG d   1       7.183  -2.092  -5.423  0.00  0.00    -0.018 C 
ATOM      9  C   LIG d   1       5.768  -1.888  -5.971  0.00  0.00     0.101 A 
ATOM     10  C   LIG d   1       4.689  -2.887  -5.559  0.00  0.00     0.078 A 
ATOM     11  O   LIG d   1       5.254  -2.866  -6.872  0.00  0.00    -0.368 OA
ATOM     12  H   LIG d   1       8.163  -1.776  -7.317  0.00  0.00     0.030 H 
ATOM     13  H   LIG d   1       9.179  -1.429  -5.898  0.00  0.00     0.030 H 
ATOM     14  H   LIG d   1       7.424  -3.155  -5.420  0.00  0.00     0.029 H 
ATOM     15  H   LIG d   1       7.239  -1.701  -4.407  0.00  0.00     0.029 H 
ATOM     16  H   LIG d   1       4.977  -3.702  -4.895  0.00  0.00     0.059 H 
ATOM     17  H   LIG d   1       3.671  -2.515  -5.439  0.00  0.00     0.059 H 
ENDROOT
BRANCH   1  18
ATOM     18  C   LIG d   1       3.995  -0.379  -6.881  0.00  0.00     0.102 A 
ATOM     19  C   LIG d   1       2.798   0.133  -6.077  0.00  0.00     0.092 A 
ATOM     20  H   LIG d   1       1.822  -0.307  -6.283  0.00  0.00     0.063 H 
ATOM     21  O   LIG d   1       3.410   0.906  -7.111  0.00  0.00    -0.364 OA
BRANCH  19  22
ATOM     22  C   LIG d   1       3.042   0.560  -4.629  0.00  0.00    -0.005 C 
ATOM     23  H   LIG d   1       2.279   1.278  -4.329  0.00  0.00     0.033 H 
ATOM     24  H   LIG d   1       4.027   1.021  -4.547  0.00  0.00     0.033 H 
BRANCH  22  25
ATOM     25  C   LIG d   1       2.977  -0.648  -3.731  0.00  0.00    -0.083 C 
ATOM     26  C   LIG d   1       3.870  -0.812  -2.787  0.00  0.00    -0.080 C 
ATOM     27  H   LIG d   1       2.193  -1.379  -3.865  0.00  0.00     0.057 H 
BRANCH  26  28
ATOM     28  C   LIG d   1       4.886   0.267  -2.515  0.00  0.00    -0.044 C 
ATOM     29  H   LIG d   1       5.560  -0.061  -1.723  0.00  0.00     0.027 H 
ATOM     30  H   LIG d   1       5.457   0.465  -3.421  0.00  0.00     0.027 H 
ATOM     31  H   LIG d   1       4.373   1.177  -2.202  0.00  0.00     0.027 H 
ENDBRANCH  26  28
BRANCH  26  32
ATOM     32  C   LIG d   1       3.883  -2.082  -1.975  0.00  0.00    -0.044 C 
ATOM     33  H   LIG d   1       4.185  -1.855  -0.953  0.00  0.00     0.027 H 
ATOM     34  H   LIG d   1       2.885  -2.521  -1.970  0.00  0.00     0.027 H 
ATOM     35  H   LIG d   1       4.589  -2.787  -2.414  0.00  0.00     0.027 H 
ENDBRANCH  26  32
ENDBRANCH  22  25
ENDBRANCH  19  22
BRANCH  18  36
ATOM     36  C   LIG d   1       3.741  -1.475  -7.919  0.00  0.00    -0.033 C 
ATOM     37  H   LIG d   1       3.803  -1.048  -8.920  0.00  0.00     0.026 H 
ATOM     38  H   LIG d   1       4.491  -2.259  -7.809  0.00  0.00     0.026 H 
ATOM     39  H   LIG d   1       2.748  -1.897  -7.764  0.00  0.00     0.026 H 
ENDBRANCH  18  36
ENDBRANCH   1  18
BRANCH   3  40
ATOM     40  O   LIG d   1       6.434  -0.343  -8.344  0.00  0.00    -0.376 OA
BRANCH  40  41
ATOM     41  C   LIG d   1       6.329   0.585  -9.425  0.00  0.00     0.037 C 
ATOM     42  H   LIG d   1       5.647   0.190 -10.178  0.00  0.00     0.052 H 
ATOM     43  H   LIG d   1       5.948   1.536  -9.052  0.00  0.00     0.052 H 
ATOM     44  H   LIG d   1       7.312   0.738  -9.870  0.00  0.00     0.052 H 
ENDBRANCH  40  41
ENDBRANCH   3  40
BRANCH   5  45
ATOM     45  O   LIG d   1       8.748   0.842  -7.168  0.00  0.00    -0.456 OA
BRANCH  45  46
ATOM     46  C   LIG d   1       8.756   2.186  -7.057  0.00  0.00     0.332 C 
ATOM     47  O   LIG d   1       8.703   2.880  -8.056  0.00  0.00    -0.246 OA
BRANCH  46  48
ATOM     48  C   LIG d   1       8.826   2.811  -5.737  0.00  0.00     0.022 C 
ATOM     49  C   LIG d   1       9.625   3.891  -5.539  0.00  0.00    -0.055 C 
ATOM     50  H   LIG d   1      10.208   4.288  -6.356  0.00  0.00     0.062 H 
ATOM     51  H   LIG d   1       8.242   2.413  -4.920  0.00  0.00     0.069 H 
BRANCH  49  52
ATOM     52  C   LIG d   1       9.692   4.493  -4.265  0.00  0.00    -0.061 C 
ATOM     53  C   LIG d   1       9.578   5.844  -4.144  0.00  0.00    -0.062 C 
ATOM     54  H   LIG d   1       9.437   6.454  -5.023  0.00  0.00     0.062 H 
ATOM     55  H   LIG d   1       9.833   3.882  -3.385  0.00  0.00     0.062 H 
BRANCH  53  56
ATOM     56  C   LIG d   1       9.645   6.445  -2.872  0.00  0.00    -0.062 C 
ATOM     57  C   LIG d   1      10.253   5.795  -1.842  0.00  0.00    -0.062 C 
ATOM     58  H   LIG d   1      10.684   4.817  -2.000  0.00  0.00     0.062 H 
ATOM     59  H   LIG d   1       9.213   7.423  -2.713  0.00  0.00     0.062 H 
BRANCH  57  60
ATOM     60  C   LIG d   1      10.319   6.397  -0.569  0.00  0.00    -0.060 C 
ATOM     61  C   LIG d   1      11.138   5.879   0.385  0.00  0.00    -0.039 C 
ATOM     62  H   LIG d   1      11.736   5.006   0.169  0.00  0.00     0.064 H 
ATOM     63  H   LIG d   1       9.722   7.270  -0.353  0.00  0.00     0.062 H 
BRANCH  61  64
ATOM     64  C   LIG d   1      11.205   6.483   1.662  0.00  0.00     0.065 C 
ATOM     65  O   LIG d   1      11.484   7.671   1.764  0.00  0.00    -0.545 OA
ATOM     66  O   LIG d   1      10.982   5.818   2.667  0.00  0.00    -0.545 OA
ENDBRANCH  61  64
ENDBRANCH  57  60
ENDBRANCH  53  56
ENDBRANCH  49  52
ENDBRANCH  46  48
ENDBRANCH  45  46
ENDBRANCH   5  45
TORSDOF 15
ENDMDL
MODEL 5
REMARK VINA RESULT:      -5.9      5.444     10.929
REMARK  15 active torsions:
REMARK  status: ('A' for Active; 'I' for Inactive)
REMARK    1  A    between atoms: C_1  and  C_2 
REMARK    2  A    between atoms: C_2  and  C_37 
REMARK    3  A    between atoms: C_3  and  C_4 
REMARK    4  A    between atoms: C_4  and  C_5 
REMARK    5  A    between atoms: C_7  and  C_9 
REMARK    6  A    between atoms: C_7  and  C_10 
REMARK    7  A    between atoms: C_12  and  O_35 
REMARK    8  A    between atoms: C_14  and  O_21 
REMARK    9  A    between atoms: O_21  and  C_22 
REMARK   10  A    between atoms: C_22  and  C_24 
REMARK   11  A    between atoms: C_25  and  C_26 
REMARK   12  A    between atoms: C_27  and  C_28 
REMARK   13  A    between atoms: C_29  and  C_30 
REMARK   14  A    between atoms: C_31  and  C_32 
REMARK   15  A    between atoms: O_35  and  C_36 
ROOT
ATOM      1  C   LIG d   1       4.812  -0.277  -4.859  0.00  0.00     0.051 C 
ATOM      2  H   LIG d   1       4.603   0.532  -5.559  0.00  0.00     0.038 H 
ATOM      3  C   LIG d   1       6.250  -0.152  -4.343  0.00  0.00     0.103 C 
ATOM      4  H   LIG d   1       6.939  -0.147  -5.188  0.00  0.00     0.064 H 
ATOM      5  C   LIG d   1       6.397   1.153  -3.557  0.00  0.00     0.130 C 
ATOM      6  H   LIG d   1       6.118   1.992  -4.193  0.00  0.00     0.076 H 
ATOM      7  C   LIG d   1       5.487   1.122  -2.329  0.00  0.00    -0.011 C 
ATOM      8  C   LIG d   1       4.025   1.037  -2.778  0.00  0.00    -0.018 C 
ATOM      9  C   LIG d   1       3.849  -0.191  -3.673  0.00  0.00     0.101 A 
ATOM     10  C   LIG d   1       2.440  -0.752  -3.853  0.00  0.00     0.078 A 
ATOM     11  O   LIG d   1       3.431  -1.410  -3.061  0.00  0.00    -0.368 OA
ATOM     12  H   LIG d   1       5.730   0.252  -1.718  0.00  0.00     0.030 H 
ATOM     13  H   LIG d   1       5.636   2.030  -1.743  0.00  0.00     0.030 H 
ATOM     14  H   LIG d   1       3.380   0.949  -1.904  0.00  0.00     0.029 H 
ATOM     15  H   LIG d   1       3.763   1.936  -3.337  0.00  0.00     0.029 H 
ATOM     16  H   LIG d   1       1.624  -0.252  -3.332  0.00  0.00     0.059 H 
ATOM     17  H   LIG d   1       2.188  -1.192  -4.818  0.00  0.00     0.059 H 
ENDROOT
BRANCH   1  18
ATOM     18  C   LIG d   1       4.637  -1.623  -5.565  0.00  0.00     0.102 A 
ATOM     19  C   LIG d   1       3.867  -1.640  -6.887  0.00  0.00     0.092 A 
ATOM     20  H   LIG d   1       3.263  -2.519  -7.112  0.00  0.00     0.063 H 
ATOM     21  O   LIG d   1       5.284  -1.804  -6.828  0.00  0.00    -0.364 OA
BRANCH  19  22
ATOM     22  C   LIG d   1       3.324  -0.310  -7.413  0.00  0.00    -0.005 C 
ATOM     23  H   LIG d   1       3.723   0.508  -6.813  0.00  0.00     0.033 H 
ATOM     24  H   LIG d   1       2.236  -0.311  -7.349  0.00  0.00     0.033 H 
BRANCH  22  25
ATOM     25  C   LIG d   1       3.743  -0.129  -8.849  0.00  0.00    -0.083 C 
ATOM     26  C   LIG d   1       3.549   1.019  -9.449  0.00  0.00    -0.080 C 
ATOM     27  H   LIG d   1       4.203  -0.947  -9.385  0.00  0.00     0.057 H 
BRANCH  26  28
ATOM     28  C   LIG d   1       3.028   2.198  -8.669  0.00  0.00    -0.044 C 
ATOM     29  H   LIG d   1       3.845   2.891  -8.469  0.00  0.00     0.027 H 
ATOM     30  H   LIG d   1       2.256   2.704  -9.248  0.00  0.00     0.027 H 
ATOM     31  H   LIG d   1       2.605   1.852  -7.726  0.00  0.00     0.027 H 
ENDBRANCH  26  28
BRANCH  26  32
ATOM     32  C   LIG d   1       3.847   1.161 -10.920  0.00  0.00    -0.044 C 
ATOM     33  H   LIG d   1       3.597   2.170 -11.245  0.00  0.00     0.027 H 
ATOM     34  H   LIG d   1       4.907   0.974 -11.096  0.00  0.00     0.027 H 
ATOM     35  H   LIG d   1       3.253   0.440 -11.483  0.00  0.00     0.027 H 
ENDBRANCH  26  32
ENDBRANCH  22  25
ENDBRANCH  19  22
BRANCH  18  36
ATOM     36  C   LIG d   1       4.508  -2.842  -4.649  0.00  0.00    -0.033 C 
ATOM     37  H   LIG d   1       4.936  -2.610  -3.674  0.00  0.00     0.026 H 
ATOM     38  H   LIG d   1       3.453  -3.097  -4.532  0.00  0.00     0.026 H 
ATOM     39  H   LIG d   1       5.039  -3.685  -5.090  0.00  0.00     0.026 H 
ENDBRANCH  18  36
ENDBRANCH   1  18
BRANCH   3  40
ATOM     40  O   LIG d   1       6.549  -1.259  -3.491  0.00  0.00    -0.376 OA
BRANCH  40  41
ATOM     41  C   LIG d   1       7.698  -2.007  -3.893  0.00  0.00     0.037 C 
ATOM     42  H   LIG d   1       7.418  -3.051  -4.040  0.00  0.00     0.052 H 
ATOM     43  H   LIG d   1       8.088  -1.600  -4.826  0.00  0.00     0.052 H 
ATOM     44  H   LIG d   1       8.463  -1.942  -3.120  0.00  0.00     0.052 H 
ENDBRANCH  40  41
ENDBRANCH   3  40
BRANCH   5  45
ATOM     45  O   LIG d   1       7.754   1.304  -3.138  0.00  0.00    -0.456 OA
BRANCH  45  46
ATOM     46  C   LIG d   1       8.632   1.757  -4.057  0.00  0.00     0.332 C 
ATOM     47  O   LIG d   1       9.281   0.968  -4.718  0.00  0.00    -0.246 OA
BRANCH  46  48
ATOM     48  C   LIG d   1       8.804   3.195  -4.259  0.00  0.00     0.022 C 
ATOM     49  C   LIG d   1       9.612   3.905  -3.431  0.00  0.00    -0.055 C 
ATOM     50  H   LIG d   1      10.128   3.408  -2.623  0.00  0.00     0.062 H 
ATOM     51  H   LIG d   1       8.287   3.692  -5.067  0.00  0.00     0.069 H 
BRANCH  49  52
ATOM     52  C   LIG d   1       9.777   5.293  -3.626  0.00  0.00    -0.061 C 
ATOM     53  C   LIG d   1       9.339   5.875  -4.775  0.00  0.00    -0.062 C 
ATOM     54  H   LIG d   1       8.866   5.275  -5.538  0.00  0.00     0.062 H 
ATOM     55  H   LIG d   1      10.250   5.893  -2.862  0.00  0.00     0.062 H 
BRANCH  53  56
ATOM     56  C   LIG d   1       9.503   7.260  -4.970  0.00  0.00    -0.062 C 
ATOM     57  C   LIG d   1       9.298   7.804  -6.200  0.00  0.00    -0.062 C 
ATOM     58  H   LIG d   1       9.009   7.173  -7.028  0.00  0.00     0.062 H 
ATOM     59  H   LIG d   1       9.793   7.891  -4.142  0.00  0.00     0.062 H 
BRANCH  57  60
ATOM     60  C   LIG d   1       9.463   9.190  -6.395  0.00  0.00    -0.060 C 
ATOM     61  C   LIG d   1       9.470  10.031  -5.326  0.00  0.00    -0.039 C 
ATOM     62  H   LIG d   1       9.348   9.636  -4.328  0.00  0.00     0.064 H 
ATOM     63  H   LIG d   1       9.585   9.584  -7.393  0.00  0.00     0.062 H 
BRANCH  61  64
ATOM     64  C   LIG d   1       9.636  11.421  -5.522  0.00  0.00     0.065 C 
ATOM     65  O   LIG d   1       9.617  11.887  -6.654  0.00  0.00    -0.545 OA
ATOM     66  O   LIG d   1       9.799  12.160  -4.558  0.00  0.00    -0.545 OA
ENDBRANCH  61  64
ENDBRANCH  57  60
ENDBRANCH  53  56
ENDBRANCH  49  52
ENDBRANCH  46  48
ENDBRANCH  45  46
ENDBRANCH   5  45
TORSDOF 15
ENDMDL
MODEL 6
REMARK VINA RESULT:      -5.8      6.116     11.859
REMARK  15 active torsions:
REMARK  status: ('A' for Active; 'I' for Inactive)
REMARK    1  A    between atoms: C_1  and  C_2 
REMARK    2  A    between atoms: C_2  and  C_37 
REMARK    3  A    between atoms: C_3  and  C_4 
REMARK    4  A    between atoms: C_4  and  C_5 
REMARK    5  A    between atoms: C_7  and  C_9 
REMARK    6  A    between atoms: C_7  and  C_10 
REMARK    7  A    between atoms: C_12  and  O_35 
REMARK    8  A    between atoms: C_14  and  O_21 
REMARK    9  A    between atoms: O_21  and  C_22 
REMARK   10  A    between atoms: C_22  and  C_24 
REMARK   11  A    between atoms: C_25  and  C_26 
REMARK   12  A    between atoms: C_27  and  C_28 
REMARK   13  A    between atoms: C_29  and  C_30 
REMARK   14  A    between atoms: C_31  and  C_32 
REMARK   15  A    between atoms: O_35  and  C_36 
ROOT
ATOM      1  C   LIG d   1       5.069  -0.407  -5.134  0.00  0.00     0.051 C 
ATOM      2  H   LIG d   1       4.788   0.409  -5.798  0.00  0.00     0.038 H 
ATOM      3  C   LIG d   1       6.566  -0.320  -4.817  0.00  0.00     0.103 C 
ATOM      4  H   LIG d   1       7.135  -0.330  -5.748  0.00  0.00     0.064 H 
ATOM      5  C   LIG d   1       6.851   0.977  -4.058  0.00  0.00     0.130 C 
ATOM      6  H   LIG d   1       6.511   1.826  -4.651  0.00  0.00     0.076 H 
ATOM      7  C   LIG d   1       6.116   0.965  -2.718  0.00  0.00    -0.011 C 
ATOM      8  C   LIG d   1       4.605   0.919  -2.965  0.00  0.00    -0.018 C 
ATOM      9  C   LIG d   1       4.278  -0.302  -3.828  0.00  0.00     0.101 A 
ATOM     10  C   LIG d   1       2.844  -0.826  -3.815  0.00  0.00     0.078 A 
ATOM     11  O   LIG d   1       3.916  -1.511  -3.165  0.00  0.00    -0.368 OA
ATOM     12  H   LIG d   1       6.417   0.087  -2.146  0.00  0.00     0.030 H 
ATOM     13  H   LIG d   1       6.366   1.867  -2.158  0.00  0.00     0.030 H 
ATOM     14  H   LIG d   1       4.082   0.844  -2.012  0.00  0.00     0.029 H 
ATOM     15  H   LIG d   1       4.292   1.826  -3.483  0.00  0.00     0.029 H 
ATOM     16  H   LIG d   1       2.118  -0.307  -3.189  0.00  0.00     0.059 H 
ATOM     17  H   LIG d   1       2.452  -1.256  -4.737  0.00  0.00     0.059 H 
ENDROOT
BRANCH   1  18
ATOM     18  C   LIG d   1       4.766  -1.746  -5.809  0.00  0.00     0.102 A 
ATOM     19  C   LIG d   1       3.846  -1.735  -7.032  0.00  0.00     0.092 A 
ATOM     20  H   LIG d   1       3.189  -2.592  -7.181  0.00  0.00     0.063 H 
ATOM     21  O   LIG d   1       5.254  -1.949  -7.138  0.00  0.00    -0.364 OA
BRANCH  19  22
ATOM     22  C   LIG d   1       3.292  -0.387  -7.496  0.00  0.00    -0.005 C 
ATOM     23  H   LIG d   1       3.656   0.401  -6.837  0.00  0.00     0.033 H 
ATOM     24  H   LIG d   1       2.203  -0.412  -7.466  0.00  0.00     0.033 H 
BRANCH  22  25
ATOM     25  C   LIG d   1       3.750  -0.114  -8.905  0.00  0.00    -0.083 C 
ATOM     26  C   LIG d   1       3.537   1.059  -9.448  0.00  0.00    -0.080 C 
ATOM     27  H   LIG d   1       4.253  -0.886  -9.469  0.00  0.00     0.057 H 
BRANCH  26  28
ATOM     28  C   LIG d   1       2.952   2.176  -8.623  0.00  0.00    -0.044 C 
ATOM     29  H   LIG d   1       1.969   1.880  -8.256  0.00  0.00     0.027 H 
ATOM     30  H   LIG d   1       3.608   2.386  -7.779  0.00  0.00     0.027 H 
ATOM     31  H   LIG d   1       2.856   3.070  -9.239  0.00  0.00     0.027 H 
ENDBRANCH  26  28
BRANCH  26  32
ATOM     32  C   LIG d   1       3.876   1.291 -10.898  0.00  0.00    -0.044 C 
ATOM     33  H   LIG d   1       3.160   0.762 -11.527  0.00  0.00     0.027 H 
ATOM     34  H   LIG d   1       3.832   2.359 -11.115  0.00  0.00     0.027 H 
ATOM     35  H   LIG d   1       4.881   0.920 -11.101  0.00  0.00     0.027 H 
ENDBRANCH  26  32
ENDBRANCH  22  25
ENDBRANCH  19  22
BRANCH  18  36
ATOM     36  C   LIG d   1       4.702  -2.960  -4.880  0.00  0.00    -0.033 C 
ATOM     37  H   LIG d   1       5.052  -2.676  -3.887  0.00  0.00     0.026 H 
ATOM     38  H   LIG d   1       3.672  -3.314  -4.816  0.00  0.00     0.026 H 
ATOM     39  H   LIG d   1       5.335  -3.754  -5.276  0.00  0.00     0.026 H 
ENDBRANCH  18  36
ENDBRANCH   1  18
BRANCH   3  40
ATOM     40  O   LIG d   1       6.950  -1.438  -4.013  0.00  0.00    -0.376 OA
BRANCH  40  41
ATOM     41  C   LIG d   1       8.113  -2.121  -4.485  0.00  0.00     0.037 C 
ATOM     42  H   LIG d   1       8.107  -3.146  -4.114  0.00  0.00     0.052 H 
ATOM     43  H   LIG d   1       8.112  -2.129  -5.575  0.00  0.00     0.052 H 
ATOM     44  H   LIG d   1       9.006  -1.610  -4.126  0.00  0.00     0.052 H 
ENDBRANCH  40  41
ENDBRANCH   3  40
BRANCH   5  45
ATOM     45  O   LIG d   1       8.256   1.093  -3.827  0.00  0.00    -0.456 OA
BRANCH  45  46
ATOM     46  C   LIG d   1       8.872   2.182  -4.329  0.00  0.00     0.332 C 
ATOM     47  O   LIG d   1       9.048   2.283  -5.530  0.00  0.00    -0.246 OA
BRANCH  46  48
ATOM     48  C   LIG d   1       9.329   3.244  -3.434  0.00  0.00     0.022 C 
ATOM     49  C   LIG d   1       9.610   4.476  -3.928  0.00  0.00    -0.055 C 
ATOM     50  H   LIG d   1       9.495   4.673  -4.984  0.00  0.00     0.062 H 
ATOM     51  H   LIG d   1       9.443   3.046  -2.378  0.00  0.00     0.069 H 
BRANCH  49  52
ATOM     52  C   LIG d   1      10.051   5.500  -3.063  0.00  0.00    -0.061 C 
ATOM     53  C   LIG d   1      10.345   5.214  -1.766  0.00  0.00    -0.062 C 
ATOM     54  H   LIG d   1      10.241   4.204  -1.399  0.00  0.00     0.062 H 
ATOM     55  H   LIG d   1      10.156   6.510  -3.432  0.00  0.00     0.062 H 
BRANCH  53  56
ATOM     56  C   LIG d   1      10.786   6.236  -0.902  0.00  0.00    -0.062 C 
ATOM     57  C   LIG d   1      10.155   7.441  -0.896  0.00  0.00    -0.062 C 
ATOM     58  H   LIG d   1       9.316   7.616  -1.554  0.00  0.00     0.062 H 
ATOM     59  H   LIG d   1      11.626   6.062  -0.245  0.00  0.00     0.062 H 
BRANCH  57  60
ATOM     60  C   LIG d   1      10.597   8.464  -0.032  0.00  0.00    -0.060 C 
ATOM     61  C   LIG d   1      11.368   8.158   1.045  0.00  0.00    -0.039 C 
ATOM     62  H   LIG d   1      11.641   7.131   1.240  0.00  0.00     0.064 H 
ATOM     63  H   LIG d   1      10.325   9.491  -0.228  0.00  0.00     0.062 H 
BRANCH  61  64
ATOM     64  C   LIG d   1      11.811   9.184   1.911  0.00  0.00     0.065 C 
ATOM     65  O   LIG d   1      11.722  10.357   1.568  0.00  0.00    -0.545 OA
ATOM     66  O   LIG d   1      12.285   8.900   3.005  0.00  0.00    -0.545 OA
ENDBRANCH  61  64
ENDBRANCH  57  60
ENDBRANCH  53  56
ENDBRANCH  49  52
ENDBRANCH  46  48
ENDBRANCH  45  46
ENDBRANCH   5  45
TORSDOF 15
ENDMDL
MODEL 7
REMARK VINA RESULT:      -5.5      4.555      9.386
REMARK  15 active torsions:
REMARK  status: ('A' for Active; 'I' for Inactive)
REMARK    1  A    between atoms: C_1  and  C_2 
REMARK    2  A    between atoms: C_2  and  C_37 
REMARK    3  A    between atoms: C_3  and  C_4 
REMARK    4  A    between atoms: C_4  and  C_5 
REMARK    5  A    between atoms: C_7  and  C_9 
REMARK    6  A    between atoms: C_7  and  C_10 
REMARK    7  A    between atoms: C_12  and  O_35 
REMARK    8  A    between atoms: C_14  and  O_21 
REMARK    9  A    between atoms: O_21  and  C_22 
REMARK   10  A    between atoms: C_22  and  C_24 
REMARK   11  A    between atoms: C_25  and  C_26 
REMARK   12  A    between atoms: C_27  and  C_28 
REMARK   13  A    between atoms: C_29  and  C_30 
REMARK   14  A    between atoms: C_31  and  C_32 
REMARK   15  A    between atoms: O_35  and  C_36 
ROOT
ATOM      1  C   LIG d   1       5.051  -0.381  -5.095  0.00  0.00     0.051 C 
ATOM      2  H   LIG d   1       4.787   0.437  -5.764  0.00  0.00     0.038 H 
ATOM      3  C   LIG d   1       6.539  -0.295  -4.740  0.00  0.00     0.103 C 
ATOM      4  H   LIG d   1       7.132  -0.301  -5.656  0.00  0.00     0.064 H 
ATOM      5  C   LIG d   1       6.805   1.000  -3.970  0.00  0.00     0.130 C 
ATOM      6  H   LIG d   1       6.479   1.850  -4.568  0.00  0.00     0.076 H 
ATOM      7  C   LIG d   1       6.036   0.983  -2.648  0.00  0.00    -0.011 C 
ATOM      8  C   LIG d   1       4.531   0.937  -2.935  0.00  0.00    -0.018 C 
ATOM      9  C   LIG d   1       4.227  -0.281  -3.810  0.00  0.00     0.101 A 
ATOM     10  C   LIG d   1       2.793  -0.805  -3.836  0.00  0.00     0.078 A 
ATOM     11  O   LIG d   1       3.848  -1.492  -3.160  0.00  0.00    -0.368 OA
ATOM     12  H   LIG d   1       6.322   0.103  -2.072  0.00  0.00     0.030 H 
ATOM     13  H   LIG d   1       6.271   1.882  -2.079  0.00  0.00     0.030 H 
ATOM     14  H   LIG d   1       3.984   0.858  -1.995  0.00  0.00     0.029 H 
ATOM     15  H   LIG d   1       4.232   1.846  -3.457  0.00  0.00     0.029 H 
ATOM     16  H   LIG d   1       2.051  -0.288  -3.226  0.00  0.00     0.059 H 
ATOM     17  H   LIG d   1       2.425  -1.232  -4.769  0.00  0.00     0.059 H 
ENDROOT
BRANCH   1  18
ATOM     18  C   LIG d   1       4.766  -1.717  -5.783  0.00  0.00     0.102 A 
ATOM     19  C   LIG d   1       3.866  -1.705  -7.020  0.00  0.00     0.092 A 
ATOM     20  H   LIG d   1       3.216  -2.564  -7.185  0.00  0.00     0.063 H 
ATOM     21  O   LIG d   1       5.277  -1.911  -7.105  0.00  0.00    -0.364 OA
BRANCH  19  22
ATOM     22  C   LIG d   1       3.313  -0.356  -7.486  0.00  0.00    -0.005 C 
ATOM     23  H   LIG d   1       3.671   0.431  -6.823  0.00  0.00     0.033 H 
ATOM     24  H   LIG d   1       2.223  -0.383  -7.463  0.00  0.00     0.033 H 
BRANCH  22  25
ATOM     25  C   LIG d   1       3.779  -0.080  -8.892  0.00  0.00    -0.083 C 
ATOM     26  C   LIG d   1       3.534   1.079  -9.448  0.00  0.00    -0.080 C 
ATOM     27  H   LIG d   1       4.317  -0.839  -9.442  0.00  0.00     0.057 H 
BRANCH  26  28
ATOM     28  C   LIG d   1       2.899   2.183  -8.641  0.00  0.00    -0.044 C 
ATOM     29  H   LIG d   1       1.874   2.337  -8.979  0.00  0.00     0.027 H 
ATOM     30  H   LIG d   1       2.897   1.907  -7.587  0.00  0.00     0.027 H 
ATOM     31  H   LIG d   1       3.468   3.104  -8.775  0.00  0.00     0.027 H 
ENDBRANCH  26  28
BRANCH  26  32
ATOM     32  C   LIG d   1       3.884   1.311 -10.896  0.00  0.00    -0.044 C 
ATOM     33  H   LIG d   1       4.761   0.719 -11.156  0.00  0.00     0.027 H 
ATOM     34  H   LIG d   1       3.045   1.012 -11.525  0.00  0.00     0.027 H 
ATOM     35  H   LIG d   1       4.099   2.368 -11.054  0.00  0.00     0.027 H 
ENDBRANCH  26  32
ENDBRANCH  22  25
ENDBRANCH  19  22
BRANCH  18  36
ATOM     36  C   LIG d   1       4.693  -2.937  -4.862  0.00  0.00    -0.033 C 
ATOM     37  H   LIG d   1       5.637  -3.047  -4.329  0.00  0.00     0.026 H 
ATOM     38  H   LIG d   1       3.883  -2.801  -4.143  0.00  0.00     0.026 H 
ATOM     39  H   LIG d   1       4.504  -3.831  -5.456  0.00  0.00     0.026 H 
ENDBRANCH  18  36
ENDBRANCH   1  18
BRANCH   3  40
ATOM     40  O   LIG d   1       6.903  -1.416  -3.931  0.00  0.00    -0.376 OA
BRANCH  40  41
ATOM     41  C   LIG d   1       8.068  -2.107  -4.384  0.00  0.00     0.037 C 
ATOM     42  H   LIG d   1       8.758  -1.395  -4.837  0.00  0.00     0.052 H 
ATOM     43  H   LIG d   1       8.552  -2.596  -3.539  0.00  0.00     0.052 H 
ATOM     44  H   LIG d   1       7.782  -2.856  -5.122  0.00  0.00     0.052 H 
ENDBRANCH  40  41
ENDBRANCH   3  40
BRANCH   5  45
ATOM     45  O   LIG d   1       8.203   1.114  -3.702  0.00  0.00    -0.456 OA
BRANCH  45  46
ATOM     46  C   LIG d   1       8.759   2.334  -3.857  0.00  0.00     0.332 C 
ATOM     47  O   LIG d   1       9.226   2.916  -2.896  0.00  0.00    -0.246 OA
BRANCH  46  48
ATOM     48  C   LIG d   1       8.801   2.956  -5.179  0.00  0.00     0.022 C 
ATOM     49  C   LIG d   1       9.739   3.897  -5.457  0.00  0.00    -0.055 C 
ATOM     50  H   LIG d   1      10.454   4.186  -4.702  0.00  0.00     0.062 H 
ATOM     51  H   LIG d   1       8.085   2.667  -5.935  0.00  0.00     0.069 H 
BRANCH  49  52
ATOM     52  C   LIG d   1       9.779   4.498  -6.733  0.00  0.00    -0.061 C 
ATOM     53  C   LIG d   1       9.853   5.852  -6.846  0.00  0.00    -0.062 C 
ATOM     54  H   LIG d   1       9.880   6.466  -5.958  0.00  0.00     0.062 H 
ATOM     55  H   LIG d   1       9.753   3.882  -7.621  0.00  0.00     0.062 H 
BRANCH  53  56
ATOM     56  C   LIG d   1       9.893   6.452  -8.120  0.00  0.00    -0.062 C 
ATOM     57  C   LIG d   1       9.615   5.714  -9.229  0.00  0.00    -0.062 C 
ATOM     58  H   LIG d   1       9.362   4.668  -9.133  0.00  0.00     0.062 H 
ATOM     59  H   LIG d   1      10.147   7.498  -8.216  0.00  0.00     0.062 H 
BRANCH  57  60
ATOM     60  C   LIG d   1       9.656   6.314 -10.504  0.00  0.00    -0.060 C 
ATOM     61  C   LIG d   1       8.813   5.888 -11.483  0.00  0.00    -0.039 C 
ATOM     62  H   LIG d   1       8.113   5.091 -11.284  0.00  0.00     0.064 H 
ATOM     63  H   LIG d   1      10.355   7.113 -10.702  0.00  0.00     0.062 H 
BRANCH  61  64
ATOM     64  C   LIG d   1       8.855   6.491 -12.761  0.00  0.00     0.065 C 
ATOM     65  O   LIG d   1       9.349   7.603 -12.899  0.00  0.00    -0.545 OA
ATOM     66  O   LIG d   1       8.396   5.901 -13.732  0.00  0.00    -0.545 OA
ENDBRANCH  61  64
ENDBRANCH  57  60
ENDBRANCH  53  56
ENDBRANCH  49  52
ENDBRANCH  46  48
ENDBRANCH  45  46
ENDBRANCH   5  45
TORSDOF 15
ENDMDL
MODEL 8
REMARK VINA RESULT:      -5.5      2.640      7.740
REMARK  15 active torsions:
REMARK  status: ('A' for Active; 'I' for Inactive)
REMARK    1  A    between atoms: C_1  and  C_2 
REMARK    2  A    between atoms: C_2  and  C_37 
REMARK    3  A    between atoms: C_3  and  C_4 
REMARK    4  A    between atoms: C_4  and  C_5 
REMARK    5  A    between atoms: C_7  and  C_9 
REMARK    6  A    between atoms: C_7  and  C_10 
REMARK    7  A    between atoms: C_12  and  O_35 
REMARK    8  A    between atoms: C_14  and  O_21 
REMARK    9  A    between atoms: O_21  and  C_22 
REMARK   10  A    between atoms: C_22  and  C_24 
REMARK   11  A    between atoms: C_25  and  C_26 
REMARK   12  A    between atoms: C_27  and  C_28 
REMARK   13  A    between atoms: C_29  and  C_30 
REMARK   14  A    between atoms: C_31  and  C_32 
REMARK   15  A    between atoms: O_35  and  C_36 
ROOT
ATOM      1  C   LIG d   1       3.592  -0.946  -8.313  0.00  0.00     0.051 C 
ATOM      2  H   LIG d   1       3.072  -1.176  -7.383  0.00  0.00     0.038 H 
ATOM      3  C   LIG d   1       3.819  -2.236  -9.107  0.00  0.00     0.103 C 
ATOM      4  H   LIG d   1       4.368  -2.950  -8.491  0.00  0.00     0.064 H 
ATOM      5  C   LIG d   1       2.468  -2.836  -9.501  0.00  0.00     0.130 C 
ATOM      6  H   LIG d   1       1.873  -3.009  -8.605  0.00  0.00     0.076 H 
ATOM      7  C   LIG d   1       1.724  -1.873 -10.427  0.00  0.00    -0.011 C 
ATOM      8  C   LIG d   1       1.429  -0.570  -9.676  0.00  0.00    -0.018 C 
ATOM      9  C   LIG d   1       2.744   0.012  -9.153  0.00  0.00     0.101 A 
ATOM     10  C   LIG d   1       2.781   1.498  -8.800  0.00  0.00     0.078 A 
ATOM     11  O   LIG d   1       3.421   0.970  -9.964  0.00  0.00    -0.368 OA
ATOM     12  H   LIG d   1       2.341  -1.657 -11.299  0.00  0.00     0.030 H 
ATOM     13  H   LIG d   1       0.787  -2.328 -10.748  0.00  0.00     0.030 H 
ATOM     14  H   LIG d   1       0.958   0.143 -10.354  0.00  0.00     0.029 H 
ATOM     15  H   LIG d   1       0.762  -0.774  -8.839  0.00  0.00     0.029 H 
ATOM     16  H   LIG d   1       1.868   2.077  -8.941  0.00  0.00     0.059 H 
ATOM     17  H   LIG d   1       3.415   1.807  -7.969  0.00  0.00     0.059 H 
ENDROOT
BRANCH   1  18
ATOM     18  C   LIG d   1       4.940  -0.295  -7.998  0.00  0.00     0.102 A 
ATOM     19  C   LIG d   1       5.360  -0.200  -6.530  0.00  0.00     0.092 A 
ATOM     20  H   LIG d   1       5.943   0.668  -6.223  0.00  0.00     0.063 H 
ATOM     21  O   LIG d   1       5.966  -1.120  -7.440  0.00  0.00    -0.364 OA
BRANCH  19  22
ATOM     22  C   LIG d   1       4.405  -0.764  -5.477  0.00  0.00    -0.005 C 
ATOM     23  H   LIG d   1       4.593  -1.830  -5.349  0.00  0.00     0.033 H 
ATOM     24  H   LIG d   1       3.375  -0.613  -5.803  0.00  0.00     0.033 H 
BRANCH  22  25
ATOM     25  C   LIG d   1       4.625  -0.054  -4.166  0.00  0.00    -0.083 C 
ATOM     26  C   LIG d   1       4.376  -0.669  -3.037  0.00  0.00    -0.080 C 
ATOM     27  H   LIG d   1       4.989   0.964  -4.157  0.00  0.00     0.057 H 
BRANCH  26  28
ATOM     28  C   LIG d   1       3.993  -2.127  -3.042  0.00  0.00    -0.044 C 
ATOM     29  H   LIG d   1       2.908  -2.217  -2.991  0.00  0.00     0.027 H 
ATOM     30  H   LIG d   1       4.354  -2.594  -3.957  0.00  0.00     0.027 H 
ATOM     31  H   LIG d   1       4.439  -2.623  -2.180  0.00  0.00     0.027 H 
ENDBRANCH  26  28
BRANCH  26  32
ATOM     32  C   LIG d   1       4.472   0.081  -1.733  0.00  0.00    -0.044 C 
ATOM     33  H   LIG d   1       5.505   0.384  -1.564  0.00  0.00     0.027 H 
ATOM     34  H   LIG d   1       3.835   0.965  -1.774  0.00  0.00     0.027 H 
ATOM     35  H   LIG d   1       4.145  -0.565  -0.918  0.00  0.00     0.027 H 
ENDBRANCH  26  32
ENDBRANCH  22  25
ENDBRANCH  19  22
BRANCH  18  36
ATOM     36  C   LIG d   1       5.367   0.837  -8.936  0.00  0.00    -0.033 C 
ATOM     37  H   LIG d   1       5.972   1.557  -8.384  0.00  0.00     0.026 H 
ATOM     38  H   LIG d   1       5.952   0.425  -9.759  0.00  0.00     0.026 H 
ATOM     39  H   LIG d   1       4.482   1.333  -9.332  0.00  0.00     0.026 H 
ENDBRANCH  18  36
ENDBRANCH   1  18
BRANCH   3  40
ATOM     40  O   LIG d   1       4.574  -1.945 -10.285  0.00  0.00    -0.376 OA
BRANCH  40  41
ATOM     41  C   LIG d   1       5.719  -2.781 -10.463  0.00  0.00     0.037 C 
ATOM     42  H   LIG d   1       5.483  -3.574 -11.173  0.00  0.00     0.052 H 
ATOM     43  H   LIG d   1       6.548  -2.185 -10.846  0.00  0.00     0.052 H 
ATOM     44  H   LIG d   1       6.000  -3.222  -9.507  0.00  0.00     0.052 H 
ENDBRANCH  40  41
ENDBRANCH   3  40
BRANCH   5  45
ATOM     45  O   LIG d   1       2.678  -4.076 -10.179  0.00  0.00    -0.456 OA
BRANCH  45  46
ATOM     46  C   LIG d   1       2.831  -5.175  -9.412  0.00  0.00     0.332 C 
ATOM     47  O   LIG d   1       2.072  -6.118  -9.542  0.00  0.00    -0.246 OA
BRANCH  46  48
ATOM     48  C   LIG d   1       3.907  -5.235  -8.424  0.00  0.00     0.022 C 
ATOM     49  C   LIG d   1       3.618  -5.167  -7.100  0.00  0.00    -0.055 C 
ATOM     50  H   LIG d   1       2.593  -5.069  -6.775  0.00  0.00     0.062 H 
ATOM     51  H   LIG d   1       4.933  -5.333  -8.749  0.00  0.00     0.069 H 
BRANCH  49  52
ATOM     52  C   LIG d   1       4.657  -5.225  -6.147  0.00  0.00    -0.061 C 
ATOM     53  C   LIG d   1       5.644  -4.289  -6.160  0.00  0.00    -0.062 C 
ATOM     54  H   LIG d   1       5.632  -3.502  -6.899  0.00  0.00     0.062 H 
ATOM     55  H   LIG d   1       4.668  -6.012  -5.407  0.00  0.00     0.062 H 
BRANCH  53  56
ATOM     56  C   LIG d   1       6.681  -4.346  -5.208  0.00  0.00    -0.062 C 
ATOM     57  C   LIG d   1       7.124  -3.204  -4.614  0.00  0.00    -0.062 C 
ATOM     58  H   LIG d   1       6.680  -2.253  -4.872  0.00  0.00     0.062 H 
ATOM     59  H   LIG d   1       7.126  -5.296  -4.951  0.00  0.00     0.062 H 
BRANCH  57  60
ATOM     60  C   LIG d   1       8.162  -3.261  -3.662  0.00  0.00    -0.060 C 
ATOM     61  C   LIG d   1       8.936  -4.376  -3.567  0.00  0.00    -0.039 C 
ATOM     62  H   LIG d   1       8.754  -5.217  -4.219  0.00  0.00     0.064 H 
ATOM     63  H   LIG d   1       8.345  -2.419  -3.011  0.00  0.00     0.062 H 
BRANCH  61  64
ATOM     64  C   LIG d   1       9.978  -4.432  -2.613  0.00  0.00     0.065 C 
ATOM     65  O   LIG d   1       9.783  -4.953  -1.521  0.00  0.00    -0.545 OA
ATOM     66  O   LIG d   1      11.077  -3.958  -2.878  0.00  0.00    -0.545 OA
ENDBRANCH  61  64
ENDBRANCH  57  60
ENDBRANCH  53  56
ENDBRANCH  49  52
ENDBRANCH  46  48
ENDBRANCH  45  46
ENDBRANCH   5  45
TORSDOF 15
ENDMDL
MODEL 9
REMARK VINA RESULT:      -5.4      5.526     11.109
REMARK  15 active torsions:
REMARK  status: ('A' for Active; 'I' for Inactive)
REMARK    1  A    between atoms: C_1  and  C_2 
REMARK    2  A    between atoms: C_2  and  C_37 
REMARK    3  A    between atoms: C_3  and  C_4 
REMARK    4  A    between atoms: C_4  and  C_5 
REMARK    5  A    between atoms: C_7  and  C_9 
REMARK    6  A    between atoms: C_7  and  C_10 
REMARK    7  A    between atoms: C_12  and  O_35 
REMARK    8  A    between atoms: C_14  and  O_21 
REMARK    9  A    between atoms: O_21  and  C_22 
REMARK   10  A    between atoms: C_22  and  C_24 
REMARK   11  A    between atoms: C_25  and  C_26 
REMARK   12  A    between atoms: C_27  and  C_28 
REMARK   13  A    between atoms: C_29  and  C_30 
REMARK   14  A    between atoms: C_31  and  C_32 
REMARK   15  A    between atoms: O_35  and  C_36 
ROOT
ATOM      1  C   LIG d   1       5.353  -0.466  -5.848  0.00  0.00     0.051 C 
ATOM      2  H   LIG d   1       5.179  -0.066  -4.849  0.00  0.00     0.038 H 
ATOM      3  C   LIG d   1       6.470   0.329  -6.532  0.00  0.00     0.103 C 
ATOM      4  H   LIG d   1       6.205   1.387  -6.549  0.00  0.00     0.064 H 
ATOM      5  C   LIG d   1       7.775   0.144  -5.755  0.00  0.00     0.130 C 
ATOM      6  H   LIG d   1       7.629   0.455  -4.721  0.00  0.00     0.076 H 
ATOM      7  C   LIG d   1       8.194  -1.326  -5.790  0.00  0.00    -0.011 C 
ATOM      8  C   LIG d   1       7.134  -2.175  -5.083  0.00  0.00    -0.018 C 
ATOM      9  C   LIG d   1       5.776  -1.933  -5.748  0.00  0.00     0.101 A 
ATOM     10  C   LIG d   1       4.684  -2.982  -5.552  0.00  0.00     0.078 A 
ATOM     11  O   LIG d   1       5.377  -2.818  -6.792  0.00  0.00    -0.368 OA
ATOM     12  H   LIG d   1       8.290  -1.653  -6.825  0.00  0.00     0.030 H 
ATOM     13  H   LIG d   1       9.152  -1.443  -5.282  0.00  0.00     0.030 H 
ATOM     14  H   LIG d   1       7.397  -3.230  -5.164  0.00  0.00     0.029 H 
ATOM     15  H   LIG d   1       7.080  -1.892  -4.031  0.00  0.00     0.029 H 
ATOM     16  H   LIG d   1       4.923  -3.858  -4.949  0.00  0.00     0.059 H 
ATOM     17  H   LIG d   1       3.652  -2.636  -5.498  0.00  0.00     0.059 H 
ENDROOT
BRANCH   1  18
ATOM     18  C   LIG d   1       4.070  -0.359  -6.674  0.00  0.00     0.102 A 
ATOM     19  C   LIG d   1       2.803   0.123  -5.963  0.00  0.00     0.092 A 
ATOM     20  H   LIG d   1       1.849  -0.293  -6.288  0.00  0.00     0.063 H 
ATOM     21  O   LIG d   1       3.520   0.944  -6.887  0.00  0.00    -0.364 OA
BRANCH  19  22
ATOM     22  C   LIG d   1       2.906   0.466  -4.476  0.00  0.00    -0.005 C 
ATOM     23  H   LIG d   1       2.093   1.137  -4.201  0.00  0.00     0.033 H 
ATOM     24  H   LIG d   1       3.862   0.953  -4.281  0.00  0.00     0.033 H 
BRANCH  22  25
ATOM     25  C   LIG d   1       2.812  -0.799  -3.662  0.00  0.00    -0.083 C 
ATOM     26  C   LIG d   1       3.633  -0.996  -2.661  0.00  0.00    -0.080 C 
ATOM     27  H   LIG d   1       2.066  -1.542  -3.903  0.00  0.00     0.057 H 
BRANCH  26  28
ATOM     28  C   LIG d   1       4.586   0.093  -2.241  0.00  0.00    -0.044 C 
ATOM     29  H   LIG d   1       4.410   0.346  -1.196  0.00  0.00     0.027 H 
ATOM     30  H   LIG d   1       5.611  -0.254  -2.364  0.00  0.00     0.027 H 
ATOM     31  H   LIG d   1       4.425   0.975  -2.861  0.00  0.00     0.027 H 
ENDBRANCH  26  28
BRANCH  26  32
ATOM     32  C   LIG d   1       3.625  -2.314  -1.928  0.00  0.00    -0.044 C 
ATOM     33  H   LIG d   1       4.495  -2.899  -2.227  0.00  0.00     0.027 H 
ATOM     34  H   LIG d   1       3.661  -2.132  -0.854  0.00  0.00     0.027 H 
ATOM     35  H   LIG d   1       2.716  -2.862  -2.175  0.00  0.00     0.027 H 
ENDBRANCH  26  32
ENDBRANCH  22  25
ENDBRANCH  19  22
BRANCH  18  36
ATOM     36  C   LIG d   1       3.911  -1.391  -7.792  0.00  0.00    -0.033 C 
ATOM     37  H   LIG d   1       4.245  -2.366  -7.436  0.00  0.00     0.026 H 
ATOM     38  H   LIG d   1       2.861  -1.451  -8.084  0.00  0.00     0.026 H 
ATOM     39  H   LIG d   1       4.510  -1.091  -8.651  0.00  0.00     0.026 H 
ENDBRANCH  18  36
ENDBRANCH   1  18
BRANCH   3  40
ATOM     40  O   LIG d   1       6.641  -0.141  -7.870  0.00  0.00    -0.376 OA
BRANCH  40  41
ATOM     41  C   LIG d   1       6.629   0.893  -8.856  0.00  0.00     0.037 C 
ATOM     42  H   LIG d   1       7.595   1.398  -8.863  0.00  0.00     0.052 H 
ATOM     43  H   LIG d   1       6.438   0.458  -9.837  0.00  0.00     0.052 H 
ATOM     44  H   LIG d   1       5.845   1.612  -8.619  0.00  0.00     0.052 H 
ENDBRANCH  40  41
ENDBRANCH   3  40
BRANCH   5  45
ATOM     45  O   LIG d   1       8.799   0.943  -6.350  0.00  0.00    -0.456 OA
BRANCH  45  46
ATOM     46  C   LIG d   1       9.470   1.785  -5.538  0.00  0.00     0.332 C 
ATOM     47  O   LIG d   1      10.063   1.351  -4.568  0.00  0.00    -0.246 OA
BRANCH  46  48
ATOM     48  C   LIG d   1       9.485   3.219  -5.821  0.00  0.00     0.022 C 
ATOM     49  C   LIG d   1       9.457   4.114  -4.801  0.00  0.00    -0.055 C 
ATOM     50  H   LIG d   1       9.425   3.766  -3.779  0.00  0.00     0.062 H 
ATOM     51  H   LIG d   1       9.517   3.567  -6.844  0.00  0.00     0.069 H 
BRANCH  49  52
ATOM     52  C   LIG d   1       9.471   5.498  -5.075  0.00  0.00    -0.061 C 
ATOM     53  C   LIG d   1       9.735   5.939  -6.335  0.00  0.00    -0.062 C 
ATOM     54  H   LIG d   1       9.935   5.230  -7.124  0.00  0.00     0.062 H 
ATOM     55  H   LIG d   1       9.270   6.207  -4.285  0.00  0.00     0.062 H 
BRANCH  53  56
ATOM     56  C   LIG d   1       9.749   7.320  -6.609  0.00  0.00    -0.062 C 
ATOM     57  C   LIG d   1       9.493   8.214  -5.615  0.00  0.00    -0.062 C 
ATOM     58  H   LIG d   1       9.280   7.864  -4.615  0.00  0.00     0.062 H 
ATOM     59  H   LIG d   1       9.961   7.670  -7.609  0.00  0.00     0.062 H 
BRANCH  57  60
ATOM     60  C   LIG d   1       9.506   9.597  -5.889  0.00  0.00    -0.060 C 
ATOM     61  C   LIG d   1       9.363  10.492  -4.876  0.00  0.00    -0.039 C 
ATOM     62  H   LIG d   1       9.239  10.144  -3.861  0.00  0.00     0.064 H 
ATOM     63  H   LIG d   1       9.631   9.945  -6.904  0.00  0.00     0.062 H 
BRANCH  61  64
ATOM     64  C   LIG d   1       9.376  11.879  -5.152  0.00  0.00     0.065 C 
ATOM     65  O   LIG d   1       9.473  12.274  -6.307  0.00  0.00    -0.545 OA
ATOM     66  O   LIG d   1       9.291  12.687  -4.234  0.00  0.00    -0.545 OA
ENDBRANCH  61  64
ENDBRANCH  57  60
ENDBRANCH  53  56
ENDBRANCH  49  52
ENDBRANCH  46  48
ENDBRANCH  45  46
ENDBRANCH   5  45
TORSDOF 15
ENDMDL
