MODEL 1
REMARK VINA RESULT:      -7.6      0.000      0.000
REMARK  2 active torsions:
REMARK  status: ('A' for Active; 'I' for Inactive)
REMARK    1  A    between atoms: C_7  and  C_11 
REMARK    2  A    between atoms: C_11  and  C_12 
ROOT
ATOM      1  C   LIG d   1       8.418   0.699  -6.481  0.00  0.00     0.119 C 
ATOM      2  H   LIG d   1       8.545  -0.279  -6.946  0.00  0.00     0.063 H 
ATOM      3  C   LIG d   1       9.751   1.196  -5.967  0.00  0.00     0.237 C 
ATOM      4  O   LIG d   1      10.789   0.726  -6.383  0.00  0.00    -0.274 OA
ATOM      5  N   LIG d   1       9.760   2.175  -5.034  0.00  0.00    -0.306 N 
ATOM      6  C   LIG d   1       8.477   2.721  -4.567  0.00  0.00     0.070 C 
ATOM      7  C   LIG d   1       7.507   1.570  -4.392  0.00  0.00     0.131 A 
ATOM      8  N   LIG d   1       7.496   0.590  -5.343  0.00  0.00    -0.282 N 
ATOM      9  C   LIG d   1       6.656  -0.463  -5.249  0.00  0.00     0.263 A 
ATOM     10  O   LIG d   1       6.643  -1.338  -6.096  0.00  0.00    -0.267 OA
ATOM     11  C   LIG d   1       5.760  -0.512  -4.085  0.00  0.00     0.065 A 
ATOM     12  C   LIG d   1       4.859  -1.557  -3.890  0.00  0.00    -0.047 A 
ATOM     13  C   LIG d   1       4.042  -1.551  -2.781  0.00  0.00    -0.061 A 
ATOM     14  C   LIG d   1       4.112  -0.515  -1.858  0.00  0.00    -0.060 A 
ATOM     15  C   LIG d   1       4.996   0.525  -2.032  0.00  0.00    -0.035 A 
ATOM     16  C   LIG d   1       5.835   0.542  -3.148  0.00  0.00     0.078 A 
ATOM     17  N   LIG d   1       6.723   1.549  -3.355  0.00  0.00    -0.232 NA
ATOM     18  H   LIG d   1      10.598   2.513  -4.680  0.00  0.00     0.149 HD
ATOM     19  H   LIG d   1       8.620   3.229  -3.614  0.00  0.00     0.054 H 
ATOM     20  H   LIG d   1       8.086   3.422  -5.303  0.00  0.00     0.054 H 
ATOM     21  H   LIG d   1       4.801  -2.364  -4.605  0.00  0.00     0.063 H 
ATOM     22  H   LIG d   1       3.342  -2.360  -2.627  0.00  0.00     0.062 H 
ATOM     23  H   LIG d   1       3.464  -0.527  -0.994  0.00  0.00     0.062 H 
ATOM     24  H   LIG d   1       5.040   1.325  -1.307  0.00  0.00     0.064 H 
ENDROOT
BRANCH   1  25
ATOM     25  C   LIG d   1       7.859   1.688  -7.506  0.00  0.00     0.004 C 
ATOM     26  H   LIG d   1       8.665   2.322  -7.876  0.00  0.00     0.034 H 
ATOM     27  H   LIG d   1       7.097   2.308  -7.034  0.00  0.00     0.034 H 
BRANCH  25  28
ATOM     28  C   LIG d   1       7.250   0.928  -8.657  0.00  0.00    -0.020 A 
ATOM     29  C   LIG d   1       5.973   1.220  -9.313  0.00  0.00     0.003 A 
ATOM     30  C   LIG d   1       5.826   0.252 -10.324  0.00  0.00     0.047 A 
ATOM     31  C   LIG d   1       4.984   2.188  -9.127  0.00  0.00    -0.052 A 
ATOM     32  C   LIG d   1       4.692   0.273 -11.129  0.00  0.00    -0.038 A 
ATOM     33  N   LIG d   1       6.938  -0.559 -10.274  0.00  0.00    -0.360 N 
ATOM     34  C   LIG d   1       3.729   1.237 -10.928  0.00  0.00    -0.060 A 
ATOM     35  H   LIG d   1       4.567  -0.464 -11.907  0.00  0.00     0.064 H 
ATOM     36  C   LIG d   1       3.878   2.190  -9.928  0.00  0.00    -0.061 A 
ATOM     37  H   LIG d   1       2.849   1.252 -11.554  0.00  0.00     0.062 H 
ATOM     38  H   LIG d   1       3.116   2.942  -9.788  0.00  0.00     0.062 H 
ATOM     39  C   LIG d   1       7.774  -0.141  -9.275  0.00  0.00     0.006 A 
ATOM     40  H   LIG d   1       7.103  -1.314 -10.859  0.00  0.00     0.165 HD
ATOM     41  H   LIG d   1       8.717  -0.604  -9.021  0.00  0.00     0.081 H 
ATOM     42  H   LIG d   1       5.094   2.932  -8.352  0.00  0.00     0.062 H 
ENDBRANCH  25  28
ENDBRANCH   1  25
TORSDOF 2
ENDMDL
MODEL 2
REMARK VINA RESULT:      -7.6      2.822      6.686
REMARK  2 active torsions:
REMARK  status: ('A' for Active; 'I' for Inactive)
REMARK    1  A    between atoms: C_7  and  C_11 
REMARK    2  A    between atoms: C_11  and  C_12 
ROOT
ATOM      1  C   LIG d   1       6.179  -3.098  -6.580  0.00  0.00     0.119 C 
ATOM      2  H   LIG d   1       7.126  -2.562  -6.527  0.00  0.00     0.063 H 
ATOM      3  C   LIG d   1       6.376  -4.409  -7.309  0.00  0.00     0.237 C 
ATOM      4  O   LIG d   1       7.483  -4.889  -7.430  0.00  0.00    -0.274 OA
ATOM      5  N   LIG d   1       5.291  -5.033  -7.824  0.00  0.00    -0.306 N 
ATOM      6  C   LIG d   1       3.968  -4.418  -7.644  0.00  0.00     0.070 C 
ATOM      7  C   LIG d   1       4.106  -2.924  -7.857  0.00  0.00     0.131 A 
ATOM      8  N   LIG d   1       5.199  -2.298  -7.327  0.00  0.00    -0.282 N 
ATOM      9  C   LIG d   1       5.383  -0.970  -7.479  0.00  0.00     0.263 A 
ATOM     10  O   LIG d   1       6.355  -0.409  -7.006  0.00  0.00    -0.267 OA
ATOM     11  C   LIG d   1       4.366  -0.228  -8.238  0.00  0.00     0.065 A 
ATOM     12  C   LIG d   1       4.463   1.145  -8.457  0.00  0.00    -0.047 A 
ATOM     13  C   LIG d   1       3.480   1.790  -9.174  0.00  0.00    -0.061 A 
ATOM     14  C   LIG d   1       2.397   1.082  -9.680  0.00  0.00    -0.060 A 
ATOM     15  C   LIG d   1       2.283  -0.274  -9.476  0.00  0.00    -0.035 A 
ATOM     16  C   LIG d   1       3.267  -0.950  -8.752  0.00  0.00     0.078 A 
ATOM     17  N   LIG d   1       3.194  -2.288  -8.530  0.00  0.00    -0.232 NA
ATOM     18  H   LIG d   1       5.384  -5.873  -8.301  0.00  0.00     0.149 HD
ATOM     19  H   LIG d   1       3.270  -4.829  -8.372  0.00  0.00     0.054 H 
ATOM     20  H   LIG d   1       3.606  -4.612  -6.635  0.00  0.00     0.054 H 
ATOM     21  H   LIG d   1       5.303   1.700  -8.064  0.00  0.00     0.063 H 
ATOM     22  H   LIG d   1       3.552   2.854  -9.346  0.00  0.00     0.062 H 
ATOM     23  H   LIG d   1       1.635   1.604 -10.241  0.00  0.00     0.062 H 
ATOM     24  H   LIG d   1       1.436  -0.813  -9.875  0.00  0.00     0.064 H 
ENDROOT
BRANCH   1  25
ATOM     25  C   LIG d   1       5.657  -3.367  -5.168  0.00  0.00     0.004 C 
ATOM     26  H   LIG d   1       6.136  -4.260  -4.767  0.00  0.00     0.034 H 
ATOM     27  H   LIG d   1       4.578  -3.519  -5.201  0.00  0.00     0.034 H 
BRANCH  25  28
ATOM     28  C   LIG d   1       5.972  -2.188  -4.283  0.00  0.00    -0.020 A 
ATOM     29  C   LIG d   1       5.003  -1.298  -3.642  0.00  0.00     0.003 A 
ATOM     30  C   LIG d   1       5.759  -0.355  -2.921  0.00  0.00     0.047 A 
ATOM     31  C   LIG d   1       3.608  -1.230  -3.626  0.00  0.00    -0.052 A 
ATOM     32  C   LIG d   1       5.103   0.636  -2.198  0.00  0.00    -0.038 A 
ATOM     33  N   LIG d   1       7.086  -0.663  -3.118  0.00  0.00    -0.360 N 
ATOM     34  C   LIG d   1       3.727   0.683  -2.196  0.00  0.00    -0.060 A 
ATOM     35  H   LIG d   1       5.671   1.366  -1.641  0.00  0.00     0.064 H 
ATOM     36  C   LIG d   1       2.984  -0.248  -2.910  0.00  0.00    -0.061 A 
ATOM     37  H   LIG d   1       3.219   1.454  -1.634  0.00  0.00     0.062 H 
ATOM     38  H   LIG d   1       1.906  -0.200  -2.893  0.00  0.00     0.062 H 
ATOM     39  C   LIG d   1       7.194  -1.758  -3.932  0.00  0.00     0.006 A 
ATOM     40  H   LIG d   1       7.833  -0.176  -2.738  0.00  0.00     0.165 HD
ATOM     41  H   LIG d   1       8.125  -2.208  -4.246  0.00  0.00     0.081 H 
ATOM     42  H   LIG d   1       3.025  -1.953  -4.178  0.00  0.00     0.062 H 
ENDBRANCH  25  28
ENDBRANCH   1  25
TORSDOF 2
ENDMDL
MODEL 3
REMARK VINA RESULT:      -7.6      2.405      6.507
REMARK  2 active torsions:
REMARK  status: ('A' for Active; 'I' for Inactive)
REMARK    1  A    between atoms: C_7  and  C_11 
REMARK    2  A    between atoms: C_11  and  C_12 
ROOT
ATOM      1  C   LIG d   1       6.089  -0.099  -7.069  0.00  0.00     0.119 C 
ATOM      2  H   LIG d   1       5.467   0.356  -6.297  0.00  0.00     0.063 H 
ATOM      3  C   LIG d   1       7.229   0.831  -7.418  0.00  0.00     0.237 C 
ATOM      4  O   LIG d   1       7.557   1.720  -6.661  0.00  0.00    -0.274 OA
ATOM      5  N   LIG d   1       7.875   0.651  -8.593  0.00  0.00    -0.306 N 
ATOM      6  C   LIG d   1       7.448  -0.446  -9.475  0.00  0.00     0.070 C 
ATOM      7  C   LIG d   1       5.934  -0.497  -9.472  0.00  0.00     0.131 A 
ATOM      8  N   LIG d   1       5.289  -0.323  -8.280  0.00  0.00    -0.282 N 
ATOM      9  C   LIG d   1       3.941  -0.357  -8.206  0.00  0.00     0.263 A 
ATOM     10  O   LIG d   1       3.363  -0.204  -7.145  0.00  0.00    -0.267 OA
ATOM     11  C   LIG d   1       3.200  -0.584  -9.455  0.00  0.00     0.065 A 
ATOM     12  C   LIG d   1       1.808  -0.632  -9.489  0.00  0.00    -0.047 A 
ATOM     13  C   LIG d   1       1.165  -0.849 -10.689  0.00  0.00    -0.061 A 
ATOM     14  C   LIG d   1       1.894  -1.018 -11.859  0.00  0.00    -0.060 A 
ATOM     15  C   LIG d   1       3.270  -0.973 -11.847  0.00  0.00    -0.035 A 
ATOM     16  C   LIG d   1       3.944  -0.754 -10.643  0.00  0.00     0.078 A 
ATOM     17  N   LIG d   1       5.300  -0.700 -10.588  0.00  0.00    -0.232 NA
ATOM     18  H   LIG d   1       8.607   1.233  -8.850  0.00  0.00     0.149 HD
ATOM     19  H   LIG d   1       7.807  -0.264 -10.487  0.00  0.00     0.054 H 
ATOM     20  H   LIG d   1       7.848  -1.390  -9.106  0.00  0.00     0.054 H 
ATOM     21  H   LIG d   1       1.237  -0.502  -8.582  0.00  0.00     0.063 H 
ATOM     22  H   LIG d   1       0.086  -0.887 -10.718  0.00  0.00     0.062 H 
ATOM     23  H   LIG d   1       1.374  -1.188 -12.790  0.00  0.00     0.062 H 
ATOM     24  H   LIG d   1       3.824  -1.107 -12.763  0.00  0.00     0.064 H 
ENDROOT
BRANCH   1  25
ATOM     25  C   LIG d   1       6.646  -1.431  -6.564  0.00  0.00     0.004 C 
ATOM     26  H   LIG d   1       7.611  -1.264  -6.086  0.00  0.00     0.034 H 
ATOM     27  H   LIG d   1       6.770  -2.115  -7.403  0.00  0.00     0.034 H 
BRANCH  25  28
ATOM     28  C   LIG d   1       5.689  -2.029  -5.564  0.00  0.00    -0.020 A 
ATOM     29  C   LIG d   1       5.322  -1.462  -4.264  0.00  0.00     0.003 A 
ATOM     30  C   LIG d   1       4.407  -2.364  -3.692  0.00  0.00     0.047 A 
ATOM     31  C   LIG d   1       5.687  -0.306  -3.571  0.00  0.00    -0.052 A 
ATOM     32  C   LIG d   1       3.874  -2.091  -2.436  0.00  0.00    -0.038 A 
ATOM     33  N   LIG d   1       4.239  -3.396  -4.588  0.00  0.00    -0.360 N 
ATOM     34  C   LIG d   1       4.248  -0.944  -1.770  0.00  0.00    -0.060 A 
ATOM     35  H   LIG d   1       3.171  -2.775  -1.985  0.00  0.00     0.064 H 
ATOM     36  C   LIG d   1       5.152  -0.057  -2.339  0.00  0.00    -0.061 A 
ATOM     37  H   LIG d   1       3.833  -0.733  -0.795  0.00  0.00     0.062 H 
ATOM     38  H   LIG d   1       5.430   0.839  -1.805  0.00  0.00     0.062 H 
ATOM     39  C   LIG d   1       5.010  -3.179  -5.697  0.00  0.00     0.006 A 
ATOM     40  H   LIG d   1       3.660  -4.162  -4.453  0.00  0.00     0.165 HD
ATOM     41  H   LIG d   1       5.065  -3.836  -6.553  0.00  0.00     0.081 H 
ATOM     42  H   LIG d   1       6.390   0.388  -4.008  0.00  0.00     0.062 H 
ENDBRANCH  25  28
ENDBRANCH   1  25
TORSDOF 2
ENDMDL
MODEL 4
REMARK VINA RESULT:      -7.5      2.313      6.075
REMARK  2 active torsions:
REMARK  status: ('A' for Active; 'I' for Inactive)
REMARK    1  A    between atoms: C_7  and  C_11 
REMARK    2  A    between atoms: C_11  and  C_12 
ROOT
ATOM      1  C   LIG d   1       5.285  -1.515  -4.807  0.00  0.00     0.119 C 
ATOM      2  H   LIG d   1       5.962  -2.229  -5.276  0.00  0.00     0.063 H 
ATOM      3  C   LIG d   1       4.171  -2.257  -4.103  0.00  0.00     0.237 C 
ATOM      4  O   LIG d   1       4.293  -3.429  -3.815  0.00  0.00    -0.274 OA
ATOM      5  N   LIG d   1       3.037  -1.585  -3.799  0.00  0.00    -0.306 N 
ATOM      6  C   LIG d   1       2.938  -0.163  -4.158  0.00  0.00     0.070 C 
ATOM      7  C   LIG d   1       3.536   0.022  -5.538  0.00  0.00     0.131 A 
ATOM      8  N   LIG d   1       4.687  -0.652  -5.834  0.00  0.00    -0.282 N 
ATOM      9  C   LIG d   1       5.272  -0.533  -7.044  0.00  0.00     0.263 A 
ATOM     10  O   LIG d   1       6.299  -1.131  -7.311  0.00  0.00    -0.267 OA
ATOM     11  C   LIG d   1       4.622   0.346  -8.028  0.00  0.00     0.065 A 
ATOM     12  C   LIG d   1       5.141   0.535  -9.307  0.00  0.00    -0.047 A 
ATOM     13  C   LIG d   1       4.490   1.371 -10.187  0.00  0.00    -0.061 A 
ATOM     14  C   LIG d   1       3.323   2.022  -9.809  0.00  0.00    -0.060 A 
ATOM     15  C   LIG d   1       2.793   1.848  -8.551  0.00  0.00    -0.035 A 
ATOM     16  C   LIG d   1       3.435   1.006  -7.640  0.00  0.00     0.078 A 
ATOM     17  N   LIG d   1       2.944   0.804  -6.390  0.00  0.00    -0.232 NA
ATOM     18  H   LIG d   1       2.302  -2.033  -3.351  0.00  0.00     0.149 HD
ATOM     19  H   LIG d   1       1.892   0.142  -4.167  0.00  0.00     0.054 H 
ATOM     20  H   LIG d   1       3.491   0.437  -3.436  0.00  0.00     0.054 H 
ATOM     21  H   LIG d   1       6.049   0.031  -9.605  0.00  0.00     0.063 H 
ATOM     22  H   LIG d   1       4.890   1.520 -11.179  0.00  0.00     0.062 H 
ATOM     23  H   LIG d   1       2.826   2.675 -10.512  0.00  0.00     0.062 H 
ATOM     24  H   LIG d   1       1.886   2.361  -8.269  0.00  0.00     0.064 H 
ENDROOT
BRANCH   1  25
ATOM     25  C   LIG d   1       6.055  -0.660  -3.799  0.00  0.00     0.004 C 
ATOM     26  H   LIG d   1       6.037  -1.145  -2.822  0.00  0.00     0.034 H 
ATOM     27  H   LIG d   1       5.588   0.322  -3.724  0.00  0.00     0.034 H 
BRANCH  25  28
ATOM     28  C   LIG d   1       7.483  -0.507  -4.256  0.00  0.00    -0.020 A 
ATOM     29  C   LIG d   1       8.205   0.753  -4.447  0.00  0.00     0.003 A 
ATOM     30  C   LIG d   1       9.497   0.399  -4.877  0.00  0.00     0.047 A 
ATOM     31  C   LIG d   1       7.867   2.099  -4.294  0.00  0.00    -0.052 A 
ATOM     32  C   LIG d   1      10.425   1.400  -5.144  0.00  0.00    -0.038 A 
ATOM     33  N   LIG d   1       9.542  -0.976  -4.937  0.00  0.00    -0.360 N 
ATOM     34  C   LIG d   1      10.070   2.721  -4.985  0.00  0.00    -0.060 A 
ATOM     35  H   LIG d   1      11.420   1.142  -5.475  0.00  0.00     0.064 H 
ATOM     36  C   LIG d   1       8.793   3.067  -4.562  0.00  0.00    -0.061 A 
ATOM     37  H   LIG d   1      10.792   3.498  -5.193  0.00  0.00     0.062 H 
ATOM     38  H   LIG d   1       8.533   4.107  -4.438  0.00  0.00     0.062 H 
ATOM     39  C   LIG d   1       8.334  -1.498  -4.564  0.00  0.00     0.006 A 
ATOM     40  H   LIG d   1      10.315  -1.497  -5.204  0.00  0.00     0.165 HD
ATOM     41  H   LIG d   1       8.099  -2.552  -4.523  0.00  0.00     0.081 H 
ATOM     42  H   LIG d   1       6.875   2.374  -3.965  0.00  0.00     0.062 H 
ENDBRANCH  25  28
ENDBRANCH   1  25
TORSDOF 2
ENDMDL
MODEL 5
REMARK VINA RESULT:      -7.5      2.933      5.683
REMARK  2 active torsions:
REMARK  status: ('A' for Active; 'I' for Inactive)
REMARK    1  A    between atoms: C_7  and  C_11 
REMARK    2  A    between atoms: C_11  and  C_12 
ROOT
ATOM      1  C   LIG d   1       8.523   1.875  -5.546  0.00  0.00     0.119 C 
ATOM      2  H   LIG d   1       8.172   2.879  -5.306  0.00  0.00     0.063 H 
ATOM      3  C   LIG d   1       8.490   1.669  -7.044  0.00  0.00     0.237 C 
ATOM      4  O   LIG d   1       8.451   2.618  -7.799  0.00  0.00    -0.274 OA
ATOM      5  N   LIG d   1       8.504   0.404  -7.525  0.00  0.00    -0.306 N 
ATOM      6  C   LIG d   1       8.561  -0.714  -6.572  0.00  0.00     0.070 C 
ATOM      7  C   LIG d   1       7.641  -0.397  -5.410  0.00  0.00     0.131 A 
ATOM      8  N   LIG d   1       7.640   0.880  -4.924  0.00  0.00    -0.282 N 
ATOM      9  C   LIG d   1       6.845   1.231  -3.891  0.00  0.00     0.263 A 
ATOM     10  O   LIG d   1       6.841   2.367  -3.454  0.00  0.00    -0.267 OA
ATOM     11  C   LIG d   1       5.984   0.187  -3.315  0.00  0.00     0.065 A 
ATOM     12  C   LIG d   1       5.123   0.445  -2.249  0.00  0.00    -0.047 A 
ATOM     13  C   LIG d   1       4.340  -0.571  -1.749  0.00  0.00    -0.061 A 
ATOM     14  C   LIG d   1       4.401  -1.845  -2.298  0.00  0.00    -0.060 A 
ATOM     15  C   LIG d   1       5.243  -2.120  -3.351  0.00  0.00    -0.035 A 
ATOM     16  C   LIG d   1       6.048  -1.107  -3.876  0.00  0.00     0.078 A 
ATOM     17  N   LIG d   1       6.890  -1.335  -4.917  0.00  0.00    -0.232 NA
ATOM     18  H   LIG d   1       8.479   0.238  -8.480  0.00  0.00     0.149 HD
ATOM     19  H   LIG d   1       8.232  -1.630  -7.062  0.00  0.00     0.054 H 
ATOM     20  H   LIG d   1       9.581  -0.837  -6.210  0.00  0.00     0.054 H 
ATOM     21  H   LIG d   1       5.073   1.435  -1.819  0.00  0.00     0.063 H 
ATOM     22  H   LIG d   1       3.671  -0.374  -0.923  0.00  0.00     0.062 H 
ATOM     23  H   LIG d   1       3.779  -2.630  -1.892  0.00  0.00     0.062 H 
ATOM     24  H   LIG d   1       5.282  -3.115  -3.768  0.00  0.00     0.064 H 
ENDROOT
BRANCH   1  25
ATOM     25  C   LIG d   1       9.952   1.690  -5.031  0.00  0.00     0.004 C 
ATOM     26  H   LIG d   1      10.656   1.850  -5.848  0.00  0.00     0.034 H 
ATOM     27  H   LIG d   1      10.070   0.679  -4.643  0.00  0.00     0.034 H 
BRANCH  25  28
ATOM     28  C   LIG d   1      10.223   2.687  -3.933  0.00  0.00    -0.020 A 
ATOM     29  C   LIG d   1       9.905   4.116  -3.958  0.00  0.00     0.003 A 
ATOM     30  C   LIG d   1      10.338   4.631  -2.722  0.00  0.00     0.047 A 
ATOM     31  C   LIG d   1       9.311   4.963  -4.895  0.00  0.00    -0.052 A 
ATOM     32  C   LIG d   1      10.168   5.985  -2.450  0.00  0.00    -0.038 A 
ATOM     33  N   LIG d   1      10.876   3.582  -2.011  0.00  0.00    -0.360 N 
ATOM     34  C   LIG d   1       9.579   6.802  -3.390  0.00  0.00    -0.060 A 
ATOM     35  H   LIG d   1      10.497   6.393  -1.506  0.00  0.00     0.064 H 
ATOM     36  C   LIG d   1       9.154   6.289  -4.608  0.00  0.00    -0.061 A 
ATOM     37  H   LIG d   1       9.448   7.853  -3.177  0.00  0.00     0.062 H 
ATOM     38  H   LIG d   1       8.690   6.943  -5.331  0.00  0.00     0.062 H 
ATOM     39  C   LIG d   1      10.798   2.432  -2.748  0.00  0.00     0.006 A 
ATOM     40  H   LIG d   1      11.254   3.648  -1.120  0.00  0.00     0.165 HD
ATOM     41  H   LIG d   1      11.149   1.463  -2.424  0.00  0.00     0.081 H 
ATOM     42  H   LIG d   1       8.977   4.571  -5.845  0.00  0.00     0.062 H 
ENDBRANCH  25  28
ENDBRANCH   1  25
TORSDOF 2
ENDMDL
MODEL 6
REMARK VINA RESULT:      -7.0      3.263      6.130
REMARK  2 active torsions:
REMARK  status: ('A' for Active; 'I' for Inactive)
REMARK    1  A    between atoms: C_7  and  C_11 
REMARK    2  A    between atoms: C_11  and  C_12 
ROOT
ATOM      1  C   LIG d   1       4.295  -0.917  -4.380  0.00  0.00     0.119 C 
ATOM      2  H   LIG d   1       4.071  -1.151  -5.421  0.00  0.00     0.063 H 
ATOM      3  C   LIG d   1       3.131  -0.172  -3.765  0.00  0.00     0.237 C 
ATOM      4  O   LIG d   1       2.030  -0.215  -4.272  0.00  0.00    -0.274 OA
ATOM      5  N   LIG d   1       3.344   0.543  -2.636  0.00  0.00    -0.306 N 
ATOM      6  C   LIG d   1       4.693   0.559  -2.051  0.00  0.00     0.070 C 
ATOM      7  C   LIG d   1       5.699   0.678  -3.179  0.00  0.00     0.131 A 
ATOM      8  N   LIG d   1       5.482  -0.055  -4.311  0.00  0.00    -0.282 N 
ATOM      9  C   LIG d   1       6.338   0.004  -5.353  0.00  0.00     0.263 A 
ATOM     10  O   LIG d   1       6.149  -0.648  -6.363  0.00  0.00    -0.267 OA
ATOM     11  C   LIG d   1       7.506   0.887  -5.220  0.00  0.00     0.065 A 
ATOM     12  C   LIG d   1       8.448   1.024  -6.239  0.00  0.00    -0.047 A 
ATOM     13  C   LIG d   1       9.524   1.865  -6.059  0.00  0.00    -0.061 A 
ATOM     14  C   LIG d   1       9.674   2.576  -4.875  0.00  0.00    -0.060 A 
ATOM     15  C   LIG d   1       8.755   2.456  -3.858  0.00  0.00    -0.035 A 
ATOM     16  C   LIG d   1       7.655   1.609  -4.016  0.00  0.00     0.078 A 
ATOM     17  N   LIG d   1       6.724   1.464  -3.038  0.00  0.00    -0.232 NA
ATOM     18  H   LIG d   1       2.620   1.036  -2.219  0.00  0.00     0.149 HD
ATOM     19  H   LIG d   1       4.792   1.411  -1.379  0.00  0.00     0.054 H 
ATOM     20  H   LIG d   1       4.866  -0.366  -1.502  0.00  0.00     0.054 H 
ATOM     21  H   LIG d   1       8.335   0.473  -7.160  0.00  0.00     0.063 H 
ATOM     22  H   LIG d   1      10.256   1.974  -6.846  0.00  0.00     0.062 H 
ATOM     23  H   LIG d   1      10.525   3.231  -4.752  0.00  0.00     0.062 H 
ATOM     24  H   LIG d   1       8.884   3.013  -2.942  0.00  0.00     0.064 H 
ENDROOT
BRANCH   1  25
ATOM     25  C   LIG d   1       4.549  -2.209  -3.602  0.00  0.00     0.004 C 
ATOM     26  H   LIG d   1       3.597  -2.642  -3.295  0.00  0.00     0.034 H 
ATOM     27  H   LIG d   1       5.149  -1.990  -2.719  0.00  0.00     0.034 H 
BRANCH  25  28
ATOM     28  C   LIG d   1       5.285  -3.188  -4.482  0.00  0.00    -0.020 A 
ATOM     29  C   LIG d   1       6.724  -3.456  -4.470  0.00  0.00     0.003 A 
ATOM     30  C   LIG d   1       6.945  -4.437  -5.455  0.00  0.00     0.047 A 
ATOM     31  C   LIG d   1       7.799  -2.959  -3.730  0.00  0.00    -0.052 A 
ATOM     32  C   LIG d   1       8.237  -4.900  -5.679  0.00  0.00    -0.038 A 
ATOM     33  N   LIG d   1       5.722  -4.732  -6.014  0.00  0.00    -0.360 N 
ATOM     34  C   LIG d   1       9.282  -4.396  -4.937  0.00  0.00    -0.060 A 
ATOM     35  H   LIG d   1       8.420  -5.652  -6.432  0.00  0.00     0.064 H 
ATOM     36  C   LIG d   1       9.061  -3.428  -3.966  0.00  0.00    -0.061 A 
ATOM     37  H   LIG d   1      10.285  -4.757  -5.112  0.00  0.00     0.062 H 
ATOM     38  H   LIG d   1       9.890  -3.047  -3.390  0.00  0.00     0.062 H 
ATOM     39  C   LIG d   1       4.745  -3.979  -5.422  0.00  0.00     0.006 A 
ATOM     40  H   LIG d   1       5.575  -5.378  -6.722  0.00  0.00     0.165 HD
ATOM     41  H   LIG d   1       3.695  -4.015  -5.675  0.00  0.00     0.081 H 
ATOM     42  H   LIG d   1       7.633  -2.206  -2.973  0.00  0.00     0.062 H 
ENDBRANCH  25  28
ENDBRANCH   1  25
TORSDOF 2
ENDMDL
MODEL 7
REMARK VINA RESULT:      -6.9      4.394      6.701
REMARK  2 active torsions:
REMARK  status: ('A' for Active; 'I' for Inactive)
REMARK    1  A    between atoms: C_7  and  C_11 
REMARK    2  A    between atoms: C_11  and  C_12 
ROOT
ATOM      1  C   LIG d   1       6.367  -3.034  -6.245  0.00  0.00     0.119 C 
ATOM      2  H   LIG d   1       7.337  -3.157  -5.763  0.00  0.00     0.063 H 
ATOM      3  C   LIG d   1       6.562  -2.573  -7.672  0.00  0.00     0.237 C 
ATOM      4  O   LIG d   1       7.630  -2.720  -8.230  0.00  0.00    -0.274 OA
ATOM      5  N   LIG d   1       5.522  -1.994  -8.314  0.00  0.00    -0.306 N 
ATOM      6  C   LIG d   1       4.245  -1.845  -7.601  0.00  0.00     0.070 C 
ATOM      7  C   LIG d   1       4.541  -1.416  -6.178  0.00  0.00     0.131 A 
ATOM      8  N   LIG d   1       5.587  -2.013  -5.533  0.00  0.00    -0.282 N 
ATOM      9  C   LIG d   1       5.906  -1.679  -4.265  0.00  0.00     0.263 A 
ATOM     10  O   LIG d   1       6.836  -2.209  -3.687  0.00  0.00    -0.267 OA
ATOM     11  C   LIG d   1       5.086  -0.648  -3.610  0.00  0.00     0.065 A 
ATOM     12  C   LIG d   1       5.333  -0.227  -2.305  0.00  0.00    -0.047 A 
ATOM     13  C   LIG d   1       4.532   0.741  -1.741  0.00  0.00    -0.061 A 
ATOM     14  C   LIG d   1       3.485   1.299  -2.463  0.00  0.00    -0.060 A 
ATOM     15  C   LIG d   1       3.224   0.897  -3.754  0.00  0.00    -0.035 A 
ATOM     16  C   LIG d   1       4.023  -0.083  -4.348  0.00  0.00     0.078 A 
ATOM     17  N   LIG d   1       3.802  -0.505  -5.620  0.00  0.00    -0.232 NA
ATOM     18  H   LIG d   1       5.615  -1.683  -9.228  0.00  0.00     0.149 HD
ATOM     19  H   LIG d   1       3.635  -1.088  -8.093  0.00  0.00     0.054 H 
ATOM     20  H   LIG d   1       3.715  -2.797  -7.594  0.00  0.00     0.054 H 
ATOM     21  H   LIG d   1       6.146  -0.658  -1.740  0.00  0.00     0.063 H 
ATOM     22  H   LIG d   1       4.721   1.070  -0.730  0.00  0.00     0.062 H 
ATOM     23  H   LIG d   1       2.866   2.057  -2.005  0.00  0.00     0.062 H 
ATOM     24  H   LIG d   1       2.407   1.338  -4.304  0.00  0.00     0.064 H 
ENDROOT
BRANCH   1  25
ATOM     25  C   LIG d   1       5.611  -4.364  -6.231  0.00  0.00     0.004 C 
ATOM     26  H   LIG d   1       5.285  -4.607  -7.242  0.00  0.00     0.034 H 
ATOM     27  H   LIG d   1       4.741  -4.281  -5.580  0.00  0.00     0.034 H 
BRANCH  25  28
ATOM     28  C   LIG d   1       6.520  -5.453  -5.722  0.00  0.00    -0.020 A 
ATOM     29  C   LIG d   1       6.136  -6.831  -5.409  0.00  0.00     0.003 A 
ATOM     30  C   LIG d   1       7.310  -7.472  -4.972  0.00  0.00     0.047 A 
ATOM     31  C   LIG d   1       4.934  -7.541  -5.462  0.00  0.00    -0.052 A 
ATOM     32  C   LIG d   1       7.258  -8.811  -4.599  0.00  0.00    -0.038 A 
ATOM     33  N   LIG d   1       8.323  -6.541  -5.022  0.00  0.00    -0.360 N 
ATOM     34  C   LIG d   1       6.062  -9.491  -4.660  0.00  0.00    -0.060 A 
ATOM     35  H   LIG d   1       8.151  -9.315  -4.261  0.00  0.00     0.064 H 
ATOM     36  C   LIG d   1       4.905  -8.855  -5.091  0.00  0.00    -0.061 A 
ATOM     37  H   LIG d   1       6.023 -10.531  -4.370  0.00  0.00     0.062 H 
ATOM     38  H   LIG d   1       3.977  -9.405  -5.137  0.00  0.00     0.062 H 
ATOM     39  C   LIG d   1       7.834  -5.344  -5.471  0.00  0.00     0.006 A 
ATOM     40  H   LIG d   1       9.246  -6.708  -4.776  0.00  0.00     0.165 HD
ATOM     41  H   LIG d   1       8.419  -4.446  -5.603  0.00  0.00     0.081 H 
ATOM     42  H   LIG d   1       4.031  -7.052  -5.797  0.00  0.00     0.062 H 
ENDBRANCH  25  28
ENDBRANCH   1  25
TORSDOF 2
ENDMDL
MODEL 8
REMARK VINA RESULT:      -6.9      3.704      4.870
REMARK  2 active torsions:
REMARK  status: ('A' for Active; 'I' for Inactive)
REMARK    1  A    between atoms: C_7  and  C_11 
REMARK    2  A    between atoms: C_11  and  C_12 
ROOT
ATOM      1  C   LIG d   1       3.878  -0.042  -8.941  0.00  0.00     0.119 C 
ATOM      2  H   LIG d   1       4.691  -0.688  -9.272  0.00  0.00     0.063 H 
ATOM      3  C   LIG d   1       4.206   1.397  -9.272  0.00  0.00     0.237 C 
ATOM      4  O   LIG d   1       5.044   1.665 -10.107  0.00  0.00    -0.274 OA
ATOM      5  N   LIG d   1       3.544   2.380  -8.618  0.00  0.00    -0.306 N 
ATOM      6  C   LIG d   1       2.529   2.007  -7.622  0.00  0.00     0.070 C 
ATOM      7  C   LIG d   1       3.060   0.838  -6.816  0.00  0.00     0.131 A 
ATOM      8  N   LIG d   1       3.718  -0.154  -7.485  0.00  0.00    -0.282 N 
ATOM      9  C   LIG d   1       4.216  -1.224  -6.830  0.00  0.00     0.263 A 
ATOM     10  O   LIG d   1       4.803  -2.111  -7.422  0.00  0.00    -0.267 OA
ATOM     11  C   LIG d   1       4.023  -1.276  -5.373  0.00  0.00     0.065 A 
ATOM     12  C   LIG d   1       4.502  -2.333  -4.601  0.00  0.00    -0.047 A 
ATOM     13  C   LIG d   1       4.291  -2.330  -3.240  0.00  0.00    -0.061 A 
ATOM     14  C   LIG d   1       3.609  -1.282  -2.634  0.00  0.00    -0.060 A 
ATOM     15  C   LIG d   1       3.130  -0.228  -3.378  0.00  0.00    -0.035 A 
ATOM     16  C   LIG d   1       3.331  -0.209  -4.760  0.00  0.00     0.078 A 
ATOM     17  N   LIG d   1       2.876   0.814  -5.530  0.00  0.00    -0.232 NA
ATOM     18  H   LIG d   1       3.733   3.312  -8.804  0.00  0.00     0.149 HD
ATOM     19  H   LIG d   1       2.337   2.851  -6.960  0.00  0.00     0.054 H 
ATOM     20  H   LIG d   1       1.608   1.717  -8.126  0.00  0.00     0.054 H 
ATOM     21  H   LIG d   1       5.032  -3.150  -5.068  0.00  0.00     0.063 H 
ATOM     22  H   LIG d   1       4.661  -3.148  -2.639  0.00  0.00     0.062 H 
ATOM     23  H   LIG d   1       3.453  -1.296  -1.565  0.00  0.00     0.062 H 
ATOM     24  H   LIG d   1       2.600   0.579  -2.895  0.00  0.00     0.064 H 
ENDROOT
BRANCH   1  25
ATOM     25  C   LIG d   1       2.578  -0.448  -9.636  0.00  0.00     0.004 C 
ATOM     26  H   LIG d   1       1.971   0.439  -9.818  0.00  0.00     0.034 H 
ATOM     27  H   LIG d   1       2.026  -1.140  -9.000  0.00  0.00     0.034 H 
BRANCH  25  28
ATOM     28  C   LIG d   1       2.898  -1.116 -10.949  0.00  0.00    -0.020 A 
ATOM     29  C   LIG d   1       1.935  -1.531 -11.971  0.00  0.00     0.003 A 
ATOM     30  C   LIG d   1       2.693  -2.102 -13.010  0.00  0.00     0.047 A 
ATOM     31  C   LIG d   1       0.544  -1.467 -12.079  0.00  0.00    -0.052 A 
ATOM     32  C   LIG d   1       2.044  -2.595 -14.136  0.00  0.00    -0.038 A 
ATOM     33  N   LIG d   1       4.015  -2.031 -12.634  0.00  0.00    -0.360 N 
ATOM     34  C   LIG d   1       0.671  -2.521 -14.222  0.00  0.00    -0.060 A 
ATOM     35  H   LIG d   1       2.613  -3.037 -14.941  0.00  0.00     0.064 H 
ATOM     36  C   LIG d   1      -0.074  -1.958 -13.193  0.00  0.00    -0.061 A 
ATOM     37  H   LIG d   1       0.168  -2.905 -15.097  0.00  0.00     0.062 H 
ATOM     38  H   LIG d   1      -1.149  -1.903 -13.279  0.00  0.00     0.062 H 
ATOM     39  C   LIG d   1       4.118  -1.440 -11.403  0.00  0.00     0.006 A 
ATOM     40  H   LIG d   1       4.763  -2.351 -13.162  0.00  0.00     0.165 HD
ATOM     41  H   LIG d   1       5.044  -1.262 -10.876  0.00  0.00     0.081 H 
ATOM     42  H   LIG d   1      -0.041  -1.029 -11.282  0.00  0.00     0.062 H 
ENDBRANCH  25  28
ENDBRANCH   1  25
TORSDOF 2
ENDMDL
MODEL 9
REMARK VINA RESULT:      -6.9      4.194      6.822
REMARK  2 active torsions:
REMARK  status: ('A' for Active; 'I' for Inactive)
REMARK    1  A    between atoms: C_7  and  C_11 
REMARK    2  A    between atoms: C_11  and  C_12 
ROOT
ATOM      1  C   LIG d   1       9.895   3.746  -4.564  0.00  0.00     0.119 C 
ATOM      2  H   LIG d   1      10.548   2.892  -4.385  0.00  0.00     0.063 H 
ATOM      3  C   LIG d   1      10.262   4.402  -5.876  0.00  0.00     0.237 C 
ATOM      4  O   LIG d   1      10.905   3.801  -6.710  0.00  0.00    -0.274 OA
ATOM      5  N   LIG d   1       9.858   5.674  -6.100  0.00  0.00    -0.306 N 
ATOM      6  C   LIG d   1       9.072   6.360  -5.064  0.00  0.00     0.070 C 
ATOM      7  C   LIG d   1       9.669   6.022  -3.712  0.00  0.00     0.131 A 
ATOM      8  N   LIG d   1      10.066   4.734  -3.490  0.00  0.00    -0.282 N 
ATOM      9  C   LIG d   1      10.605   4.365  -2.310  0.00  0.00     0.263 A 
ATOM     10  O   LIG d   1      10.959   3.218  -2.107  0.00  0.00    -0.267 OA
ATOM     11  C   LIG d   1      10.750   5.402  -1.278  0.00  0.00     0.065 A 
ATOM     12  C   LIG d   1      11.299   5.128  -0.026  0.00  0.00    -0.047 A 
ATOM     13  C   LIG d   1      11.410   6.139   0.903  0.00  0.00    -0.061 A 
ATOM     14  C   LIG d   1      10.981   7.425   0.600  0.00  0.00    -0.060 A 
ATOM     15  C   LIG d   1      10.437   7.717  -0.630  0.00  0.00    -0.035 A 
ATOM     16  C   LIG d   1      10.315   6.709  -1.589  0.00  0.00     0.078 A 
ATOM     17  N   LIG d   1       9.786   6.955  -2.816  0.00  0.00    -0.232 NA
ATOM     18  H   LIG d   1      10.081   6.125  -6.929  0.00  0.00     0.149 HD
ATOM     19  H   LIG d   1       9.113   7.437  -5.224  0.00  0.00     0.054 H 
ATOM     20  H   LIG d   1       8.037   6.021  -5.102  0.00  0.00     0.054 H 
ATOM     21  H   LIG d   1      11.634   4.129   0.213  0.00  0.00     0.063 H 
ATOM     22  H   LIG d   1      11.835   5.930   1.873  0.00  0.00     0.062 H 
ATOM     23  H   LIG d   1      11.075   8.206   1.341  0.00  0.00     0.062 H 
ATOM     24  H   LIG d   1      10.107   8.721  -0.852  0.00  0.00     0.064 H 
ENDROOT
BRANCH   1  25
ATOM     25  C   LIG d   1       8.438   3.281  -4.609  0.00  0.00     0.004 C 
ATOM     26  H   LIG d   1       7.989   3.584  -5.556  0.00  0.00     0.034 H 
ATOM     27  H   LIG d   1       7.886   3.733  -3.785  0.00  0.00     0.034 H 
BRANCH  25  28
ATOM     28  C   LIG d   1       8.386   1.779  -4.488  0.00  0.00    -0.020 A 
ATOM     29  C   LIG d   1       7.318   0.993  -3.867  0.00  0.00     0.003 A 
ATOM     30  C   LIG d   1       7.705  -0.354  -3.991  0.00  0.00     0.047 A 
ATOM     31  C   LIG d   1       6.113   1.316  -3.240  0.00  0.00    -0.052 A 
ATOM     32  C   LIG d   1       6.877  -1.351  -3.486  0.00  0.00    -0.038 A 
ATOM     33  N   LIG d   1       8.919  -0.370  -4.641  0.00  0.00    -0.360 N 
ATOM     34  C   LIG d   1       5.693  -1.009  -2.871  0.00  0.00    -0.060 A 
ATOM     35  H   LIG d   1       7.162  -2.389  -3.573  0.00  0.00     0.064 H 
ATOM     36  C   LIG d   1       5.315   0.322  -2.750  0.00  0.00    -0.061 A 
ATOM     37  H   LIG d   1       5.051  -1.785  -2.479  0.00  0.00     0.062 H 
ATOM     38  H   LIG d   1       4.381   0.571  -2.270  0.00  0.00     0.062 H 
ATOM     39  C   LIG d   1       9.309   0.910  -4.929  0.00  0.00     0.006 A 
ATOM     40  H   LIG d   1       9.422  -1.168  -4.862  0.00  0.00     0.165 HD
ATOM     41  H   LIG d   1      10.224   1.180  -5.436  0.00  0.00     0.081 H 
ATOM     42  H   LIG d   1       5.813   2.349  -3.143  0.00  0.00     0.062 H 
ENDBRANCH  25  28
ENDBRANCH   1  25
TORSDOF 2
ENDMDL
MODEL 10
REMARK VINA RESULT:      -6.7      3.287      4.884
REMARK  2 active torsions:
REMARK  status: ('A' for Active; 'I' for Inactive)
REMARK    1  A    between atoms: C_7  and  C_11 
REMARK    2  A    between atoms: C_11  and  C_12 
ROOT
ATOM      1  C   LIG d   1       8.401  -1.005  -6.050  0.00  0.00     0.119 C 
ATOM      2  H   LIG d   1       8.107  -0.463  -6.949  0.00  0.00     0.063 H 
ATOM      3  C   LIG d   1       8.954  -2.360  -6.431  0.00  0.00     0.237 C 
ATOM      4  O   LIG d   1       9.340  -2.576  -7.561  0.00  0.00    -0.274 OA
ATOM      5  N   LIG d   1       9.010  -3.327  -5.486  0.00  0.00    -0.306 N 
ATOM      6  C   LIG d   1       8.539  -3.017  -4.128  0.00  0.00     0.070 C 
ATOM      7  C   LIG d   1       7.272  -2.192  -4.240  0.00  0.00     0.131 A 
ATOM      8  N   LIG d   1       7.228  -1.212  -5.190  0.00  0.00    -0.282 N 
ATOM      9  C   LIG d   1       6.131  -0.440  -5.344  0.00  0.00     0.263 A 
ATOM     10  O   LIG d   1       6.087   0.435  -6.189  0.00  0.00    -0.267 OA
ATOM     11  C   LIG d   1       4.991  -0.699  -4.453  0.00  0.00     0.065 A 
ATOM     12  C   LIG d   1       3.809   0.036  -4.531  0.00  0.00    -0.047 A 
ATOM     13  C   LIG d   1       2.773  -0.249  -3.669  0.00  0.00    -0.061 A 
ATOM     14  C   LIG d   1       2.898  -1.263  -2.728  0.00  0.00    -0.060 A 
ATOM     15  C   LIG d   1       4.055  -2.002  -2.635  0.00  0.00    -0.035 A 
ATOM     16  C   LIG d   1       5.120  -1.731  -3.497  0.00  0.00     0.078 A 
ATOM     17  N   LIG d   1       6.278  -2.438  -3.440  0.00  0.00    -0.232 NA
ATOM     18  H   LIG d   1       9.354  -4.208  -5.699  0.00  0.00     0.149 HD
ATOM     19  H   LIG d   1       8.328  -3.942  -3.592  0.00  0.00     0.054 H 
ATOM     20  H   LIG d   1       9.301  -2.448  -3.596  0.00  0.00     0.054 H 
ATOM     21  H   LIG d   1       3.709   0.826  -5.262  0.00  0.00     0.063 H 
ATOM     22  H   LIG d   1       1.857   0.319  -3.728  0.00  0.00     0.062 H 
ATOM     23  H   LIG d   1       2.075  -1.472  -2.060  0.00  0.00     0.062 H 
ATOM     24  H   LIG d   1       4.139  -2.786  -1.898  0.00  0.00     0.064 H 
ENDROOT
BRANCH   1  25
ATOM     25  C   LIG d   1       9.463  -0.209  -5.290  0.00  0.00     0.004 C 
ATOM     26  H   LIG d   1      10.448  -0.628  -5.497  0.00  0.00     0.034 H 
ATOM     27  H   LIG d   1       9.263  -0.264  -4.221  0.00  0.00     0.034 H 
BRANCH  25  28
ATOM     28  C   LIG d   1       9.427   1.230  -5.737  0.00  0.00    -0.020 A 
ATOM     29  C   LIG d   1       9.550   2.411  -4.879  0.00  0.00     0.003 A 
ATOM     30  C   LIG d   1       9.460   3.524  -5.735  0.00  0.00     0.047 A 
ATOM     31  C   LIG d   1       9.722   2.600  -3.507  0.00  0.00    -0.052 A 
ATOM     32  C   LIG d   1       9.544   4.805  -5.200  0.00  0.00    -0.038 A 
ATOM     33  N   LIG d   1       9.295   3.040  -7.014  0.00  0.00    -0.360 N 
ATOM     34  C   LIG d   1       9.714   4.968  -3.842  0.00  0.00    -0.060 A 
ATOM     35  H   LIG d   1       9.476   5.668  -5.845  0.00  0.00     0.064 H 
ATOM     36  C   LIG d   1       9.802   3.867  -3.001  0.00  0.00    -0.061 A 
ATOM     37  H   LIG d   1       9.779   5.964  -3.428  0.00  0.00     0.062 H 
ATOM     38  H   LIG d   1       9.940   4.013  -1.941  0.00  0.00     0.062 H 
ATOM     39  C   LIG d   1       9.278   1.672  -6.995  0.00  0.00     0.006 A 
ATOM     40  H   LIG d   1       9.205   3.588  -7.809  0.00  0.00     0.165 HD
ATOM     41  H   LIG d   1       9.161   1.042  -7.865  0.00  0.00     0.081 H 
ATOM     42  H   LIG d   1       9.792   1.748  -2.847  0.00  0.00     0.062 H 
ENDBRANCH  25  28
ENDBRANCH   1  25
TORSDOF 2
ENDMDL
