MODEL 1
REMARK VINA RESULT:      -7.8      0.000      0.000
REMARK  6 active torsions:
REMARK  status: ('A' for Active; 'I' for Inactive)
REMARK    1  A    between atoms: C_1  and  C_2 
REMARK    2  A    between atoms: C_19  and  C_21 
REMARK    3  A    between atoms: C_21  and  N_22 
REMARK    4  A    between atoms: N_25  and  C_28 
REMARK    5  A    between atoms: C_28  and  C_30 
REMARK    6  A    between atoms: C_28  and  C_36 
ROOT
ATOM      1  N   LIG d   1       8.950   2.283  -4.789  0.00  0.00    -0.299 N 
ATOM      2  C   LIG d   1       7.869   2.098  -3.812  0.00  0.00     0.012 C 
ATOM      3  C   LIG d   1       6.943   0.975  -4.287  0.00  0.00     0.013 C 
ATOM      4  N   LIG d   1       7.719  -0.262  -4.450  0.00  0.00    -0.289 N 
ATOM      5  C   LIG d   1       8.800  -0.076  -5.426  0.00  0.00     0.013 C 
ATOM      6  C   LIG d   1       9.727   1.046  -4.952  0.00  0.00     0.012 C 
ATOM      7  H   LIG d   1       8.299   1.831  -2.835  0.00  0.00     0.044 H 
ATOM      8  H   LIG d   1       7.296   3.032  -3.717  0.00  0.00     0.044 H 
ATOM      9  H   LIG d   1       6.148   0.816  -3.543  0.00  0.00     0.044 H 
ATOM     10  H   LIG d   1       6.491   1.256  -5.250  0.00  0.00     0.044 H 
ATOM     11  H   LIG d   1       9.374  -1.010  -5.521  0.00  0.00     0.044 H 
ATOM     12  H   LIG d   1       8.371   0.191  -6.404  0.00  0.00     0.044 H 
ATOM     13  H   LIG d   1      10.521   1.207  -5.696  0.00  0.00     0.044 H 
ATOM     14  H   LIG d   1      10.179   0.768  -3.988  0.00  0.00     0.044 H 
ENDROOT
BRANCH   1  15
ATOM     15  C   LIG d   1       9.819   3.404  -4.406  0.00  0.00     0.012 C 
ATOM     16  H   LIG d   1      10.873   3.104  -4.511  0.00  0.00     0.043 H 
ATOM     17  H   LIG d   1       9.619   3.682  -3.361  0.00  0.00     0.043 H 
BRANCH  15  18
ATOM     18  C   LIG d   1       9.537   4.602  -5.316  0.00  0.00     0.075 C 
ATOM     19  C   LIG d   1       9.169   5.856  -4.467  0.00  0.00     0.011 C 
ATOM     20  C   LIG d   1       9.798   5.646  -3.088  0.00  0.00    -0.039 C 
ATOM     21  H   LIG d   1       8.105   6.086  -4.306  0.00  0.00     0.035 H 
ATOM     22  C   LIG d   1       9.922   6.939  -5.262  0.00  0.00     0.107 C 
ATOM     23  C   LIG d   1       9.908   6.973  -2.342  0.00  0.00    -0.014 C 
ATOM     24  H   LIG d   1      10.801   5.214  -3.215  0.00  0.00     0.028 H 
ATOM     25  H   LIG d   1       9.170   4.952  -2.511  0.00  0.00     0.028 H 
ATOM     26  C   LIG d   1      10.850   7.889  -3.135  0.00  0.00    -0.022 C 
ATOM     27  C   LIG d   1      10.505   6.750  -0.972  0.00  0.00    -0.073 C 
ATOM     28  H   LIG d   1       8.908   7.415  -2.223  0.00  0.00     0.035 H 
ATOM     29  C   LIG d   1      10.182   8.201  -4.474  0.00  0.00    -0.009 C 
ATOM     30  C   LIG d   1      11.080   9.178  -2.347  0.00  0.00    -0.047 C 
ATOM     31  H   LIG d   1       9.222   8.706  -4.296  0.00  0.00     0.031 H 
ATOM     32  H   LIG d   1      10.837   8.856  -5.067  0.00  0.00     0.031 H 
ATOM     33  C   LIG d   1      11.802   8.860  -1.032  0.00  0.00    -0.049 C 
ATOM     34  H   LIG d   1      11.696   9.868  -2.942  0.00  0.00     0.027 H 
ATOM     35  H   LIG d   1      10.111   9.650  -2.126  0.00  0.00     0.027 H 
ATOM     36  C   LIG d   1      10.910   7.964  -0.166  0.00  0.00    -0.032 C 
ATOM     37  H   LIG d   1      12.745   8.338  -1.249  0.00  0.00     0.027 H 
ATOM     38  H   LIG d   1      12.015   9.795  -0.495  0.00  0.00     0.027 H 
ATOM     39  H   LIG d   1      11.467   7.649   0.730  0.00  0.00     0.031 H 
ATOM     40  H   LIG d   1      10.013   8.524   0.140  0.00  0.00     0.031 H 
ATOM     41  C   LIG d   1      10.668   5.540  -0.496  0.00  0.00    -0.099 C 
ATOM     42  H   LIG d   1      10.369   4.668  -1.097  0.00  0.00     0.053 H 
ATOM     43  H   LIG d   1      11.105   5.396   0.503  0.00  0.00     0.053 H 
ATOM     44  H   LIG d   1       9.374   7.314  -6.139  0.00  0.00     0.074 H 
ATOM     45  O   LIG d   1      11.142   6.265  -5.685  0.00  0.00    -0.461 OA
ATOM     46  C   LIG d   1      10.795   5.013  -6.058  0.00  0.00     0.312 C 
ATOM     47  O   LIG d   1      11.392   4.329  -6.856  0.00  0.00    -0.251 OA
ATOM     48  H   LIG d   1       8.742   4.284  -6.006  0.00  0.00     0.043 H 
BRANCH  26  49
ATOM     49  C   LIG d   1      12.187   7.181  -3.364  0.00  0.00    -0.059 C 
ATOM     50  H   LIG d   1      12.658   6.966  -2.393  0.00  0.00     0.024 H 
ATOM     51  H   LIG d   1      12.848   7.830  -3.956  0.00  0.00     0.024 H 
ATOM     52  H   LIG d   1      12.015   6.240  -3.905  0.00  0.00     0.024 H 
ENDBRANCH  26  49
ENDBRANCH  15  18
ENDBRANCH   1  15
BRANCH   4  53
ATOM     53  C   LIG d   1       6.850  -1.382  -4.832  0.00  0.00     0.061 C 
ATOM     54  H   LIG d   1       6.664  -1.317  -5.915  0.00  0.00     0.056 H 
BRANCH  53  55
ATOM     55  C   LIG d   1       5.551  -1.291  -4.076  0.00  0.00    -0.026 A 
ATOM     56  C   LIG d   1       4.392  -0.919  -4.733  0.00  0.00    -0.057 A 
ATOM     57  C   LIG d   1       3.200  -0.836  -4.039  0.00  0.00    -0.061 A 
ATOM     58  H   LIG d   1       4.419  -0.693  -5.789  0.00  0.00     0.062 H 
ATOM     59  C   LIG d   1       3.166  -1.124  -2.687  0.00  0.00    -0.062 A 
ATOM     60  H   LIG d   1       2.296  -0.545  -4.552  0.00  0.00     0.062 H 
ATOM     61  C   LIG d   1       4.322  -1.496  -2.030  0.00  0.00    -0.061 A 
ATOM     62  H   LIG d   1       2.233  -1.058  -2.145  0.00  0.00     0.062 H 
ATOM     63  C   LIG d   1       5.514  -1.585  -2.725  0.00  0.00    -0.057 A 
ATOM     64  H   LIG d   1       4.296  -1.722  -0.974  0.00  0.00     0.062 H 
ATOM     65  H   LIG d   1       6.418  -1.880  -2.213  0.00  0.00     0.062 H 
ENDBRANCH  53  55
BRANCH  53  66
ATOM     66  C   LIG d   1       7.535  -2.683  -4.501  0.00  0.00    -0.026 A 
ATOM     67  C   LIG d   1       8.442  -2.741  -3.458  0.00  0.00    -0.055 A 
ATOM     68  C   LIG d   1       9.070  -3.933  -3.155  0.00  0.00    -0.043 A 
ATOM     69  H   LIG d   1       8.658  -1.853  -2.881  0.00  0.00     0.062 H 
ATOM     70  C   LIG d   1       8.793  -5.070  -3.893  0.00  0.00     0.041 A 
ATOM     71  H   LIG d   1       9.779  -3.978  -2.340  0.00  0.00     0.063 H 
ATOM     72  C   LIG d   1       7.886  -5.011  -4.937  0.00  0.00    -0.043 A 
ATOM     73 CL   LIG d   1       9.584  -6.567  -3.513  0.00  0.00    -0.084 Cl
ATOM     74  C   LIG d   1       7.254  -3.819  -5.236  0.00  0.00    -0.055 A 
ATOM     75  H   LIG d   1       7.669  -5.898  -5.514  0.00  0.00     0.063 H 
ATOM     76  H   LIG d   1       6.542  -3.775  -6.048  0.00  0.00     0.062 H 
ENDBRANCH  53  66
ENDBRANCH   4  53
TORSDOF 6
ENDMDL
MODEL 2
REMARK VINA RESULT:      -7.6      6.333     11.736
REMARK  6 active torsions:
REMARK  status: ('A' for Active; 'I' for Inactive)
REMARK    1  A    between atoms: C_1  and  C_2 
REMARK    2  A    between atoms: C_19  and  C_21 
REMARK    3  A    between atoms: C_21  and  N_22 
REMARK    4  A    between atoms: N_25  and  C_28 
REMARK    5  A    between atoms: C_28  and  C_30 
REMARK    6  A    between atoms: C_28  and  C_36 
ROOT
ATOM      1  N   LIG d   1       8.520  -5.441  -4.786  0.00  0.00    -0.299 N 
ATOM      2  C   LIG d   1       8.863  -4.560  -3.660  0.00  0.00     0.012 C 
ATOM      3  C   LIG d   1       8.631  -3.102  -4.069  0.00  0.00     0.013 C 
ATOM      4  N   LIG d   1       7.228  -2.924  -4.466  0.00  0.00    -0.289 N 
ATOM      5  C   LIG d   1       6.886  -3.805  -5.591  0.00  0.00     0.013 C 
ATOM      6  C   LIG d   1       7.117  -5.262  -5.183  0.00  0.00     0.012 C 
ATOM      7  H   LIG d   1       8.226  -4.804  -2.797  0.00  0.00     0.044 H 
ATOM      8  H   LIG d   1       9.918  -4.703  -3.390  0.00  0.00     0.044 H 
ATOM      9  H   LIG d   1       8.860  -2.443  -3.218  0.00  0.00     0.044 H 
ATOM     10  H   LIG d   1       9.289  -2.850  -4.914  0.00  0.00     0.044 H 
ATOM     11  H   LIG d   1       5.830  -3.662  -5.861  0.00  0.00     0.044 H 
ATOM     12  H   LIG d   1       7.522  -3.560  -6.455  0.00  0.00     0.044 H 
ATOM     13  H   LIG d   1       6.890  -5.922  -6.033  0.00  0.00     0.044 H 
ATOM     14  H   LIG d   1       6.461  -5.516  -4.337  0.00  0.00     0.044 H 
ENDROOT
BRANCH   1  15
ATOM     15  C   LIG d   1       8.801  -6.845  -4.458  0.00  0.00     0.012 C 
ATOM     16  H   LIG d   1       9.159  -7.367  -5.358  0.00  0.00     0.043 H 
ATOM     17  H   LIG d   1       7.881  -7.327  -4.096  0.00  0.00     0.043 H 
BRANCH  15  18
ATOM     18  C   LIG d   1       9.874  -6.911  -3.370  0.00  0.00     0.075 C 
ATOM     19  C   LIG d   1       9.302  -7.571  -2.080  0.00  0.00     0.011 C 
ATOM     20  C   LIG d   1       8.133  -8.451  -2.525  0.00  0.00    -0.039 C 
ATOM     21  H   LIG d   1       8.929  -6.917  -1.277  0.00  0.00     0.035 H 
ATOM     22  C   LIG d   1      10.514  -8.427  -1.665  0.00  0.00     0.107 C 
ATOM     23  C   LIG d   1       7.801  -9.485  -1.452  0.00  0.00    -0.014 C 
ATOM     24  H   LIG d   1       8.408  -8.966  -3.457  0.00  0.00     0.028 H 
ATOM     25  H   LIG d   1       7.254  -7.814  -2.704  0.00  0.00     0.028 H 
ATOM     26  C   LIG d   1       9.019 -10.403  -1.282  0.00  0.00    -0.022 C 
ATOM     27  C   LIG d   1       6.628 -10.330  -1.891  0.00  0.00    -0.073 C 
ATOM     28  H   LIG d   1       7.536  -8.975  -0.515  0.00  0.00     0.035 H 
ATOM     29  C   LIG d   1      10.167  -9.560  -0.729  0.00  0.00    -0.009 C 
ATOM     30  C   LIG d   1       8.671 -11.526  -0.306  0.00  0.00    -0.047 C 
ATOM     31  H   LIG d   1       9.875  -9.133   0.242  0.00  0.00     0.031 H 
ATOM     32  H   LIG d   1      11.058 -10.192  -0.599  0.00  0.00     0.031 H 
ATOM     33  C   LIG d   1       7.558 -12.400  -0.898  0.00  0.00    -0.049 C 
ATOM     34  H   LIG d   1       9.561 -12.145  -0.126  0.00  0.00     0.027 H 
ATOM     35  H   LIG d   1       8.327 -11.092   0.644  0.00  0.00     0.027 H 
ATOM     36  C   LIG d   1       6.290 -11.558  -1.074  0.00  0.00    -0.032 C 
ATOM     37  H   LIG d   1       7.878 -12.790  -1.875  0.00  0.00     0.027 H 
ATOM     38  H   LIG d   1       7.349 -13.238  -0.218  0.00  0.00     0.027 H 
ATOM     39  H   LIG d   1       5.524 -12.153  -1.595  0.00  0.00     0.031 H 
ATOM     40  H   LIG d   1       5.909 -11.256  -0.087  0.00  0.00     0.031 H 
ATOM     41  C   LIG d   1       5.923 -10.009  -2.949  0.00  0.00    -0.099 C 
ATOM     42  H   LIG d   1       6.184  -9.113  -3.531  0.00  0.00     0.053 H 
ATOM     43  H   LIG d   1       5.073 -10.636  -3.254  0.00  0.00     0.053 H 
ATOM     44  H   LIG d   1      11.280  -7.876  -1.100  0.00  0.00     0.074 H 
ATOM     45  O   LIG d   1      11.062  -8.880  -2.937  0.00  0.00    -0.461 OA
ATOM     46  C   LIG d   1      11.001  -7.835  -3.791  0.00  0.00     0.312 C 
ATOM     47  O   LIG d   1      11.730  -7.663  -4.740  0.00  0.00    -0.251 OA
ATOM     48  H   LIG d   1      10.226  -5.879  -3.222  0.00  0.00     0.043 H 
BRANCH  26  49
ATOM     49  C   LIG d   1       9.408 -11.001  -2.636  0.00  0.00    -0.059 C 
ATOM     50  H   LIG d   1       9.407 -12.098  -2.566  0.00  0.00     0.024 H 
ATOM     51  H   LIG d   1      10.413 -10.653  -2.915  0.00  0.00     0.024 H 
ATOM     52  H   LIG d   1       8.683 -10.681  -3.399  0.00  0.00     0.024 H 
ENDBRANCH  26  49
ENDBRANCH  15  18
ENDBRANCH   1  15
BRANCH   4  53
ATOM     53  C   LIG d   1       6.948  -1.519  -4.793  0.00  0.00     0.061 C 
ATOM     54  H   LIG d   1       7.907  -0.983  -4.843  0.00  0.00     0.056 H 
BRANCH  53  55
ATOM     55  C   LIG d   1       6.073  -0.919  -3.724  0.00  0.00    -0.026 A 
ATOM     56  C   LIG d   1       6.041   0.452  -3.546  0.00  0.00    -0.057 A 
ATOM     57  C   LIG d   1       5.237   1.002  -2.565  0.00  0.00    -0.061 A 
ATOM     58  H   LIG d   1       6.643   1.092  -4.172  0.00  0.00     0.062 H 
ATOM     59  C   LIG d   1       4.466   0.182  -1.762  0.00  0.00    -0.062 A 
ATOM     60  H   LIG d   1       5.212   2.073  -2.425  0.00  0.00     0.062 H 
ATOM     61  C   LIG d   1       4.498  -1.187  -1.940  0.00  0.00    -0.061 A 
ATOM     62  H   LIG d   1       3.839   0.613  -0.995  0.00  0.00     0.062 H 
ATOM     63  C   LIG d   1       5.297  -1.738  -2.924  0.00  0.00    -0.057 A 
ATOM     64  H   LIG d   1       3.897  -1.828  -1.312  0.00  0.00     0.062 H 
ATOM     65  H   LIG d   1       5.320  -2.809  -3.066  0.00  0.00     0.062 H 
ENDBRANCH  53  55
BRANCH  53  66
ATOM     66  C   LIG d   1       6.242  -1.445  -6.122  0.00  0.00    -0.026 A 
ATOM     67  C   LIG d   1       4.880  -1.681  -6.194  0.00  0.00    -0.055 A 
ATOM     68  C   LIG d   1       4.233  -1.613  -7.413  0.00  0.00    -0.043 A 
ATOM     69  H   LIG d   1       4.325  -1.918  -5.299  0.00  0.00     0.062 H 
ATOM     70  C   LIG d   1       4.944  -1.310  -8.560  0.00  0.00     0.041 A 
ATOM     71  H   LIG d   1       3.169  -1.798  -7.470  0.00  0.00     0.063 H 
ATOM     72  C   LIG d   1       6.306  -1.074  -8.486  0.00  0.00    -0.043 A 
ATOM     73 CL   LIG d   1       4.130  -1.227 -10.091  0.00  0.00    -0.084 Cl
ATOM     74  C   LIG d   1       6.952  -1.137  -7.266  0.00  0.00    -0.055 A 
ATOM     75  H   LIG d   1       6.862  -0.838  -9.381  0.00  0.00     0.063 H 
ATOM     76  H   LIG d   1       8.014  -0.948  -7.208  0.00  0.00     0.062 H 
ENDBRANCH  53  66
ENDBRANCH   4  53
TORSDOF 6
ENDMDL
MODEL 3
REMARK VINA RESULT:      -7.5      3.753      9.905
REMARK  6 active torsions:
REMARK  status: ('A' for Active; 'I' for Inactive)
REMARK    1  A    between atoms: C_1  and  C_2 
REMARK    2  A    between atoms: C_19  and  C_21 
REMARK    3  A    between atoms: C_21  and  N_22 
REMARK    4  A    between atoms: N_25  and  C_28 
REMARK    5  A    between atoms: C_28  and  C_30 
REMARK    6  A    between atoms: C_28  and  C_36 
ROOT
ATOM      1  N   LIG d   1       9.309   2.818  -5.431  0.00  0.00    -0.299 N 
ATOM      2  C   LIG d   1       8.994   3.353  -4.099  0.00  0.00     0.012 C 
ATOM      3  C   LIG d   1      10.166   4.206  -3.606  0.00  0.00     0.013 C 
ATOM      4  N   LIG d   1      10.415   5.293  -4.563  0.00  0.00    -0.289 N 
ATOM      5  C   LIG d   1      10.730   4.758  -5.893  0.00  0.00     0.013 C 
ATOM      6  C   LIG d   1       9.558   3.905  -6.388  0.00  0.00     0.012 C 
ATOM      7  H   LIG d   1       8.088   3.974  -4.159  0.00  0.00     0.044 H 
ATOM      8  H   LIG d   1       8.824   2.522  -3.400  0.00  0.00     0.044 H 
ATOM      9  H   LIG d   1       9.920   4.631  -2.621  0.00  0.00     0.044 H 
ATOM     10  H   LIG d   1      11.065   3.579  -3.519  0.00  0.00     0.044 H 
ATOM     11  H   LIG d   1      10.899   5.589  -6.593  0.00  0.00     0.044 H 
ATOM     12  H   LIG d   1      11.637   4.137  -5.835  0.00  0.00     0.044 H 
ATOM     13  H   LIG d   1       9.804   3.478  -7.372  0.00  0.00     0.044 H 
ATOM     14  H   LIG d   1       8.658   4.531  -6.474  0.00  0.00     0.044 H 
ENDROOT
BRANCH   1  15
ATOM     15  C   LIG d   1       8.239   1.931  -5.908  0.00  0.00     0.012 C 
ATOM     16  H   LIG d   1       7.923   2.246  -6.913  0.00  0.00     0.043 H 
ATOM     17  H   LIG d   1       7.384   1.987  -5.220  0.00  0.00     0.043 H 
BRANCH  15  18
ATOM     18  C   LIG d   1       8.756   0.492  -5.964  0.00  0.00     0.075 C 
ATOM     19  C   LIG d   1       8.327  -0.292  -4.687  0.00  0.00     0.011 C 
ATOM     20  C   LIG d   1       7.077   0.408  -4.150  0.00  0.00    -0.039 C 
ATOM     21  H   LIG d   1       9.041  -0.366  -3.853  0.00  0.00     0.035 H 
ATOM     22  C   LIG d   1       7.974  -1.650  -5.321  0.00  0.00     0.107 C 
ATOM     23  C   LIG d   1       6.310  -0.516  -3.207  0.00  0.00    -0.014 C 
ATOM     24  H   LIG d   1       6.431   0.685  -4.996  0.00  0.00     0.028 H 
ATOM     25  H   LIG d   1       7.380   1.315  -3.607  0.00  0.00     0.028 H 
ATOM     26  C   LIG d   1       5.837  -1.734  -4.012  0.00  0.00    -0.022 C 
ATOM     27  C   LIG d   1       5.093   0.194  -2.661  0.00  0.00    -0.073 C 
ATOM     28  H   LIG d   1       6.956  -0.805  -2.365  0.00  0.00     0.035 H 
ATOM     29  C   LIG d   1       7.076  -2.507  -4.462  0.00  0.00    -0.009 C 
ATOM     30  C   LIG d   1       4.958  -2.614  -3.125  0.00  0.00    -0.047 C 
ATOM     31  H   LIG d   1       7.645  -2.834  -3.579  0.00  0.00     0.031 H 
ATOM     32  H   LIG d   1       6.768  -3.387  -5.046  0.00  0.00     0.031 H 
ATOM     33  C   LIG d   1       3.691  -1.847  -2.727  0.00  0.00    -0.049 C 
ATOM     34  H   LIG d   1       4.675  -3.523  -3.674  0.00  0.00     0.027 H 
ATOM     35  H   LIG d   1       5.515  -2.892  -2.218  0.00  0.00     0.027 H 
ATOM     36  C   LIG d   1       4.078  -0.623  -1.892  0.00  0.00    -0.032 C 
ATOM     37  H   LIG d   1       3.161  -1.520  -3.634  0.00  0.00     0.027 H 
ATOM     38  H   LIG d   1       3.036  -2.502  -2.136  0.00  0.00     0.027 H 
ATOM     39  H   LIG d   1       3.182  -0.015  -1.695  0.00  0.00     0.031 H 
ATOM     40  H   LIG d   1       4.513  -0.952  -0.936  0.00  0.00     0.031 H 
ATOM     41  C   LIG d   1       4.921   1.480  -2.849  0.00  0.00    -0.099 C 
ATOM     42  H   LIG d   1       5.669   2.057  -3.412  0.00  0.00     0.053 H 
ATOM     43  H   LIG d   1       4.029   1.980  -2.446  0.00  0.00     0.053 H 
ATOM     44  H   LIG d   1       8.841  -2.306  -5.488  0.00  0.00     0.074 H 
ATOM     45  O   LIG d   1       7.371  -1.285  -6.596  0.00  0.00    -0.461 OA
ATOM     46  C   LIG d   1       8.098  -0.264  -7.102  0.00  0.00     0.312 C 
ATOM     47  O   LIG d   1       8.208   0.002  -8.276  0.00  0.00    -0.251 OA
ATOM     48  H   LIG d   1       9.846   0.561  -6.096  0.00  0.00     0.043 H 
BRANCH  26  49
ATOM     49  C   LIG d   1       5.035  -1.267  -5.229  0.00  0.00    -0.059 C 
ATOM     50  H   LIG d   1       4.021  -0.983  -4.913  0.00  0.00     0.024 H 
ATOM     51  H   LIG d   1       4.974  -2.085  -5.962  0.00  0.00     0.024 H 
ATOM     52  H   LIG d   1       5.534  -0.401  -5.686  0.00  0.00     0.024 H 
ENDBRANCH  26  49
ENDBRANCH  15  18
ENDBRANCH   1  15
BRANCH   4  53
ATOM     53  C   LIG d   1      11.484   6.180  -4.084  0.00  0.00     0.061 C 
ATOM     54  H   LIG d   1      12.433   5.841  -4.527  0.00  0.00     0.056 H 
BRANCH  53  55
ATOM     55  C   LIG d   1      11.559   6.113  -2.582  0.00  0.00    -0.026 A 
ATOM     56  C   LIG d   1      12.692   5.612  -1.967  0.00  0.00    -0.057 A 
ATOM     57  C   LIG d   1      12.760   5.551  -0.588  0.00  0.00    -0.061 A 
ATOM     58  H   LIG d   1      13.523   5.269  -2.565  0.00  0.00     0.062 H 
ATOM     59  C   LIG d   1      11.696   5.990   0.177  0.00  0.00    -0.062 A 
ATOM     60  H   LIG d   1      13.645   5.160  -0.108  0.00  0.00     0.062 H 
ATOM     61  C   LIG d   1      10.564   6.491  -0.437  0.00  0.00    -0.061 A 
ATOM     62  H   LIG d   1      11.750   5.941   1.255  0.00  0.00     0.062 H 
ATOM     63  C   LIG d   1      10.497   6.557  -1.815  0.00  0.00    -0.057 A 
ATOM     64  H   LIG d   1       9.732   6.833   0.161  0.00  0.00     0.062 H 
ATOM     65  H   LIG d   1       9.614   6.952  -2.296  0.00  0.00     0.062 H 
ENDBRANCH  53  55
BRANCH  53  66
ATOM     66  C   LIG d   1      11.190   7.595  -4.511  0.00  0.00    -0.026 A 
ATOM     67  C   LIG d   1      12.180   8.559  -4.439  0.00  0.00    -0.055 A 
ATOM     68  C   LIG d   1      11.910   9.856  -4.829  0.00  0.00    -0.043 A 
ATOM     69  H   LIG d   1      13.163   8.296  -4.077  0.00  0.00     0.062 H 
ATOM     70  C   LIG d   1      10.651  10.193  -5.292  0.00  0.00     0.041 A 
ATOM     71  H   LIG d   1      12.683  10.609  -4.772  0.00  0.00     0.063 H 
ATOM     72  C   LIG d   1       9.660   9.228  -5.363  0.00  0.00    -0.043 A 
ATOM     73 CL   LIG d   1      10.312  11.823  -5.781  0.00  0.00    -0.084 Cl
ATOM     74  C   LIG d   1       9.933   7.929  -4.977  0.00  0.00    -0.055 A 
ATOM     75  H   LIG d   1       8.677   9.490  -5.724  0.00  0.00     0.063 H 
ATOM     76  H   LIG d   1       9.161   7.175  -5.038  0.00  0.00     0.062 H 
ENDBRANCH  53  66
ENDBRANCH   4  53
TORSDOF 6
ENDMDL
MODEL 4
REMARK VINA RESULT:      -7.2      3.716      9.796
REMARK  6 active torsions:
REMARK  status: ('A' for Active; 'I' for Inactive)
REMARK    1  A    between atoms: C_1  and  C_2 
REMARK    2  A    between atoms: C_19  and  C_21 
REMARK    3  A    between atoms: C_21  and  N_22 
REMARK    4  A    between atoms: N_25  and  C_28 
REMARK    5  A    between atoms: C_28  and  C_30 
REMARK    6  A    between atoms: C_28  and  C_36 
ROOT
ATOM      1  N   LIG d   1       9.192   3.664  -4.623  0.00  0.00    -0.299 N 
ATOM      2  C   LIG d   1      10.351   3.410  -5.491  0.00  0.00     0.012 C 
ATOM      3  C   LIG d   1      11.427   4.465  -5.220  0.00  0.00     0.013 C 
ATOM      4  N   LIG d   1      11.813   4.415  -3.802  0.00  0.00    -0.289 N 
ATOM      5  C   LIG d   1      10.655   4.668  -2.936  0.00  0.00     0.013 C 
ATOM      6  C   LIG d   1       9.578   3.614  -3.206  0.00  0.00     0.012 C 
ATOM      7  H   LIG d   1      10.756   2.410  -5.279  0.00  0.00     0.044 H 
ATOM      8  H   LIG d   1      10.040   3.465  -6.544  0.00  0.00     0.044 H 
ATOM      9  H   LIG d   1      12.307   4.260  -5.848  0.00  0.00     0.044 H 
ATOM     10  H   LIG d   1      11.032   5.463  -5.459  0.00  0.00     0.044 H 
ATOM     11  H   LIG d   1      10.965   4.613  -1.882  0.00  0.00     0.044 H 
ATOM     12  H   LIG d   1      10.250   5.669  -3.147  0.00  0.00     0.044 H 
ATOM     13  H   LIG d   1       8.697   3.818  -2.579  0.00  0.00     0.044 H 
ATOM     14  H   LIG d   1       9.973   2.615  -2.969  0.00  0.00     0.044 H 
ENDROOT
BRANCH   1  15
ATOM     15  C   LIG d   1       8.106   2.716  -4.907  0.00  0.00     0.012 C 
ATOM     16  H   LIG d   1       7.417   3.159  -5.643  0.00  0.00     0.043 H 
ATOM     17  H   LIG d   1       7.559   2.498  -3.979  0.00  0.00     0.043 H 
BRANCH  15  18
ATOM     18  C   LIG d   1       8.692   1.421  -5.472  0.00  0.00     0.075 C 
ATOM     19  C   LIG d   1       8.359   0.219  -4.538  0.00  0.00     0.011 C 
ATOM     20  C   LIG d   1       7.099   0.610  -3.763  0.00  0.00    -0.039 C 
ATOM     21  H   LIG d   1       9.111  -0.094  -3.798  0.00  0.00     0.035 H 
ATOM     22  C   LIG d   1       8.048  -0.855  -5.596  0.00  0.00     0.107 C 
ATOM     23  C   LIG d   1       6.421  -0.629  -3.182  0.00  0.00    -0.014 C 
ATOM     24  H   LIG d   1       6.404   1.121  -4.445  0.00  0.00     0.028 H 
ATOM     25  H   LIG d   1       7.379   1.291  -2.945  0.00  0.00     0.028 H 
ATOM     26  C   LIG d   1       5.977  -1.520  -4.350  0.00  0.00    -0.022 C 
ATOM     27  C   LIG d   1       5.194  -0.229  -2.396  0.00  0.00    -0.073 C 
ATOM     28  H   LIG d   1       7.117  -1.150  -2.508  0.00  0.00     0.035 H 
ATOM     29  C   LIG d   1       7.233  -2.011  -5.068  0.00  0.00    -0.009 C 
ATOM     30  C   LIG d   1       5.183  -2.706  -3.804  0.00  0.00    -0.047 C 
ATOM     31  H   LIG d   1       7.855  -2.587  -4.367  0.00  0.00     0.031 H 
ATOM     32  H   LIG d   1       6.945  -2.653  -5.914  0.00  0.00     0.031 H 
ATOM     33  C   LIG d   1       3.896  -2.205  -3.136  0.00  0.00    -0.049 C 
ATOM     34  H   LIG d   1       4.923  -3.385  -4.629  0.00  0.00     0.027 H 
ATOM     35  H   LIG d   1       5.792  -3.245  -3.063  0.00  0.00     0.027 H 
ATOM     36  C   LIG d   1       4.256  -1.323  -1.936  0.00  0.00    -0.032 C 
ATOM     37  H   LIG d   1       3.312  -1.618  -3.860  0.00  0.00     0.027 H 
ATOM     38  H   LIG d   1       3.301  -3.064  -2.794  0.00  0.00     0.027 H 
ATOM     39  H   LIG d   1       3.340  -0.878  -1.520  0.00  0.00     0.031 H 
ATOM     40  H   LIG d   1       4.748  -1.935  -1.165  0.00  0.00     0.031 H 
ATOM     41  C   LIG d   1       4.949   1.029  -2.122  0.00  0.00    -0.099 C 
ATOM     42  H   LIG d   1       5.642   1.811  -2.466  0.00  0.00     0.053 H 
ATOM     43  H   LIG d   1       4.051   1.302  -1.550  0.00  0.00     0.053 H 
ATOM     44  H   LIG d   1       8.940  -1.357  -6.001  0.00  0.00     0.074 H 
ATOM     45  O   LIG d   1       7.373  -0.111  -6.650  0.00  0.00    -0.461 OA
ATOM     46  C   LIG d   1       8.025   1.065  -6.787  0.00  0.00     0.312 C 
ATOM     47  O   LIG d   1       8.070   1.727  -7.797  0.00  0.00    -0.251 OA
ATOM     48  H   LIG d   1       9.770   1.600  -5.597  0.00  0.00     0.043 H 
BRANCH  26  49
ATOM     49  C   LIG d   1       5.101  -0.713  -5.310  0.00  0.00    -0.059 C 
ATOM     50  H   LIG d   1       4.826  -1.341  -6.171  0.00  0.00     0.024 H 
ATOM     51  H   LIG d   1       5.658   0.167  -5.662  0.00  0.00     0.024 H 
ATOM     52  H   LIG d   1       4.190  -0.387  -4.789  0.00  0.00     0.024 H 
ENDBRANCH  26  49
ENDBRANCH  15  18
ENDBRANCH   1  15
BRANCH   4  53
ATOM     53  C   LIG d   1      12.900   5.362  -3.520  0.00  0.00     0.061 C 
ATOM     54  H   LIG d   1      12.992   6.043  -4.379  0.00  0.00     0.056 H 
BRANCH  53  55
ATOM     55  C   LIG d   1      14.186   4.605  -3.317  0.00  0.00    -0.026 A 
ATOM     56  C   LIG d   1      14.188   3.222  -3.354  0.00  0.00    -0.057 A 
ATOM     57  C   LIG d   1      15.368   2.528  -3.168  0.00  0.00    -0.061 A 
ATOM     58  H   LIG d   1      13.267   2.686  -3.526  0.00  0.00     0.062 H 
ATOM     59  C   LIG d   1      16.547   3.215  -2.946  0.00  0.00    -0.062 A 
ATOM     60  H   LIG d   1      15.369   1.448  -3.196  0.00  0.00     0.062 H 
ATOM     61  C   LIG d   1      16.546   4.596  -2.910  0.00  0.00    -0.061 A 
ATOM     62  H   LIG d   1      17.469   2.671  -2.801  0.00  0.00     0.062 H 
ATOM     63  C   LIG d   1      15.367   5.291  -3.101  0.00  0.00    -0.057 A 
ATOM     64  H   LIG d   1      17.467   5.133  -2.736  0.00  0.00     0.062 H 
ATOM     65  H   LIG d   1      15.366   6.371  -3.077  0.00  0.00     0.062 H 
ENDBRANCH  53  55
BRANCH  53  66
ATOM     66  C   LIG d   1      12.573   6.142  -2.272  0.00  0.00    -0.026 A 
ATOM     67  C   LIG d   1      12.257   7.486  -2.360  0.00  0.00    -0.055 A 
ATOM     68  C   LIG d   1      11.958   8.201  -1.216  0.00  0.00    -0.043 A 
ATOM     69  H   LIG d   1      12.245   7.975  -3.323  0.00  0.00     0.062 H 
ATOM     70  C   LIG d   1      11.974   7.574   0.016  0.00  0.00     0.041 A 
ATOM     71  H   LIG d   1      11.712   9.251  -1.285  0.00  0.00     0.063 H 
ATOM     72  C   LIG d   1      12.291   6.229   0.104  0.00  0.00    -0.043 A 
ATOM     73 CL   LIG d   1      11.600   8.473   1.453  0.00  0.00    -0.084 Cl
ATOM     74  C   LIG d   1      12.586   5.513  -1.041  0.00  0.00    -0.055 A 
ATOM     75  H   LIG d   1      12.305   5.739   1.066  0.00  0.00     0.063 H 
ATOM     76  H   LIG d   1      12.827   4.463  -0.974  0.00  0.00     0.062 H 
ENDBRANCH  53  66
ENDBRANCH   4  53
TORSDOF 6
ENDMDL
MODEL 5
REMARK VINA RESULT:      -7.0      2.963      4.220
REMARK  6 active torsions:
REMARK  status: ('A' for Active; 'I' for Inactive)
REMARK    1  A    between atoms: C_1  and  C_2 
REMARK    2  A    between atoms: C_19  and  C_21 
REMARK    3  A    between atoms: C_21  and  N_22 
REMARK    4  A    between atoms: N_25  and  C_28 
REMARK    5  A    between atoms: C_28  and  C_30 
REMARK    6  A    between atoms: C_28  and  C_36 
ROOT
ATOM      1  N   LIG d   1       9.030   0.658  -7.270  0.00  0.00    -0.299 N 
ATOM      2  C   LIG d   1       7.782   1.125  -6.651  0.00  0.00     0.012 C 
ATOM      3  C   LIG d   1       6.890  -0.079  -6.338  0.00  0.00     0.013 C 
ATOM      4  N   LIG d   1       7.607  -0.998  -5.443  0.00  0.00    -0.289 N 
ATOM      5  C   LIG d   1       8.854  -1.465  -6.062  0.00  0.00     0.013 C 
ATOM      6  C   LIG d   1       9.747  -0.262  -6.375  0.00  0.00     0.012 C 
ATOM      7  H   LIG d   1       8.015   1.662  -5.719  0.00  0.00     0.044 H 
ATOM      8  H   LIG d   1       7.260   1.801  -7.343  0.00  0.00     0.044 H 
ATOM      9  H   LIG d   1       5.967   0.267  -5.847  0.00  0.00     0.044 H 
ATOM     10  H   LIG d   1       6.635  -0.599  -7.272  0.00  0.00     0.044 H 
ATOM     11  H   LIG d   1       9.378  -2.140  -5.370  0.00  0.00     0.044 H 
ATOM     12  H   LIG d   1       8.623  -2.003  -6.994  0.00  0.00     0.044 H 
ATOM     13  H   LIG d   1      10.670  -0.606  -6.866  0.00  0.00     0.044 H 
ATOM     14  H   LIG d   1      10.002   0.260  -5.441  0.00  0.00     0.044 H 
ENDROOT
BRANCH   1  15
ATOM     15  C   LIG d   1       9.883   1.791  -7.655  0.00  0.00     0.012 C 
ATOM     16  H   LIG d   1      10.933   1.552  -7.430  0.00  0.00     0.043 H 
ATOM     17  H   LIG d   1       9.581   2.685  -7.090  0.00  0.00     0.043 H 
BRANCH  15  18
ATOM     18  C   LIG d   1       9.731   2.057  -9.153  0.00  0.00     0.075 C 
ATOM     19  C   LIG d   1       9.148   3.482  -9.397  0.00  0.00     0.011 C 
ATOM     20  C   LIG d   1       9.504   4.313  -8.163  0.00  0.00    -0.039 C 
ATOM     21  H   LIG d   1       8.063   3.584  -9.555  0.00  0.00     0.035 H 
ATOM     22  C   LIG d   1       9.992   3.905 -10.613  0.00  0.00     0.107 C 
ATOM     23  C   LIG d   1       9.406   5.804  -8.474  0.00  0.00    -0.014 C 
ATOM     24  H   LIG d   1      10.531   4.070  -7.853  0.00  0.00     0.028 H 
ATOM     25  H   LIG d   1       8.807   4.062  -7.349  0.00  0.00     0.028 H 
ATOM     26  C   LIG d   1      10.443   6.134  -9.557  0.00  0.00    -0.022 C 
ATOM     27  C   LIG d   1       9.733   6.614  -7.241  0.00  0.00    -0.073 C 
ATOM     28  H   LIG d   1       8.383   6.049  -8.795  0.00  0.00     0.035 H 
ATOM     29  C   LIG d   1      10.036   5.398 -10.833  0.00  0.00    -0.009 C 
ATOM     30  C   LIG d   1      10.456   7.643  -9.798  0.00  0.00    -0.047 C 
ATOM     31  H   LIG d   1       9.038   5.735 -11.148  0.00  0.00     0.031 H 
ATOM     32  H   LIG d   1      10.765   5.614 -11.629  0.00  0.00     0.031 H 
ATOM     33  C   LIG d   1      10.920   8.366  -8.527  0.00  0.00    -0.049 C 
ATOM     34  H   LIG d   1      11.145   7.877 -10.622  0.00  0.00     0.027 H 
ATOM     35  H   LIG d   1       9.442   7.981 -10.059  0.00  0.00     0.027 H 
ATOM     36  C   LIG d   1       9.917   8.107  -7.399  0.00  0.00    -0.032 C 
ATOM     37  H   LIG d   1      11.910   7.989  -8.232  0.00  0.00     0.027 H 
ATOM     38  H   LIG d   1      10.982   9.446  -8.722  0.00  0.00     0.027 H 
ATOM     39  H   LIG d   1      10.302   8.537  -6.461  0.00  0.00     0.031 H 
ATOM     40  H   LIG d   1       8.954   8.577  -7.648  0.00  0.00     0.031 H 
ATOM     41  C   LIG d   1       9.854   6.040  -6.069  0.00  0.00    -0.099 C 
ATOM     42  H   LIG d   1       9.717   4.952  -5.973  0.00  0.00     0.053 H 
ATOM     43  H   LIG d   1      10.093   6.644  -5.182  0.00  0.00     0.053 H 
ATOM     44  H   LIG d   1       9.610   3.534 -11.576  0.00  0.00     0.074 H 
ATOM     45  O   LIG d   1      11.300   3.327 -10.338  0.00  0.00    -0.461 OA
ATOM     46  C   LIG d   1      11.090   2.093  -9.827  0.00  0.00     0.312 C 
ATOM     47  O   LIG d   1      11.861   1.166  -9.896  0.00  0.00    -0.251 OA
ATOM     48  H   LIG d   1       9.101   1.247  -9.548  0.00  0.00     0.043 H 
BRANCH  26  49
ATOM     49  C   LIG d   1      11.829   5.674  -9.100  0.00  0.00    -0.059 C 
ATOM     50  H   LIG d   1      11.756   4.665  -8.668  0.00  0.00     0.024 H 
ATOM     51  H   LIG d   1      12.214   6.370  -8.342  0.00  0.00     0.024 H 
ATOM     52  H   LIG d   1      12.511   5.655  -9.962  0.00  0.00     0.024 H 
ENDBRANCH  26  49
ENDBRANCH  15  18
ENDBRANCH   1  15
BRANCH   4  53
ATOM     53  C   LIG d   1       6.753  -2.130  -5.058  0.00  0.00     0.061 C 
ATOM     54  H   LIG d   1       6.179  -2.441  -5.943  0.00  0.00     0.056 H 
BRANCH  53  55
ATOM     55  C   LIG d   1       5.820  -1.704  -3.956  0.00  0.00    -0.026 A 
ATOM     56  C   LIG d   1       4.780  -2.531  -3.572  0.00  0.00    -0.057 A 
ATOM     57  C   LIG d   1       3.924  -2.140  -2.560  0.00  0.00    -0.061 A 
ATOM     58  H   LIG d   1       4.636  -3.481  -4.063  0.00  0.00     0.062 H 
ATOM     59  C   LIG d   1       4.107  -0.922  -1.931  0.00  0.00    -0.062 A 
ATOM     60  H   LIG d   1       3.111  -2.785  -2.260  0.00  0.00     0.062 H 
ATOM     61  C   LIG d   1       5.146  -0.096  -2.314  0.00  0.00    -0.061 A 
ATOM     62  H   LIG d   1       3.436  -0.616  -1.141  0.00  0.00     0.062 H 
ATOM     63  C   LIG d   1       6.006  -0.488  -3.322  0.00  0.00    -0.057 A 
ATOM     64  H   LIG d   1       5.289   0.856  -1.824  0.00  0.00     0.062 H 
ATOM     65  H   LIG d   1       6.821   0.155  -3.620  0.00  0.00     0.062 H 
ENDBRANCH  53  55
BRANCH  53  66
ATOM     66  C   LIG d   1       7.617  -3.267  -4.575  0.00  0.00    -0.026 A 
ATOM     67  C   LIG d   1       8.453  -3.086  -3.487  0.00  0.00    -0.055 A 
ATOM     68  C   LIG d   1       9.244  -4.128  -3.044  0.00  0.00    -0.043 A 
ATOM     69  H   LIG d   1       8.486  -2.130  -2.985  0.00  0.00     0.062 H 
ATOM     70  C   LIG d   1       9.202  -5.352  -3.688  0.00  0.00     0.041 A 
ATOM     71  H   LIG d   1       9.898  -3.986  -2.195  0.00  0.00     0.063 H 
ATOM     72  C   LIG d   1       8.366  -5.532  -4.776  0.00  0.00    -0.043 A 
ATOM     73 CL   LIG d   1      10.199  -6.660  -3.132  0.00  0.00    -0.084 Cl
ATOM     74  C   LIG d   1       7.571  -4.490  -5.215  0.00  0.00    -0.055 A 
ATOM     75  H   LIG d   1       8.333  -6.487  -5.279  0.00  0.00     0.063 H 
ATOM     76  H   LIG d   1       6.914  -4.633  -6.061  0.00  0.00     0.062 H 
ENDBRANCH  53  66
ENDBRANCH   4  53
TORSDOF 6
ENDMDL
MODEL 6
REMARK VINA RESULT:      -7.0      4.667     10.188
REMARK  6 active torsions:
REMARK  status: ('A' for Active; 'I' for Inactive)
REMARK    1  A    between atoms: C_1  and  C_2 
REMARK    2  A    between atoms: C_19  and  C_21 
REMARK    3  A    between atoms: C_21  and  N_22 
REMARK    4  A    between atoms: N_25  and  C_28 
REMARK    5  A    between atoms: C_28  and  C_30 
REMARK    6  A    between atoms: C_28  and  C_36 
ROOT
ATOM      1  N   LIG d   1       8.878   2.429  -7.143  0.00  0.00    -0.299 N 
ATOM      2  C   LIG d   1       9.434   3.526  -6.338  0.00  0.00     0.012 C 
ATOM      3  C   LIG d   1      10.440   4.313  -7.182  0.00  0.00     0.013 C 
ATOM      4  N   LIG d   1       9.771   4.831  -8.383  0.00  0.00    -0.289 N 
ATOM      5  C   LIG d   1       9.215   3.734  -9.186  0.00  0.00     0.013 C 
ATOM      6  C   LIG d   1       8.208   2.946  -8.344  0.00  0.00     0.012 C 
ATOM      7  H   LIG d   1       8.621   4.194  -6.018  0.00  0.00     0.044 H 
ATOM      8  H   LIG d   1       9.939   3.113  -5.453  0.00  0.00     0.044 H 
ATOM      9  H   LIG d   1      10.837   5.152  -6.591  0.00  0.00     0.044 H 
ATOM     10  H   LIG d   1      11.268   3.651  -7.478  0.00  0.00     0.044 H 
ATOM     11  H   LIG d   1       8.709   4.146 -10.072  0.00  0.00     0.044 H 
ATOM     12  H   LIG d   1      10.028   3.065  -9.508  0.00  0.00     0.044 H 
ATOM     13  H   LIG d   1       7.813   2.106  -8.933  0.00  0.00     0.044 H 
ATOM     14  H   LIG d   1       7.381   3.607  -8.046  0.00  0.00     0.044 H 
ENDROOT
BRANCH   1  15
ATOM     15  C   LIG d   1       7.963   1.602  -6.344  0.00  0.00     0.012 C 
ATOM     16  H   LIG d   1       6.925   1.810  -6.644  0.00  0.00     0.043 H 
ATOM     17  H   LIG d   1       8.091   1.840  -5.278  0.00  0.00     0.043 H 
BRANCH  15  18
ATOM     18  C   LIG d   1       8.275   0.123  -6.578  0.00  0.00     0.075 C 
ATOM     19  C   LIG d   1       7.989  -0.705  -5.289  0.00  0.00     0.011 C 
ATOM     20  C   LIG d   1       6.956   0.088  -4.485  0.00  0.00    -0.039 C 
ATOM     21  H   LIG d   1       8.828  -0.925  -4.611  0.00  0.00     0.035 H 
ATOM     22  C   LIG d   1       7.358  -1.960  -5.919  0.00  0.00     0.107 C 
ATOM     23  C   LIG d   1       6.263  -0.814  -3.467  0.00  0.00    -0.014 C 
ATOM     24  H   LIG d   1       6.207   0.502  -5.176  0.00  0.00     0.028 H 
ATOM     25  H   LIG d   1       7.466   0.909  -3.960  0.00  0.00     0.028 H 
ATOM     26  C   LIG d   1       5.502  -1.903  -4.235  0.00  0.00    -0.022 C 
ATOM     27  C   LIG d   1       5.265  -0.016  -2.661  0.00  0.00    -0.073 C 
ATOM     28  H   LIG d   1       7.010  -1.240  -2.781  0.00  0.00     0.035 H 
ATOM     29  C   LIG d   1       6.530  -2.775  -4.955  0.00  0.00    -0.009 C 
ATOM     30  C   LIG d   1       4.695  -2.745  -3.247  0.00  0.00    -0.047 C 
ATOM     31  H   LIG d   1       7.204  -3.232  -4.216  0.00  0.00     0.031 H 
ATOM     32  H   LIG d   1       6.012  -3.565  -5.517  0.00  0.00     0.031 H 
ATOM     33  C   LIG d   1       3.628  -1.872  -2.573  0.00  0.00    -0.049 C 
ATOM     34  H   LIG d   1       4.204  -3.570  -3.783  0.00  0.00     0.027 H 
ATOM     35  H   LIG d   1       5.368  -3.155  -2.480  0.00  0.00     0.027 H 
ATOM     36  C   LIG d   1       4.312  -0.770  -1.759  0.00  0.00    -0.032 C 
ATOM     37  H   LIG d   1       2.988  -1.416  -3.343  0.00  0.00     0.027 H 
ATOM     38  H   LIG d   1       3.014  -2.493  -1.906  0.00  0.00     0.027 H 
ATOM     39  H   LIG d   1       3.551  -0.081  -1.362  0.00  0.00     0.031 H 
ATOM     40  H   LIG d   1       4.869  -1.221  -0.924  0.00  0.00     0.031 H 
ATOM     41  C   LIG d   1       5.226   1.292  -2.740  0.00  0.00    -0.099 C 
ATOM     42  H   LIG d   1       5.926   1.823  -3.401  0.00  0.00     0.053 H 
ATOM     43  H   LIG d   1       4.493   1.857  -2.147  0.00  0.00     0.053 H 
ATOM     44  H   LIG d   1       8.090  -2.695  -6.285  0.00  0.00     0.074 H 
ATOM     45  O   LIG d   1       6.584  -1.429  -7.033  0.00  0.00    -0.461 OA
ATOM     46  C   LIG d   1       7.330  -0.461  -7.611  0.00  0.00     0.312 C 
ATOM     47  O   LIG d   1       7.257  -0.117  -8.767  0.00  0.00    -0.251 OA
ATOM     48  H   LIG d   1       9.322   0.078  -6.911  0.00  0.00     0.043 H 
BRANCH  26  49
ATOM     49  C   LIG d   1       4.557  -1.254  -5.249  0.00  0.00    -0.059 C 
ATOM     50  H   LIG d   1       4.515  -1.872  -6.158  0.00  0.00     0.024 H 
ATOM     51  H   LIG d   1       4.929  -0.251  -5.505  0.00  0.00     0.024 H 
ATOM     52  H   LIG d   1       3.551  -1.173  -4.813  0.00  0.00     0.024 H 
ENDBRANCH  26  49
ENDBRANCH  15  18
ENDBRANCH   1  15
BRANCH   4  53
ATOM     53  C   LIG d   1      10.686   5.657  -9.181  0.00  0.00     0.061 C 
ATOM     54  H   LIG d   1      11.706   5.268  -9.043  0.00  0.00     0.056 H 
BRANCH  53  55
ATOM     55  C   LIG d   1      10.608   7.087  -8.715  0.00  0.00    -0.026 A 
ATOM     56  C   LIG d   1      11.647   7.960  -8.983  0.00  0.00    -0.057 A 
ATOM     57  C   LIG d   1      11.575   9.272  -8.556  0.00  0.00    -0.061 A 
ATOM     58  H   LIG d   1      12.515   7.615  -9.524  0.00  0.00     0.062 H 
ATOM     59  C   LIG d   1      10.463   9.713  -7.861  0.00  0.00    -0.062 A 
ATOM     60  H   LIG d   1      12.386   9.953  -8.764  0.00  0.00     0.062 H 
ATOM     61  C   LIG d   1       9.424   8.842  -7.595  0.00  0.00    -0.061 A 
ATOM     62  H   LIG d   1      10.407  10.739  -7.528  0.00  0.00     0.062 H 
ATOM     63  C   LIG d   1       9.494   7.531  -8.026  0.00  0.00    -0.057 A 
ATOM     64  H   LIG d   1       8.556   9.186  -7.053  0.00  0.00     0.062 H 
ATOM     65  H   LIG d   1       8.680   6.850  -7.822  0.00  0.00     0.062 H 
ENDBRANCH  53  55
BRANCH  53  66
ATOM     66  C   LIG d   1      10.295   5.579 -10.635  0.00  0.00    -0.026 A 
ATOM     67  C   LIG d   1      11.024   4.789 -11.505  0.00  0.00    -0.055 A 
ATOM     68  C   LIG d   1      10.665   4.717 -12.837  0.00  0.00    -0.043 A 
ATOM     69  H   LIG d   1      11.874   4.229 -11.142  0.00  0.00     0.062 H 
ATOM     70  C   LIG d   1       9.578   5.435 -13.301  0.00  0.00     0.041 A 
ATOM     71  H   LIG d   1      11.236   4.101 -13.517  0.00  0.00     0.063 H 
ATOM     72  C   LIG d   1       8.849   6.226 -12.430  0.00  0.00    -0.043 A 
ATOM     73 CL   LIG d   1       9.129   5.346 -14.976  0.00  0.00    -0.084 Cl
ATOM     74  C   LIG d   1       9.205   6.293 -11.096  0.00  0.00    -0.055 A 
ATOM     75  H   LIG d   1       8.000   6.787 -12.791  0.00  0.00     0.063 H 
ATOM     76  H   LIG d   1       8.633   6.905 -10.415  0.00  0.00     0.062 H 
ENDBRANCH  53  66
ENDBRANCH   4  53
TORSDOF 6
ENDMDL
MODEL 7
REMARK VINA RESULT:      -6.8      2.042      3.063
REMARK  6 active torsions:
REMARK  status: ('A' for Active; 'I' for Inactive)
REMARK    1  A    between atoms: C_1  and  C_2 
REMARK    2  A    between atoms: C_19  and  C_21 
REMARK    3  A    between atoms: C_21  and  N_22 
REMARK    4  A    between atoms: N_25  and  C_28 
REMARK    5  A    between atoms: C_28  and  C_30 
REMARK    6  A    between atoms: C_28  and  C_36 
ROOT
ATOM      1  N   LIG d   1       8.829   2.313  -5.258  0.00  0.00    -0.299 N 
ATOM      2  C   LIG d   1       8.102   1.987  -4.023  0.00  0.00     0.012 C 
ATOM      3  C   LIG d   1       7.000   0.971  -4.337  0.00  0.00     0.013 C 
ATOM      4  N   LIG d   1       7.601  -0.235  -4.925  0.00  0.00    -0.289 N 
ATOM      5  C   LIG d   1       8.328   0.092  -6.159  0.00  0.00     0.013 C 
ATOM      6  C   LIG d   1       9.430   1.107  -5.846  0.00  0.00     0.012 C 
ATOM      7  H   LIG d   1       8.800   1.557  -3.289  0.00  0.00     0.044 H 
ATOM      8  H   LIG d   1       7.652   2.901  -3.609  0.00  0.00     0.044 H 
ATOM      9  H   LIG d   1       6.473   0.704  -3.408  0.00  0.00     0.044 H 
ATOM     10  H   LIG d   1       6.287   1.412  -5.048  0.00  0.00     0.044 H 
ATOM     11  H   LIG d   1       8.778  -0.822  -6.573  0.00  0.00     0.044 H 
ATOM     12  H   LIG d   1       7.630   0.521  -6.893  0.00  0.00     0.044 H 
ATOM     13  H   LIG d   1       9.956   1.376  -6.774  0.00  0.00     0.044 H 
ATOM     14  H   LIG d   1      10.143   0.669  -5.133  0.00  0.00     0.044 H 
ENDROOT
BRANCH   1  15
ATOM     15  C   LIG d   1       9.847   3.343  -5.012  0.00  0.00     0.012 C 
ATOM     16  H   LIG d   1       9.780   4.117  -5.792  0.00  0.00     0.043 H 
ATOM     17  H   LIG d   1      10.846   2.884  -5.035  0.00  0.00     0.043 H 
BRANCH  15  18
ATOM     18  C   LIG d   1       9.609   3.979  -3.641  0.00  0.00     0.075 C 
ATOM     19  C   LIG d   1      10.829   3.728  -2.705  0.00  0.00     0.011 C 
ATOM     20  C   LIG d   1      12.036   3.502  -3.618  0.00  0.00    -0.039 C 
ATOM     21  H   LIG d   1      10.788   2.880  -2.006  0.00  0.00     0.035 H 
ATOM     22  C   LIG d   1      10.910   5.099  -2.008  0.00  0.00     0.107 C 
ATOM     23  C   LIG d   1      13.338   3.710  -2.847  0.00  0.00    -0.014 C 
ATOM     24  H   LIG d   1      11.989   4.213  -4.455  0.00  0.00     0.028 H 
ATOM     25  H   LIG d   1      12.002   2.473  -4.007  0.00  0.00     0.028 H 
ATOM     26  C   LIG d   1      13.388   5.173  -2.384  0.00  0.00    -0.022 C 
ATOM     27  C   LIG d   1      14.522   3.458  -3.751  0.00  0.00    -0.073 C 
ATOM     28  H   LIG d   1      13.383   3.009  -2.002  0.00  0.00     0.035 H 
ATOM     29  C   LIG d   1      12.254   5.386  -1.382  0.00  0.00    -0.009 C 
ATOM     30  C   LIG d   1      14.737   5.444  -1.720  0.00  0.00    -0.047 C 
ATOM     31  H   LIG d   1      12.390   4.711  -0.524  0.00  0.00     0.031 H 
ATOM     32  H   LIG d   1      12.263   6.429  -1.033  0.00  0.00     0.031 H 
ATOM     33  C   LIG d   1      15.863   5.283  -2.749  0.00  0.00    -0.049 C 
ATOM     34  H   LIG d   1      14.751   6.469  -1.323  0.00  0.00     0.027 H 
ATOM     35  H   LIG d   1      14.891   4.730  -0.897  0.00  0.00     0.027 H 
ATOM     36  C   LIG d   1      15.897   3.834  -3.244  0.00  0.00    -0.032 C 
ATOM     37  H   LIG d   1      15.681   5.957  -3.599  0.00  0.00     0.027 H 
ATOM     38  H   LIG d   1      16.826   5.534  -2.282  0.00  0.00     0.027 H 
ATOM     39  H   LIG d   1      16.632   3.742  -4.058  0.00  0.00     0.031 H 
ATOM     40  H   LIG d   1      16.183   3.169  -2.415  0.00  0.00     0.031 H 
ATOM     41  C   LIG d   1      14.363   2.928  -4.939  0.00  0.00    -0.099 C 
ATOM     42  H   LIG d   1      13.355   2.662  -5.291  0.00  0.00     0.053 H 
ATOM     43  H   LIG d   1      15.236   2.752  -5.584  0.00  0.00     0.053 H 
ATOM     44  H   LIG d   1      10.221   5.211  -1.158  0.00  0.00     0.074 H 
ATOM     45  O   LIG d   1      10.557   6.039  -3.064  0.00  0.00    -0.461 OA
ATOM     46  C   LIG d   1       9.538   5.489  -3.762  0.00  0.00     0.312 C 
ATOM     47  O   LIG d   1       8.703   6.104  -4.382  0.00  0.00    -0.251 OA
ATOM     48  H   LIG d   1       8.667   3.555  -3.264  0.00  0.00     0.043 H 
BRANCH  26  49
ATOM     49  C   LIG d   1      13.211   6.101  -3.587  0.00  0.00    -0.059 C 
ATOM     50  H   LIG d   1      13.254   7.148  -3.252  0.00  0.00     0.024 H 
ATOM     51  H   LIG d   1      12.237   5.908  -4.059  0.00  0.00     0.024 H 
ATOM     52  H   LIG d   1      14.014   5.916  -4.314  0.00  0.00     0.024 H 
ENDBRANCH  26  49
ENDBRANCH  15  18
ENDBRANCH   1  15
BRANCH   4  53
ATOM     53  C   LIG d   1       6.582  -1.264  -5.169  0.00  0.00     0.061 C 
ATOM     54  H   LIG d   1       6.253  -1.178  -6.216  0.00  0.00     0.056 H 
BRANCH  53  55
ATOM     55  C   LIG d   1       5.418  -1.050  -4.239  0.00  0.00    -0.026 A 
ATOM     56  C   LIG d   1       5.535  -1.371  -2.899  0.00  0.00    -0.057 A 
ATOM     57  C   LIG d   1       4.466  -1.173  -2.046  0.00  0.00    -0.061 A 
ATOM     58  H   LIG d   1       6.461  -1.776  -2.520  0.00  0.00     0.062 H 
ATOM     59  C   LIG d   1       3.279  -0.655  -2.531  0.00  0.00    -0.062 A 
ATOM     60  H   LIG d   1       4.557  -1.424  -0.999  0.00  0.00     0.062 H 
ATOM     61  C   LIG d   1       3.162  -0.334  -3.870  0.00  0.00    -0.061 A 
ATOM     62  H   LIG d   1       2.444  -0.502  -1.864  0.00  0.00     0.062 H 
ATOM     63  C   LIG d   1       4.233  -0.526  -4.723  0.00  0.00    -0.057 A 
ATOM     64  H   LIG d   1       2.236   0.071  -4.250  0.00  0.00     0.062 H 
ATOM     65  H   LIG d   1       4.143  -0.271  -5.769  0.00  0.00     0.062 H 
ENDBRANCH  53  55
BRANCH  53  66
ATOM     66  C   LIG d   1       7.178  -2.627  -4.924  0.00  0.00    -0.026 A 
ATOM     67  C   LIG d   1       8.269  -2.762  -4.084  0.00  0.00    -0.055 A 
ATOM     68  C   LIG d   1       8.816  -4.011  -3.859  0.00  0.00    -0.043 A 
ATOM     69  H   LIG d   1       8.693  -1.892  -3.605  0.00  0.00     0.062 H 
ATOM     70  C   LIG d   1       8.274  -5.126  -4.473  0.00  0.00     0.041 A 
ATOM     71  H   LIG d   1       9.668  -4.117  -3.203  0.00  0.00     0.063 H 
ATOM     72  C   LIG d   1       7.183  -4.989  -5.314  0.00  0.00    -0.043 A 
ATOM     73 CL   LIG d   1       8.962  -6.694  -4.192  0.00  0.00    -0.084 Cl
ATOM     74  C   LIG d   1       6.633  -3.740  -5.534  0.00  0.00    -0.055 A 
ATOM     75  H   LIG d   1       6.759  -5.858  -5.794  0.00  0.00     0.063 H 
ATOM     76  H   LIG d   1       5.778  -3.634  -6.186  0.00  0.00     0.062 H 
ENDBRANCH  53  66
ENDBRANCH   4  53
TORSDOF 6
ENDMDL
MODEL 8
REMARK VINA RESULT:      -6.7      6.696     11.799
REMARK  6 active torsions:
REMARK  status: ('A' for Active; 'I' for Inactive)
REMARK    1  A    between atoms: C_1  and  C_2 
REMARK    2  A    between atoms: C_19  and  C_21 
REMARK    3  A    between atoms: C_21  and  N_22 
REMARK    4  A    between atoms: N_25  and  C_28 
REMARK    5  A    between atoms: C_28  and  C_30 
REMARK    6  A    between atoms: C_28  and  C_36 
ROOT
ATOM      1  N   LIG d   1       5.042  -4.925  -7.124  0.00  0.00    -0.299 N 
ATOM      2  C   LIG d   1       4.839  -4.154  -8.359  0.00  0.00     0.012 C 
ATOM      3  C   LIG d   1       3.902  -2.977  -8.073  0.00  0.00     0.013 C 
ATOM      4  N   LIG d   1       4.484  -2.135  -7.018  0.00  0.00    -0.289 N 
ATOM      5  C   LIG d   1       4.687  -2.906  -5.785  0.00  0.00     0.013 C 
ATOM      6  C   LIG d   1       5.624  -4.083  -6.070  0.00  0.00     0.012 C 
ATOM      7  H   LIG d   1       5.807  -3.774  -8.717  0.00  0.00     0.044 H 
ATOM      8  H   LIG d   1       4.393  -4.801  -9.127  0.00  0.00     0.044 H 
ATOM      9  H   LIG d   1       3.772  -2.381  -8.989  0.00  0.00     0.044 H 
ATOM     10  H   LIG d   1       2.925  -3.358  -7.743  0.00  0.00     0.044 H 
ATOM     11  H   LIG d   1       5.134  -2.259  -5.017  0.00  0.00     0.044 H 
ATOM     12  H   LIG d   1       3.718  -3.286  -5.426  0.00  0.00     0.044 H 
ATOM     13  H   LIG d   1       5.754  -4.679  -5.155  0.00  0.00     0.044 H 
ATOM     14  H   LIG d   1       6.601  -3.703  -6.402  0.00  0.00     0.044 H 
ENDROOT
BRANCH   1  15
ATOM     15  C   LIG d   1       5.876  -6.108  -7.374  0.00  0.00     0.012 C 
ATOM     16  H   LIG d   1       6.015  -6.235  -8.458  0.00  0.00     0.043 H 
ATOM     17  H   LIG d   1       5.381  -6.999  -6.961  0.00  0.00     0.043 H 
BRANCH  15  18
ATOM     18  C   LIG d   1       7.238  -5.923  -6.703  0.00  0.00     0.075 C 
ATOM     19  C   LIG d   1       7.294  -6.706  -5.358  0.00  0.00     0.011 C 
ATOM     20  C   LIG d   1       6.269  -7.836  -5.472  0.00  0.00    -0.039 C 
ATOM     21  H   LIG d   1       7.076  -6.164  -4.425  0.00  0.00     0.035 H 
ATOM     22  C   LIG d   1       8.732  -7.252  -5.432  0.00  0.00     0.107 C 
ATOM     23  C   LIG d   1       6.554  -8.925  -4.440  0.00  0.00    -0.014 C 
ATOM     24  H   LIG d   1       6.322  -8.267  -6.482  0.00  0.00     0.028 H 
ATOM     25  H   LIG d   1       5.263  -7.425  -5.301  0.00  0.00     0.028 H 
ATOM     26  C   LIG d   1       7.930  -9.529  -4.753  0.00  0.00    -0.022 C 
ATOM     27  C   LIG d   1       5.520 -10.022  -4.544  0.00  0.00    -0.073 C 
ATOM     28  H   LIG d   1       6.513  -8.496  -3.428  0.00  0.00     0.035 H 
ATOM     29  C   LIG d   1       8.980  -8.440  -4.533  0.00  0.00    -0.009 C 
ATOM     30  C   LIG d   1       8.188 -10.707  -3.815  0.00  0.00    -0.047 C 
ATOM     31  H   LIG d   1       8.943  -8.100  -3.488  0.00  0.00     0.031 H 
ATOM     32  H   LIG d   1       9.979  -8.844  -4.753  0.00  0.00     0.031 H 
ATOM     33  C   LIG d   1       7.164 -11.817  -4.084  0.00  0.00    -0.049 C 
ATOM     34  H   LIG d   1       9.201 -11.098  -3.986  0.00  0.00     0.027 H 
ATOM     35  H   LIG d   1       8.095 -10.372  -2.771  0.00  0.00     0.027 H 
ATOM     36  C   LIG d   1       5.757 -11.299  -3.768  0.00  0.00    -0.032 C 
ATOM     37  H   LIG d   1       7.216 -12.115  -5.141  0.00  0.00     0.027 H 
ATOM     38  H   LIG d   1       7.387 -12.684  -3.447  0.00  0.00     0.027 H 
ATOM     39  H   LIG d   1       5.013 -12.056  -4.060  0.00  0.00     0.031 H 
ATOM     40  H   LIG d   1       5.672 -11.100  -2.689  0.00  0.00     0.031 H 
ATOM     41  C   LIG d   1       4.449  -9.871  -5.284  0.00  0.00    -0.099 C 
ATOM     42  H   LIG d   1       4.294  -8.936  -5.842  0.00  0.00     0.053 H 
ATOM     43  H   LIG d   1       3.707 -10.681  -5.349  0.00  0.00     0.053 H 
ATOM     44  H   LIG d   1       9.501  -6.538  -5.102  0.00  0.00     0.074 H 
ATOM     45  O   LIG d   1       8.908  -7.557  -6.846  0.00  0.00    -0.461 OA
ATOM     46  C   LIG d   1       8.334  -6.551  -7.544  0.00  0.00     0.312 C 
ATOM     47  O   LIG d   1       8.645  -6.206  -8.659  0.00  0.00    -0.251 OA
ATOM     48  H   LIG d   1       7.381  -4.838  -6.591  0.00  0.00     0.043 H 
BRANCH  26  49
ATOM     49  C   LIG d   1       7.964 -10.010  -6.205  0.00  0.00    -0.059 C 
ATOM     50  H   LIG d   1       8.144  -9.153  -6.871  0.00  0.00     0.024 H 
ATOM     51  H   LIG d   1       7.001 -10.476  -6.459  0.00  0.00     0.024 H 
ATOM     52  H   LIG d   1       8.771 -10.746  -6.328  0.00  0.00     0.024 H 
ENDBRANCH  26  49
ENDBRANCH  15  18
ENDBRANCH   1  15
BRANCH   4  53
ATOM     53  C   LIG d   1       3.650  -0.952  -6.770  0.00  0.00     0.061 C 
ATOM     54  H   LIG d   1       2.595  -1.251  -6.865  0.00  0.00     0.056 H 
BRANCH  53  55
ATOM     55  C   LIG d   1       3.979   0.117  -7.779  0.00  0.00    -0.026 A 
ATOM     56  C   LIG d   1       5.246   0.181  -8.330  0.00  0.00    -0.057 A 
ATOM     57  C   LIG d   1       5.548   1.161  -9.256  0.00  0.00    -0.061 A 
ATOM     58  H   LIG d   1       5.999  -0.535  -8.036  0.00  0.00     0.062 H 
ATOM     59  C   LIG d   1       4.583   2.078  -9.632  0.00  0.00    -0.062 A 
ATOM     60  H   LIG d   1       6.537   1.211  -9.686  0.00  0.00     0.062 H 
ATOM     61  C   LIG d   1       3.318   2.014  -9.082  0.00  0.00    -0.061 A 
ATOM     62  H   LIG d   1       4.820   2.845 -10.355  0.00  0.00     0.062 H 
ATOM     63  C   LIG d   1       3.013   1.031  -8.159  0.00  0.00    -0.057 A 
ATOM     64  H   LIG d   1       2.564   2.731  -9.374  0.00  0.00     0.062 H 
ATOM     65  H   LIG d   1       2.023   0.978  -7.732  0.00  0.00     0.062 H 
ENDBRANCH  53  55
BRANCH  53  66
ATOM     66  C   LIG d   1       3.918  -0.432  -5.381  0.00  0.00    -0.026 A 
ATOM     67  C   LIG d   1       5.220  -0.247  -4.952  0.00  0.00    -0.055 A 
ATOM     68  C   LIG d   1       5.467   0.229  -3.679  0.00  0.00    -0.043 A 
ATOM     69  H   LIG d   1       6.044  -0.474  -5.614  0.00  0.00     0.062 H 
ATOM     70  C   LIG d   1       4.413   0.520  -2.832  0.00  0.00     0.041 A 
ATOM     71  H   LIG d   1       6.484   0.374  -3.344  0.00  0.00     0.063 H 
ATOM     72  C   LIG d   1       3.110   0.333  -3.261  0.00  0.00    -0.043 A 
ATOM     73 CL   LIG d   1       4.723   1.116  -1.231  0.00  0.00    -0.084 Cl
ATOM     74  C   LIG d   1       2.864  -0.138  -4.537  0.00  0.00    -0.055 A 
ATOM     75  H   LIG d   1       2.286   0.559  -2.600  0.00  0.00     0.063 H 
ATOM     76  H   LIG d   1       1.847  -0.278  -4.874  0.00  0.00     0.062 H 
ENDBRANCH  53  66
ENDBRANCH   4  53
TORSDOF 6
ENDMDL
MODEL 9
REMARK VINA RESULT:      -6.6      4.785     10.056
REMARK  6 active torsions:
REMARK  status: ('A' for Active; 'I' for Inactive)
REMARK    1  A    between atoms: C_1  and  C_2 
REMARK    2  A    between atoms: C_19  and  C_21 
REMARK    3  A    between atoms: C_21  and  N_22 
REMARK    4  A    between atoms: N_25  and  C_28 
REMARK    5  A    between atoms: C_28  and  C_30 
REMARK    6  A    between atoms: C_28  and  C_36 
ROOT
ATOM      1  N   LIG d   1       7.517   0.341  -8.748  0.00  0.00    -0.299 N 
ATOM      2  C   LIG d   1       8.983   0.236  -8.785  0.00  0.00     0.012 C 
ATOM      3  C   LIG d   1       9.549   1.364  -9.652  0.00  0.00     0.013 C 
ATOM      4  N   LIG d   1       9.131   2.660  -9.101  0.00  0.00    -0.289 N 
ATOM      5  C   LIG d   1       7.666   2.764  -9.064  0.00  0.00     0.013 C 
ATOM      6  C   LIG d   1       7.099   1.638  -8.197  0.00  0.00     0.012 C 
ATOM      7  H   LIG d   1       9.382   0.322  -7.763  0.00  0.00     0.044 H 
ATOM      8  H   LIG d   1       9.270  -0.736  -9.211  0.00  0.00     0.044 H 
ATOM      9  H   LIG d   1      10.648   1.304  -9.658  0.00  0.00     0.044 H 
ATOM     10  H   LIG d   1       9.172   1.261 -10.680  0.00  0.00     0.044 H 
ATOM     11  H   LIG d   1       7.378   3.736  -8.638  0.00  0.00     0.044 H 
ATOM     12  H   LIG d   1       7.266   2.679 -10.085  0.00  0.00     0.044 H 
ATOM     13  H   LIG d   1       6.000   1.696  -8.192  0.00  0.00     0.044 H 
ATOM     14  H   LIG d   1       7.476   1.738  -7.169  0.00  0.00     0.044 H 
ENDROOT
BRANCH   1  15
ATOM     15  C   LIG d   1       6.930  -0.769  -7.986  0.00  0.00     0.012 C 
ATOM     16  H   LIG d   1       6.762  -1.625  -8.657  0.00  0.00     0.043 H 
ATOM     17  H   LIG d   1       5.971  -0.449  -7.553  0.00  0.00     0.043 H 
BRANCH  15  18
ATOM     18  C   LIG d   1       7.885  -1.180  -6.864  0.00  0.00     0.075 C 
ATOM     19  C   LIG d   1       7.377  -0.645  -5.492  0.00  0.00     0.011 C 
ATOM     20  C   LIG d   1       5.865  -0.453  -5.635  0.00  0.00    -0.039 C 
ATOM     21  H   LIG d   1       7.789   0.303  -5.113  0.00  0.00     0.035 H 
ATOM     22  C   LIG d   1       7.701  -1.858  -4.601  0.00  0.00     0.107 C 
ATOM     23  C   LIG d   1       5.201  -0.387  -4.261  0.00  0.00    -0.014 C 
ATOM     24  H   LIG d   1       5.450  -1.299  -6.201  0.00  0.00     0.028 H 
ATOM     25  H   LIG d   1       5.673   0.483  -6.180  0.00  0.00     0.028 H 
ATOM     26  C   LIG d   1       5.423  -1.734  -3.559  0.00  0.00    -0.022 C 
ATOM     27  C   LIG d   1       3.714  -0.171  -4.414  0.00  0.00    -0.073 C 
ATOM     28  H   LIG d   1       5.622   0.451  -3.687  0.00  0.00     0.035 H 
ATOM     29  C   LIG d   1       6.923  -1.889  -3.307  0.00  0.00    -0.009 C 
ATOM     30  C   LIG d   1       4.661  -1.743  -2.235  0.00  0.00    -0.047 C 
ATOM     31  H   LIG d   1       7.274  -1.065  -2.669  0.00  0.00     0.031 H 
ATOM     32  H   LIG d   1       7.113  -2.849  -2.806  0.00  0.00     0.031 H 
ATOM     33  C   LIG d   1       3.154  -1.644  -2.503  0.00  0.00    -0.049 C 
ATOM     34  H   LIG d   1       4.874  -2.676  -1.695  0.00  0.00     0.027 H 
ATOM     35  H   LIG d   1       4.979  -0.885  -1.624  0.00  0.00     0.027 H 
ATOM     36  C   LIG d   1       2.844  -0.307  -3.183  0.00  0.00    -0.032 C 
ATOM     37  H   LIG d   1       2.845  -2.470  -3.160  0.00  0.00     0.027 H 
ATOM     38  H   LIG d   1       2.607  -1.708  -1.552  0.00  0.00     0.027 H 
ATOM     39  H   LIG d   1       1.783  -0.280  -3.472  0.00  0.00     0.031 H 
ATOM     40  H   LIG d   1       3.055   0.517  -2.486  0.00  0.00     0.031 H 
ATOM     41  C   LIG d   1       3.191   0.125  -5.579  0.00  0.00    -0.099 C 
ATOM     42  H   LIG d   1       3.838   0.220  -6.463  0.00  0.00     0.053 H 
ATOM     43  H   LIG d   1       2.106   0.279  -5.672  0.00  0.00     0.053 H 
ATOM     44  H   LIG d   1       8.743  -1.894  -4.253  0.00  0.00     0.074 H 
ATOM     45  O   LIG d   1       7.423  -2.998  -5.465  0.00  0.00    -0.461 OA
ATOM     46  C   LIG d   1       7.888  -2.688  -6.695  0.00  0.00     0.312 C 
ATOM     47  O   LIG d   1       8.251  -3.485  -7.528  0.00  0.00    -0.251 OA
ATOM     48  H   LIG d   1       8.877  -0.799  -7.149  0.00  0.00     0.043 H 
BRANCH  26  49
ATOM     49  C   LIG d   1       4.917  -2.870  -4.451  0.00  0.00    -0.059 C 
ATOM     50  H   LIG d   1       5.188  -3.837  -4.002  0.00  0.00     0.024 H 
ATOM     51  H   LIG d   1       5.378  -2.787  -5.446  0.00  0.00     0.024 H 
ATOM     52  H   LIG d   1       3.824  -2.802  -4.546  0.00  0.00     0.024 H 
ENDBRANCH  26  49
ENDBRANCH  15  18
ENDBRANCH   1  15
BRANCH   4  53
ATOM     53  C   LIG d   1       9.719   3.770  -9.863  0.00  0.00     0.061 C 
ATOM     54  H   LIG d   1       9.153   3.879 -10.800  0.00  0.00     0.056 H 
BRANCH  53  55
ATOM     55  C   LIG d   1      11.163   3.464 -10.161  0.00  0.00    -0.026 A 
ATOM     56  C   LIG d   1      11.615   3.466 -11.469  0.00  0.00    -0.057 A 
ATOM     57  C   LIG d   1      12.940   3.186 -11.742  0.00  0.00    -0.061 A 
ATOM     58  H   LIG d   1      10.931   3.684 -12.276  0.00  0.00     0.062 H 
ATOM     59  C   LIG d   1      13.815   2.904 -10.709  0.00  0.00    -0.062 A 
ATOM     60  H   LIG d   1      13.293   3.186 -12.763  0.00  0.00     0.062 H 
ATOM     61  C   LIG d   1      13.365   2.904  -9.403  0.00  0.00    -0.061 A 
ATOM     62  H   LIG d   1      14.851   2.685 -10.924  0.00  0.00     0.062 H 
ATOM     63  C   LIG d   1      12.041   3.189  -9.128  0.00  0.00    -0.057 A 
ATOM     64  H   LIG d   1      14.048   2.684  -8.596  0.00  0.00     0.062 H 
ATOM     65  H   LIG d   1      11.689   3.192  -8.107  0.00  0.00     0.062 H 
ENDBRANCH  53  55
BRANCH  53  66
ATOM     66  C   LIG d   1       9.630   5.037  -9.052  0.00  0.00    -0.026 A 
ATOM     67  C   LIG d   1       9.301   6.231  -9.670  0.00  0.00    -0.055 A 
ATOM     68  C   LIG d   1       9.220   7.393  -8.926  0.00  0.00    -0.043 A 
ATOM     69  H   LIG d   1       9.108   6.253 -10.732  0.00  0.00     0.062 H 
ATOM     70  C   LIG d   1       9.467   7.363  -7.566  0.00  0.00     0.041 A 
ATOM     71  H   LIG d   1       8.963   8.325  -9.409  0.00  0.00     0.063 H 
ATOM     72  C   LIG d   1       9.797   6.169  -6.949  0.00  0.00    -0.043 A 
ATOM     73 CL   LIG d   1       9.367   8.824  -6.633  0.00  0.00    -0.084 Cl
ATOM     74  C   LIG d   1       9.873   5.006  -7.692  0.00  0.00    -0.055 A 
ATOM     75  H   LIG d   1       9.990   6.145  -5.887  0.00  0.00     0.063 H 
ATOM     76  H   LIG d   1      10.124   4.073  -7.210  0.00  0.00     0.062 H 
ENDBRANCH  53  66
ENDBRANCH   4  53
TORSDOF 6
ENDMDL
MODEL 10
REMARK VINA RESULT:      -6.6      5.795      7.960
REMARK  6 active torsions:
REMARK  status: ('A' for Active; 'I' for Inactive)
REMARK    1  A    between atoms: C_1  and  C_2 
REMARK    2  A    between atoms: C_19  and  C_21 
REMARK    3  A    between atoms: C_21  and  N_22 
REMARK    4  A    between atoms: N_25  and  C_28 
REMARK    5  A    between atoms: C_28  and  C_30 
REMARK    6  A    between atoms: C_28  and  C_36 
ROOT
ATOM      1  N   LIG d   1       9.641  -0.808  -5.829  0.00  0.00    -0.299 N 
ATOM      2  C   LIG d   1       8.832  -1.740  -5.031  0.00  0.00     0.012 C 
ATOM      3  C   LIG d   1       7.484  -1.090  -4.706  0.00  0.00     0.013 C 
ATOM      4  N   LIG d   1       6.798  -0.738  -5.957  0.00  0.00    -0.289 N 
ATOM      5  C   LIG d   1       7.607   0.193  -6.754  0.00  0.00     0.013 C 
ATOM      6  C   LIG d   1       8.954  -0.456  -7.080  0.00  0.00     0.012 C 
ATOM      7  H   LIG d   1       8.665  -2.664  -5.605  0.00  0.00     0.044 H 
ATOM      8  H   LIG d   1       9.360  -1.979  -4.098  0.00  0.00     0.044 H 
ATOM      9  H   LIG d   1       6.865  -1.797  -4.133  0.00  0.00     0.044 H 
ATOM     10  H   LIG d   1       7.650  -0.182  -4.108  0.00  0.00     0.044 H 
ATOM     11  H   LIG d   1       7.079   0.432  -7.688  0.00  0.00     0.044 H 
ATOM     12  H   LIG d   1       7.774   1.118  -6.181  0.00  0.00     0.044 H 
ATOM     13  H   LIG d   1       9.574   0.251  -7.652  0.00  0.00     0.044 H 
ATOM     14  H   LIG d   1       8.790  -1.365  -7.676  0.00  0.00     0.044 H 
ENDROOT
BRANCH   1  15
ATOM     15  C   LIG d   1      10.973  -1.366  -6.098  0.00  0.00     0.012 C 
ATOM     16  H   LIG d   1      11.181  -1.314  -7.178  0.00  0.00     0.043 H 
ATOM     17  H   LIG d   1      11.004  -2.415  -5.769  0.00  0.00     0.043 H 
BRANCH  15  18
ATOM     18  C   LIG d   1      12.027  -0.561  -5.337  0.00  0.00     0.075 C 
ATOM     19  C   LIG d   1      12.521  -1.352  -4.089  0.00  0.00     0.011 C 
ATOM     20  C   LIG d   1      12.272  -2.832  -4.388  0.00  0.00    -0.039 C 
ATOM     21  H   LIG d   1      12.058  -1.136  -3.114  0.00  0.00     0.035 H 
ATOM     22  C   LIG d   1      14.024  -1.020  -4.146  0.00  0.00     0.107 C 
ATOM     23  C   LIG d   1      13.119  -3.714  -3.473  0.00  0.00    -0.014 C 
ATOM     24  H   LIG d   1      12.534  -3.034  -5.436  0.00  0.00     0.028 H 
ATOM     25  H   LIG d   1      11.206  -3.055  -4.226  0.00  0.00     0.028 H 
ATOM     26  C   LIG d   1      14.597  -3.433  -3.777  0.00  0.00    -0.022 C 
ATOM     27  C   LIG d   1      12.844  -5.172  -3.759  0.00  0.00    -0.073 C 
ATOM     28  H   LIG d   1      12.868  -3.507  -2.423  0.00  0.00     0.035 H 
ATOM     29  C   LIG d   1      14.891  -1.988  -3.377  0.00  0.00    -0.009 C 
ATOM     30  C   LIG d   1      15.468  -4.393  -2.967  0.00  0.00    -0.047 C 
ATOM     31  H   LIG d   1      14.692  -1.857  -2.303  0.00  0.00     0.031 H 
ATOM     32  H   LIG d   1      15.945  -1.757  -3.586  0.00  0.00     0.031 H 
ATOM     33  C   LIG d   1      15.206  -5.836  -3.418  0.00  0.00    -0.049 C 
ATOM     34  H   LIG d   1      16.528  -4.149  -3.126  0.00  0.00     0.027 H 
ATOM     35  H   LIG d   1      15.225  -4.295  -1.899  0.00  0.00     0.027 H 
ATOM     36  C   LIG d   1      13.749  -6.204  -3.122  0.00  0.00    -0.032 C 
ATOM     37  H   LIG d   1      15.395  -5.922  -4.498  0.00  0.00     0.027 H 
ATOM     38  H   LIG d   1      15.874  -6.517  -2.873  0.00  0.00     0.027 H 
ATOM     39  H   LIG d   1      13.531  -7.199  -3.540  0.00  0.00     0.031 H 
ATOM     40  H   LIG d   1      13.587  -6.221  -2.034  0.00  0.00     0.031 H 
ATOM     41  C   LIG d   1      11.851  -5.532  -4.535  0.00  0.00    -0.099 C 
ATOM     42  H   LIG d   1      11.204  -4.768  -4.989  0.00  0.00     0.053 H 
ATOM     43  H   LIG d   1      11.666  -6.598  -4.732  0.00  0.00     0.053 H 
ATOM     44  H   LIG d   1      14.287  -0.053  -3.694  0.00  0.00     0.074 H 
ATOM     45  O   LIG d   1      14.314  -1.001  -5.574  0.00  0.00    -0.461 OA
ATOM     46  C   LIG d   1      13.275  -0.386  -6.182  0.00  0.00     0.312 C 
ATOM     47  O   LIG d   1      13.331   0.210  -7.232  0.00  0.00    -0.251 OA
ATOM     48  H   LIG d   1      11.560   0.405  -5.093  0.00  0.00     0.043 H 
BRANCH  26  49
ATOM     49  C   LIG d   1      14.863  -3.632  -5.270  0.00  0.00    -0.059 C 
ATOM     50  H   LIG d   1      14.251  -2.925  -5.849  0.00  0.00     0.024 H 
ATOM     51  H   LIG d   1      14.601  -4.662  -5.555  0.00  0.00     0.024 H 
ATOM     52  H   LIG d   1      15.927  -3.453  -5.480  0.00  0.00     0.024 H 
ENDBRANCH  26  49
ENDBRANCH  15  18
ENDBRANCH   1  15
BRANCH   4  53
ATOM     53  C   LIG d   1       5.466  -0.180  -5.686  0.00  0.00     0.061 C 
ATOM     54  H   LIG d   1       5.552   0.916  -5.662  0.00  0.00     0.056 H 
BRANCH  53  55
ATOM     55  C   LIG d   1       4.966  -0.691  -4.361  0.00  0.00    -0.026 A 
ATOM     56  C   LIG d   1       4.866   0.168  -3.282  0.00  0.00    -0.057 A 
ATOM     57  C   LIG d   1       4.407  -0.301  -2.065  0.00  0.00    -0.061 A 
ATOM     58  H   LIG d   1       5.146   1.205  -3.389  0.00  0.00     0.062 H 
ATOM     59  C   LIG d   1       4.049  -1.630  -1.927  0.00  0.00    -0.062 A 
ATOM     60  H   LIG d   1       4.329   0.369  -1.223  0.00  0.00     0.062 H 
ATOM     61  C   LIG d   1       4.149  -2.488  -3.005  0.00  0.00    -0.061 A 
ATOM     62  H   LIG d   1       3.691  -1.996  -0.976  0.00  0.00     0.062 H 
ATOM     63  C   LIG d   1       4.602  -2.018  -4.223  0.00  0.00    -0.057 A 
ATOM     64  H   LIG d   1       3.869  -3.526  -2.897  0.00  0.00     0.062 H 
ATOM     65  H   LIG d   1       4.677  -2.688  -5.067  0.00  0.00     0.062 H 
ENDBRANCH  53  55
BRANCH  53  66
ATOM     66  C   LIG d   1       4.515  -0.601  -6.778  0.00  0.00    -0.026 A 
ATOM     67  C   LIG d   1       3.366   0.132  -7.014  0.00  0.00    -0.055 A 
ATOM     68  C   LIG d   1       2.495  -0.254  -8.015  0.00  0.00    -0.043 A 
ATOM     69  H   LIG d   1       3.151   1.006  -6.417  0.00  0.00     0.062 H 
ATOM     70  C   LIG d   1       2.771  -1.373  -8.780  0.00  0.00     0.041 A 
ATOM     71  H   LIG d   1       1.597   0.319  -8.199  0.00  0.00     0.063 H 
ATOM     72  C   LIG d   1       3.920  -2.106  -8.543  0.00  0.00    -0.043 A 
ATOM     73 CL   LIG d   1       1.675  -1.858 -10.036  0.00  0.00    -0.084 Cl
ATOM     74  C   LIG d   1       4.794  -1.716  -7.545  0.00  0.00    -0.055 A 
ATOM     75  H   LIG d   1       4.136  -2.980  -9.139  0.00  0.00     0.063 H 
ATOM     76  H   LIG d   1       5.694  -2.286  -7.363  0.00  0.00     0.062 H 
ENDBRANCH  53  66
ENDBRANCH   4  53
TORSDOF 6
ENDMDL
