MODEL 1
REMARK VINA RESULT:      -7.7      0.000      0.000
REMARK  8 active torsions:
REMARK  status: ('A' for Active; 'I' for Inactive)
REMARK    1  A    between atoms: C_1  and  C_2 
REMARK    2  A    between atoms: C_7  and  O_13 
REMARK    3  A    between atoms: O_13  and  C_14 
REMARK    4  A    between atoms: N_20  and  C_23 
REMARK    5  A    between atoms: C_28  and  C_29 
REMARK       I    between atoms: C_29  and  N_31 
REMARK    6  A    between atoms: N_31  and  C_32 
REMARK    7  A    between atoms: C_32  and  C_33 
REMARK    8  A    between atoms: C_33  and  N_34 
ROOT
ATOM      1  C   LIG d   1       5.003  -1.702  -7.764  0.00  0.00     0.153 C 
ATOM      2  C   LIG d   1       3.908  -1.890  -8.787  0.00  0.00     0.053 A 
ATOM      3  C   LIG d   1       3.285  -3.073  -8.989  0.00  0.00    -0.015 A 
ATOM      4  C   LIG d   1       2.319  -2.856 -10.052  0.00  0.00     0.007 A 
ATOM      5  C   LIG d   1       1.406  -3.707 -10.683  0.00  0.00    -0.011 A 
ATOM      6  C   LIG d   1       0.620  -3.148 -11.680  0.00  0.00     0.121 A 
ATOM      7  C   LIG d   1       0.731  -1.810 -12.037  0.00  0.00    -0.018 A 
ATOM      8  C   LIG d   1       1.630  -0.955 -11.424  0.00  0.00    -0.034 A 
ATOM      9  C   LIG d   1       2.433  -1.492 -10.419  0.00  0.00     0.047 A 
ATOM     10  N   LIG d   1       3.402  -0.939  -9.630  0.00  0.00    -0.356 N 
ATOM     11  H   LIG d   1       3.790   0.089  -9.595  0.00  0.00     0.166 HD
ATOM     12  C   LIG d   1       3.544  -4.359  -8.245  0.00  0.00    -0.009 C 
ATOM     13  C   LIG d   1       4.861  -4.265  -7.462  0.00  0.00     0.022 C 
ATOM     14  N   LIG d   1       4.955  -2.913  -6.908  0.00  0.00    -0.265 N 
ATOM     15  C   LIG d   1       4.926  -2.489  -5.645  0.00  0.00     0.317 C 
ATOM     16  O   LIG d   1       5.084  -3.211  -4.680  0.00  0.00    -0.252 OA
ATOM     17  N   LIG d   1       4.702  -1.167  -5.568  0.00  0.00    -0.191 N 
ATOM     18  C   LIG d   1       4.671  -0.595  -6.792  0.00  0.00     0.257 C 
ATOM     19  O   LIG d   1       4.427   0.563  -7.055  0.00  0.00    -0.272 OA
ATOM     20  H   LIG d   1       1.318  -4.747 -10.408  0.00  0.00     0.066 H 
ATOM     21  H   LIG d   1       0.096  -1.424 -12.821  0.00  0.00     0.066 H 
ATOM     22  H   LIG d   1       1.707   0.083 -11.712  0.00  0.00     0.064 H 
ATOM     23  H   LIG d   1       2.720  -4.549  -7.542  0.00  0.00     0.033 H 
ATOM     24  H   LIG d   1       3.611  -5.190  -8.963  0.00  0.00     0.033 H 
ATOM     25  H   LIG d   1       4.861  -5.010  -6.652  0.00  0.00     0.047 H 
ATOM     26  H   LIG d   1       5.706  -4.460  -8.139  0.00  0.00     0.047 H 
ENDROOT
BRANCH  17  27
ATOM     27  C   LIG d   1       4.522  -0.469  -4.372  0.00  0.00     0.058 A 
ATOM     28  C   LIG d   1       5.588   0.243  -3.805  0.00  0.00     0.059 A 
ATOM     29  C   LIG d   1       5.395   0.943  -2.612  0.00  0.00    -0.048 A 
ATOM     30  C   LIG d   1       4.162   0.921  -1.994  0.00  0.00    -0.061 A 
ATOM     31  H   LIG d   1       6.210   1.496  -2.171  0.00  0.00     0.063 H 
ATOM     32  C   LIG d   1       3.111   0.212  -2.555  0.00  0.00    -0.060 A 
ATOM     33  H   LIG d   1       4.015   1.459  -1.070  0.00  0.00     0.062 H 
ATOM     34  C   LIG d   1       3.288  -0.480  -3.737  0.00  0.00    -0.039 A 
ATOM     35  H   LIG d   1       2.150   0.200  -2.065  0.00  0.00     0.062 H 
ATOM     36  H   LIG d   1       2.465  -1.031  -4.167  0.00  0.00     0.064 H 
BRANCH  28  37
ATOM     37  C   LIG d   1       6.906   0.259  -4.468  0.00  0.00     0.246 C 
ATOM     38  O   LIG d   1       7.740  -0.579  -4.182  0.00  0.00    -0.270 OA
ATOM     39  N   LIG d   1       7.187   1.201  -5.390  0.00  0.00    -0.310 N 
ATOM     40  H   LIG d   1       6.433   1.959  -5.649  0.00  0.00     0.149 HD
BRANCH  39  41
ATOM     41  C   LIG d   1       8.497   1.216  -6.047  0.00  0.00     0.025 C 
ATOM     42  H   LIG d   1       9.200   0.592  -5.477  0.00  0.00     0.048 H 
ATOM     43  H   LIG d   1       8.399   0.820  -7.068  0.00  0.00     0.048 H 
BRANCH  41  44
ATOM     44  C   LIG d   1       9.021   2.653  -6.105  0.00  0.00     0.015 C 
ATOM     45  H   LIG d   1       9.933   2.686  -6.719  0.00  0.00     0.044 H 
ATOM     46  H   LIG d   1       8.256   3.304  -6.551  0.00  0.00     0.044 H 
BRANCH  44  47
ATOM     47  N   LIG d   1       9.329   3.117  -4.746  0.00  0.00    -0.296 N 
ATOM     48  C   LIG d   1      10.452   2.362  -4.172  0.00  0.00     0.022 C 
ATOM     49  C   LIG d   1      10.699   2.836  -2.738  0.00  0.00     0.060 C 
ATOM     50  H   LIG d   1      10.208   1.289  -4.169  0.00  0.00     0.045 H 
ATOM     51  H   LIG d   1      11.355   2.531  -4.778  0.00  0.00     0.045 H 
ATOM     52  O   LIG d   1      10.941   4.245  -2.742  0.00  0.00    -0.377 OA
ATOM     53  H   LIG d   1      11.575   2.315  -2.324  0.00  0.00     0.057 H 
ATOM     54  H   LIG d   1       9.816   2.616  -2.120  0.00  0.00     0.057 H 
ATOM     55  C   LIG d   1       9.866   5.012  -3.293  0.00  0.00     0.060 C 
ATOM     56  C   LIG d   1       9.611   4.560  -4.733  0.00  0.00     0.022 C 
ATOM     57  H   LIG d   1      10.133   6.079  -3.286  0.00  0.00     0.057 H 
ATOM     58  H   LIG d   1       8.958   4.857  -2.693  0.00  0.00     0.057 H 
ATOM     59  H   LIG d   1      10.500   4.765  -5.347  0.00  0.00     0.045 H 
ATOM     60  H   LIG d   1       8.748   5.106  -5.143  0.00  0.00     0.045 H 
ENDBRANCH  44  47
ENDBRANCH  41  44
ENDBRANCH  39  41
ENDBRANCH  28  37
ENDBRANCH  17  27
BRANCH   1  61
ATOM     61  C   LIG d   1       6.375  -1.506  -8.409  0.00  0.00    -0.029 C 
ATOM     62  H   LIG d   1       6.946  -2.445  -8.350  0.00  0.00     0.026 H 
ATOM     63  H   LIG d   1       6.921  -0.712  -7.876  0.00  0.00     0.026 H 
ATOM     64  H   LIG d   1       6.248  -1.219  -9.463  0.00  0.00     0.026 H 
ENDBRANCH   1  61
BRANCH   6  65
ATOM     65  O   LIG d   1      -0.284  -3.932 -12.326  0.00  0.00    -0.495 OA
BRANCH  65  66
ATOM     66  C   LIG d   1      -1.134  -4.745 -11.515  0.00  0.00     0.079 C 
ATOM     67  H   LIG d   1      -1.892  -4.114 -11.029  0.00  0.00     0.066 H 
ATOM     68  H   LIG d   1      -0.531  -5.252 -10.745  0.00  0.00     0.066 H 
ATOM     69  H   LIG d   1      -1.632  -5.497 -12.144  0.00  0.00     0.066 H 
ENDBRANCH  65  66
ENDBRANCH   6  65
TORSDOF 8
ENDMDL
MODEL 2
REMARK VINA RESULT:      -7.6      2.084      3.542
REMARK  8 active torsions:
REMARK  status: ('A' for Active; 'I' for Inactive)
REMARK    1  A    between atoms: C_1  and  C_2 
REMARK    2  A    between atoms: C_7  and  O_13 
REMARK    3  A    between atoms: O_13  and  C_14 
REMARK    4  A    between atoms: N_20  and  C_23 
REMARK    5  A    between atoms: C_28  and  C_29 
REMARK       I    between atoms: C_29  and  N_31 
REMARK    6  A    between atoms: N_31  and  C_32 
REMARK    7  A    between atoms: C_32  and  C_33 
REMARK    8  A    between atoms: C_33  and  N_34 
ROOT
ATOM      1  C   LIG d   1       5.024  -1.679  -7.735  0.00  0.00     0.153 C 
ATOM      2  C   LIG d   1       3.922  -1.889  -8.745  0.00  0.00     0.053 A 
ATOM      3  C   LIG d   1       3.312  -3.081  -8.931  0.00  0.00    -0.015 A 
ATOM      4  C   LIG d   1       2.333  -2.885  -9.986  0.00  0.00     0.007 A 
ATOM      5  C   LIG d   1       1.424  -3.753 -10.601  0.00  0.00    -0.011 A 
ATOM      6  C   LIG d   1       0.620  -3.213 -11.594  0.00  0.00     0.121 A 
ATOM      7  C   LIG d   1       0.711  -1.876 -11.962  0.00  0.00    -0.018 A 
ATOM      8  C   LIG d   1       1.605  -1.005 -11.366  0.00  0.00    -0.034 A 
ATOM      9  C   LIG d   1       2.424  -1.523 -10.365  0.00  0.00     0.047 A 
ATOM     10  N   LIG d   1       3.395  -0.951  -9.590  0.00  0.00    -0.356 N 
ATOM     11  H   LIG d   1       3.770   0.082  -9.567  0.00  0.00     0.166 HD
ATOM     12  C   LIG d   1       3.595  -4.357  -8.180  0.00  0.00    -0.009 C 
ATOM     13  C   LIG d   1       4.919  -4.241  -7.411  0.00  0.00     0.022 C 
ATOM     14  N   LIG d   1       5.001  -2.883  -6.869  0.00  0.00    -0.265 N 
ATOM     15  C   LIG d   1       4.980  -2.449  -5.609  0.00  0.00     0.317 C 
ATOM     16  O   LIG d   1       5.157  -3.161  -4.640  0.00  0.00    -0.252 OA
ATOM     17  N   LIG d   1       4.739  -1.129  -5.540  0.00  0.00    -0.191 N 
ATOM     18  C   LIG d   1       4.688  -0.568  -6.769  0.00  0.00     0.257 C 
ATOM     19  O   LIG d   1       4.426   0.585  -7.038  0.00  0.00    -0.272 OA
ATOM     20  H   LIG d   1       1.352  -4.792 -10.316  0.00  0.00     0.066 H 
ATOM     21  H   LIG d   1       0.062  -1.505 -12.742  0.00  0.00     0.066 H 
ATOM     22  H   LIG d   1       1.665   0.032 -11.663  0.00  0.00     0.064 H 
ATOM     23  H   LIG d   1       2.781  -4.552  -7.466  0.00  0.00     0.033 H 
ATOM     24  H   LIG d   1       3.666  -5.194  -8.892  0.00  0.00     0.033 H 
ATOM     25  H   LIG d   1       4.937  -4.979  -6.596  0.00  0.00     0.047 H 
ATOM     26  H   LIG d   1       5.759  -4.430  -8.095  0.00  0.00     0.047 H 
ENDROOT
BRANCH  17  27
ATOM     27  C   LIG d   1       4.563  -0.424  -4.348  0.00  0.00     0.058 A 
ATOM     28  C   LIG d   1       5.627   0.302  -3.796  0.00  0.00     0.059 A 
ATOM     29  C   LIG d   1       5.437   1.009  -2.606  0.00  0.00    -0.048 A 
ATOM     30  C   LIG d   1       4.209   0.981  -1.978  0.00  0.00    -0.061 A 
ATOM     31  H   LIG d   1       6.251   1.572  -2.175  0.00  0.00     0.063 H 
ATOM     32  C   LIG d   1       3.161   0.258  -2.526  0.00  0.00    -0.060 A 
ATOM     33  H   LIG d   1       4.065   1.524  -1.057  0.00  0.00     0.062 H 
ATOM     34  C   LIG d   1       3.334  -0.441  -3.703  0.00  0.00    -0.039 A 
ATOM     35  H   LIG d   1       2.203   0.242  -2.027  0.00  0.00     0.062 H 
ATOM     36  H   LIG d   1       2.513  -1.002  -4.123  0.00  0.00     0.064 H 
BRANCH  28  37
ATOM     37  C   LIG d   1       6.940   0.324  -4.469  0.00  0.00     0.246 C 
ATOM     38  O   LIG d   1       7.213   1.225  -5.239  0.00  0.00    -0.270 OA
ATOM     39  N   LIG d   1       7.836  -0.654  -4.232  0.00  0.00    -0.310 N 
ATOM     40  H   LIG d   1       7.590  -1.469  -3.535  0.00  0.00     0.149 HD
BRANCH  39  41
ATOM     41  C   LIG d   1       9.139  -0.631  -4.901  0.00  0.00     0.025 C 
ATOM     42  H   LIG d   1       9.221   0.279  -5.513  0.00  0.00     0.048 H 
ATOM     43  H   LIG d   1       9.939  -0.640  -4.147  0.00  0.00     0.048 H 
BRANCH  41  44
ATOM     44  C   LIG d   1       9.272  -1.863  -5.800  0.00  0.00     0.015 C 
ATOM     45  H   LIG d   1       8.654  -1.730  -6.700  0.00  0.00     0.044 H 
ATOM     46  H   LIG d   1      10.324  -1.990  -6.094  0.00  0.00     0.044 H 
BRANCH  44  47
ATOM     47  N   LIG d   1       8.821  -3.053  -5.068  0.00  0.00    -0.296 N 
ATOM     48  C   LIG d   1       8.377  -4.105  -5.994  0.00  0.00     0.022 C 
ATOM     49  C   LIG d   1       7.861  -5.301  -5.190  0.00  0.00     0.060 C 
ATOM     50  H   LIG d   1       7.571  -3.715  -6.632  0.00  0.00     0.045 H 
ATOM     51  H   LIG d   1       9.223  -4.421  -6.623  0.00  0.00     0.045 H 
ATOM     52  O   LIG d   1       8.890  -5.757  -4.308  0.00  0.00    -0.377 OA
ATOM     53  H   LIG d   1       7.581  -6.113  -5.877  0.00  0.00     0.057 H 
ATOM     54  H   LIG d   1       6.981  -4.998  -4.603  0.00  0.00     0.057 H 
ATOM     55  C   LIG d   1       9.346  -4.758  -3.390  0.00  0.00     0.060 C 
ATOM     56  C   LIG d   1       9.877  -3.556  -4.176  0.00  0.00     0.022 C 
ATOM     57  H   LIG d   1      10.150  -5.171  -2.765  0.00  0.00     0.057 H 
ATOM     58  H   LIG d   1       8.511  -4.437  -2.751  0.00  0.00     0.057 H 
ATOM     59  H   LIG d   1      10.747  -3.863  -4.775  0.00  0.00     0.045 H 
ATOM     60  H   LIG d   1      10.176  -2.761  -3.477  0.00  0.00     0.045 H 
ENDBRANCH  44  47
ENDBRANCH  41  44
ENDBRANCH  39  41
ENDBRANCH  28  37
ENDBRANCH  17  27
BRANCH   1  61
ATOM     61  C   LIG d   1       6.387  -1.470  -8.396  0.00  0.00    -0.029 C 
ATOM     62  H   LIG d   1       6.938  -2.422  -8.410  0.00  0.00     0.026 H 
ATOM     63  H   LIG d   1       6.961  -0.724  -7.825  0.00  0.00     0.026 H 
ATOM     64  H   LIG d   1       6.245  -1.112  -9.426  0.00  0.00     0.026 H 
ENDBRANCH   1  61
BRANCH   6  65
ATOM     65  O   LIG d   1      -0.280  -4.013 -12.223  0.00  0.00    -0.495 OA
BRANCH  65  66
ATOM     66  C   LIG d   1      -1.230  -3.374 -13.079  0.00  0.00     0.079 C 
ATOM     67  H   LIG d   1      -0.959  -3.556 -14.129  0.00  0.00     0.066 H 
ATOM     68  H   LIG d   1      -1.228  -2.290 -12.883  0.00  0.00     0.066 H 
ATOM     69  H   LIG d   1      -2.233  -3.780 -12.883  0.00  0.00     0.066 H 
ENDBRANCH  65  66
ENDBRANCH   6  65
TORSDOF 8
ENDMDL
MODEL 3
REMARK VINA RESULT:      -7.5      4.307      7.633
REMARK  8 active torsions:
REMARK  status: ('A' for Active; 'I' for Inactive)
REMARK    1  A    between atoms: C_1  and  C_2 
REMARK    2  A    between atoms: C_7  and  O_13 
REMARK    3  A    between atoms: O_13  and  C_14 
REMARK    4  A    between atoms: N_20  and  C_23 
REMARK    5  A    between atoms: C_28  and  C_29 
REMARK       I    between atoms: C_29  and  N_31 
REMARK    6  A    between atoms: N_31  and  C_32 
REMARK    7  A    between atoms: C_32  and  C_33 
REMARK    8  A    between atoms: C_33  and  N_34 
ROOT
ATOM      1  C   LIG d   1       5.953  -5.732  -6.119  0.00  0.00     0.153 C 
ATOM      2  C   LIG d   1       5.873  -7.157  -5.626  0.00  0.00     0.053 A 
ATOM      3  C   LIG d   1       6.880  -7.760  -4.954  0.00  0.00    -0.015 A 
ATOM      4  C   LIG d   1       6.435  -9.114  -4.670  0.00  0.00     0.007 A 
ATOM      5  C   LIG d   1       7.047 -10.189  -4.017  0.00  0.00    -0.011 A 
ATOM      6  C   LIG d   1       6.312 -11.361  -3.922  0.00  0.00     0.121 A 
ATOM      7  C   LIG d   1       5.030 -11.466  -4.449  0.00  0.00    -0.018 A 
ATOM      8  C   LIG d   1       4.411 -10.413  -5.099  0.00  0.00    -0.034 A 
ATOM      9  C   LIG d   1       5.129  -9.224  -5.208  0.00  0.00     0.047 A 
ATOM     10  N   LIG d   1       4.822  -8.019  -5.776  0.00  0.00    -0.356 N 
ATOM     11  H   LIG d   1       3.910  -7.689  -6.295  0.00  0.00     0.166 HD
ATOM     12  C   LIG d   1       8.199  -7.139  -4.573  0.00  0.00    -0.009 C 
ATOM     13  C   LIG d   1       8.419  -5.834  -5.352  0.00  0.00     0.022 C 
ATOM     14  N   LIG d   1       7.130  -5.144  -5.436  0.00  0.00    -0.265 N 
ATOM     15  C   LIG d   1       6.725  -3.993  -4.897  0.00  0.00     0.317 C 
ATOM     16  O   LIG d   1       7.476  -3.156  -4.434  0.00  0.00    -0.252 OA
ATOM     17  N   LIG d   1       5.389  -3.872  -4.927  0.00  0.00    -0.191 N 
ATOM     18  C   LIG d   1       4.811  -4.897  -5.591  0.00  0.00     0.257 C 
ATOM     19  O   LIG d   1       3.624  -5.103  -5.733  0.00  0.00    -0.272 OA
ATOM     20  H   LIG d   1       8.043 -10.110  -3.607  0.00  0.00     0.066 H 
ATOM     21  H   LIG d   1       4.500 -12.402  -4.350  0.00  0.00     0.066 H 
ATOM     22  H   LIG d   1       3.414 -10.509  -5.505  0.00  0.00     0.064 H 
ATOM     23  H   LIG d   1       8.204  -6.919  -3.495  0.00  0.00     0.033 H 
ATOM     24  H   LIG d   1       9.016  -7.839  -4.807  0.00  0.00     0.033 H 
ATOM     25  H   LIG d   1       9.153  -5.209  -4.822  0.00  0.00     0.047 H 
ATOM     26  H   LIG d   1       8.794  -6.067  -6.359  0.00  0.00     0.047 H 
ENDROOT
BRANCH  17  27
ATOM     27  C   LIG d   1       4.682  -2.818  -4.344  0.00  0.00     0.058 A 
ATOM     28  C   LIG d   1       4.296  -1.716  -5.118  0.00  0.00     0.059 A 
ATOM     29  C   LIG d   1       3.584  -0.670  -4.526  0.00  0.00    -0.048 A 
ATOM     30  C   LIG d   1       3.274  -0.724  -3.183  0.00  0.00    -0.061 A 
ATOM     31  H   LIG d   1       3.280   0.181  -5.116  0.00  0.00     0.063 H 
ATOM     32  C   LIG d   1       3.662  -1.814  -2.419  0.00  0.00    -0.060 A 
ATOM     33  H   LIG d   1       2.728   0.086  -2.725  0.00  0.00     0.062 H 
ATOM     34  C   LIG d   1       4.362  -2.855  -2.994  0.00  0.00    -0.039 A 
ATOM     35  H   LIG d   1       3.416  -1.847  -1.368  0.00  0.00     0.062 H 
ATOM     36  H   LIG d   1       4.661  -3.701  -2.392  0.00  0.00     0.064 H 
BRANCH  28  37
ATOM     37  C   LIG d   1       4.634  -1.662  -6.554  0.00  0.00     0.246 C 
ATOM     38  O   LIG d   1       5.637  -1.080  -6.920  0.00  0.00    -0.270 OA
ATOM     39  N   LIG d   1       3.832  -2.256  -7.459  0.00  0.00    -0.310 N 
ATOM     40  H   LIG d   1       2.924  -2.783  -7.128  0.00  0.00     0.149 HD
BRANCH  39  41
ATOM     41  C   LIG d   1       4.168  -2.201  -8.884  0.00  0.00     0.025 C 
ATOM     42  H   LIG d   1       5.085  -1.611  -9.021  0.00  0.00     0.048 H 
ATOM     43  H   LIG d   1       4.327  -3.221  -9.263  0.00  0.00     0.048 H 
BRANCH  41  44
ATOM     44  C   LIG d   1       3.020  -1.544  -9.654  0.00  0.00     0.015 C 
ATOM     45  H   LIG d   1       2.988  -1.944 -10.678  0.00  0.00     0.044 H 
ATOM     46  H   LIG d   1       2.068  -1.760  -9.147  0.00  0.00     0.044 H 
BRANCH  44  47
ATOM     47  N   LIG d   1       3.231  -0.091  -9.702  0.00  0.00    -0.296 N 
ATOM     48  C   LIG d   1       2.614   0.570  -8.544  0.00  0.00     0.022 C 
ATOM     49  C   LIG d   1       2.805   2.084  -8.664  0.00  0.00     0.060 C 
ATOM     50  H   LIG d   1       1.539   0.336  -8.517  0.00  0.00     0.045 H 
ATOM     51  H   LIG d   1       3.090   0.211  -7.619  0.00  0.00     0.045 H 
ATOM     52  O   LIG d   1       4.201   2.376  -8.774  0.00  0.00    -0.377 OA
ATOM     53  H   LIG d   1       2.396   2.580  -7.772  0.00  0.00     0.057 H 
ATOM     54  H   LIG d   1       2.282   2.451  -9.560  0.00  0.00     0.057 H 
ATOM     55  C   LIG d   1       4.835   1.748  -9.893  0.00  0.00     0.060 C 
ATOM     56  C   LIG d   1       4.663   0.231  -9.784  0.00  0.00     0.022 C 
ATOM     57  H   LIG d   1       5.905   1.997  -9.897  0.00  0.00     0.057 H 
ATOM     58  H   LIG d   1       4.372   2.104 -10.825  0.00  0.00     0.057 H 
ATOM     59  H   LIG d   1       5.173  -0.134  -8.880  0.00  0.00     0.045 H 
ATOM     60  H   LIG d   1       5.098  -0.254 -10.671  0.00  0.00     0.045 H 
ENDBRANCH  44  47
ENDBRANCH  41  44
ENDBRANCH  39  41
ENDBRANCH  28  37
ENDBRANCH  17  27
BRANCH   1  61
ATOM     61  C   LIG d   1       6.068  -5.649  -7.641  0.00  0.00    -0.029 C 
ATOM     62  H   LIG d   1       5.065  -5.534  -8.079  0.00  0.00     0.026 H 
ATOM     63  H   LIG d   1       6.533  -6.569  -8.025  0.00  0.00     0.026 H 
ATOM     64  H   LIG d   1       6.689  -4.783  -7.916  0.00  0.00     0.026 H 
ENDBRANCH   1  61
BRANCH   6  65
ATOM     65  O   LIG d   1       6.860 -12.436  -3.297  0.00  0.00    -0.495 OA
BRANCH  65  66
ATOM     66  C   LIG d   1       8.240 -12.703  -3.555  0.00  0.00     0.079 C 
ATOM     67  H   LIG d   1       8.408 -13.790  -3.564  0.00  0.00     0.066 H 
ATOM     68  H   LIG d   1       8.855 -12.243  -2.766  0.00  0.00     0.066 H 
ATOM     69  H   LIG d   1       8.520 -12.281  -4.531  0.00  0.00     0.066 H 
ENDBRANCH  65  66
ENDBRANCH   6  65
TORSDOF 8
ENDMDL
MODEL 4
REMARK VINA RESULT:      -7.4      1.554      1.922
REMARK  8 active torsions:
REMARK  status: ('A' for Active; 'I' for Inactive)
REMARK    1  A    between atoms: C_1  and  C_2 
REMARK    2  A    between atoms: C_7  and  O_13 
REMARK    3  A    between atoms: O_13  and  C_14 
REMARK    4  A    between atoms: N_20  and  C_23 
REMARK    5  A    between atoms: C_28  and  C_29 
REMARK       I    between atoms: C_29  and  N_31 
REMARK    6  A    between atoms: N_31  and  C_32 
REMARK    7  A    between atoms: C_32  and  C_33 
REMARK    8  A    between atoms: C_33  and  N_34 
ROOT
ATOM      1  C   LIG d   1       5.037  -1.760  -7.727  0.00  0.00     0.153 C 
ATOM      2  C   LIG d   1       3.949  -1.923  -8.761  0.00  0.00     0.053 A 
ATOM      3  C   LIG d   1       3.294  -3.089  -8.962  0.00  0.00    -0.015 A 
ATOM      4  C   LIG d   1       2.347  -2.851 -10.038  0.00  0.00     0.007 A 
ATOM      5  C   LIG d   1       1.417  -3.679 -10.674  0.00  0.00    -0.011 A 
ATOM      6  C   LIG d   1       0.657  -3.104 -11.682  0.00  0.00     0.121 A 
ATOM      7  C   LIG d   1       0.811  -1.772 -12.046  0.00  0.00    -0.018 A 
ATOM      8  C   LIG d   1       1.727  -0.939 -11.428  0.00  0.00    -0.034 A 
ATOM      9  C   LIG d   1       2.503  -1.492 -10.411  0.00  0.00     0.047 A 
ATOM     10  N   LIG d   1       3.480  -0.963  -9.615  0.00  0.00    -0.356 N 
ATOM     11  H   LIG d   1       3.897   0.054  -9.581  0.00  0.00     0.166 HD
ATOM     12  C   LIG d   1       3.508  -4.376  -8.209  0.00  0.00    -0.009 C 
ATOM     13  C   LIG d   1       4.819  -4.316  -7.411  0.00  0.00     0.022 C 
ATOM     14  N   LIG d   1       4.945  -2.963  -6.865  0.00  0.00    -0.265 N 
ATOM     15  C   LIG d   1       4.915  -2.531  -5.604  0.00  0.00     0.317 C 
ATOM     16  O   LIG d   1       5.042  -3.251  -4.633  0.00  0.00    -0.252 OA
ATOM     17  N   LIG d   1       4.728  -1.203  -5.537  0.00  0.00    -0.191 N 
ATOM     18  C   LIG d   1       4.727  -0.638  -6.765  0.00  0.00     0.257 C 
ATOM     19  O   LIG d   1       4.519   0.525  -7.037  0.00  0.00    -0.272 OA
ATOM     20  H   LIG d   1       1.295  -4.714 -10.393  0.00  0.00     0.066 H 
ATOM     21  H   LIG d   1       0.195  -1.373 -12.838  0.00  0.00     0.066 H 
ATOM     22  H   LIG d   1       1.837   0.095 -11.721  0.00  0.00     0.064 H 
ATOM     23  H   LIG d   1       2.672  -4.539  -7.513  0.00  0.00     0.033 H 
ATOM     24  H   LIG d   1       3.560  -5.214  -8.921  0.00  0.00     0.033 H 
ATOM     25  H   LIG d   1       4.789  -5.056  -6.598  0.00  0.00     0.047 H 
ATOM     26  H   LIG d   1       5.665  -4.539  -8.078  0.00  0.00     0.047 H 
ENDROOT
BRANCH  17  27
ATOM     27  C   LIG d   1       4.556  -0.493  -4.348  0.00  0.00     0.058 A 
ATOM     28  C   LIG d   1       5.634   0.195  -3.775  0.00  0.00     0.059 A 
ATOM     29  C   LIG d   1       5.449   0.907  -2.588  0.00  0.00    -0.048 A 
ATOM     30  C   LIG d   1       4.210   0.921  -1.982  0.00  0.00    -0.061 A 
ATOM     31  H   LIG d   1       6.274   1.441  -2.143  0.00  0.00     0.063 H 
ATOM     32  C   LIG d   1       3.147   0.236  -2.549  0.00  0.00    -0.060 A 
ATOM     33  H   LIG d   1       4.069   1.469  -1.063  0.00  0.00     0.062 H 
ATOM     34  C   LIG d   1       3.316  -0.467  -3.724  0.00  0.00    -0.039 A 
ATOM     35  H   LIG d   1       2.180   0.253  -2.067  0.00  0.00     0.062 H 
ATOM     36  H   LIG d   1       2.483  -0.999  -4.159  0.00  0.00     0.064 H 
BRANCH  28  37
ATOM     37  C   LIG d   1       6.959   0.171  -4.425  0.00  0.00     0.246 C 
ATOM     38  O   LIG d   1       7.743  -0.724  -4.176  0.00  0.00    -0.270 OA
ATOM     39  N   LIG d   1       7.301   1.142  -5.295  0.00  0.00    -0.310 N 
ATOM     40  H   LIG d   1       6.592   1.953  -5.522  0.00  0.00     0.149 HD
BRANCH  39  41
ATOM     41  C   LIG d   1       8.616   1.119  -5.940  0.00  0.00     0.025 C 
ATOM     42  H   LIG d   1       9.261   1.883  -5.483  0.00  0.00     0.048 H 
ATOM     43  H   LIG d   1       9.072   0.127  -5.808  0.00  0.00     0.048 H 
BRANCH  41  44
ATOM     44  C   LIG d   1       8.457   1.412  -7.433  0.00  0.00     0.015 C 
ATOM     45  H   LIG d   1       9.214   0.850  -8.000  0.00  0.00     0.044 H 
ATOM     46  H   LIG d   1       7.453   1.107  -7.762  0.00  0.00     0.044 H 
BRANCH  44  47
ATOM     47  N   LIG d   1       8.635   2.850  -7.671  0.00  0.00    -0.296 N 
ATOM     48  C   LIG d   1       9.772   3.376  -6.902  0.00  0.00     0.022 C 
ATOM     49  C   LIG d   1       9.884   4.885  -7.132  0.00  0.00     0.060 C 
ATOM     50  H   LIG d   1       9.613   3.177  -5.831  0.00  0.00     0.045 H 
ATOM     51  H   LIG d   1      10.698   2.882  -7.233  0.00  0.00     0.045 H 
ATOM     52  O   LIG d   1      10.015   5.140  -8.533  0.00  0.00    -0.377 OA
ATOM     53  H   LIG d   1      10.768   5.273  -6.605  0.00  0.00     0.057 H 
ATOM     54  H   LIG d   1       8.981   5.383  -6.751  0.00  0.00     0.057 H 
ATOM     55  C   LIG d   1       8.924   4.643  -9.313  0.00  0.00     0.060 C 
ATOM     56  C   LIG d   1       8.803   3.131  -9.105  0.00  0.00     0.022 C 
ATOM     57  H   LIG d   1       9.106   4.853 -10.377  0.00  0.00     0.057 H 
ATOM     58  H   LIG d   1       7.992   5.133  -8.997  0.00  0.00     0.057 H 
ATOM     59  H   LIG d   1       9.713   2.634  -9.472  0.00  0.00     0.045 H 
ATOM     60  H   LIG d   1       7.930   2.752  -9.657  0.00  0.00     0.045 H 
ENDBRANCH  44  47
ENDBRANCH  41  44
ENDBRANCH  39  41
ENDBRANCH  28  37
ENDBRANCH  17  27
BRANCH   1  61
ATOM     61  C   LIG d   1       6.422  -1.607  -8.358  0.00  0.00    -0.029 C 
ATOM     62  H   LIG d   1       6.352  -1.781  -9.442  0.00  0.00     0.026 H 
ATOM     63  H   LIG d   1       7.111  -2.340  -7.912  0.00  0.00     0.026 H 
ATOM     64  H   LIG d   1       6.799  -0.591  -8.173  0.00  0.00     0.026 H 
ENDBRANCH   1  61
BRANCH   6  65
ATOM     65  O   LIG d   1      -0.262  -3.865 -12.333  0.00  0.00    -0.495 OA
BRANCH  65  66
ATOM     66  C   LIG d   1      -0.897  -4.901 -11.581  0.00  0.00     0.079 C 
ATOM     67  H   LIG d   1      -1.968  -4.930 -11.828  0.00  0.00     0.066 H 
ATOM     68  H   LIG d   1      -0.775  -4.700 -10.505  0.00  0.00     0.066 H 
ATOM     69  H   LIG d   1      -0.437  -5.869 -11.827  0.00  0.00     0.066 H 
ENDBRANCH  65  66
ENDBRANCH   6  65
TORSDOF 8
ENDMDL
MODEL 5
REMARK VINA RESULT:      -7.3      3.676      8.153
REMARK  8 active torsions:
REMARK  status: ('A' for Active; 'I' for Inactive)
REMARK    1  A    between atoms: C_1  and  C_2 
REMARK    2  A    between atoms: C_7  and  O_13 
REMARK    3  A    between atoms: O_13  and  C_14 
REMARK    4  A    between atoms: N_20  and  C_23 
REMARK    5  A    between atoms: C_28  and  C_29 
REMARK       I    between atoms: C_29  and  N_31 
REMARK    6  A    between atoms: N_31  and  C_32 
REMARK    7  A    between atoms: C_32  and  C_33 
REMARK    8  A    between atoms: C_33  and  N_34 
ROOT
ATOM      1  C   LIG d   1       6.278  -4.381  -6.049  0.00  0.00     0.153 C 
ATOM      2  C   LIG d   1       6.402  -5.826  -5.629  0.00  0.00     0.053 A 
ATOM      3  C   LIG d   1       7.546  -6.353  -5.138  0.00  0.00    -0.015 A 
ATOM      4  C   LIG d   1       7.274  -7.755  -4.870  0.00  0.00     0.007 A 
ATOM      5  C   LIG d   1       8.070  -8.790  -4.369  0.00  0.00    -0.011 A 
ATOM      6  C   LIG d   1       7.468 -10.033  -4.238  0.00  0.00     0.121 A 
ATOM      7  C   LIG d   1       6.139 -10.243  -4.587  0.00  0.00    -0.018 A 
ATOM      8  C   LIG d   1       5.338  -9.231  -5.086  0.00  0.00    -0.034 A 
ATOM      9  C   LIG d   1       5.920  -7.972  -5.227  0.00  0.00     0.047 A 
ATOM     10  N   LIG d   1       5.424  -6.781  -5.680  0.00  0.00    -0.356 N 
ATOM     11  H   LIG d   1       4.421  -6.522  -6.048  0.00  0.00     0.166 HD
ATOM     12  C   LIG d   1       8.843  -5.620  -4.909  0.00  0.00    -0.009 C 
ATOM     13  C   LIG d   1       8.827  -4.269  -5.638  0.00  0.00     0.022 C 
ATOM     14  N   LIG d   1       7.481  -3.707  -5.504  0.00  0.00    -0.265 N 
ATOM     15  C   LIG d   1       7.054  -2.626  -4.852  0.00  0.00     0.317 C 
ATOM     16  O   LIG d   1       7.782  -1.739  -4.452  0.00  0.00    -0.252 OA
ATOM     17  N   LIG d   1       5.721  -2.637  -4.689  0.00  0.00    -0.191 N 
ATOM     18  C   LIG d   1       5.151  -3.686  -5.323  0.00  0.00     0.257 C 
ATOM     19  O   LIG d   1       3.981  -4.004  -5.310  0.00  0.00    -0.272 OA
ATOM     20  H   LIG d   1       9.103  -8.630  -4.097  0.00  0.00     0.066 H 
ATOM     21  H   LIG d   1       5.718 -11.230  -4.467  0.00  0.00     0.066 H 
ATOM     22  H   LIG d   1       4.307  -9.408  -5.354  0.00  0.00     0.064 H 
ATOM     23  H   LIG d   1       8.982  -5.446  -3.832  0.00  0.00     0.033 H 
ATOM     24  H   LIG d   1       9.679  -6.225  -5.293  0.00  0.00     0.033 H 
ATOM     25  H   LIG d   1       9.569  -3.597  -5.182  0.00  0.00     0.047 H 
ATOM     26  H   LIG d   1       9.074  -4.421  -6.699  0.00  0.00     0.047 H 
ENDROOT
BRANCH  17  27
ATOM     27  C   LIG d   1       5.011  -1.684  -3.957  0.00  0.00     0.058 A 
ATOM     28  C   LIG d   1       4.358  -0.633  -4.615  0.00  0.00     0.059 A 
ATOM     29  C   LIG d   1       3.645   0.311  -3.873  0.00  0.00    -0.048 A 
ATOM     30  C   LIG d   1       3.596   0.210  -2.498  0.00  0.00    -0.061 A 
ATOM     31  H   LIG d   1       3.138   1.122  -4.372  0.00  0.00     0.063 H 
ATOM     32  C   LIG d   1       4.247  -0.829  -1.850  0.00  0.00    -0.060 A 
ATOM     33  H   LIG d   1       3.049   0.942  -1.925  0.00  0.00     0.062 H 
ATOM     34  C   LIG d   1       4.950  -1.771  -2.573  0.00  0.00    -0.039 A 
ATOM     35  H   LIG d   1       4.203  -0.900  -0.774  0.00  0.00     0.062 H 
ATOM     36  H   LIG d   1       5.455  -2.577  -2.061  0.00  0.00     0.064 H 
BRANCH  28  37
ATOM     37  C   LIG d   1       4.418  -0.526  -6.086  0.00  0.00     0.246 C 
ATOM     38  O   LIG d   1       5.299   0.126  -6.612  0.00  0.00    -0.270 OA
ATOM     39  N   LIG d   1       3.498  -1.151  -6.846  0.00  0.00    -0.310 N 
ATOM     40  H   LIG d   1       2.701  -1.742  -6.370  0.00  0.00     0.149 HD
BRANCH  39  41
ATOM     41  C   LIG d   1       3.558  -1.044  -8.306  0.00  0.00     0.025 C 
ATOM     42  H   LIG d   1       4.390  -0.385  -8.591  0.00  0.00     0.048 H 
ATOM     43  H   LIG d   1       3.714  -2.042  -8.740  0.00  0.00     0.048 H 
BRANCH  41  44
ATOM     44  C   LIG d   1       2.243  -0.460  -8.829  0.00  0.00     0.015 C 
ATOM     45  H   LIG d   1       1.555  -0.293  -7.987  0.00  0.00     0.044 H 
ATOM     46  H   LIG d   1       2.442   0.495  -9.335  0.00  0.00     0.044 H 
BRANCH  44  47
ATOM     47  N   LIG d   1       1.635  -1.400  -9.779  0.00  0.00    -0.296 N 
ATOM     48  C   LIG d   1       1.617  -0.840 -11.138  0.00  0.00     0.022 C 
ATOM     49  C   LIG d   1       0.923  -1.824 -12.082  0.00  0.00     0.060 C 
ATOM     50  H   LIG d   1       1.070   0.115 -11.133  0.00  0.00     0.045 H 
ATOM     51  H   LIG d   1       2.649  -0.669 -11.478  0.00  0.00     0.045 H 
ATOM     52  O   LIG d   1       1.594  -3.085 -12.027  0.00  0.00    -0.377 OA
ATOM     53  H   LIG d   1       0.957  -1.435 -13.110  0.00  0.00     0.057 H 
ATOM     54  H   LIG d   1      -0.126  -1.952 -11.774  0.00  0.00     0.057 H 
ATOM     55  C   LIG d   1       1.629  -3.661 -10.718  0.00  0.00     0.060 C 
ATOM     56  C   LIG d   1       2.331  -2.695  -9.760  0.00  0.00     0.022 C 
ATOM     57  H   LIG d   1       2.180  -4.612 -10.748  0.00  0.00     0.057 H 
ATOM     58  H   LIG d   1       0.603  -3.843 -10.368  0.00  0.00     0.057 H 
ATOM     59  H   LIG d   1       3.375  -2.555 -10.077  0.00  0.00     0.045 H 
ATOM     60  H   LIG d   1       2.310  -3.107  -8.740  0.00  0.00     0.045 H 
ENDBRANCH  44  47
ENDBRANCH  41  44
ENDBRANCH  39  41
ENDBRANCH  28  37
ENDBRANCH  17  27
BRANCH   1  61
ATOM     61  C   LIG d   1       6.165  -4.223  -7.566  0.00  0.00    -0.029 C 
ATOM     62  H   LIG d   1       6.632  -5.088  -8.060  0.00  0.00     0.026 H 
ATOM     63  H   LIG d   1       6.679  -3.301  -7.878  0.00  0.00     0.026 H 
ATOM     64  H   LIG d   1       5.105  -4.166  -7.851  0.00  0.00     0.026 H 
ENDBRANCH   1  61
BRANCH   6  65
ATOM     65  O   LIG d   1       8.197 -11.073  -3.755  0.00  0.00    -0.495 OA
BRANCH  65  66
ATOM     66  C   LIG d   1       7.478 -12.123  -3.105  0.00  0.00     0.079 C 
ATOM     67  H   LIG d   1       6.416 -11.847  -3.026  0.00  0.00     0.066 H 
ATOM     68  H   LIG d   1       7.891 -12.280  -2.096  0.00  0.00     0.066 H 
ATOM     69  H   LIG d   1       7.574 -13.050  -3.688  0.00  0.00     0.066 H 
ENDBRANCH  65  66
ENDBRANCH   6  65
TORSDOF 8
ENDMDL
MODEL 6
REMARK VINA RESULT:      -7.0      3.598      8.901
REMARK  8 active torsions:
REMARK  status: ('A' for Active; 'I' for Inactive)
REMARK    1  A    between atoms: C_1  and  C_2 
REMARK    2  A    between atoms: C_7  and  O_13 
REMARK    3  A    between atoms: O_13  and  C_14 
REMARK    4  A    between atoms: N_20  and  C_23 
REMARK    5  A    between atoms: C_28  and  C_29 
REMARK       I    between atoms: C_29  and  N_31 
REMARK    6  A    between atoms: N_31  and  C_32 
REMARK    7  A    between atoms: C_32  and  C_33 
REMARK    8  A    between atoms: C_33  and  N_34 
ROOT
ATOM      1  C   LIG d   1       8.316  -1.583  -5.888  0.00  0.00     0.153 C 
ATOM      2  C   LIG d   1       9.496  -2.305  -5.283  0.00  0.00     0.053 A 
ATOM      3  C   LIG d   1      10.658  -1.684  -4.975  0.00  0.00    -0.015 A 
ATOM      4  C   LIG d   1      11.541  -2.704  -4.437  0.00  0.00     0.007 A 
ATOM      5  C   LIG d   1      12.857  -2.657  -3.965  0.00  0.00    -0.011 A 
ATOM      6  C   LIG d   1      13.400  -3.850  -3.512  0.00  0.00     0.121 A 
ATOM      7  C   LIG d   1      12.677  -5.036  -3.527  0.00  0.00    -0.018 A 
ATOM      8  C   LIG d   1      11.376  -5.101  -3.992  0.00  0.00    -0.034 A 
ATOM      9  C   LIG d   1      10.806  -3.916  -4.453  0.00  0.00     0.047 A 
ATOM     10  N   LIG d   1       9.572  -3.634  -4.969  0.00  0.00    -0.356 N 
ATOM     11  H   LIG d   1       8.708  -4.290  -5.146  0.00  0.00     0.166 HD
ATOM     12  C   LIG d   1      10.964  -0.219  -5.152  0.00  0.00    -0.009 C 
ATOM     13  C   LIG d   1       9.917   0.438  -6.064  0.00  0.00     0.022 C 
ATOM     14  N   LIG d   1       8.613  -0.139  -5.731  0.00  0.00    -0.265 N 
ATOM     15  C   LIG d   1       7.534   0.417  -5.179  0.00  0.00     0.317 C 
ATOM     16  O   LIG d   1       7.353   1.616  -5.092  0.00  0.00    -0.252 OA
ATOM     17  N   LIG d   1       6.670  -0.509  -4.731  0.00  0.00    -0.191 N 
ATOM     18  C   LIG d   1       7.070  -1.759  -5.053  0.00  0.00     0.257 C 
ATOM     19  O   LIG d   1       6.540  -2.803  -4.736  0.00  0.00    -0.272 OA
ATOM     20  H   LIG d   1      13.421  -1.736  -3.952  0.00  0.00     0.066 H 
ATOM     21  H   LIG d   1      13.147  -5.938  -3.164  0.00  0.00     0.066 H 
ATOM     22  H   LIG d   1      10.824  -6.030  -3.999  0.00  0.00     0.064 H 
ATOM     23  H   LIG d   1      10.951   0.280  -4.172  0.00  0.00     0.033 H 
ATOM     24  H   LIG d   1      11.959  -0.105  -5.608  0.00  0.00     0.033 H 
ATOM     25  H   LIG d   1       9.909   1.524  -5.891  0.00  0.00     0.047 H 
ATOM     26  H   LIG d   1      10.167   0.235  -7.116  0.00  0.00     0.047 H 
ENDROOT
BRANCH  17  27
ATOM     27  C   LIG d   1       5.504  -0.217  -4.022  0.00  0.00     0.058 A 
ATOM     28  C   LIG d   1       4.268  -0.182  -4.681  0.00  0.00     0.059 A 
ATOM     29  C   LIG d   1       3.107   0.105  -3.960  0.00  0.00    -0.048 A 
ATOM     30  C   LIG d   1       3.184   0.361  -2.607  0.00  0.00    -0.061 A 
ATOM     31  H   LIG d   1       2.151   0.131  -4.460  0.00  0.00     0.063 H 
ATOM     32  C   LIG d   1       4.409   0.330  -1.959  0.00  0.00    -0.060 A 
ATOM     33  H   LIG d   1       2.287   0.587  -2.051  0.00  0.00     0.062 H 
ATOM     34  C   LIG d   1       5.563   0.043  -2.660  0.00  0.00    -0.039 A 
ATOM     35  H   LIG d   1       4.460   0.533  -0.899  0.00  0.00     0.062 H 
ATOM     36  H   LIG d   1       6.514   0.022  -2.148  0.00  0.00     0.064 H 
BRANCH  28  37
ATOM     37  C   LIG d   1       4.191  -0.453  -6.130  0.00  0.00     0.246 C 
ATOM     38  O   LIG d   1       4.286   0.463  -6.925  0.00  0.00    -0.270 OA
ATOM     39  N   LIG d   1       4.016  -1.713  -6.573  0.00  0.00    -0.310 N 
ATOM     40  H   LIG d   1       3.931  -2.542  -5.854  0.00  0.00     0.149 HD
BRANCH  39  41
ATOM     41  C   LIG d   1       3.940  -1.980  -8.011  0.00  0.00     0.025 C 
ATOM     42  H   LIG d   1       3.073  -1.455  -8.436  0.00  0.00     0.048 H 
ATOM     43  H   LIG d   1       4.859  -1.626  -8.500  0.00  0.00     0.048 H 
BRANCH  41  44
ATOM     44  C   LIG d   1       3.788  -3.486  -8.243  0.00  0.00     0.015 C 
ATOM     45  H   LIG d   1       2.739  -3.777  -8.083  0.00  0.00     0.044 H 
ATOM     46  H   LIG d   1       4.083  -3.729  -9.273  0.00  0.00     0.044 H 
BRANCH  44  47
ATOM     47  N   LIG d   1       4.648  -4.215  -7.301  0.00  0.00    -0.296 N 
ATOM     48  C   LIG d   1       3.891  -5.261  -6.598  0.00  0.00     0.022 C 
ATOM     49  C   LIG d   1       4.807  -5.954  -5.587  0.00  0.00     0.060 C 
ATOM     50  H   LIG d   1       3.039  -4.806  -6.072  0.00  0.00     0.045 H 
ATOM     51  H   LIG d   1       3.521  -5.998  -7.326  0.00  0.00     0.045 H 
ATOM     52  O   LIG d   1       5.951  -6.478  -6.268  0.00  0.00    -0.377 OA
ATOM     53  H   LIG d   1       4.263  -6.775  -5.099  0.00  0.00     0.057 H 
ATOM     54  H   LIG d   1       5.134  -5.228  -4.827  0.00  0.00     0.057 H 
ATOM     55  C   LIG d   1       6.712  -5.486  -6.963  0.00  0.00     0.060 C 
ATOM     56  C   LIG d   1       5.814  -4.788  -7.988  0.00  0.00     0.022 C 
ATOM     57  H   LIG d   1       7.556  -5.964  -7.480  0.00  0.00     0.057 H 
ATOM     58  H   LIG d   1       7.093  -4.745  -6.245  0.00  0.00     0.057 H 
ATOM     59  H   LIG d   1       5.476  -5.517  -8.738  0.00  0.00     0.045 H 
ATOM     60  H   LIG d   1       6.378  -3.985  -8.486  0.00  0.00     0.045 H 
ENDBRANCH  44  47
ENDBRANCH  41  44
ENDBRANCH  39  41
ENDBRANCH  28  37
ENDBRANCH  17  27
BRANCH   1  61
ATOM     61  C   LIG d   1       8.084  -1.969  -7.349  0.00  0.00    -0.029 C 
ATOM     62  H   LIG d   1       7.229  -1.404  -7.747  0.00  0.00     0.026 H 
ATOM     63  H   LIG d   1       7.873  -3.047  -7.416  0.00  0.00     0.026 H 
ATOM     64  H   LIG d   1       8.984  -1.736  -7.937  0.00  0.00     0.026 H 
ENDBRANCH   1  61
BRANCH   6  65
ATOM     65  O   LIG d   1      14.676  -3.859  -3.042  0.00  0.00    -0.495 OA
BRANCH  65  66
ATOM     66  C   LIG d   1      15.282  -2.591  -2.784  0.00  0.00     0.079 C 
ATOM     67  H   LIG d   1      14.652  -2.017  -2.089  0.00  0.00     0.066 H 
ATOM     68  H   LIG d   1      15.385  -2.036  -3.730  0.00  0.00     0.066 H 
ATOM     69  H   LIG d   1      16.275  -2.743  -2.338  0.00  0.00     0.066 H 
ENDBRANCH  65  66
ENDBRANCH   6  65
TORSDOF 8
ENDMDL
MODEL 7
REMARK VINA RESULT:      -6.9      3.345      6.821
REMARK  8 active torsions:
REMARK  status: ('A' for Active; 'I' for Inactive)
REMARK    1  A    between atoms: C_1  and  C_2 
REMARK    2  A    between atoms: C_7  and  O_13 
REMARK    3  A    between atoms: O_13  and  C_14 
REMARK    4  A    between atoms: N_20  and  C_23 
REMARK    5  A    between atoms: C_28  and  C_29 
REMARK       I    between atoms: C_29  and  N_31 
REMARK    6  A    between atoms: N_31  and  C_32 
REMARK    7  A    between atoms: C_32  and  C_33 
REMARK    8  A    between atoms: C_33  and  N_34 
ROOT
ATOM      1  C   LIG d   1       3.578   0.845  -8.437  0.00  0.00     0.153 C 
ATOM      2  C   LIG d   1       3.152   0.105  -9.684  0.00  0.00     0.053 A 
ATOM      3  C   LIG d   1       4.022  -0.273 -10.647  0.00  0.00    -0.015 A 
ATOM      4  C   LIG d   1       3.238  -0.934 -11.676  0.00  0.00     0.007 A 
ATOM      5  C   LIG d   1       3.588  -1.516 -12.899  0.00  0.00    -0.011 A 
ATOM      6  C   LIG d   1       2.557  -2.071 -13.643  0.00  0.00     0.121 A 
ATOM      7  C   LIG d   1       1.240  -2.051 -13.199  0.00  0.00    -0.018 A 
ATOM      8  C   LIG d   1       0.877  -1.477 -11.993  0.00  0.00    -0.034 A 
ATOM      9  C   LIG d   1       1.894  -0.912 -11.227  0.00  0.00     0.047 A 
ATOM     10  N   LIG d   1       1.882  -0.278 -10.015  0.00  0.00    -0.356 N 
ATOM     11  H   LIG d   1       1.046  -0.058  -9.336  0.00  0.00     0.166 HD
ATOM     12  C   LIG d   1       5.513  -0.052 -10.643  0.00  0.00    -0.009 C 
ATOM     13  C   LIG d   1       5.897   0.977  -9.570  0.00  0.00     0.022 C 
ATOM     14  N   LIG d   1       5.056   0.732  -8.397  0.00  0.00    -0.265 N 
ATOM     15  C   LIG d   1       5.375   0.304  -7.176  0.00  0.00     0.317 C 
ATOM     16  O   LIG d   1       6.506   0.290  -6.732  0.00  0.00    -0.252 OA
ATOM     17  N   LIG d   1       4.294  -0.111  -6.495  0.00  0.00    -0.191 N 
ATOM     18  C   LIG d   1       3.155   0.114  -7.186  0.00  0.00     0.257 C 
ATOM     19  O   LIG d   1       2.029  -0.205  -6.868  0.00  0.00    -0.272 OA
ATOM     20  H   LIG d   1       4.610  -1.534 -13.246  0.00  0.00     0.066 H 
ATOM     21  H   LIG d   1       0.474  -2.496 -13.816  0.00  0.00     0.066 H 
ATOM     22  H   LIG d   1      -0.151  -1.467 -11.660  0.00  0.00     0.064 H 
ATOM     23  H   LIG d   1       6.024  -1.002 -10.428  0.00  0.00     0.033 H 
ATOM     24  H   LIG d   1       5.832   0.320 -11.629  0.00  0.00     0.033 H 
ATOM     25  H   LIG d   1       6.959   0.858  -9.311  0.00  0.00     0.047 H 
ATOM     26  H   LIG d   1       5.725   1.992  -9.958  0.00  0.00     0.047 H 
ENDROOT
BRANCH  17  27
ATOM     27  C   LIG d   1       4.341  -0.702  -5.231  0.00  0.00     0.058 A 
ATOM     28  C   LIG d   1       4.627  -2.067  -5.101  0.00  0.00     0.059 A 
ATOM     29  C   LIG d   1       4.677  -2.645  -3.831  0.00  0.00    -0.048 A 
ATOM     30  C   LIG d   1       4.435  -1.873  -2.714  0.00  0.00    -0.061 A 
ATOM     31  H   LIG d   1       4.900  -3.696  -3.723  0.00  0.00     0.063 H 
ATOM     32  C   LIG d   1       4.148  -0.524  -2.846  0.00  0.00    -0.060 A 
ATOM     33  H   LIG d   1       4.470  -2.322  -1.733  0.00  0.00     0.062 H 
ATOM     34  C   LIG d   1       4.100   0.060  -4.096  0.00  0.00    -0.039 A 
ATOM     35  H   LIG d   1       3.959   0.073  -1.966  0.00  0.00     0.062 H 
ATOM     36  H   LIG d   1       3.875   1.113  -4.191  0.00  0.00     0.064 H 
BRANCH  28  37
ATOM     37  C   LIG d   1       4.880  -2.890  -6.300  0.00  0.00     0.246 C 
ATOM     38  O   LIG d   1       6.017  -3.039  -6.706  0.00  0.00    -0.270 OA
ATOM     39  N   LIG d   1       3.853  -3.476  -6.945  0.00  0.00    -0.310 N 
ATOM     40  H   LIG d   1       2.824  -3.341  -6.578  0.00  0.00     0.149 HD
BRANCH  39  41
ATOM     41  C   LIG d   1       4.105  -4.292  -8.136  0.00  0.00     0.025 C 
ATOM     42  H   LIG d   1       5.151  -4.168  -8.449  0.00  0.00     0.048 H 
ATOM     43  H   LIG d   1       3.914  -5.349  -7.902  0.00  0.00     0.048 H 
BRANCH  41  44
ATOM     44  C   LIG d   1       3.177  -3.844  -9.267  0.00  0.00     0.015 C 
ATOM     45  H   LIG d   1       2.406  -3.170  -8.864  0.00  0.00     0.044 H 
ATOM     46  H   LIG d   1       3.762  -3.315 -10.033  0.00  0.00     0.044 H 
BRANCH  44  47
ATOM     47  N   LIG d   1       2.534  -5.020  -9.867  0.00  0.00    -0.296 N 
ATOM     48  C   LIG d   1       2.565  -4.947 -11.335  0.00  0.00     0.022 C 
ATOM     49  C   LIG d   1       1.834  -6.159 -11.917  0.00  0.00     0.060 C 
ATOM     50  H   LIG d   1       2.069  -4.023 -11.666  0.00  0.00     0.045 H 
ATOM     51  H   LIG d   1       3.610  -4.946 -11.680  0.00  0.00     0.045 H 
ATOM     52  O   LIG d   1       2.438  -7.357 -11.422  0.00  0.00    -0.377 OA
ATOM     53  H   LIG d   1       1.904  -6.139 -13.014  0.00  0.00     0.057 H 
ATOM     54  H   LIG d   1       0.776  -6.130 -11.617  0.00  0.00     0.057 H 
ATOM     55  C   LIG d   1       2.424  -7.462  -9.995  0.00  0.00     0.060 C 
ATOM     56  C   LIG d   1       3.161  -6.263  -9.394  0.00  0.00     0.022 C 
ATOM     57  H   LIG d   1       2.925  -8.391  -9.689  0.00  0.00     0.057 H 
ATOM     58  H   LIG d   1       1.384  -7.470  -9.637  0.00  0.00     0.057 H 
ATOM     59  H   LIG d   1       4.215  -6.283  -9.707  0.00  0.00     0.045 H 
ATOM     60  H   LIG d   1       3.104  -6.307  -8.296  0.00  0.00     0.045 H 
ENDBRANCH  44  47
ENDBRANCH  41  44
ENDBRANCH  39  41
ENDBRANCH  28  37
ENDBRANCH  17  27
BRANCH   1  61
ATOM     61  C   LIG d   1       3.110   2.300  -8.436  0.00  0.00    -0.029 C 
ATOM     62  H   LIG d   1       2.011   2.333  -8.418  0.00  0.00     0.026 H 
ATOM     63  H   LIG d   1       3.477   2.804  -9.344  0.00  0.00     0.026 H 
ATOM     64  H   LIG d   1       3.507   2.813  -7.548  0.00  0.00     0.026 H 
ENDBRANCH   1  61
BRANCH   6  65
ATOM     65  O   LIG d   1       2.842  -2.651 -14.838  0.00  0.00    -0.495 OA
BRANCH  65  66
ATOM     66  C   LIG d   1       3.608  -3.857 -14.809  0.00  0.00     0.079 C 
ATOM     67  H   LIG d   1       4.197  -3.941 -15.734  0.00  0.00     0.066 H 
ATOM     68  H   LIG d   1       2.929  -4.720 -14.727  0.00  0.00     0.066 H 
ATOM     69  H   LIG d   1       4.285  -3.841 -13.943  0.00  0.00     0.066 H 
ENDBRANCH  65  66
ENDBRANCH   6  65
TORSDOF 8
ENDMDL
MODEL 8
REMARK VINA RESULT:      -6.8      2.812      7.902
REMARK  8 active torsions:
REMARK  status: ('A' for Active; 'I' for Inactive)
REMARK    1  A    between atoms: C_1  and  C_2 
REMARK    2  A    between atoms: C_7  and  O_13 
REMARK    3  A    between atoms: O_13  and  C_14 
REMARK    4  A    between atoms: N_20  and  C_23 
REMARK    5  A    between atoms: C_28  and  C_29 
REMARK       I    between atoms: C_29  and  N_31 
REMARK    6  A    between atoms: N_31  and  C_32 
REMARK    7  A    between atoms: C_32  and  C_33 
REMARK    8  A    between atoms: C_33  and  N_34 
ROOT
ATOM      1  C   LIG d   1       7.361  -0.177  -7.149  0.00  0.00     0.153 C 
ATOM      2  C   LIG d   1       8.147   1.056  -7.528  0.00  0.00     0.053 A 
ATOM      3  C   LIG d   1       7.666   2.007  -8.360  0.00  0.00    -0.015 A 
ATOM      4  C   LIG d   1       8.710   3.009  -8.489  0.00  0.00     0.007 A 
ATOM      5  C   LIG d   1       8.786   4.202  -9.216  0.00  0.00    -0.011 A 
ATOM      6  C   LIG d   1       9.962   4.930  -9.099  0.00  0.00     0.121 A 
ATOM      7  C   LIG d   1      11.013   4.497  -8.301  0.00  0.00    -0.018 A 
ATOM      8  C   LIG d   1      10.955   3.320  -7.576  0.00  0.00    -0.034 A 
ATOM      9  C   LIG d   1       9.785   2.570  -7.677  0.00  0.00     0.047 A 
ATOM     10  N   LIG d   1       9.406   1.386  -7.109  0.00  0.00    -0.356 N 
ATOM     11  H   LIG d   1       9.946   0.724  -6.416  0.00  0.00     0.166 HD
ATOM     12  C   LIG d   1       6.310   2.019  -9.017  0.00  0.00    -0.009 C 
ATOM     13  C   LIG d   1       5.655   0.634  -8.913  0.00  0.00     0.022 C 
ATOM     14  N   LIG d   1       5.971   0.091  -7.591  0.00  0.00    -0.265 N 
ATOM     15  C   LIG d   1       5.180  -0.174  -6.550  0.00  0.00     0.317 C 
ATOM     16  O   LIG d   1       3.969  -0.254  -6.617  0.00  0.00    -0.252 OA
ATOM     17  N   LIG d   1       5.884  -0.342  -5.419  0.00  0.00    -0.191 N 
ATOM     18  C   LIG d   1       7.215  -0.305  -5.652  0.00  0.00     0.257 C 
ATOM     19  O   LIG d   1       8.106  -0.362  -4.830  0.00  0.00    -0.272 OA
ATOM     20  H   LIG d   1       7.970   4.540  -9.837  0.00  0.00     0.066 H 
ATOM     21  H   LIG d   1      11.908   5.101  -8.245  0.00  0.00     0.066 H 
ATOM     22  H   LIG d   1      11.781   2.995  -6.960  0.00  0.00     0.064 H 
ATOM     23  H   LIG d   1       5.666   2.759  -8.517  0.00  0.00     0.033 H 
ATOM     24  H   LIG d   1       6.418   2.287 -10.079  0.00  0.00     0.033 H 
ATOM     25  H   LIG d   1       4.566   0.733  -9.036  0.00  0.00     0.047 H 
ATOM     26  H   LIG d   1       6.055  -0.021  -9.701  0.00  0.00     0.047 H 
ENDROOT
BRANCH  17  27
ATOM     27  C   LIG d   1       5.314  -0.531  -4.159  0.00  0.00     0.058 A 
ATOM     28  C   LIG d   1       5.042  -1.825  -3.696  0.00  0.00     0.059 A 
ATOM     29  C   LIG d   1       4.477  -2.003  -2.431  0.00  0.00    -0.048 A 
ATOM     30  C   LIG d   1       4.181  -0.905  -1.651  0.00  0.00    -0.061 A 
ATOM     31  H   LIG d   1       4.267  -2.996  -2.066  0.00  0.00     0.063 H 
ATOM     32  C   LIG d   1       4.447   0.374  -2.114  0.00  0.00    -0.060 A 
ATOM     33  H   LIG d   1       3.741  -1.043  -0.675  0.00  0.00     0.062 H 
ATOM     34  C   LIG d   1       5.010   0.562  -3.360  0.00  0.00    -0.039 A 
ATOM     35  H   LIG d   1       4.212   1.228  -1.496  0.00  0.00     0.062 H 
ATOM     36  H   LIG d   1       5.214   1.562  -3.715  0.00  0.00     0.064 H 
BRANCH  28  37
ATOM     37  C   LIG d   1       5.356  -2.996  -4.538  0.00  0.00     0.246 C 
ATOM     38  O   LIG d   1       6.480  -3.461  -4.538  0.00  0.00    -0.270 OA
ATOM     39  N   LIG d   1       4.399  -3.551  -5.306  0.00  0.00    -0.310 N 
ATOM     40  H   LIG d   1       3.381  -3.131  -5.306  0.00  0.00     0.149 HD
BRANCH  39  41
ATOM     41  C   LIG d   1       4.711  -4.713  -6.142  0.00  0.00     0.025 C 
ATOM     42  H   LIG d   1       5.688  -4.565  -6.624  0.00  0.00     0.048 H 
ATOM     43  H   LIG d   1       4.744  -5.617  -5.516  0.00  0.00     0.048 H 
BRANCH  41  44
ATOM     44  C   LIG d   1       3.632  -4.875  -7.215  0.00  0.00     0.015 C 
ATOM     45  H   LIG d   1       3.358  -5.936  -7.302  0.00  0.00     0.044 H 
ATOM     46  H   LIG d   1       2.745  -4.289  -6.933  0.00  0.00     0.044 H 
BRANCH  44  47
ATOM     47  N   LIG d   1       4.148  -4.395  -8.504  0.00  0.00    -0.296 N 
ATOM     48  C   LIG d   1       3.675  -3.032  -8.786  0.00  0.00     0.022 C 
ATOM     49  C   LIG d   1       4.185  -2.595 -10.161  0.00  0.00     0.060 C 
ATOM     50  H   LIG d   1       2.575  -3.017  -8.779  0.00  0.00     0.045 H 
ATOM     51  H   LIG d   1       4.056  -2.345  -8.016  0.00  0.00     0.045 H 
ATOM     52  O   LIG d   1       5.612  -2.689 -10.187  0.00  0.00    -0.377 OA
ATOM     53  H   LIG d   1       3.883  -1.555 -10.353  0.00  0.00     0.057 H 
ATOM     54  H   LIG d   1       3.760  -3.249 -10.937  0.00  0.00     0.057 H 
ATOM     55  C   LIG d   1       6.107  -4.003  -9.917  0.00  0.00     0.060 C 
ATOM     56  C   LIG d   1       5.616  -4.455  -8.540  0.00  0.00     0.022 C 
ATOM     57  H   LIG d   1       7.207  -3.993  -9.929  0.00  0.00     0.057 H 
ATOM     58  H   LIG d   1       5.739  -4.700 -10.684  0.00  0.00     0.057 H 
ATOM     59  H   LIG d   1       6.029  -3.791  -7.766  0.00  0.00     0.045 H 
ATOM     60  H   LIG d   1       5.946  -5.487  -8.350  0.00  0.00     0.045 H 
ENDBRANCH  44  47
ENDBRANCH  41  44
ENDBRANCH  39  41
ENDBRANCH  28  37
ENDBRANCH  17  27
BRANCH   1  61
ATOM     61  C   LIG d   1       7.932  -1.447  -7.780  0.00  0.00    -0.029 C 
ATOM     62  H   LIG d   1       7.855  -2.279  -7.064  0.00  0.00     0.026 H 
ATOM     63  H   LIG d   1       8.989  -1.285  -8.040  0.00  0.00     0.026 H 
ATOM     64  H   LIG d   1       7.365  -1.693  -8.690  0.00  0.00     0.026 H 
ENDBRANCH   1  61
BRANCH   6  65
ATOM     65  O   LIG d   1      10.088   6.096  -9.784  0.00  0.00    -0.495 OA
BRANCH  65  66
ATOM     66  C   LIG d   1       9.377   7.227  -9.276  0.00  0.00     0.079 C 
ATOM     67  H   LIG d   1       8.321   7.163  -9.577  0.00  0.00     0.066 H 
ATOM     68  H   LIG d   1       9.818   8.151  -9.684  0.00  0.00     0.066 H 
ATOM     69  H   LIG d   1       9.446   7.242  -8.179  0.00  0.00     0.066 H 
ENDBRANCH  65  66
ENDBRANCH   6  65
TORSDOF 8
ENDMDL
MODEL 9
REMARK VINA RESULT:      -6.7      3.072      8.018
REMARK  8 active torsions:
REMARK  status: ('A' for Active; 'I' for Inactive)
REMARK    1  A    between atoms: C_1  and  C_2 
REMARK    2  A    between atoms: C_7  and  O_13 
REMARK    3  A    between atoms: O_13  and  C_14 
REMARK    4  A    between atoms: N_20  and  C_23 
REMARK    5  A    between atoms: C_28  and  C_29 
REMARK       I    between atoms: C_29  and  N_31 
REMARK    6  A    between atoms: N_31  and  C_32 
REMARK    7  A    between atoms: C_32  and  C_33 
REMARK    8  A    between atoms: C_33  and  N_34 
ROOT
ATOM      1  C   LIG d   1       5.620  -5.299  -6.156  0.00  0.00     0.153 C 
ATOM      2  C   LIG d   1       5.589  -4.025  -5.346  0.00  0.00     0.053 A 
ATOM      3  C   LIG d   1       6.484  -3.026  -5.512  0.00  0.00    -0.015 A 
ATOM      4  C   LIG d   1       6.136  -1.994  -4.550  0.00  0.00     0.007 A 
ATOM      5  C   LIG d   1       6.704  -0.750  -4.256  0.00  0.00    -0.011 A 
ATOM      6  C   LIG d   1       6.095  -0.008  -3.254  0.00  0.00     0.121 A 
ATOM      7  C   LIG d   1       4.977  -0.475  -2.574  0.00  0.00    -0.018 A 
ATOM      8  C   LIG d   1       4.405  -1.704  -2.850  0.00  0.00    -0.034 A 
ATOM      9  C   LIG d   1       4.997  -2.469  -3.853  0.00  0.00     0.047 A 
ATOM     10  N   LIG d   1       4.693  -3.700  -4.364  0.00  0.00    -0.356 N 
ATOM     11  H   LIG d   1       3.885  -4.399  -4.103  0.00  0.00     0.166 HD
ATOM     12  C   LIG d   1       7.615  -2.994  -6.508  0.00  0.00    -0.009 C 
ATOM     13  C   LIG d   1       7.857  -4.397  -7.084  0.00  0.00     0.022 C 
ATOM     14  N   LIG d   1       6.551  -5.029  -7.278  0.00  0.00    -0.265 N 
ATOM     15  C   LIG d   1       5.918  -5.387  -8.396  0.00  0.00     0.317 C 
ATOM     16  O   LIG d   1       6.456  -5.488  -9.481  0.00  0.00    -0.252 OA
ATOM     17  N   LIG d   1       4.615  -5.622  -8.177  0.00  0.00    -0.191 N 
ATOM     18  C   LIG d   1       4.308  -5.540  -6.864  0.00  0.00     0.257 C 
ATOM     19  O   LIG d   1       3.209  -5.638  -6.359  0.00  0.00    -0.272 OA
ATOM     20  H   LIG d   1       7.572  -0.385  -4.783  0.00  0.00     0.066 H 
ATOM     21  H   LIG d   1       4.542   0.142  -1.801  0.00  0.00     0.066 H 
ATOM     22  H   LIG d   1       3.536  -2.055  -2.313  0.00  0.00     0.064 H 
ATOM     23  H   LIG d   1       7.362  -2.307  -7.329  0.00  0.00     0.033 H 
ATOM     24  H   LIG d   1       8.533  -2.647  -6.010  0.00  0.00     0.033 H 
ATOM     25  H   LIG d   1       8.388  -4.313  -8.044  0.00  0.00     0.047 H 
ATOM     26  H   LIG d   1       8.464  -4.984  -6.379  0.00  0.00     0.047 H 
ENDROOT
BRANCH  17  27
ATOM     27  C   LIG d   1       3.690  -5.916  -9.181  0.00  0.00     0.058 A 
ATOM     28  C   LIG d   1       3.170  -4.891  -9.982  0.00  0.00     0.059 A 
ATOM     29  C   LIG d   1       2.250  -5.197 -10.987  0.00  0.00    -0.048 A 
ATOM     30  C   LIG d   1       1.852  -6.504 -11.179  0.00  0.00    -0.061 A 
ATOM     31  H   LIG d   1       1.848  -4.413 -11.610  0.00  0.00     0.063 H 
ATOM     32  C   LIG d   1       2.365  -7.515 -10.382  0.00  0.00    -0.060 A 
ATOM     33  H   LIG d   1       1.138  -6.739 -11.954  0.00  0.00     0.062 H 
ATOM     34  C   LIG d   1       3.278  -7.225  -9.388  0.00  0.00    -0.039 A 
ATOM     35  H   LIG d   1       2.047  -8.535 -10.539  0.00  0.00     0.062 H 
ATOM     36  H   LIG d   1       3.672  -8.019  -8.771  0.00  0.00     0.064 H 
BRANCH  28  37
ATOM     37  C   LIG d   1       3.596  -3.494  -9.769  0.00  0.00     0.246 C 
ATOM     38  O   LIG d   1       3.076  -2.826  -8.896  0.00  0.00    -0.270 OA
ATOM     39  N   LIG d   1       4.561  -2.957 -10.542  0.00  0.00    -0.310 N 
ATOM     40  H   LIG d   1       5.032  -3.561 -11.332  0.00  0.00     0.149 HD
BRANCH  39  41
ATOM     41  C   LIG d   1       4.983  -1.570 -10.330  0.00  0.00     0.025 C 
ATOM     42  H   LIG d   1       4.785  -1.282  -9.288  0.00  0.00     0.048 H 
ATOM     43  H   LIG d   1       6.058  -1.478 -10.539  0.00  0.00     0.048 H 
BRANCH  41  44
ATOM     44  C   LIG d   1       4.200  -0.650 -11.270  0.00  0.00     0.015 C 
ATOM     45  H   LIG d   1       4.796  -0.458 -12.175  0.00  0.00     0.044 H 
ATOM     46  H   LIG d   1       3.253  -1.133 -11.551  0.00  0.00     0.044 H 
BRANCH  44  47
ATOM     47  N   LIG d   1       3.920   0.621 -10.590  0.00  0.00    -0.296 N 
ATOM     48  C   LIG d   1       2.811   0.475  -9.636  0.00  0.00     0.022 C 
ATOM     49  C   LIG d   1       2.514   1.833  -8.995  0.00  0.00     0.060 C 
ATOM     50  H   LIG d   1       1.917   0.115 -10.166  0.00  0.00     0.045 H 
ATOM     51  H   LIG d   1       3.091  -0.248  -8.856  0.00  0.00     0.045 H 
ATOM     52  O   LIG d   1       3.701   2.331  -8.372  0.00  0.00    -0.377 OA
ATOM     53  H   LIG d   1       1.724   1.718  -8.239  0.00  0.00     0.057 H 
ATOM     54  H   LIG d   1       2.181   2.541  -9.769  0.00  0.00     0.057 H 
ATOM     55  C   LIG d   1       4.802   2.486  -9.272  0.00  0.00     0.060 C 
ATOM     56  C   LIG d   1       5.122   1.135  -9.916  0.00  0.00     0.022 C 
ATOM     57  H   LIG d   1       5.682   2.846  -8.720  0.00  0.00     0.057 H 
ATOM     58  H   LIG d   1       4.538   3.212 -10.055  0.00  0.00     0.057 H 
ATOM     59  H   LIG d   1       5.439   0.423  -9.140  0.00  0.00     0.045 H 
ATOM     60  H   LIG d   1       5.930   1.259 -10.652  0.00  0.00     0.045 H 
ENDBRANCH  44  47
ENDBRANCH  41  44
ENDBRANCH  39  41
ENDBRANCH  28  37
ENDBRANCH  17  27
BRANCH   1  61
ATOM     61  C   LIG d   1       6.053  -6.507  -5.325  0.00  0.00    -0.029 C 
ATOM     62  H   LIG d   1       6.265  -6.186  -4.294  0.00  0.00     0.026 H 
ATOM     63  H   LIG d   1       6.960  -6.949  -5.765  0.00  0.00     0.026 H 
ATOM     64  H   LIG d   1       5.247  -7.255  -5.318  0.00  0.00     0.026 H 
ENDBRANCH   1  61
BRANCH   6  65
ATOM     65  O   LIG d   1       6.607   1.209  -2.929  0.00  0.00    -0.495 OA
BRANCH  65  66
ATOM     66  C   LIG d   1       7.610   1.743  -3.795  0.00  0.00     0.079 C 
ATOM     67  H   LIG d   1       8.583   1.291  -3.553  0.00  0.00     0.066 H 
ATOM     68  H   LIG d   1       7.668   2.834  -3.659  0.00  0.00     0.066 H 
ATOM     69  H   LIG d   1       7.351   1.519  -4.840  0.00  0.00     0.066 H 
ENDBRANCH  65  66
ENDBRANCH   6  65
TORSDOF 8
ENDMDL
MODEL 10
REMARK VINA RESULT:      -6.7      3.770      7.250
REMARK  8 active torsions:
REMARK  status: ('A' for Active; 'I' for Inactive)
REMARK    1  A    between atoms: C_1  and  C_2 
REMARK    2  A    between atoms: C_7  and  O_13 
REMARK    3  A    between atoms: O_13  and  C_14 
REMARK    4  A    between atoms: N_20  and  C_23 
REMARK    5  A    between atoms: C_28  and  C_29 
REMARK       I    between atoms: C_29  and  N_31 
REMARK    6  A    between atoms: N_31  and  C_32 
REMARK    7  A    between atoms: C_32  and  C_33 
REMARK    8  A    between atoms: C_33  and  N_34 
ROOT
ATOM      1  C   LIG d   1       7.059  -0.356  -7.362  0.00  0.00     0.153 C 
ATOM      2  C   LIG d   1       7.909   0.849  -7.688  0.00  0.00     0.053 A 
ATOM      3  C   LIG d   1       7.463   1.883  -8.437  0.00  0.00    -0.015 A 
ATOM      4  C   LIG d   1       8.564   2.825  -8.539  0.00  0.00     0.007 A 
ATOM      5  C   LIG d   1       8.692   4.057  -9.188  0.00  0.00    -0.011 A 
ATOM      6  C   LIG d   1       9.915   4.701  -9.068  0.00  0.00     0.121 A 
ATOM      7  C   LIG d   1      10.963   4.151  -8.341  0.00  0.00    -0.018 A 
ATOM      8  C   LIG d   1      10.854   2.932  -7.695  0.00  0.00    -0.034 A 
ATOM      9  C   LIG d   1       9.636   2.265  -7.800  0.00  0.00     0.047 A 
ATOM     10  N   LIG d   1       9.201   1.070  -7.297  0.00  0.00    -0.356 N 
ATOM     11  H   LIG d   1       9.720   0.331  -6.671  0.00  0.00     0.166 HD
ATOM     12  C   LIG d   1       6.088   2.024  -9.038  0.00  0.00    -0.009 C 
ATOM     13  C   LIG d   1       5.349   0.678  -9.001  0.00  0.00     0.022 C 
ATOM     14  N   LIG d   1       5.675   0.027  -7.731  0.00  0.00    -0.265 N 
ATOM     15  C   LIG d   1       4.905  -0.259  -6.681  0.00  0.00     0.317 C 
ATOM     16  O   LIG d   1       3.689  -0.259  -6.706  0.00  0.00    -0.252 OA
ATOM     17  N   LIG d   1       5.635  -0.547  -5.591  0.00  0.00    -0.191 N 
ATOM     18  C   LIG d   1       6.957  -0.577  -5.872  0.00  0.00     0.257 C 
ATOM     19  O   LIG d   1       7.869  -0.745  -5.091  0.00  0.00    -0.272 OA
ATOM     20  H   LIG d   1       7.878   4.487  -9.753  0.00  0.00     0.066 H 
ATOM     21  H   LIG d   1      11.896   4.692  -8.280  0.00  0.00     0.066 H 
ATOM     22  H   LIG d   1      11.678   2.516  -7.134  0.00  0.00     0.064 H 
ATOM     23  H   LIG d   1       5.511   2.766  -8.466  0.00  0.00     0.033 H 
ATOM     24  H   LIG d   1       6.177   2.356 -10.084  0.00  0.00     0.033 H 
ATOM     25  H   LIG d   1       4.265   0.852  -9.075  0.00  0.00     0.047 H 
ATOM     26  H   LIG d   1       5.679   0.055  -9.846  0.00  0.00     0.047 H 
ENDROOT
BRANCH  17  27
ATOM     27  C   LIG d   1       5.097  -0.787  -4.326  0.00  0.00     0.058 A 
ATOM     28  C   LIG d   1       4.836  -2.098  -3.907  0.00  0.00     0.059 A 
ATOM     29  C   LIG d   1       4.304  -2.326  -2.636  0.00  0.00    -0.048 A 
ATOM     30  C   LIG d   1       4.029  -1.260  -1.805  0.00  0.00    -0.061 A 
ATOM     31  H   LIG d   1       4.102  -3.333  -2.306  0.00  0.00     0.063 H 
ATOM     32  C   LIG d   1       4.284   0.036  -2.224  0.00  0.00    -0.060 A 
ATOM     33  H   LIG d   1       3.614  -1.437  -0.825  0.00  0.00     0.062 H 
ATOM     34  C   LIG d   1       4.815   0.274  -3.476  0.00  0.00    -0.039 A 
ATOM     35  H   LIG d   1       4.066   0.865  -1.567  0.00  0.00     0.062 H 
ATOM     36  H   LIG d   1       5.010   1.287  -3.795  0.00  0.00     0.064 H 
BRANCH  28  37
ATOM     37  C   LIG d   1       5.127  -3.235  -4.803  0.00  0.00     0.246 C 
ATOM     38  O   LIG d   1       4.242  -3.710  -5.489  0.00  0.00    -0.270 OA
ATOM     39  N   LIG d   1       6.372  -3.747  -4.860  0.00  0.00    -0.310 N 
ATOM     40  H   LIG d   1       7.173  -3.317  -4.239  0.00  0.00     0.149 HD
BRANCH  39  41
ATOM     41  C   LIG d   1       6.660  -4.876  -5.749  0.00  0.00     0.025 C 
ATOM     42  H   LIG d   1       5.823  -5.588  -5.719  0.00  0.00     0.048 H 
ATOM     43  H   LIG d   1       6.793  -4.509  -6.776  0.00  0.00     0.048 H 
BRANCH  41  44
ATOM     44  C   LIG d   1       7.940  -5.575  -5.287  0.00  0.00     0.015 C 
ATOM     45  H   LIG d   1       7.680  -6.444  -4.665  0.00  0.00     0.044 H 
ATOM     46  H   LIG d   1       8.512  -5.910  -6.164  0.00  0.00     0.044 H 
BRANCH  44  47
ATOM     47  N   LIG d   1       8.753  -4.637  -4.501  0.00  0.00    -0.296 N 
ATOM     48  C   LIG d   1       9.315  -5.294  -3.313  0.00  0.00     0.022 C 
ATOM     49  C   LIG d   1      10.104  -4.269  -2.494  0.00  0.00     0.060 C 
ATOM     50  H   LIG d   1       8.499  -5.705  -2.700  0.00  0.00     0.045 H 
ATOM     51  H   LIG d   1       9.985  -6.109  -3.626  0.00  0.00     0.045 H 
ATOM     52  O   LIG d   1      11.116  -3.684  -3.318  0.00  0.00    -0.377 OA
ATOM     53  H   LIG d   1      10.574  -4.768  -1.634  0.00  0.00     0.057 H 
ATOM     54  H   LIG d   1       9.423  -3.483  -2.134  0.00  0.00     0.057 H 
ATOM     55  C   LIG d   1      10.604  -3.035  -4.485  0.00  0.00     0.060 C 
ATOM     56  C   LIG d   1       9.820  -4.048  -5.323  0.00  0.00     0.022 C 
ATOM     57  H   LIG d   1      11.437  -2.633  -5.079  0.00  0.00     0.057 H 
ATOM     58  H   LIG d   1       9.937  -2.213  -4.186  0.00  0.00     0.057 H 
ATOM     59  H   LIG d   1      10.497  -4.842  -5.669  0.00  0.00     0.045 H 
ATOM     60  H   LIG d   1       9.375  -3.541  -6.193  0.00  0.00     0.045 H 
ENDBRANCH  44  47
ENDBRANCH  41  44
ENDBRANCH  39  41
ENDBRANCH  28  37
ENDBRANCH  17  27
BRANCH   1  61
ATOM     61  C   LIG d   1       7.525  -1.613  -8.097  0.00  0.00    -0.029 C 
ATOM     62  H   LIG d   1       6.908  -1.763  -8.996  0.00  0.00     0.026 H 
ATOM     63  H   LIG d   1       7.423  -2.486  -7.433  0.00  0.00     0.026 H 
ATOM     64  H   LIG d   1       8.579  -1.498  -8.390  0.00  0.00     0.026 H 
ENDBRANCH   1  61
BRANCH   6  65
ATOM     65  O   LIG d   1      10.092   5.902  -9.679  0.00  0.00    -0.495 OA
BRANCH  65  66
ATOM     66  C   LIG d   1      11.328   6.104 -10.368  0.00  0.00     0.079 C 
ATOM     67  H   LIG d   1      12.001   6.710  -9.745  0.00  0.00     0.066 H 
ATOM     68  H   LIG d   1      11.137   6.627 -11.318  0.00  0.00     0.066 H 
ATOM     69  H   LIG d   1      11.797   5.130 -10.574  0.00  0.00     0.066 H 
ENDBRANCH  65  66
ENDBRANCH   6  65
TORSDOF 8
ENDMDL
