MODEL 1
REMARK VINA RESULT:      -6.8      0.000      0.000
REMARK  9 active torsions:
REMARK  status: ('A' for Active; 'I' for Inactive)
REMARK    1  A    between atoms: C_1  and  O_2 
REMARK    2  A    between atoms: O_2  and  C_3 
REMARK    3  A    between atoms: C_6  and  N_9 
REMARK       I    between atoms: N_9  and  C_10 
REMARK    4  A    between atoms: C_10  and  C_12 
REMARK    5  A    between atoms: C_12  and  C_13 
REMARK    6  A    between atoms: C_12  and  O_17 
REMARK    7  A    between atoms: O_17  and  C_18 
REMARK    8  A    between atoms: C_18  and  C_19 
REMARK    9  A    between atoms: C_19  and  C_20 
ROOT
ATOM      1  N   LIG d   1       4.413  -2.180  -6.297  0.00  0.00    -0.281 N 
ATOM      2  C   LIG d   1       5.398  -1.751  -5.482  0.00  0.00     0.292 C 
ATOM      3  O   LIG d   1       5.987  -0.721  -5.733  0.00  0.00    -0.269 OA
ATOM      4  H   LIG d   1       3.894  -2.963  -6.059  0.00  0.00     0.155 HD
ENDROOT
BRANCH   2   5
ATOM      5  C   LIG d   1       5.769  -2.553  -4.261  0.00  0.00     0.387 C 
ATOM      6  F   LIG d   1       4.746  -3.463  -3.974  0.00  0.00    -0.190 F 
BRANCH   5   7
ATOM      7  C   LIG d   1       7.069  -3.313  -4.525  0.00  0.00     0.459 C 
ATOM      8  F   LIG d   1       6.786  -4.671  -4.706  0.00  0.00    -0.165 F 
ATOM      9  F   LIG d   1       7.680  -2.806  -5.677  0.00  0.00    -0.165 F 
ATOM     10  F   LIG d   1       7.931  -3.158  -3.433  0.00  0.00    -0.165 F 
ENDBRANCH   5   7
BRANCH   5  11
ATOM     11  O   LIG d   1       5.947  -1.672  -3.150  0.00  0.00    -0.263 OA
BRANCH  11  12
ATOM     12  C   LIG d   1       4.727  -1.269  -2.526  0.00  0.00     0.432 C 
ATOM     13  F   LIG d   1       3.644  -1.690  -3.304  0.00  0.00    -0.168 F 
ATOM     14  F   LIG d   1       4.641  -1.846  -1.254  0.00  0.00    -0.168 F 
BRANCH  12  15
ATOM     15  C   LIG d   1       4.700   0.256  -2.397  0.00  0.00     0.429 C 
ATOM     16  F   LIG d   1       4.757   0.611  -1.045  0.00  0.00    -0.186 F 
ATOM     17  F   LIG d   1       5.800   0.800  -3.069  0.00  0.00    -0.186 F 
BRANCH  15  18
ATOM     18  C   LIG d   1       3.407   0.797  -3.012  0.00  0.00     0.463 C 
ATOM     19  F   LIG d   1       2.321   0.052  -2.542  0.00  0.00    -0.165 F 
ATOM     20  F   LIG d   1       3.244   2.138  -2.649  0.00  0.00    -0.165 F 
ATOM     21  F   LIG d   1       3.476   0.694  -4.406  0.00  0.00    -0.165 F 
ENDBRANCH  15  18
ENDBRANCH  12  15
ENDBRANCH  11  12
ENDBRANCH   5  11
ENDBRANCH   2   5
BRANCH   1  22
ATOM     22  C   LIG d   1       4.140  -1.493  -7.488  0.00  0.00     0.034 A 
ATOM     23  C   LIG d   1       3.182  -0.489  -7.506  0.00  0.00    -0.037 A 
ATOM     24  C   LIG d   1       2.914   0.187  -8.680  0.00  0.00    -0.018 A 
ATOM     25  H   LIG d   1       2.647  -0.236  -6.603  0.00  0.00     0.064 H 
ATOM     26  C   LIG d   1       3.602  -0.137  -9.841  0.00  0.00     0.120 A 
ATOM     27  H   LIG d   1       2.169   0.969  -8.695  0.00  0.00     0.066 H 
ATOM     28  C   LIG d   1       4.555  -1.144  -9.824  0.00  0.00    -0.018 A 
ATOM     29  C   LIG d   1       4.829  -1.817  -8.649  0.00  0.00    -0.037 A 
ATOM     30  H   LIG d   1       5.087  -1.399 -10.728  0.00  0.00     0.066 H 
ATOM     31  H   LIG d   1       5.574  -2.598  -8.635  0.00  0.00     0.064 H 
BRANCH  26  32
ATOM     32  O   LIG d   1       3.337   0.529 -10.996  0.00  0.00    -0.495 OA
BRANCH  32  33
ATOM     33  C   LIG d   1       4.019   0.086 -12.171  0.00  0.00     0.079 C 
ATOM     34  H   LIG d   1       4.196   0.934 -12.831  0.00  0.00     0.066 H 
ATOM     35  H   LIG d   1       4.974  -0.361 -11.890  0.00  0.00     0.066 H 
ATOM     36  H   LIG d   1       3.409  -0.656 -12.687  0.00  0.00     0.066 H 
ENDBRANCH  32  33
ENDBRANCH  26  32
ENDBRANCH   1  22
TORSDOF 9
ENDMDL
MODEL 2
REMARK VINA RESULT:      -6.7      3.373      4.883
REMARK  9 active torsions:
REMARK  status: ('A' for Active; 'I' for Inactive)
REMARK    1  A    between atoms: C_1  and  O_2 
REMARK    2  A    between atoms: O_2  and  C_3 
REMARK    3  A    between atoms: C_6  and  N_9 
REMARK       I    between atoms: N_9  and  C_10 
REMARK    4  A    between atoms: C_10  and  C_12 
REMARK    5  A    between atoms: C_12  and  C_13 
REMARK    6  A    between atoms: C_12  and  O_17 
REMARK    7  A    between atoms: O_17  and  C_18 
REMARK    8  A    between atoms: C_18  and  C_19 
REMARK    9  A    between atoms: C_19  and  C_20 
ROOT
ATOM      1  N   LIG d   1       3.911  -3.774  -6.015  0.00  0.00    -0.281 N 
ATOM      2  C   LIG d   1       4.883  -2.851  -6.154  0.00  0.00     0.292 C 
ATOM      3  O   LIG d   1       5.942  -3.157  -6.661  0.00  0.00    -0.269 OA
ATOM      4  H   LIG d   1       3.040  -3.514  -5.677  0.00  0.00     0.155 HD
ENDROOT
BRANCH   2   5
ATOM      5  C   LIG d   1       4.655  -1.439  -5.680  0.00  0.00     0.387 C 
ATOM      6  F   LIG d   1       5.887  -0.837  -5.400  0.00  0.00    -0.190 F 
BRANCH   5   7
ATOM      7  C   LIG d   1       3.936  -0.644  -6.771  0.00  0.00     0.459 C 
ATOM      8  F   LIG d   1       4.772   0.380  -7.230  0.00  0.00    -0.165 F 
ATOM      9  F   LIG d   1       3.616  -1.496  -7.834  0.00  0.00    -0.165 F 
ATOM     10  F   LIG d   1       2.763  -0.089  -6.249  0.00  0.00    -0.165 F 
ENDBRANCH   5   7
BRANCH   5  11
ATOM     11  O   LIG d   1       3.855  -1.457  -4.496  0.00  0.00    -0.263 OA
BRANCH  11  12
ATOM     12  C   LIG d   1       4.568  -1.834  -3.318  0.00  0.00     0.432 C 
ATOM     13  F   LIG d   1       3.875  -2.854  -2.659  0.00  0.00    -0.168 F 
ATOM     14  F   LIG d   1       5.844  -2.288  -3.670  0.00  0.00    -0.168 F 
BRANCH  12  15
ATOM     15  C   LIG d   1       4.696  -0.623  -2.390  0.00  0.00     0.429 C 
ATOM     16  F   LIG d   1       4.619  -1.046  -1.059  0.00  0.00    -0.186 F 
ATOM     17  F   LIG d   1       5.926   0.005  -2.610  0.00  0.00    -0.186 F 
BRANCH  15  18
ATOM     18  C   LIG d   1       3.561   0.362  -2.679  0.00  0.00     0.463 C 
ATOM     19  F   LIG d   1       3.505   1.319  -1.660  0.00  0.00    -0.165 F 
ATOM     20  F   LIG d   1       3.796   0.998  -3.903  0.00  0.00    -0.165 F 
ATOM     21  F   LIG d   1       2.347  -0.330  -2.737  0.00  0.00    -0.165 F 
ENDBRANCH  15  18
ENDBRANCH  12  15
ENDBRANCH  11  12
ENDBRANCH   5  11
ENDBRANCH   2   5
BRANCH   1  22
ATOM     22  C   LIG d   1       4.159  -5.110  -6.357  0.00  0.00     0.034 A 
ATOM     23  C   LIG d   1       4.666  -5.987  -5.407  0.00  0.00    -0.037 A 
ATOM     24  C   LIG d   1       4.910  -7.304  -5.746  0.00  0.00    -0.018 A 
ATOM     25  H   LIG d   1       4.869  -5.641  -4.405  0.00  0.00     0.064 H 
ATOM     26  C   LIG d   1       4.649  -7.751  -7.033  0.00  0.00     0.120 A 
ATOM     27  H   LIG d   1       5.303  -7.987  -5.007  0.00  0.00     0.066 H 
ATOM     28  C   LIG d   1       4.148  -6.873  -7.983  0.00  0.00    -0.018 A 
ATOM     29  C   LIG d   1       3.897  -5.557  -7.645  0.00  0.00    -0.037 A 
ATOM     30  H   LIG d   1       3.948  -7.220  -8.986  0.00  0.00     0.066 H 
ATOM     31  H   LIG d   1       3.503  -4.875  -8.383  0.00  0.00     0.064 H 
BRANCH  26  32
ATOM     32  O   LIG d   1       4.889  -9.047  -7.364  0.00  0.00    -0.495 OA
BRANCH  32  33
ATOM     33  C   LIG d   1       4.678 -10.027  -6.346  0.00  0.00     0.079 C 
ATOM     34  H   LIG d   1       5.149 -10.964  -6.639  0.00  0.00     0.066 H 
ATOM     35  H   LIG d   1       5.115  -9.677  -5.410  0.00  0.00     0.066 H 
ATOM     36  H   LIG d   1       3.608 -10.184  -6.210  0.00  0.00     0.066 H 
ENDBRANCH  32  33
ENDBRANCH  26  32
ENDBRANCH   1  22
TORSDOF 9
ENDMDL
MODEL 3
REMARK VINA RESULT:      -6.7      1.996      2.934
REMARK  9 active torsions:
REMARK  status: ('A' for Active; 'I' for Inactive)
REMARK    1  A    between atoms: C_1  and  O_2 
REMARK    2  A    between atoms: O_2  and  C_3 
REMARK    3  A    between atoms: C_6  and  N_9 
REMARK       I    between atoms: N_9  and  C_10 
REMARK    4  A    between atoms: C_10  and  C_12 
REMARK    5  A    between atoms: C_12  and  C_13 
REMARK    6  A    between atoms: C_12  and  O_17 
REMARK    7  A    between atoms: O_17  and  C_18 
REMARK    8  A    between atoms: C_18  and  C_19 
REMARK    9  A    between atoms: C_19  and  C_20 
ROOT
ATOM      1  N   LIG d   1       4.660   0.353  -7.346  0.00  0.00    -0.281 N 
ATOM      2  C   LIG d   1       5.750  -0.387  -7.061  0.00  0.00     0.292 C 
ATOM      3  O   LIG d   1       6.118  -1.249  -7.832  0.00  0.00    -0.269 OA
ATOM      4  H   LIG d   1       4.408   1.088  -6.767  0.00  0.00     0.155 HD
ENDROOT
BRANCH   2   5
ATOM      5  C   LIG d   1       6.512  -0.146  -5.783  0.00  0.00     0.387 C 
ATOM      6  F   LIG d   1       7.070  -1.349  -5.340  0.00  0.00    -0.190 F 
BRANCH   5   7
ATOM      7  C   LIG d   1       7.626   0.871  -6.038  0.00  0.00     0.459 C 
ATOM      8  F   LIG d   1       8.849   0.201  -6.158  0.00  0.00    -0.165 F 
ATOM      9  F   LIG d   1       7.359   1.569  -7.220  0.00  0.00    -0.165 F 
ATOM     10  F   LIG d   1       7.691   1.771  -4.969  0.00  0.00    -0.165 F 
ENDBRANCH   5   7
BRANCH   5  11
ATOM     11  O   LIG d   1       5.622   0.361  -4.786  0.00  0.00    -0.263 OA
BRANCH  11  12
ATOM     12  C   LIG d   1       5.175  -0.622  -3.852  0.00  0.00     0.432 C 
ATOM     13  F   LIG d   1       4.885  -1.811  -4.529  0.00  0.00    -0.168 F 
ATOM     14  F   LIG d   1       6.178  -0.857  -2.906  0.00  0.00    -0.168 F 
BRANCH  12  15
ATOM     15  C   LIG d   1       3.915  -0.118  -3.145  0.00  0.00     0.429 C 
ATOM     16  F   LIG d   1       2.999   0.343  -4.097  0.00  0.00    -0.186 F 
ATOM     17  F   LIG d   1       3.341  -1.162  -2.413  0.00  0.00    -0.186 F 
BRANCH  15  18
ATOM     18  C   LIG d   1       4.285   1.026  -2.198  0.00  0.00     0.463 C 
ATOM     19  F   LIG d   1       3.170   1.849  -2.003  0.00  0.00    -0.165 F 
ATOM     20  F   LIG d   1       4.696   0.499  -0.968  0.00  0.00    -0.165 F 
ATOM     21  F   LIG d   1       5.326   1.775  -2.756  0.00  0.00    -0.165 F 
ENDBRANCH  15  18
ENDBRANCH  12  15
ENDBRANCH  11  12
ENDBRANCH   5  11
ENDBRANCH   2   5
BRANCH   1  22
ATOM     22  C   LIG d   1       3.891   0.058  -8.480  0.00  0.00     0.034 A 
ATOM     23  C   LIG d   1       4.241   0.589  -9.714  0.00  0.00    -0.037 A 
ATOM     24  C   LIG d   1       3.482   0.298 -10.831  0.00  0.00    -0.018 A 
ATOM     25  H   LIG d   1       5.107   1.228  -9.802  0.00  0.00     0.064 H 
ATOM     26  C   LIG d   1       2.370  -0.524 -10.720  0.00  0.00     0.120 A 
ATOM     27  H   LIG d   1       3.755   0.709 -11.791  0.00  0.00     0.066 H 
ATOM     28  C   LIG d   1       2.016  -1.049  -9.486  0.00  0.00    -0.018 A 
ATOM     29  C   LIG d   1       2.778  -0.764  -8.369  0.00  0.00    -0.037 A 
ATOM     30  H   LIG d   1       1.148  -1.686  -9.399  0.00  0.00     0.066 H 
ATOM     31  H   LIG d   1       2.505  -1.177  -7.409  0.00  0.00     0.064 H 
BRANCH  26  32
ATOM     32  O   LIG d   1       1.624  -0.810 -11.819  0.00  0.00    -0.495 OA
BRANCH  32  33
ATOM     33  C   LIG d   1       2.208  -1.680 -12.791  0.00  0.00     0.079 C 
ATOM     34  H   LIG d   1       3.289  -1.543 -12.799  0.00  0.00     0.066 H 
ATOM     35  H   LIG d   1       1.974  -2.715 -12.540  0.00  0.00     0.066 H 
ATOM     36  H   LIG d   1       1.804  -1.446 -13.777  0.00  0.00     0.066 H 
ENDBRANCH  32  33
ENDBRANCH  26  32
ENDBRANCH   1  22
TORSDOF 9
ENDMDL
MODEL 4
REMARK VINA RESULT:      -6.7      3.775      5.171
REMARK  9 active torsions:
REMARK  status: ('A' for Active; 'I' for Inactive)
REMARK    1  A    between atoms: C_1  and  O_2 
REMARK    2  A    between atoms: O_2  and  C_3 
REMARK    3  A    between atoms: C_6  and  N_9 
REMARK       I    between atoms: N_9  and  C_10 
REMARK    4  A    between atoms: C_10  and  C_12 
REMARK    5  A    between atoms: C_12  and  C_13 
REMARK    6  A    between atoms: C_12  and  O_17 
REMARK    7  A    between atoms: O_17  and  C_18 
REMARK    8  A    between atoms: C_18  and  C_19 
REMARK    9  A    between atoms: C_19  and  C_20 
ROOT
ATOM      1  N   LIG d   1       8.313   0.153  -4.106  0.00  0.00    -0.281 N 
ATOM      2  C   LIG d   1       7.570  -0.487  -5.030  0.00  0.00     0.292 C 
ATOM      3  O   LIG d   1       7.600  -0.126  -6.188  0.00  0.00    -0.269 OA
ATOM      4  H   LIG d   1       8.346  -0.179  -3.195  0.00  0.00     0.155 HD
ENDROOT
BRANCH   2   5
ATOM      5  C   LIG d   1       6.702  -1.651  -4.626  0.00  0.00     0.387 C 
ATOM      6  F   LIG d   1       5.811  -1.949  -5.663  0.00  0.00    -0.190 F 
BRANCH   5   7
ATOM      7  C   LIG d   1       7.582  -2.870  -4.344  0.00  0.00     0.459 C 
ATOM      8  F   LIG d   1       7.991  -2.849  -3.007  0.00  0.00    -0.165 F 
ATOM      9  F   LIG d   1       6.852  -4.038  -4.591  0.00  0.00    -0.165 F 
ATOM     10  F   LIG d   1       8.706  -2.837  -5.176  0.00  0.00    -0.165 F 
ENDBRANCH   5   7
BRANCH   5  11
ATOM     11  O   LIG d   1       5.966  -1.311  -3.449  0.00  0.00    -0.263 OA
BRANCH  11  12
ATOM     12  C   LIG d   1       4.593  -1.001  -3.692  0.00  0.00     0.432 C 
ATOM     13  F   LIG d   1       4.502  -0.051  -4.714  0.00  0.00    -0.168 F 
ATOM     14  F   LIG d   1       3.913  -2.163  -4.073  0.00  0.00    -0.168 F 
BRANCH  12  15
ATOM     15  C   LIG d   1       3.964  -0.439  -2.415  0.00  0.00     0.429 C 
ATOM     16  F   LIG d   1       2.570  -0.479  -2.525  0.00  0.00    -0.186 F 
ATOM     17  F   LIG d   1       4.368  -1.208  -1.318  0.00  0.00    -0.186 F 
BRANCH  15  18
ATOM     18  C   LIG d   1       4.419   1.010  -2.218  0.00  0.00     0.463 C 
ATOM     19  F   LIG d   1       3.402   1.877  -2.631  0.00  0.00    -0.165 F 
ATOM     20  F   LIG d   1       4.699   1.230  -0.865  0.00  0.00    -0.165 F 
ATOM     21  F   LIG d   1       5.570   1.244  -2.978  0.00  0.00    -0.165 F 
ENDBRANCH  15  18
ENDBRANCH  12  15
ENDBRANCH  11  12
ENDBRANCH   5  11
ENDBRANCH   2   5
BRANCH   1  22
ATOM     22  C   LIG d   1       9.036   1.300  -4.459  0.00  0.00     0.034 A 
ATOM     23  C   LIG d   1      10.367   1.191  -4.841  0.00  0.00    -0.037 A 
ATOM     24  C   LIG d   1      11.079   2.322  -5.189  0.00  0.00    -0.018 A 
ATOM     25  H   LIG d   1      10.845   0.222  -4.866  0.00  0.00     0.064 H 
ATOM     26  C   LIG d   1      10.466   3.566  -5.159  0.00  0.00     0.120 A 
ATOM     27  H   LIG d   1      12.114   2.237  -5.487  0.00  0.00     0.066 H 
ATOM     28  C   LIG d   1       9.139   3.676  -4.772  0.00  0.00    -0.018 A 
ATOM     29  C   LIG d   1       8.423   2.545  -4.429  0.00  0.00    -0.037 A 
ATOM     30  H   LIG d   1       8.662   4.644  -4.744  0.00  0.00     0.066 H 
ATOM     31  H   LIG d   1       7.388   2.630  -4.133  0.00  0.00     0.064 H 
BRANCH  26  32
ATOM     32  O   LIG d   1      11.168   4.678  -5.502  0.00  0.00    -0.495 OA
BRANCH  32  33
ATOM     33  C   LIG d   1      11.127   5.778  -4.591  0.00  0.00     0.079 C 
ATOM     34  H   LIG d   1      11.834   5.605  -3.780  0.00  0.00     0.066 H 
ATOM     35  H   LIG d   1      11.395   6.695  -5.117  0.00  0.00     0.066 H 
ATOM     36  H   LIG d   1      10.121   5.874  -4.183  0.00  0.00     0.066 H 
ENDBRANCH  32  33
ENDBRANCH  26  32
ENDBRANCH   1  22
TORSDOF 9
ENDMDL
MODEL 5
REMARK VINA RESULT:      -6.7      4.272      5.705
REMARK  9 active torsions:
REMARK  status: ('A' for Active; 'I' for Inactive)
REMARK    1  A    between atoms: C_1  and  O_2 
REMARK    2  A    between atoms: O_2  and  C_3 
REMARK    3  A    between atoms: C_6  and  N_9 
REMARK       I    between atoms: N_9  and  C_10 
REMARK    4  A    between atoms: C_10  and  C_12 
REMARK    5  A    between atoms: C_12  and  C_13 
REMARK    6  A    between atoms: C_12  and  O_17 
REMARK    7  A    between atoms: O_17  and  C_18 
REMARK    8  A    between atoms: C_18  and  C_19 
REMARK    9  A    between atoms: C_19  and  C_20 
ROOT
ATOM      1  N   LIG d   1       5.543  -5.882  -5.539  0.00  0.00    -0.281 N 
ATOM      2  C   LIG d   1       4.602  -4.917  -5.536  0.00  0.00     0.292 C 
ATOM      3  O   LIG d   1       3.465  -5.178  -5.872  0.00  0.00    -0.269 OA
ATOM      4  H   LIG d   1       6.432  -5.693  -5.202  0.00  0.00     0.155 HD
ENDROOT
BRANCH   2   5
ATOM      5  C   LIG d   1       4.960  -3.515  -5.115  0.00  0.00     0.387 C 
ATOM      6  F   LIG d   1       6.060  -3.556  -4.251  0.00  0.00    -0.190 F 
BRANCH   5   7
ATOM      7  C   LIG d   1       5.313  -2.686  -6.351  0.00  0.00     0.459 C 
ATOM      8  F   LIG d   1       6.294  -1.747  -6.017  0.00  0.00    -0.165 F 
ATOM      9  F   LIG d   1       5.798  -3.531  -7.356  0.00  0.00    -0.165 F 
ATOM     10  F   LIG d   1       4.170  -2.023  -6.810  0.00  0.00    -0.165 F 
ENDBRANCH   5   7
BRANCH   5  11
ATOM     11  O   LIG d   1       3.849  -2.921  -4.442  0.00  0.00    -0.263 OA
BRANCH  11  12
ATOM     12  C   LIG d   1       4.198  -2.229  -3.242  0.00  0.00     0.432 C 
ATOM     13  F   LIG d   1       3.713  -2.937  -2.137  0.00  0.00    -0.168 F 
ATOM     14  F   LIG d   1       5.590  -2.123  -3.153  0.00  0.00    -0.168 F 
BRANCH  12  15
ATOM     15  C   LIG d   1       3.579  -0.830  -3.262  0.00  0.00     0.429 C 
ATOM     16  F   LIG d   1       3.715  -0.278  -4.541  0.00  0.00    -0.186 F 
ATOM     17  F   LIG d   1       2.223  -0.914  -2.932  0.00  0.00    -0.186 F 
BRANCH  15  18
ATOM     18  C   LIG d   1       4.298   0.060  -2.244  0.00  0.00     0.463 C 
ATOM     19  F   LIG d   1       4.497  -0.655  -1.059  0.00  0.00    -0.165 F 
ATOM     20  F   LIG d   1       5.535   0.456  -2.763  0.00  0.00    -0.165 F 
ATOM     21  F   LIG d   1       3.517   1.191  -1.982  0.00  0.00    -0.165 F 
ENDBRANCH  15  18
ENDBRANCH  12  15
ENDBRANCH  11  12
ENDBRANCH   5  11
ENDBRANCH   2   5
BRANCH   1  22
ATOM     22  C   LIG d   1       5.237  -7.158  -6.031  0.00  0.00     0.034 A 
ATOM     23  C   LIG d   1       5.209  -7.386  -7.400  0.00  0.00    -0.037 A 
ATOM     24  C   LIG d   1       4.907  -8.645  -7.883  0.00  0.00    -0.018 A 
ATOM     25  H   LIG d   1       5.422  -6.581  -8.087  0.00  0.00     0.064 H 
ATOM     26  C   LIG d   1       4.633  -9.680  -7.001  0.00  0.00     0.120 A 
ATOM     27  H   LIG d   1       4.886  -8.823  -8.948  0.00  0.00     0.066 H 
ATOM     28  C   LIG d   1       4.655  -9.451  -5.634  0.00  0.00    -0.018 A 
ATOM     29  C   LIG d   1       4.963  -8.194  -5.148  0.00  0.00    -0.037 A 
ATOM     30  H   LIG d   1       4.438 -10.256  -4.948  0.00  0.00     0.066 H 
ATOM     31  H   LIG d   1       4.985  -8.017  -4.083  0.00  0.00     0.064 H 
BRANCH  26  32
ATOM     32  O   LIG d   1       4.337 -10.918  -7.478  0.00  0.00    -0.495 OA
BRANCH  32  33
ATOM     33  C   LIG d   1       4.922 -12.032  -6.800  0.00  0.00     0.079 C 
ATOM     34  H   LIG d   1       4.137 -12.708  -6.465  0.00  0.00     0.066 H 
ATOM     35  H   LIG d   1       5.591 -12.560  -7.481  0.00  0.00     0.066 H 
ATOM     36  H   LIG d   1       5.489 -11.676  -5.939  0.00  0.00     0.066 H 
ENDBRANCH  32  33
ENDBRANCH  26  32
ENDBRANCH   1  22
TORSDOF 9
ENDMDL
MODEL 6
REMARK VINA RESULT:      -6.5      2.614      5.782
REMARK  9 active torsions:
REMARK  status: ('A' for Active; 'I' for Inactive)
REMARK    1  A    between atoms: C_1  and  O_2 
REMARK    2  A    between atoms: O_2  and  C_3 
REMARK    3  A    between atoms: C_6  and  N_9 
REMARK       I    between atoms: N_9  and  C_10 
REMARK    4  A    between atoms: C_10  and  C_12 
REMARK    5  A    between atoms: C_12  and  C_13 
REMARK    6  A    between atoms: C_12  and  O_17 
REMARK    7  A    between atoms: O_17  and  C_18 
REMARK    8  A    between atoms: C_18  and  C_19 
REMARK    9  A    between atoms: C_19  and  C_20 
ROOT
ATOM      1  N   LIG d   1       5.876  -1.374  -4.158  0.00  0.00    -0.281 N 
ATOM      2  C   LIG d   1       4.634  -1.413  -3.636  0.00  0.00     0.292 C 
ATOM      3  O   LIG d   1       4.159  -2.472  -3.280  0.00  0.00    -0.269 OA
ATOM      4  H   LIG d   1       6.284  -0.521  -4.375  0.00  0.00     0.155 HD
ENDROOT
BRANCH   2   5
ATOM      5  C   LIG d   1       3.835  -0.143  -3.494  0.00  0.00     0.387 C 
ATOM      6  F   LIG d   1       2.479  -0.460  -3.359  0.00  0.00    -0.190 F 
BRANCH   5   7
ATOM      7  C   LIG d   1       4.307   0.620  -2.255  0.00  0.00     0.459 C 
ATOM      8  F   LIG d   1       4.522  -0.281  -1.207  0.00  0.00    -0.165 F 
ATOM      9  F   LIG d   1       5.499   1.291  -2.547  0.00  0.00    -0.165 F 
ATOM     10  F   LIG d   1       3.330   1.548  -1.879  0.00  0.00    -0.165 F 
ENDBRANCH   5   7
BRANCH   5  11
ATOM     11  O   LIG d   1       4.021   0.669  -4.655  0.00  0.00    -0.263 OA
BRANCH  11  12
ATOM     12  C   LIG d   1       3.093   0.401  -5.707  0.00  0.00     0.432 C 
ATOM     13  F   LIG d   1       2.121  -0.497  -5.253  0.00  0.00    -0.168 F 
ATOM     14  F   LIG d   1       2.478   1.593  -6.102  0.00  0.00    -0.168 F 
BRANCH  12  15
ATOM     15  C   LIG d   1       3.834  -0.210  -6.898  0.00  0.00     0.429 C 
ATOM     16  F   LIG d   1       5.155   0.251  -6.911  0.00  0.00    -0.186 F 
ATOM     17  F   LIG d   1       3.828  -1.604  -6.786  0.00  0.00    -0.186 F 
BRANCH  15  18
ATOM     18  C   LIG d   1       3.138   0.201  -8.198  0.00  0.00     0.463 C 
ATOM     19  F   LIG d   1       3.805  -0.373  -9.285  0.00  0.00    -0.165 F 
ATOM     20  F   LIG d   1       1.812  -0.244  -8.176  0.00  0.00    -0.165 F 
ATOM     21  F   LIG d   1       3.161   1.595  -8.318  0.00  0.00    -0.165 F 
ENDBRANCH  15  18
ENDBRANCH  12  15
ENDBRANCH  11  12
ENDBRANCH   5  11
ENDBRANCH   2   5
BRANCH   1  22
ATOM     22  C   LIG d   1       6.578  -2.565  -4.389  0.00  0.00     0.034 A 
ATOM     23  C   LIG d   1       6.082  -3.499  -5.288  0.00  0.00    -0.037 A 
ATOM     24  C   LIG d   1       6.774  -4.673  -5.514  0.00  0.00    -0.018 A 
ATOM     25  H   LIG d   1       5.156  -3.309  -5.810  0.00  0.00     0.064 H 
ATOM     26  C   LIG d   1       7.965  -4.918  -4.845  0.00  0.00     0.120 A 
ATOM     27  H   LIG d   1       6.390  -5.400  -6.215  0.00  0.00     0.066 H 
ATOM     28  C   LIG d   1       8.457  -3.987  -3.942  0.00  0.00    -0.018 A 
ATOM     29  C   LIG d   1       7.769  -2.810  -3.719  0.00  0.00    -0.037 A 
ATOM     30  H   LIG d   1       9.381  -4.179  -3.418  0.00  0.00     0.066 H 
ATOM     31  H   LIG d   1       8.155  -2.083  -3.020  0.00  0.00     0.064 H 
BRANCH  26  32
ATOM     32  O   LIG d   1       8.645  -6.073  -5.069  0.00  0.00    -0.495 OA
BRANCH  32  33
ATOM     33  C   LIG d   1       7.942  -7.121  -5.739  0.00  0.00     0.079 C 
ATOM     34  H   LIG d   1       7.994  -6.963  -6.816  0.00  0.00     0.066 H 
ATOM     35  H   LIG d   1       8.396  -8.080  -5.490  0.00  0.00     0.066 H 
ATOM     36  H   LIG d   1       6.899  -7.119  -5.421  0.00  0.00     0.066 H 
ENDBRANCH  32  33
ENDBRANCH  26  32
ENDBRANCH   1  22
TORSDOF 9
ENDMDL
MODEL 7
REMARK VINA RESULT:      -6.4      3.788      6.295
REMARK  9 active torsions:
REMARK  status: ('A' for Active; 'I' for Inactive)
REMARK    1  A    between atoms: C_1  and  O_2 
REMARK    2  A    between atoms: O_2  and  C_3 
REMARK    3  A    between atoms: C_6  and  N_9 
REMARK       I    between atoms: N_9  and  C_10 
REMARK    4  A    between atoms: C_10  and  C_12 
REMARK    5  A    between atoms: C_12  and  C_13 
REMARK    6  A    between atoms: C_12  and  O_17 
REMARK    7  A    between atoms: O_17  and  C_18 
REMARK    8  A    between atoms: C_18  and  C_19 
REMARK    9  A    between atoms: C_19  and  C_20 
ROOT
ATOM      1  N   LIG d   1       6.783   1.333  -4.295  0.00  0.00    -0.281 N 
ATOM      2  C   LIG d   1       6.152   0.314  -3.678  0.00  0.00     0.292 C 
ATOM      3  O   LIG d   1       6.792  -0.513  -3.064  0.00  0.00    -0.269 OA
ATOM      4  H   LIG d   1       6.269   2.033  -4.724  0.00  0.00     0.155 HD
ENDROOT
BRANCH   2   5
ATOM      5  C   LIG d   1       4.651   0.203  -3.752  0.00  0.00     0.387 C 
ATOM      6  F   LIG d   1       4.277  -1.139  -3.617  0.00  0.00    -0.190 F 
BRANCH   5   7
ATOM      7  C   LIG d   1       4.022   1.023  -2.623  0.00  0.00     0.459 C 
ATOM      8  F   LIG d   1       2.839   0.406  -2.203  0.00  0.00    -0.165 F 
ATOM      9  F   LIG d   1       4.916   1.099  -1.549  0.00  0.00    -0.165 F 
ATOM     10  F   LIG d   1       3.737   2.312  -3.086  0.00  0.00    -0.165 F 
ENDBRANCH   5   7
BRANCH   5  11
ATOM     11  O   LIG d   1       4.197   0.699  -5.012  0.00  0.00    -0.263 OA
BRANCH  11  12
ATOM     12  C   LIG d   1       3.313  -0.186  -5.702  0.00  0.00     0.432 C 
ATOM     13  F   LIG d   1       3.876  -1.466  -5.747  0.00  0.00    -0.168 F 
ATOM     14  F   LIG d   1       2.088  -0.239  -5.029  0.00  0.00    -0.168 F 
BRANCH  12  15
ATOM     15  C   LIG d   1       3.091   0.324  -7.127  0.00  0.00     0.429 C 
ATOM     16  F   LIG d   1       2.017  -0.361  -7.705  0.00  0.00    -0.186 F 
ATOM     17  F   LIG d   1       2.807   1.693  -7.094  0.00  0.00    -0.186 F 
BRANCH  15  18
ATOM     18  C   LIG d   1       4.354   0.084  -7.957  0.00  0.00     0.463 C 
ATOM     19  F   LIG d   1       4.403   1.005  -9.009  0.00  0.00    -0.165 F 
ATOM     20  F   LIG d   1       5.482   0.244  -7.145  0.00  0.00    -0.165 F 
ATOM     21  F   LIG d   1       4.332  -1.215  -8.475  0.00  0.00    -0.165 F 
ENDBRANCH  15  18
ENDBRANCH  12  15
ENDBRANCH  11  12
ENDBRANCH   5  11
ENDBRANCH   2   5
BRANCH   1  22
ATOM     22  C   LIG d   1       8.184   1.378  -4.318  0.00  0.00     0.034 A 
ATOM     23  C   LIG d   1       8.862   2.289  -3.519  0.00  0.00    -0.037 A 
ATOM     24  C   LIG d   1      10.242   2.333  -3.542  0.00  0.00    -0.018 A 
ATOM     25  H   LIG d   1       8.310   2.963  -2.880  0.00  0.00     0.064 H 
ATOM     26  C   LIG d   1      10.951   1.468  -4.362  0.00  0.00     0.120 A 
ATOM     27  H   LIG d   1      10.770   3.041  -2.920  0.00  0.00     0.066 H 
ATOM     28  C   LIG d   1      10.274   0.561  -5.164  0.00  0.00    -0.018 A 
ATOM     29  C   LIG d   1       8.893   0.511  -5.138  0.00  0.00    -0.037 A 
ATOM     30  H   LIG d   1      10.826  -0.110  -5.805  0.00  0.00     0.066 H 
ATOM     31  H   LIG d   1       8.367  -0.197  -5.759  0.00  0.00     0.064 H 
BRANCH  26  32
ATOM     32  O   LIG d   1      12.310   1.511  -4.383  0.00  0.00    -0.495 OA
BRANCH  32  33
ATOM     33  C   LIG d   1      12.917   2.308  -5.401  0.00  0.00     0.079 C 
ATOM     34  H   LIG d   1      12.732   1.857  -6.376  0.00  0.00     0.066 H 
ATOM     35  H   LIG d   1      12.491   3.312  -5.379  0.00  0.00     0.066 H 
ATOM     36  H   LIG d   1      13.992   2.366  -5.225  0.00  0.00     0.066 H 
ENDBRANCH  32  33
ENDBRANCH  26  32
ENDBRANCH   1  22
TORSDOF 9
ENDMDL
MODEL 8
REMARK VINA RESULT:      -6.4      3.399      4.453
REMARK  9 active torsions:
REMARK  status: ('A' for Active; 'I' for Inactive)
REMARK    1  A    between atoms: C_1  and  O_2 
REMARK    2  A    between atoms: O_2  and  C_3 
REMARK    3  A    between atoms: C_6  and  N_9 
REMARK       I    between atoms: N_9  and  C_10 
REMARK    4  A    between atoms: C_10  and  C_12 
REMARK    5  A    between atoms: C_12  and  C_13 
REMARK    6  A    between atoms: C_12  and  O_17 
REMARK    7  A    between atoms: O_17  and  C_18 
REMARK    8  A    between atoms: C_18  and  C_19 
REMARK    9  A    between atoms: C_19  and  C_20 
ROOT
ATOM      1  N   LIG d   1       6.726  -0.317  -5.695  0.00  0.00    -0.281 N 
ATOM      2  C   LIG d   1       5.554  -0.252  -6.358  0.00  0.00     0.292 C 
ATOM      3  O   LIG d   1       5.387   0.592  -7.214  0.00  0.00    -0.269 OA
ATOM      4  H   LIG d   1       6.886  -1.035  -5.064  0.00  0.00     0.155 HD
ENDROOT
BRANCH   2   5
ATOM      5  C   LIG d   1       4.451  -1.227  -6.036  0.00  0.00     0.387 C 
ATOM      6  F   LIG d   1       3.212  -0.632  -6.302  0.00  0.00    -0.190 F 
BRANCH   5   7
ATOM      7  C   LIG d   1       4.610  -2.480  -6.898  0.00  0.00     0.459 C 
ATOM      8  F   LIG d   1       4.427  -3.617  -6.104  0.00  0.00    -0.165 F 
ATOM      9  F   LIG d   1       3.655  -2.467  -7.921  0.00  0.00    -0.165 F 
ATOM     10  F   LIG d   1       5.892  -2.503  -7.457  0.00  0.00    -0.165 F 
ENDBRANCH   5   7
BRANCH   5  11
ATOM     11  O   LIG d   1       4.519  -1.585  -4.655  0.00  0.00    -0.263 OA
BRANCH  11  12
ATOM     12  C   LIG d   1       3.818  -0.693  -3.787  0.00  0.00     0.432 C 
ATOM     13  F   LIG d   1       3.638   0.537  -4.429  0.00  0.00    -0.168 F 
ATOM     14  F   LIG d   1       2.570  -1.238  -3.467  0.00  0.00    -0.168 F 
BRANCH  12  15
ATOM     15  C   LIG d   1       4.628  -0.486  -2.506  0.00  0.00     0.429 C 
ATOM     16  F   LIG d   1       4.152  -1.345  -1.510  0.00  0.00    -0.186 F 
ATOM     17  F   LIG d   1       5.976  -0.763  -2.756  0.00  0.00    -0.186 F 
BRANCH  15  18
ATOM     18  C   LIG d   1       4.483   0.965  -2.040  0.00  0.00     0.463 C 
ATOM     19  F   LIG d   1       3.145   1.356  -2.143  0.00  0.00    -0.165 F 
ATOM     20  F   LIG d   1       4.898   1.070  -0.707  0.00  0.00    -0.165 F 
ATOM     21  F   LIG d   1       5.275   1.793  -2.842  0.00  0.00    -0.165 F 
ENDBRANCH  15  18
ENDBRANCH  12  15
ENDBRANCH  11  12
ENDBRANCH   5  11
ENDBRANCH   2   5
BRANCH   1  22
ATOM     22  C   LIG d   1       7.712   0.654  -5.918  0.00  0.00     0.034 A 
ATOM     23  C   LIG d   1       8.540   0.559  -7.028  0.00  0.00    -0.037 A 
ATOM     24  C   LIG d   1       9.512   1.517  -7.246  0.00  0.00    -0.018 A 
ATOM     25  H   LIG d   1       8.426  -0.261  -7.720  0.00  0.00     0.064 H 
ATOM     26  C   LIG d   1       9.659   2.572  -6.358  0.00  0.00     0.120 A 
ATOM     27  H   LIG d   1      10.156   1.444  -8.110  0.00  0.00     0.066 H 
ATOM     28  C   LIG d   1       8.835   2.663  -5.246  0.00  0.00    -0.018 A 
ATOM     29  C   LIG d   1       7.859   1.710  -5.029  0.00  0.00    -0.037 A 
ATOM     30  H   LIG d   1       8.952   3.482  -4.552  0.00  0.00     0.066 H 
ATOM     31  H   LIG d   1       7.214   1.784  -4.166  0.00  0.00     0.064 H 
BRANCH  26  32
ATOM     32  O   LIG d   1      10.616   3.514  -6.574  0.00  0.00    -0.495 OA
BRANCH  32  33
ATOM     33  C   LIG d   1      10.361   4.471  -7.604  0.00  0.00     0.079 C 
ATOM     34  H   LIG d   1       9.379   4.916  -7.453  0.00  0.00     0.066 H 
ATOM     35  H   LIG d   1      11.123   5.252  -7.570  0.00  0.00     0.066 H 
ATOM     36  H   LIG d   1      10.392   3.977  -8.575  0.00  0.00     0.066 H 
ENDBRANCH  32  33
ENDBRANCH  26  32
ENDBRANCH   1  22
TORSDOF 9
ENDMDL
MODEL 9
REMARK VINA RESULT:      -6.3      3.066      6.170
REMARK  9 active torsions:
REMARK  status: ('A' for Active; 'I' for Inactive)
REMARK    1  A    between atoms: C_1  and  O_2 
REMARK    2  A    between atoms: O_2  and  C_3 
REMARK    3  A    between atoms: C_6  and  N_9 
REMARK       I    between atoms: N_9  and  C_10 
REMARK    4  A    between atoms: C_10  and  C_12 
REMARK    5  A    between atoms: C_12  and  C_13 
REMARK    6  A    between atoms: C_12  and  O_17 
REMARK    7  A    between atoms: O_17  and  C_18 
REMARK    8  A    between atoms: C_18  and  C_19 
REMARK    9  A    between atoms: C_19  and  C_20 
ROOT
ATOM      1  N   LIG d   1       8.325  -2.481  -3.930  0.00  0.00    -0.281 N 
ATOM      2  C   LIG d   1       7.130  -2.774  -4.480  0.00  0.00     0.292 C 
ATOM      3  O   LIG d   1       6.824  -3.929  -4.689  0.00  0.00    -0.269 OA
ATOM      4  H   LIG d   1       8.540  -1.565  -3.697  0.00  0.00     0.155 HD
ENDROOT
BRANCH   2   5
ATOM      5  C   LIG d   1       6.173  -1.666  -4.838  0.00  0.00     0.387 C 
ATOM      6  F   LIG d   1       6.640  -0.458  -4.307  0.00  0.00    -0.190 F 
BRANCH   5   7
ATOM      7  C   LIG d   1       6.073  -1.549  -6.360  0.00  0.00     0.459 C 
ATOM      8  F   LIG d   1       5.723  -0.239  -6.704  0.00  0.00    -0.165 F 
ATOM      9  F   LIG d   1       7.309  -1.867  -6.933  0.00  0.00    -0.165 F 
ATOM     10  F   LIG d   1       5.098  -2.433  -6.833  0.00  0.00    -0.165 F 
ENDBRANCH   5   7
BRANCH   5  11
ATOM     11  O   LIG d   1       4.883  -1.957  -4.296  0.00  0.00    -0.263 OA
BRANCH  11  12
ATOM     12  C   LIG d   1       4.652  -1.388  -3.006  0.00  0.00     0.432 C 
ATOM     13  F   LIG d   1       4.078  -2.349  -2.168  0.00  0.00    -0.168 F 
ATOM     14  F   LIG d   1       5.867  -0.959  -2.461  0.00  0.00    -0.168 F 
BRANCH  12  15
ATOM     15  C   LIG d   1       3.704  -0.194  -3.138  0.00  0.00     0.429 C 
ATOM     16  F   LIG d   1       3.685   0.242  -4.467  0.00  0.00    -0.186 F 
ATOM     17  F   LIG d   1       2.414  -0.579  -2.756  0.00  0.00    -0.186 F 
BRANCH  15  18
ATOM     18  C   LIG d   1       4.186   0.943  -2.235  0.00  0.00     0.463 C 
ATOM     19  F   LIG d   1       5.264   1.595  -2.842  0.00  0.00    -0.165 F 
ATOM     20  F   LIG d   1       3.143   1.854  -2.035  0.00  0.00    -0.165 F 
ATOM     21  F   LIG d   1       4.591   0.420  -1.002  0.00  0.00    -0.165 F 
ENDBRANCH  15  18
ENDBRANCH  12  15
ENDBRANCH  11  12
ENDBRANCH   5  11
ENDBRANCH   2   5
BRANCH   1  22
ATOM     22  C   LIG d   1       9.257  -3.501  -3.696  0.00  0.00     0.034 A 
ATOM     23  C   LIG d   1       9.265  -4.169  -2.479  0.00  0.00    -0.037 A 
ATOM     24  C   LIG d   1      10.184  -5.174  -2.249  0.00  0.00    -0.018 A 
ATOM     25  H   LIG d   1       8.552  -3.903  -1.712  0.00  0.00     0.064 H 
ATOM     26  C   LIG d   1      11.099  -5.516  -3.234  0.00  0.00     0.120 A 
ATOM     27  H   LIG d   1      10.189  -5.694  -1.303  0.00  0.00     0.066 H 
ATOM     28  C   LIG d   1      11.095  -4.846  -4.448  0.00  0.00    -0.018 A 
ATOM     29  C   LIG d   1      10.172  -3.844  -4.682  0.00  0.00    -0.037 A 
ATOM     30  H   LIG d   1      11.810  -5.110  -5.213  0.00  0.00     0.066 H 
ATOM     31  H   LIG d   1      10.166  -3.326  -5.629  0.00  0.00     0.064 H 
BRANCH  26  32
ATOM     32  O   LIG d   1      12.003  -6.506  -3.007  0.00  0.00    -0.495 OA
BRANCH  32  33
ATOM     33  C   LIG d   1      13.316  -6.319  -3.538  0.00  0.00     0.079 C 
ATOM     34  H   LIG d   1      13.746  -7.287  -3.796  0.00  0.00     0.066 H 
ATOM     35  H   LIG d   1      13.261  -5.697  -4.432  0.00  0.00     0.066 H 
ATOM     36  H   LIG d   1      13.943  -5.829  -2.793  0.00  0.00     0.066 H 
ENDBRANCH  32  33
ENDBRANCH  26  32
ENDBRANCH   1  22
TORSDOF 9
ENDMDL
MODEL 10
REMARK VINA RESULT:      -6.1      3.951      6.496
REMARK  9 active torsions:
REMARK  status: ('A' for Active; 'I' for Inactive)
REMARK    1  A    between atoms: C_1  and  O_2 
REMARK    2  A    between atoms: O_2  and  C_3 
REMARK    3  A    between atoms: C_6  and  N_9 
REMARK       I    between atoms: N_9  and  C_10 
REMARK    4  A    between atoms: C_10  and  C_12 
REMARK    5  A    between atoms: C_12  and  C_13 
REMARK    6  A    between atoms: C_12  and  O_17 
REMARK    7  A    between atoms: O_17  and  C_18 
REMARK    8  A    between atoms: C_18  and  C_19 
REMARK    9  A    between atoms: C_19  and  C_20 
ROOT
ATOM      1  N   LIG d   1       6.515   0.704  -5.633  0.00  0.00    -0.281 N 
ATOM      2  C   LIG d   1       5.732  -0.248  -5.088  0.00  0.00     0.292 C 
ATOM      3  O   LIG d   1       6.163  -0.952  -4.198  0.00  0.00    -0.269 OA
ATOM      4  H   LIG d   1       6.149   1.313  -6.293  0.00  0.00     0.155 HD
ENDROOT
BRANCH   2   5
ATOM      5  C   LIG d   1       4.322  -0.440  -5.583  0.00  0.00     0.387 C 
ATOM      6  F   LIG d   1       4.213  -1.689  -6.205  0.00  0.00    -0.190 F 
BRANCH   5   7
ATOM      7  C   LIG d   1       3.352  -0.372  -4.402  0.00  0.00     0.459 C 
ATOM      8  F   LIG d   1       3.820   0.559  -3.469  0.00  0.00    -0.165 F 
ATOM      9  F   LIG d   1       2.089   0.018  -4.858  0.00  0.00    -0.165 F 
ATOM     10  F   LIG d   1       3.262  -1.632  -3.799  0.00  0.00    -0.165 F 
ENDBRANCH   5   7
BRANCH   5  11
ATOM     11  O   LIG d   1       4.002   0.589  -6.522  0.00  0.00    -0.263 OA
BRANCH  11  12
ATOM     12  C   LIG d   1       3.696   0.106  -7.831  0.00  0.00     0.432 C 
ATOM     13  F   LIG d   1       4.874  -0.298  -8.467  0.00  0.00    -0.168 F 
ATOM     14  F   LIG d   1       2.821  -0.981  -7.735  0.00  0.00    -0.168 F 
BRANCH  12  15
ATOM     15  C   LIG d   1       3.035   1.222  -8.644  0.00  0.00     0.429 C 
ATOM     16  F   LIG d   1       1.962   0.696  -9.372  0.00  0.00    -0.186 F 
ATOM     17  F   LIG d   1       2.568   2.216  -7.778  0.00  0.00    -0.186 F 
BRANCH  15  18
ATOM     18  C   LIG d   1       4.059   1.825  -9.609  0.00  0.00     0.463 C 
ATOM     19  F   LIG d   1       3.501   2.940 -10.243  0.00  0.00    -0.165 F 
ATOM     20  F   LIG d   1       5.198   2.216  -8.895  0.00  0.00    -0.165 F 
ATOM     21  F   LIG d   1       4.414   0.871 -10.568  0.00  0.00    -0.165 F 
ENDBRANCH  15  18
ENDBRANCH  12  15
ENDBRANCH  11  12
ENDBRANCH   5  11
ENDBRANCH   2   5
BRANCH   1  22
ATOM     22  C   LIG d   1       7.858   0.812  -5.248  0.00  0.00     0.034 A 
ATOM     23  C   LIG d   1       8.241   1.781  -4.331  0.00  0.00    -0.037 A 
ATOM     24  C   LIG d   1       9.565   1.888  -3.952  0.00  0.00    -0.018 A 
ATOM     25  H   LIG d   1       7.504   2.452  -3.913  0.00  0.00     0.064 H 
ATOM     26  C   LIG d   1      10.512   1.026  -4.488  0.00  0.00     0.120 A 
ATOM     27  H   LIG d   1       9.863   2.641  -3.238  0.00  0.00     0.066 H 
ATOM     28  C   LIG d   1      10.130   0.062  -5.408  0.00  0.00    -0.018 A 
ATOM     29  C   LIG d   1       8.805  -0.050  -5.784  0.00  0.00    -0.037 A 
ATOM     30  H   LIG d   1      10.867  -0.606  -5.828  0.00  0.00     0.066 H 
ATOM     31  H   LIG d   1       8.507  -0.804  -6.497  0.00  0.00     0.064 H 
BRANCH  26  32
ATOM     32  O   LIG d   1      11.815   1.131  -4.114  0.00  0.00    -0.495 OA
BRANCH  32  33
ATOM     33  C   LIG d   1      12.700   0.097  -4.550  0.00  0.00     0.079 C 
ATOM     34  H   LIG d   1      12.939  -0.555  -3.711  0.00  0.00     0.066 H 
ATOM     35  H   LIG d   1      12.218  -0.485  -5.337  0.00  0.00     0.066 H 
ATOM     36  H   LIG d   1      13.616   0.543  -4.937  0.00  0.00     0.066 H 
ENDBRANCH  32  33
ENDBRANCH  26  32
ENDBRANCH   1  22
TORSDOF 9
ENDMDL
