MODEL 1
REMARK VINA RESULT:      -5.3      0.000      0.000
REMARK  1 active torsions:
REMARK  status: ('A' for Active; 'I' for Inactive)
REMARK    1  A    between atoms: C_7  and  C_11 
ROOT
ATOM      1  C   LIG d   1       5.128   1.261  -2.499  0.00  0.00    -0.061 A 
ATOM      2  C   LIG d   1       3.761   1.096  -2.310  0.00  0.00    -0.060 A 
ATOM      3  C   LIG d   1       3.133  -0.066  -2.698  0.00  0.00    -0.038 A 
ATOM      4  C   LIG d   1       3.872  -1.088  -3.285  0.00  0.00     0.047 A 
ATOM      5  C   LIG d   1       5.256  -0.917  -3.476  0.00  0.00     0.005 A 
ATOM      6  C   LIG d   1       5.872   0.270  -3.074  0.00  0.00    -0.052 A 
ATOM      7  C   LIG d   1       5.733  -2.150  -4.106  0.00  0.00     0.008 A 
ATOM      8  C   LIG d   1       4.668  -2.953  -4.253  0.00  0.00     0.008 A 
ATOM      9  N   LIG d   1       3.547  -2.335  -3.769  0.00  0.00    -0.360 N 
ATOM     10  H   LIG d   1       2.657  -2.719  -3.766  0.00  0.00     0.165 HD
ATOM     11  H   LIG d   1       5.605   2.177  -2.186  0.00  0.00     0.062 H 
ATOM     12  H   LIG d   1       3.186   1.889  -1.854  0.00  0.00     0.062 H 
ATOM     13  H   LIG d   1       2.070  -0.184  -2.546  0.00  0.00     0.064 H 
ATOM     14  H   LIG d   1       6.934   0.405  -3.218  0.00  0.00     0.062 H 
ATOM     15  H   LIG d   1       4.692  -3.941  -4.690  0.00  0.00     0.081 H 
ENDROOT
BRANCH   7  16
ATOM     16  C   LIG d   1       7.152  -2.458  -4.512  0.00  0.00     0.109 A 
ATOM     17  H   LIG d   1       7.595  -1.774  -5.236  0.00  0.00     0.067 H 
ATOM     18  O   LIG d   1       7.546  -3.830  -4.563  0.00  0.00    -0.367 OA
ATOM     19  C   LIG d   1       8.074  -3.082  -3.464  0.00  0.00     0.079 A 
ATOM     20  H   LIG d   1       9.130  -2.814  -3.491  0.00  0.00     0.059 H 
ATOM     21  H   LIG d   1       7.660  -3.274  -2.473  0.00  0.00     0.059 H 
ENDBRANCH   7  16
TORSDOF 1
ENDMDL
MODEL 2
REMARK VINA RESULT:      -5.3      1.447      2.457
REMARK  1 active torsions:
REMARK  status: ('A' for Active; 'I' for Inactive)
REMARK    1  A    between atoms: C_7  and  C_11 
ROOT
ATOM      1  C   LIG d   1       3.006   0.102  -2.693  0.00  0.00    -0.061 A 
ATOM      2  C   LIG d   1       3.901   1.055  -2.222  0.00  0.00    -0.060 A 
ATOM      3  C   LIG d   1       5.260   0.862  -2.338  0.00  0.00    -0.038 A 
ATOM      4  C   LIG d   1       5.743  -0.298  -2.934  0.00  0.00     0.047 A 
ATOM      5  C   LIG d   1       4.834  -1.261  -3.409  0.00  0.00     0.005 A 
ATOM      6  C   LIG d   1       3.461  -1.044  -3.280  0.00  0.00    -0.052 A 
ATOM      7  C   LIG d   1       5.647  -2.343  -3.969  0.00  0.00     0.008 A 
ATOM      8  C   LIG d   1       6.932  -1.993  -3.809  0.00  0.00     0.008 A 
ATOM      9  N   LIG d   1       7.010  -0.774  -3.191  0.00  0.00    -0.360 N 
ATOM     10  H   LIG d   1       7.833  -0.313  -2.969  0.00  0.00     0.165 HD
ATOM     11  H   LIG d   1       1.945   0.271  -2.597  0.00  0.00     0.062 H 
ATOM     12  H   LIG d   1       3.526   1.956  -1.759  0.00  0.00     0.062 H 
ATOM     13  H   LIG d   1       5.946   1.609  -1.969  0.00  0.00     0.064 H 
ATOM     14  H   LIG d   1       2.759  -1.781  -3.645  0.00  0.00     0.062 H 
ATOM     15  H   LIG d   1       7.780  -2.585  -4.120  0.00  0.00     0.081 H 
ENDROOT
BRANCH   7  16
ATOM     16  C   LIG d   1       5.135  -3.611  -4.605  0.00  0.00     0.109 A 
ATOM     17  H   LIG d   1       4.596  -4.288  -3.941  0.00  0.00     0.067 H 
ATOM     18  O   LIG d   1       5.910  -4.186  -5.658  0.00  0.00    -0.367 OA
ATOM     19  C   LIG d   1       4.698  -3.548  -6.069  0.00  0.00     0.079 A 
ATOM     20  H   LIG d   1       3.868  -4.184  -6.379  0.00  0.00     0.059 H 
ATOM     21  H   LIG d   1       4.776  -2.589  -6.582  0.00  0.00     0.059 H 
ENDBRANCH   7  16
TORSDOF 1
ENDMDL
MODEL 3
REMARK VINA RESULT:      -5.1      1.643      2.411
REMARK  1 active torsions:
REMARK  status: ('A' for Active; 'I' for Inactive)
REMARK    1  A    between atoms: C_7  and  C_11 
ROOT
ATOM      1  C   LIG d   1       3.221  -1.467  -2.614  0.00  0.00    -0.061 A 
ATOM      2  C   LIG d   1       2.933  -0.112  -2.705  0.00  0.00    -0.060 A 
ATOM      3  C   LIG d   1       3.909   0.792  -3.067  0.00  0.00    -0.038 A 
ATOM      4  C   LIG d   1       5.196   0.344  -3.344  0.00  0.00     0.047 A 
ATOM      5  C   LIG d   1       5.483  -1.031  -3.249  0.00  0.00     0.005 A 
ATOM      6  C   LIG d   1       4.479  -1.928  -2.882  0.00  0.00    -0.052 A 
ATOM      7  C   LIG d   1       6.899  -1.172  -3.597  0.00  0.00     0.008 A 
ATOM      8  C   LIG d   1       7.363   0.058  -3.866  0.00  0.00     0.008 A 
ATOM      9  N   LIG d   1       6.359   0.977  -3.720  0.00  0.00    -0.360 N 
ATOM     10  H   LIG d   1       6.453   1.932  -3.861  0.00  0.00     0.165 HD
ATOM     11  H   LIG d   1       2.444  -2.162  -2.333  0.00  0.00     0.062 H 
ATOM     12  H   LIG d   1       1.934   0.238  -2.491  0.00  0.00     0.062 H 
ATOM     13  H   LIG d   1       3.674   1.844  -3.135  0.00  0.00     0.064 H 
ATOM     14  H   LIG d   1       4.696  -2.984  -2.809  0.00  0.00     0.062 H 
ATOM     15  H   LIG d   1       8.378   0.289  -4.155  0.00  0.00     0.081 H 
ENDROOT
BRANCH   7  16
ATOM     16  C   LIG d   1       7.687  -2.457  -3.642  0.00  0.00     0.109 A 
ATOM     17  H   LIG d   1       7.883  -2.925  -2.677  0.00  0.00     0.067 H 
ATOM     18  O   LIG d   1       8.675  -2.595  -4.664  0.00  0.00    -0.367 OA
ATOM     19  C   LIG d   1       7.489  -3.372  -4.852  0.00  0.00     0.079 A 
ATOM     20  H   LIG d   1       7.555  -4.448  -4.692  0.00  0.00     0.059 H 
ATOM     21  H   LIG d   1       6.788  -3.050  -5.623  0.00  0.00     0.059 H 
ENDBRANCH   7  16
TORSDOF 1
ENDMDL
MODEL 4
REMARK VINA RESULT:      -5.0      2.978      3.585
REMARK  1 active torsions:
REMARK  status: ('A' for Active; 'I' for Inactive)
REMARK    1  A    between atoms: C_7  and  C_11 
ROOT
ATOM      1  C   LIG d   1       3.993   0.698  -2.406  0.00  0.00    -0.061 A 
ATOM      2  C   LIG d   1       4.309  -0.434  -1.666  0.00  0.00    -0.060 A 
ATOM      3  C   LIG d   1       4.601  -1.625  -2.293  0.00  0.00    -0.038 A 
ATOM      4  C   LIG d   1       4.578  -1.698  -3.681  0.00  0.00     0.047 A 
ATOM      5  C   LIG d   1       4.257  -0.549  -4.427  0.00  0.00     0.005 A 
ATOM      6  C   LIG d   1       3.965   0.648  -3.771  0.00  0.00    -0.052 A 
ATOM      7  C   LIG d   1       4.319  -0.950  -5.834  0.00  0.00     0.008 A 
ATOM      8  C   LIG d   1       4.656  -2.249  -5.859  0.00  0.00     0.008 A 
ATOM      9  N   LIG d   1       4.815  -2.713  -4.581  0.00  0.00    -0.360 N 
ATOM     10  H   LIG d   1       5.059  -3.621  -4.345  0.00  0.00     0.165 HD
ATOM     11  H   LIG d   1       3.771   1.625  -1.899  0.00  0.00     0.062 H 
ATOM     12  H   LIG d   1       4.327  -0.379  -0.587  0.00  0.00     0.062 H 
ATOM     13  H   LIG d   1       4.846  -2.499  -1.708  0.00  0.00     0.064 H 
ATOM     14  H   LIG d   1       3.719   1.533  -4.341  0.00  0.00     0.062 H 
ATOM     15  H   LIG d   1       4.783  -2.841  -6.753  0.00  0.00     0.081 H 
ENDROOT
BRANCH   7  16
ATOM     16  C   LIG d   1       4.054  -0.070  -7.030  0.00  0.00     0.109 A 
ATOM     17  H   LIG d   1       4.912   0.121  -7.675  0.00  0.00     0.067 H 
ATOM     18  O   LIG d   1       3.081   0.966  -6.890  0.00  0.00    -0.367 OA
ATOM     19  C   LIG d   1       2.674  -0.152  -7.683  0.00  0.00     0.079 A 
ATOM     20  H   LIG d   1       2.613  -0.015  -8.763  0.00  0.00     0.059 H 
ATOM     21  H   LIG d   1       1.948  -0.843  -7.253  0.00  0.00     0.059 H 
ENDBRANCH   7  16
TORSDOF 1
ENDMDL
MODEL 5
REMARK VINA RESULT:      -4.8      3.126      3.934
REMARK  1 active torsions:
REMARK  status: ('A' for Active; 'I' for Inactive)
REMARK    1  A    between atoms: C_7  and  C_11 
ROOT
ATOM      1  C   LIG d   1       4.630  -2.562  -3.222  0.00  0.00    -0.061 A 
ATOM      2  C   LIG d   1       3.750  -1.932  -2.352  0.00  0.00    -0.060 A 
ATOM      3  C   LIG d   1       2.954  -0.894  -2.786  0.00  0.00    -0.038 A 
ATOM      4  C   LIG d   1       3.032  -0.472  -4.108  0.00  0.00     0.047 A 
ATOM      5  C   LIG d   1       3.925  -1.113  -4.986  0.00  0.00     0.005 A 
ATOM      6  C   LIG d   1       4.722  -2.162  -4.525  0.00  0.00    -0.052 A 
ATOM      7  C   LIG d   1       3.769  -0.445  -6.280  0.00  0.00     0.008 A 
ATOM      8  C   LIG d   1       2.841   0.510  -6.121  0.00  0.00     0.008 A 
ATOM      9  N   LIG d   1       2.389   0.510  -4.829  0.00  0.00    -0.360 N 
ATOM     10  H   LIG d   1       1.716   1.111  -4.474  0.00  0.00     0.165 HD
ATOM     11  H   LIG d   1       5.243  -3.376  -2.866  0.00  0.00     0.062 H 
ATOM     12  H   LIG d   1       3.688  -2.259  -1.324  0.00  0.00     0.062 H 
ATOM     13  H   LIG d   1       2.273  -0.411  -2.102  0.00  0.00     0.064 H 
ATOM     14  H   LIG d   1       5.408  -2.658  -5.196  0.00  0.00     0.062 H 
ATOM     15  H   LIG d   1       2.501   1.181  -6.896  0.00  0.00     0.081 H 
ENDROOT
BRANCH   7  16
ATOM     16  C   LIG d   1       4.512  -0.770  -7.552  0.00  0.00     0.109 A 
ATOM     17  H   LIG d   1       5.593  -0.628  -7.517  0.00  0.00     0.067 H 
ATOM     18  O   LIG d   1       3.847  -0.525  -8.792  0.00  0.00    -0.367 OA
ATOM     19  C   LIG d   1       3.969  -1.902  -8.425  0.00  0.00     0.079 A 
ATOM     20  H   LIG d   1       4.689  -2.512  -8.972  0.00  0.00     0.059 H 
ATOM     21  H   LIG d   1       3.072  -2.420  -8.086  0.00  0.00     0.059 H 
ENDBRANCH   7  16
TORSDOF 1
ENDMDL
MODEL 6
REMARK VINA RESULT:      -4.8      2.563      3.547
REMARK  1 active torsions:
REMARK  status: ('A' for Active; 'I' for Inactive)
REMARK    1  A    between atoms: C_7  and  C_11 
ROOT
ATOM      1  C   LIG d   1       4.509  -2.768  -3.545  0.00  0.00    -0.061 A 
ATOM      2  C   LIG d   1       3.900  -2.243  -2.413  0.00  0.00    -0.060 A 
ATOM      3  C   LIG d   1       4.200  -0.971  -1.979  0.00  0.00    -0.038 A 
ATOM      4  C   LIG d   1       5.124  -0.203  -2.679  0.00  0.00     0.047 A 
ATOM      5  C   LIG d   1       5.740  -0.739  -3.825  0.00  0.00     0.005 A 
ATOM      6  C   LIG d   1       5.420  -2.031  -4.247  0.00  0.00    -0.052 A 
ATOM      7  C   LIG d   1       6.644   0.301  -4.322  0.00  0.00     0.008 A 
ATOM      8  C   LIG d   1       6.530   1.350  -3.494  0.00  0.00     0.008 A 
ATOM      9  N   LIG d   1       5.626   1.068  -2.506  0.00  0.00    -0.360 N 
ATOM     10  H   LIG d   1       5.376   1.673  -1.790  0.00  0.00     0.165 HD
ATOM     11  H   LIG d   1       4.259  -3.765  -3.873  0.00  0.00     0.062 H 
ATOM     12  H   LIG d   1       3.181  -2.838  -1.868  0.00  0.00     0.062 H 
ATOM     13  H   LIG d   1       3.720  -0.571  -1.098  0.00  0.00     0.064 H 
ATOM     14  H   LIG d   1       5.890  -2.446  -5.127  0.00  0.00     0.062 H 
ATOM     15  H   LIG d   1       7.071   2.280  -3.592  0.00  0.00     0.081 H 
ENDROOT
BRANCH   7  16
ATOM     16  C   LIG d   1       7.535   0.208  -5.536  0.00  0.00     0.109 A 
ATOM     17  H   LIG d   1       8.437  -0.391  -5.415  0.00  0.00     0.067 H 
ATOM     18  O   LIG d   1       7.598   1.343  -6.402  0.00  0.00    -0.367 OA
ATOM     19  C   LIG d   1       6.868   0.224  -6.912  0.00  0.00     0.079 A 
ATOM     20  H   LIG d   1       7.328  -0.364  -7.706  0.00  0.00     0.059 H 
ATOM     21  H   LIG d   1       5.781   0.301  -6.949  0.00  0.00     0.059 H 
ENDBRANCH   7  16
TORSDOF 1
ENDMDL
MODEL 7
REMARK VINA RESULT:      -4.7      2.407      2.955
REMARK  1 active torsions:
REMARK  status: ('A' for Active; 'I' for Inactive)
REMARK    1  A    between atoms: C_7  and  C_11 
ROOT
ATOM      1  C   LIG d   1       4.014  -1.659  -2.205  0.00  0.00    -0.061 A 
ATOM      2  C   LIG d   1       3.635  -0.326  -2.294  0.00  0.00    -0.060 A 
ATOM      3  C   LIG d   1       3.626   0.323  -3.509  0.00  0.00    -0.038 A 
ATOM      4  C   LIG d   1       3.999  -0.362  -4.660  0.00  0.00     0.047 A 
ATOM      5  C   LIG d   1       4.383  -1.713  -4.566  0.00  0.00     0.005 A 
ATOM      6  C   LIG d   1       4.385  -2.350  -3.324  0.00  0.00    -0.052 A 
ATOM      7  C   LIG d   1       4.712  -2.136  -5.929  0.00  0.00     0.008 A 
ATOM      8  C   LIG d   1       4.519  -1.075  -6.727  0.00  0.00     0.008 A 
ATOM      9  N   LIG d   1       4.093  -0.005  -5.987  0.00  0.00    -0.360 N 
ATOM     10  H   LIG d   1       3.888   0.873  -6.343  0.00  0.00     0.165 HD
ATOM     11  H   LIG d   1       4.012  -2.154  -1.246  0.00  0.00     0.062 H 
ATOM     12  H   LIG d   1       3.345   0.207  -1.400  0.00  0.00     0.062 H 
ATOM     13  H   LIG d   1       3.329   1.359  -3.567  0.00  0.00     0.064 H 
ATOM     14  H   LIG d   1       4.678  -3.387  -3.248  0.00  0.00     0.062 H 
ATOM     15  H   LIG d   1       4.676  -1.065  -7.796  0.00  0.00     0.081 H 
ENDROOT
BRANCH   7  16
ATOM     16  C   LIG d   1       5.179  -3.505  -6.354  0.00  0.00     0.109 A 
ATOM     17  H   LIG d   1       6.151  -3.813  -5.968  0.00  0.00     0.067 H 
ATOM     18  O   LIG d   1       4.802  -3.962  -7.654  0.00  0.00    -0.367 OA
ATOM     19  C   LIG d   1       4.118  -4.587  -6.563  0.00  0.00     0.079 A 
ATOM     20  H   LIG d   1       4.386  -5.614  -6.317  0.00  0.00     0.059 H 
ATOM     21  H   LIG d   1       3.076  -4.316  -6.395  0.00  0.00     0.059 H 
ENDBRANCH   7  16
TORSDOF 1
ENDMDL
MODEL 8
REMARK VINA RESULT:      -4.5      2.016      4.162
REMARK  1 active torsions:
REMARK  status: ('A' for Active; 'I' for Inactive)
REMARK    1  A    between atoms: C_7  and  C_11 
ROOT
ATOM      1  C   LIG d   1       7.915  -3.509  -4.356  0.00  0.00    -0.061 A 
ATOM      2  C   LIG d   1       7.103  -4.411  -5.031  0.00  0.00    -0.060 A 
ATOM      3  C   LIG d   1       5.751  -4.183  -5.158  0.00  0.00    -0.038 A 
ATOM      4  C   LIG d   1       5.190  -3.037  -4.604  0.00  0.00     0.047 A 
ATOM      5  C   LIG d   1       6.015  -2.126  -3.919  0.00  0.00     0.005 A 
ATOM      6  C   LIG d   1       7.384  -2.378  -3.803  0.00  0.00    -0.052 A 
ATOM      7  C   LIG d   1       5.136  -1.047  -3.464  0.00  0.00     0.008 A 
ATOM      8  C   LIG d   1       3.895  -1.351  -3.876  0.00  0.00     0.008 A 
ATOM      9  N   LIG d   1       3.908  -2.537  -4.559  0.00  0.00    -0.360 N 
ATOM     10  H   LIG d   1       3.130  -2.961  -4.953  0.00  0.00     0.165 HD
ATOM     11  H   LIG d   1       8.973  -3.702  -4.269  0.00  0.00     0.062 H 
ATOM     12  H   LIG d   1       7.538  -5.301  -5.462  0.00  0.00     0.062 H 
ATOM     13  H   LIG d   1       5.129  -4.890  -5.686  0.00  0.00     0.064 H 
ATOM     14  H   LIG d   1       8.020  -1.680  -3.280  0.00  0.00     0.062 H 
ATOM     15  H   LIG d   1       3.016  -0.749  -3.696  0.00  0.00     0.081 H 
ENDROOT
BRANCH   7  16
ATOM     16  C   LIG d   1       5.547   0.174  -2.680  0.00  0.00     0.109 A 
ATOM     17  H   LIG d   1       5.669   0.026  -1.607  0.00  0.00     0.067 H 
ATOM     18  O   LIG d   1       5.071   1.444  -3.129  0.00  0.00    -0.367 OA
ATOM     19  C   LIG d   1       6.457   1.190  -3.370  0.00  0.00     0.079 A 
ATOM     20  H   LIG d   1       7.185   1.719  -2.755  0.00  0.00     0.059 H 
ATOM     21  H   LIG d   1       6.766   0.983  -4.395  0.00  0.00     0.059 H 
ENDBRANCH   7  16
TORSDOF 1
ENDMDL
MODEL 9
REMARK VINA RESULT:      -4.3      2.310      4.390
REMARK  1 active torsions:
REMARK  status: ('A' for Active; 'I' for Inactive)
REMARK    1  A    between atoms: C_7  and  C_11 
ROOT
ATOM      1  C   LIG d   1       8.053  -2.362  -4.534  0.00  0.00    -0.061 A 
ATOM      2  C   LIG d   1       8.780  -1.272  -4.995  0.00  0.00    -0.060 A 
ATOM      3  C   LIG d   1       8.368   0.014  -4.723  0.00  0.00    -0.038 A 
ATOM      4  C   LIG d   1       7.212   0.226  -3.979  0.00  0.00     0.047 A 
ATOM      5  C   LIG d   1       6.478  -0.881  -3.515  0.00  0.00     0.005 A 
ATOM      6  C   LIG d   1       6.915  -2.176  -3.802  0.00  0.00    -0.052 A 
ATOM      7  C   LIG d   1       5.338  -0.330  -2.779  0.00  0.00     0.008 A 
ATOM      8  C   LIG d   1       5.441   1.006  -2.838  0.00  0.00     0.008 A 
ATOM      9  N   LIG d   1       6.555   1.357  -3.551  0.00  0.00    -0.360 N 
ATOM     10  H   LIG d   1       6.839   2.267  -3.728  0.00  0.00     0.165 HD
ATOM     11  H   LIG d   1       8.392  -3.363  -4.753  0.00  0.00     0.062 H 
ATOM     12  H   LIG d   1       9.678  -1.435  -5.573  0.00  0.00     0.062 H 
ATOM     13  H   LIG d   1       8.941   0.854  -5.086  0.00  0.00     0.064 H 
ATOM     14  H   LIG d   1       6.354  -3.028  -3.446  0.00  0.00     0.062 H 
ATOM     15  H   LIG d   1       4.748   1.703  -2.389  0.00  0.00     0.081 H 
ENDROOT
BRANCH   7  16
ATOM     16  C   LIG d   1       4.253  -1.117  -2.087  0.00  0.00     0.109 A 
ATOM     17  H   LIG d   1       4.290  -1.114  -0.998  0.00  0.00     0.067 H 
ATOM     18  O   LIG d   1       3.769  -2.294  -2.735  0.00  0.00    -0.367 OA
ATOM     19  C   LIG d   1       2.879  -1.175  -2.755  0.00  0.00     0.079 A 
ATOM     20  H   LIG d   1       2.001  -1.212  -2.110  0.00  0.00     0.059 H 
ATOM     21  H   LIG d   1       2.749  -0.645  -3.699  0.00  0.00     0.059 H 
ENDBRANCH   7  16
TORSDOF 1
ENDMDL
MODEL 10
REMARK VINA RESULT:      -4.2      8.494     10.273
REMARK  1 active torsions:
REMARK  status: ('A' for Active; 'I' for Inactive)
REMARK    1  A    between atoms: C_7  and  C_11 
ROOT
ATOM      1  C   LIG d   1       9.281   5.618  -4.589  0.00  0.00    -0.061 A 
ATOM      2  C   LIG d   1       9.587   4.339  -4.143  0.00  0.00    -0.060 A 
ATOM      3  C   LIG d   1      10.050   4.132  -2.862  0.00  0.00    -0.038 A 
ATOM      4  C   LIG d   1      10.214   5.215  -2.005  0.00  0.00     0.047 A 
ATOM      5  C   LIG d   1       9.904   6.510  -2.461  0.00  0.00     0.005 A 
ATOM      6  C   LIG d   1       9.436   6.695  -3.763  0.00  0.00    -0.052 A 
ATOM      7  C   LIG d   1      10.181   7.411  -1.340  0.00  0.00     0.008 A 
ATOM      8  C   LIG d   1      10.619   6.652  -0.324  0.00  0.00     0.008 A 
ATOM      9  N   LIG d   1      10.646   5.337  -0.703  0.00  0.00    -0.360 N 
ATOM     10  H   LIG d   1      10.927   4.600  -0.138  0.00  0.00     0.165 HD
ATOM     11  H   LIG d   1       8.916   5.761  -5.594  0.00  0.00     0.062 H 
ATOM     12  H   LIG d   1       9.460   3.496  -4.807  0.00  0.00     0.062 H 
ATOM     13  H   LIG d   1      10.284   3.134  -2.524  0.00  0.00     0.064 H 
ATOM     14  H   LIG d   1       9.196   7.687  -4.117  0.00  0.00     0.062 H 
ATOM     15  H   LIG d   1      10.908   7.023   0.648  0.00  0.00     0.081 H 
ENDROOT
BRANCH   7  16
ATOM     16  C   LIG d   1      10.006   8.909  -1.330  0.00  0.00     0.109 A 
ATOM     17  H   LIG d   1      10.474   9.444  -2.156  0.00  0.00     0.067 H 
ATOM     18  O   LIG d   1       9.945   9.562  -0.061  0.00  0.00    -0.367 OA
ATOM     19  C   LIG d   1       8.702   9.470  -0.763  0.00  0.00     0.079 A 
ATOM     20  H   LIG d   1       8.303  10.380  -1.211  0.00  0.00     0.059 H 
ATOM     21  H   LIG d   1       7.961   8.761  -0.393  0.00  0.00     0.059 H 
ENDBRANCH   7  16
TORSDOF 1
ENDMDL
