MODEL 1
REMARK VINA RESULT:      -5.2      0.000      0.000
REMARK  5 active torsions:
REMARK  status: ('A' for Active; 'I' for Inactive)
REMARK    1  A    between atoms: C_1  and  C_2 
REMARK    2  A    between atoms: C_2  and  C_4 
REMARK    3  A    between atoms: C_7  and  N_11 
REMARK    4  A    between atoms: C_9  and  O_10 
REMARK       I    between atoms: N_11  and  C_12 
REMARK    5  A    between atoms: C_12  and  C_14 
ROOT
ATOM      1  C   LIG d   1       3.935  -0.349  -3.623  0.00  0.00     0.059 A 
ATOM      2  C   LIG d   1       2.785   0.349  -4.013  0.00  0.00    -0.046 A 
ATOM      3  C   LIG d   1       2.407   0.367  -5.324  0.00  0.00    -0.040 A 
ATOM      4  C   LIG d   1       3.154  -0.317  -6.282  0.00  0.00     0.037 A 
ATOM      5  C   LIG d   1       4.297  -1.014  -5.913  0.00  0.00     0.002 A 
ATOM      6  C   LIG d   1       4.694  -1.035  -4.588  0.00  0.00     0.129 A 
ATOM      7  H   LIG d   1       2.198   0.879  -3.276  0.00  0.00     0.063 H 
ATOM      8  H   LIG d   1       1.522   0.911  -5.621  0.00  0.00     0.064 H 
ATOM      9  H   LIG d   1       4.875  -1.538  -6.659  0.00  0.00     0.067 H 
ENDROOT
BRANCH   4  10
ATOM     10  N   LIG d   1       2.756  -0.296  -7.617  0.00  0.00    -0.286 N 
ATOM     11  C   LIG d   1       3.204   0.672  -8.440  0.00  0.00     0.214 C 
ATOM     12  O   LIG d   1       3.886   1.573  -8.000  0.00  0.00    -0.276 OA
ATOM     13  H   LIG d   1       2.156  -0.981  -7.954  0.00  0.00     0.155 HD
BRANCH  11  14
ATOM     14  C   LIG d   1       2.861   0.633  -9.907  0.00  0.00     0.013 C 
ATOM     15  H   LIG d   1       3.776   0.542 -10.491  0.00  0.00     0.032 H 
ATOM     16  H   LIG d   1       2.215  -0.224 -10.106  0.00  0.00     0.032 H 
ATOM     17  H   LIG d   1       2.342   1.551 -10.184  0.00  0.00     0.032 H 
ENDBRANCH  11  14
ENDBRANCH   4  10
BRANCH   6  18
ATOM     18  O   LIG d   1       5.810  -1.715  -4.221  0.00  0.00    -0.506 OA
ATOM     19  H   LIG d   1       5.939  -2.545  -4.698  0.00  0.00     0.292 HD
ENDBRANCH   6  18
BRANCH   1  20
ATOM     20  C   LIG d   1       4.345  -0.364  -2.216  0.00  0.00     0.164 C 
ATOM     21  O   LIG d   1       4.415  -1.416  -1.616  0.00  0.00    -0.292 OA
BRANCH  20  22
ATOM     22  C   LIG d   1       4.679   0.927  -1.515  0.00  0.00    -0.001 C 
ATOM     23  H   LIG d   1       4.747   1.664  -2.188  0.00  0.00     0.031 H 
ATOM     24  H   LIG d   1       3.894   1.164  -0.796  0.00  0.00     0.031 H 
ATOM     25  H   LIG d   1       5.630   0.822  -0.993  0.00  0.00     0.031 H 
ENDBRANCH  20  22
ENDBRANCH   1  20
TORSDOF 5
ENDMDL
MODEL 2
REMARK VINA RESULT:      -5.1      3.156      4.421
REMARK  5 active torsions:
REMARK  status: ('A' for Active; 'I' for Inactive)
REMARK    1  A    between atoms: C_1  and  C_2 
REMARK    2  A    between atoms: C_2  and  C_4 
REMARK    3  A    between atoms: C_7  and  N_11 
REMARK    4  A    between atoms: C_9  and  O_10 
REMARK       I    between atoms: N_11  and  C_12 
REMARK    5  A    between atoms: C_12  and  C_14 
ROOT
ATOM      1  C   LIG d   1       3.936  -0.719  -4.110  0.00  0.00     0.059 A 
ATOM      2  C   LIG d   1       3.865  -1.773  -3.189  0.00  0.00    -0.046 A 
ATOM      3  C   LIG d   1       4.340  -3.007  -3.525  0.00  0.00    -0.040 A 
ATOM      4  C   LIG d   1       4.908  -3.227  -4.778  0.00  0.00     0.037 A 
ATOM      5  C   LIG d   1       4.987  -2.193  -5.703  0.00  0.00     0.002 A 
ATOM      6  C   LIG d   1       4.504  -0.938  -5.377  0.00  0.00     0.129 A 
ATOM      7  H   LIG d   1       3.429  -1.610  -2.214  0.00  0.00     0.063 H 
ATOM      8  H   LIG d   1       4.278  -3.818  -2.814  0.00  0.00     0.064 H 
ATOM      9  H   LIG d   1       5.424  -2.369  -6.674  0.00  0.00     0.067 H 
ENDROOT
BRANCH   4  10
ATOM     10  N   LIG d   1       5.395  -4.490  -5.108  0.00  0.00    -0.286 N 
ATOM     11  C   LIG d   1       4.596  -5.380  -5.730  0.00  0.00     0.214 C 
ATOM     12  O   LIG d   1       3.431  -5.112  -5.929  0.00  0.00    -0.276 OA
ATOM     13  H   LIG d   1       6.310  -4.729  -4.890  0.00  0.00     0.155 HD
BRANCH  11  14
ATOM     14  C   LIG d   1       5.153  -6.705  -6.184  0.00  0.00     0.013 C 
ATOM     15  H   LIG d   1       4.489  -7.141  -6.929  0.00  0.00     0.032 H 
ATOM     16  H   LIG d   1       6.141  -6.553  -6.621  0.00  0.00     0.032 H 
ATOM     17  H   LIG d   1       5.234  -7.377  -5.329  0.00  0.00     0.032 H 
ENDBRANCH  11  14
ENDBRANCH   4  10
BRANCH   6  18
ATOM     18  O   LIG d   1       4.578   0.075  -6.276  0.00  0.00    -0.506 OA
ATOM     19  H   LIG d   1       4.966  -0.179  -7.125  0.00  0.00     0.292 HD
ENDBRANCH   6  18
BRANCH   1  20
ATOM     20  C   LIG d   1       3.421   0.605  -3.752  0.00  0.00     0.164 C 
ATOM     21  O   LIG d   1       2.762   1.236  -4.553  0.00  0.00    -0.292 OA
BRANCH  20  22
ATOM     22  C   LIG d   1       3.710   1.185  -2.392  0.00  0.00    -0.001 C 
ATOM     23  H   LIG d   1       3.389   0.554  -1.686  0.00  0.00     0.031 H 
ATOM     24  H   LIG d   1       4.784   1.337  -2.282  0.00  0.00     0.031 H 
ATOM     25  H   LIG d   1       3.195   2.140  -2.287  0.00  0.00     0.031 H 
ENDBRANCH  20  22
ENDBRANCH   1  20
TORSDOF 5
ENDMDL
MODEL 3
REMARK VINA RESULT:      -4.6      1.903      5.459
REMARK  5 active torsions:
REMARK  status: ('A' for Active; 'I' for Inactive)
REMARK    1  A    between atoms: C_1  and  C_2 
REMARK    2  A    between atoms: C_2  and  C_4 
REMARK    3  A    between atoms: C_7  and  N_11 
REMARK    4  A    between atoms: C_9  and  O_10 
REMARK       I    between atoms: N_11  and  C_12 
REMARK    5  A    between atoms: C_12  and  C_14 
ROOT
ATOM      1  C   LIG d   1       4.415   0.873  -8.303  0.00  0.00     0.059 A 
ATOM      2  C   LIG d   1       3.158   0.818  -7.687  0.00  0.00    -0.046 A 
ATOM      3  C   LIG d   1       2.968   0.023  -6.594  0.00  0.00    -0.040 A 
ATOM      4  C   LIG d   1       4.021  -0.728  -6.077  0.00  0.00     0.037 A 
ATOM      5  C   LIG d   1       5.274  -0.685  -6.675  0.00  0.00     0.002 A 
ATOM      6  C   LIG d   1       5.479   0.112  -7.788  0.00  0.00     0.129 A 
ATOM      7  H   LIG d   1       2.338   1.400  -8.080  0.00  0.00     0.063 H 
ATOM      8  H   LIG d   1       1.996  -0.020  -6.124  0.00  0.00     0.064 H 
ATOM      9  H   LIG d   1       6.086  -1.273  -6.274  0.00  0.00     0.067 H 
ENDROOT
BRANCH   4  10
ATOM     10  N   LIG d   1       3.817  -1.532  -4.957  0.00  0.00    -0.286 N 
ATOM     11  C   LIG d   1       4.017  -1.030  -3.722  0.00  0.00     0.214 C 
ATOM     12  O   LIG d   1       4.455   0.092  -3.587  0.00  0.00    -0.276 OA
ATOM     13  H   LIG d   1       3.529  -2.452  -5.066  0.00  0.00     0.155 HD
BRANCH  11  14
ATOM     14  C   LIG d   1       3.692  -1.864  -2.508  0.00  0.00     0.013 C 
ATOM     15  H   LIG d   1       3.695  -2.918  -2.781  0.00  0.00     0.032 H 
ATOM     16  H   LIG d   1       4.440  -1.685  -1.735  0.00  0.00     0.032 H 
ATOM     17  H   LIG d   1       2.706  -1.589  -2.131  0.00  0.00     0.032 H 
ENDBRANCH  11  14
ENDBRANCH   4  10
BRANCH   6  18
ATOM     18  O   LIG d   1       6.700   0.159  -8.377  0.00  0.00    -0.506 OA
ATOM     19  H   LIG d   1       6.891   0.996  -8.821  0.00  0.00     0.292 HD
ENDBRANCH   6  18
BRANCH   1  20
ATOM     20  C   LIG d   1       4.620   1.721  -9.481  0.00  0.00     0.164 C 
ATOM     21  O   LIG d   1       5.386   2.661  -9.426  0.00  0.00    -0.292 OA
BRANCH  20  22
ATOM     22  C   LIG d   1       3.878   1.428 -10.759  0.00  0.00    -0.001 C 
ATOM     23  H   LIG d   1       4.315   1.912 -11.517  0.00  0.00     0.031 H 
ATOM     24  H   LIG d   1       3.899   0.356 -10.954  0.00  0.00     0.031 H 
ATOM     25  H   LIG d   1       2.844   1.760 -10.664  0.00  0.00     0.031 H 
ENDBRANCH  20  22
ENDBRANCH   1  20
TORSDOF 5
ENDMDL
MODEL 4
REMARK VINA RESULT:      -4.5      1.681      2.262
REMARK  5 active torsions:
REMARK  status: ('A' for Active; 'I' for Inactive)
REMARK    1  A    between atoms: C_1  and  C_2 
REMARK    2  A    between atoms: C_2  and  C_4 
REMARK    3  A    between atoms: C_7  and  N_11 
REMARK    4  A    between atoms: C_9  and  O_10 
REMARK       I    between atoms: N_11  and  C_12 
REMARK    5  A    between atoms: C_12  and  C_14 
ROOT
ATOM      1  C   LIG d   1       3.832  -0.423  -4.391  0.00  0.00     0.059 A 
ATOM      2  C   LIG d   1       5.081  -0.518  -5.020  0.00  0.00    -0.046 A 
ATOM      3  C   LIG d   1       5.177  -0.377  -6.374  0.00  0.00    -0.040 A 
ATOM      4  C   LIG d   1       4.039  -0.129  -7.139  0.00  0.00     0.037 A 
ATOM      5  C   LIG d   1       2.793  -0.032  -6.532  0.00  0.00     0.002 A 
ATOM      6  C   LIG d   1       2.681  -0.178  -5.161  0.00  0.00     0.129 A 
ATOM      7  H   LIG d   1       5.968  -0.707  -4.433  0.00  0.00     0.063 H 
ATOM      8  H   LIG d   1       6.141  -0.456  -6.855  0.00  0.00     0.064 H 
ATOM      9  H   LIG d   1       1.913   0.156  -7.130  0.00  0.00     0.067 H 
ENDROOT
BRANCH   4  10
ATOM     10  N   LIG d   1       4.150   0.018  -8.520  0.00  0.00    -0.286 N 
ATOM     11  C   LIG d   1       4.045   1.240  -9.079  0.00  0.00     0.214 C 
ATOM     12  O   LIG d   1       3.771   2.200  -8.390  0.00  0.00    -0.276 OA
ATOM     13  H   LIG d   1       4.303  -0.760  -9.080  0.00  0.00     0.155 HD
BRANCH  11  14
ATOM     14  C   LIG d   1       4.272   1.415 -10.559  0.00  0.00     0.013 C 
ATOM     15  H   LIG d   1       5.299   1.143 -10.802  0.00  0.00     0.032 H 
ATOM     16  H   LIG d   1       3.585   0.772 -11.110  0.00  0.00     0.032 H 
ATOM     17  H   LIG d   1       4.097   2.455 -10.834  0.00  0.00     0.032 H 
ENDBRANCH  11  14
ENDBRANCH   4  10
BRANCH   6  18
ATOM     18  O   LIG d   1       1.467  -0.085  -4.562  0.00  0.00    -0.506 OA
ATOM     19  H   LIG d   1       1.425  -0.503  -3.692  0.00  0.00     0.292 HD
ENDBRANCH   6  18
BRANCH   1  20
ATOM     20  C   LIG d   1       3.727  -0.580  -2.938  0.00  0.00     0.164 C 
ATOM     21  O   LIG d   1       3.484   0.383  -2.240  0.00  0.00    -0.292 OA
BRANCH  20  22
ATOM     22  C   LIG d   1       3.921  -1.935  -2.310  0.00  0.00    -0.001 C 
ATOM     23  H   LIG d   1       3.588  -1.917  -1.367  0.00  0.00     0.031 H 
ATOM     24  H   LIG d   1       3.366  -2.682  -2.876  0.00  0.00     0.031 H 
ATOM     25  H   LIG d   1       4.982  -2.189  -2.315  0.00  0.00     0.031 H 
ENDBRANCH  20  22
ENDBRANCH   1  20
TORSDOF 5
ENDMDL
MODEL 5
REMARK VINA RESULT:      -4.5      3.407      5.043
REMARK  5 active torsions:
REMARK  status: ('A' for Active; 'I' for Inactive)
REMARK    1  A    between atoms: C_1  and  C_2 
REMARK    2  A    between atoms: C_2  and  C_4 
REMARK    3  A    between atoms: C_7  and  N_11 
REMARK    4  A    between atoms: C_9  and  O_10 
REMARK       I    between atoms: N_11  and  C_12 
REMARK    5  A    between atoms: C_12  and  C_14 
ROOT
ATOM      1  C   LIG d   1       4.662  -0.283  -3.353  0.00  0.00     0.059 A 
ATOM      2  C   LIG d   1       4.583  -1.675  -3.498  0.00  0.00    -0.046 A 
ATOM      3  C   LIG d   1       5.724  -2.421  -3.556  0.00  0.00    -0.040 A 
ATOM      4  C   LIG d   1       6.972  -1.809  -3.461  0.00  0.00     0.037 A 
ATOM      5  C   LIG d   1       7.069  -0.431  -3.316  0.00  0.00     0.002 A 
ATOM      6  C   LIG d   1       5.920   0.338  -3.262  0.00  0.00     0.129 A 
ATOM      7  H   LIG d   1       3.619  -2.157  -3.569  0.00  0.00     0.063 H 
ATOM      8  H   LIG d   1       5.659  -3.493  -3.674  0.00  0.00     0.064 H 
ATOM      9  H   LIG d   1       8.038   0.039  -3.248  0.00  0.00     0.067 H 
ENDROOT
BRANCH   4  10
ATOM     10  N   LIG d   1       8.130  -2.582  -3.516  0.00  0.00    -0.286 N 
ATOM     11  C   LIG d   1       8.766  -2.763  -4.691  0.00  0.00     0.214 C 
ATOM     12  O   LIG d   1       8.285  -2.323  -5.713  0.00  0.00    -0.276 OA
ATOM     13  H   LIG d   1       8.480  -2.990  -2.708  0.00  0.00     0.155 HD
BRANCH  11  14
ATOM     14  C   LIG d   1      10.075  -3.508  -4.733  0.00  0.00     0.013 C 
ATOM     15  H   LIG d   1       9.903  -4.524  -5.084  0.00  0.00     0.032 H 
ATOM     16  H   LIG d   1      10.760  -2.999  -5.413  0.00  0.00     0.032 H 
ATOM     17  H   LIG d   1      10.510  -3.536  -3.733  0.00  0.00     0.032 H 
ENDBRANCH  11  14
ENDBRANCH   4  10
BRANCH   6  18
ATOM     18  O   LIG d   1       6.007   1.685  -3.120  0.00  0.00    -0.506 OA
ATOM     19  H   LIG d   1       5.175   2.109  -2.871  0.00  0.00     0.292 HD
ENDBRANCH   6  18
BRANCH   1  20
ATOM     20  C   LIG d   1       3.438   0.520  -3.296  0.00  0.00     0.164 C 
ATOM     21  O   LIG d   1       3.167   1.144  -2.290  0.00  0.00    -0.292 OA
BRANCH  20  22
ATOM     22  C   LIG d   1       2.514   0.572  -4.485  0.00  0.00    -0.001 C 
ATOM     23  H   LIG d   1       1.570   0.441  -4.180  0.00  0.00     0.031 H 
ATOM     24  H   LIG d   1       2.606   1.541  -4.975  0.00  0.00     0.031 H 
ATOM     25  H   LIG d   1       2.782  -0.218  -5.188  0.00  0.00     0.031 H 
ENDBRANCH  20  22
ENDBRANCH   1  20
TORSDOF 5
ENDMDL
MODEL 6
REMARK VINA RESULT:      -4.5      3.570      4.755
REMARK  5 active torsions:
REMARK  status: ('A' for Active; 'I' for Inactive)
REMARK    1  A    between atoms: C_1  and  C_2 
REMARK    2  A    between atoms: C_2  and  C_4 
REMARK    3  A    between atoms: C_7  and  N_11 
REMARK    4  A    between atoms: C_9  and  O_10 
REMARK       I    between atoms: N_11  and  C_12 
REMARK    5  A    between atoms: C_12  and  C_14 
ROOT
ATOM      1  C   LIG d   1       5.214  -0.756  -3.512  0.00  0.00     0.059 A 
ATOM      2  C   LIG d   1       6.612  -0.782  -3.425  0.00  0.00    -0.046 A 
ATOM      3  C   LIG d   1       7.301  -1.892  -3.820  0.00  0.00    -0.040 A 
ATOM      4  C   LIG d   1       6.622  -3.001  -4.321  0.00  0.00     0.037 A 
ATOM      5  C   LIG d   1       5.236  -2.993  -4.414  0.00  0.00     0.002 A 
ATOM      6  C   LIG d   1       4.525  -1.876  -4.011  0.00  0.00     0.129 A 
ATOM      7  H   LIG d   1       7.145   0.075  -3.042  0.00  0.00     0.063 H 
ATOM      8  H   LIG d   1       8.378  -1.909  -3.748  0.00  0.00     0.064 H 
ATOM      9  H   LIG d   1       4.714  -3.856  -4.797  0.00  0.00     0.067 H 
ENDROOT
BRANCH   4  10
ATOM     10  N   LIG d   1       7.336  -4.127  -4.726  0.00  0.00    -0.286 N 
ATOM     11  C   LIG d   1       7.791  -4.218  -5.992  0.00  0.00     0.214 C 
ATOM     12  O   LIG d   1       7.508  -3.360  -6.800  0.00  0.00    -0.276 OA
ATOM     13  H   LIG d   1       7.507  -4.846  -4.097  0.00  0.00     0.155 HD
BRANCH  11  14
ATOM     14  C   LIG d   1       8.655  -5.383  -6.401  0.00  0.00     0.013 C 
ATOM     15  H   LIG d   1       8.252  -6.300  -5.974  0.00  0.00     0.032 H 
ATOM     16  H   LIG d   1       8.666  -5.462  -7.489  0.00  0.00     0.032 H 
ATOM     17  H   LIG d   1       9.671  -5.228  -6.037  0.00  0.00     0.032 H 
ENDBRANCH  11  14
ENDBRANCH   4  10
BRANCH   6  18
ATOM     18  O   LIG d   1       3.171  -1.861  -4.099  0.00  0.00    -0.506 OA
ATOM     19  H   LIG d   1       2.728  -2.405  -3.434  0.00  0.00     0.292 HD
ENDBRANCH   6  18
BRANCH   1  20
ATOM     20  C   LIG d   1       4.473   0.433  -3.082  0.00  0.00     0.164 C 
ATOM     21  O   LIG d   1       3.797   1.048  -3.882  0.00  0.00    -0.292 OA
BRANCH  20  22
ATOM     22  C   LIG d   1       4.550   0.893  -1.650  0.00  0.00    -0.001 C 
ATOM     23  H   LIG d   1       4.025   1.738  -1.542  0.00  0.00     0.031 H 
ATOM     24  H   LIG d   1       4.137   0.124  -0.998  0.00  0.00     0.031 H 
ATOM     25  H   LIG d   1       5.591   1.076  -1.383  0.00  0.00     0.031 H 
ENDBRANCH  20  22
ENDBRANCH   1  20
TORSDOF 5
ENDMDL
MODEL 7
REMARK VINA RESULT:      -4.4      3.490      5.055
REMARK  5 active torsions:
REMARK  status: ('A' for Active; 'I' for Inactive)
REMARK    1  A    between atoms: C_1  and  C_2 
REMARK    2  A    between atoms: C_2  and  C_4 
REMARK    3  A    between atoms: C_7  and  N_11 
REMARK    4  A    between atoms: C_9  and  O_10 
REMARK       I    between atoms: N_11  and  C_12 
REMARK    5  A    between atoms: C_12  and  C_14 
ROOT
ATOM      1  C   LIG d   1       4.905  -0.245  -3.659  0.00  0.00     0.059 A 
ATOM      2  C   LIG d   1       6.188   0.273  -3.439  0.00  0.00    -0.046 A 
ATOM      3  C   LIG d   1       7.268  -0.561  -3.427  0.00  0.00    -0.040 A 
ATOM      4  C   LIG d   1       7.106  -1.928  -3.644  0.00  0.00     0.037 A 
ATOM      5  C   LIG d   1       5.841  -2.458  -3.864  0.00  0.00     0.002 A 
ATOM      6  C   LIG d   1       4.736  -1.624  -3.872  0.00  0.00     0.129 A 
ATOM      7  H   LIG d   1       6.322   1.332  -3.273  0.00  0.00     0.063 H 
ATOM      8  H   LIG d   1       8.255  -0.158  -3.253  0.00  0.00     0.064 H 
ATOM      9  H   LIG d   1       5.719  -3.518  -4.027  0.00  0.00     0.067 H 
ENDROOT
BRANCH   4  10
ATOM     10  N   LIG d   1       8.217  -2.769  -3.636  0.00  0.00    -0.286 N 
ATOM     11  C   LIG d   1       8.953  -2.924  -4.754  0.00  0.00     0.214 C 
ATOM     12  O   LIG d   1       8.601  -2.399  -5.789  0.00  0.00    -0.276 OA
ATOM     13  H   LIG d   1       8.462  -3.241  -2.825  0.00  0.00     0.155 HD
BRANCH  11  14
ATOM     14  C   LIG d   1      10.216  -3.747  -4.717  0.00  0.00     0.013 C 
ATOM     15  H   LIG d   1      10.022  -4.685  -4.199  0.00  0.00     0.032 H 
ATOM     16  H   LIG d   1      10.543  -3.955  -5.737  0.00  0.00     0.032 H 
ATOM     17  H   LIG d   1      10.995  -3.195  -4.191  0.00  0.00     0.032 H 
ENDBRANCH  11  14
ENDBRANCH   4  10
BRANCH   6  18
ATOM     18  O   LIG d   1       3.498  -2.136  -4.086  0.00  0.00    -0.506 OA
ATOM     19  H   LIG d   1       3.477  -3.100  -4.152  0.00  0.00     0.292 HD
ENDBRANCH   6  18
BRANCH   1  20
ATOM     20  C   LIG d   1       3.743   0.649  -3.665  0.00  0.00     0.164 C 
ATOM     21  O   LIG d   1       3.061   0.749  -4.664  0.00  0.00    -0.292 OA
BRANCH  20  22
ATOM     22  C   LIG d   1       3.396   1.443  -2.432  0.00  0.00    -0.001 C 
ATOM     23  H   LIG d   1       3.156   2.378  -2.695  0.00  0.00     0.031 H 
ATOM     24  H   LIG d   1       2.548   0.979  -1.928  0.00  0.00     0.031 H 
ATOM     25  H   LIG d   1       4.253   1.463  -1.760  0.00  0.00     0.031 H 
ENDBRANCH  20  22
ENDBRANCH   1  20
TORSDOF 5
ENDMDL
MODEL 8
REMARK VINA RESULT:      -4.4      2.121      5.261
REMARK  5 active torsions:
REMARK  status: ('A' for Active; 'I' for Inactive)
REMARK    1  A    between atoms: C_1  and  C_2 
REMARK    2  A    between atoms: C_2  and  C_4 
REMARK    3  A    between atoms: C_7  and  N_11 
REMARK    4  A    between atoms: C_9  and  O_10 
REMARK       I    between atoms: N_11  and  C_12 
REMARK    5  A    between atoms: C_12  and  C_14 
ROOT
ATOM      1  C   LIG d   1       3.478  -0.661  -7.755  0.00  0.00     0.059 A 
ATOM      2  C   LIG d   1       2.686   0.273  -7.074  0.00  0.00    -0.046 A 
ATOM      3  C   LIG d   1       2.779   0.388  -5.718  0.00  0.00    -0.040 A 
ATOM      4  C   LIG d   1       3.667  -0.413  -5.002  0.00  0.00     0.037 A 
ATOM      5  C   LIG d   1       4.460  -1.344  -5.661  0.00  0.00     0.002 A 
ATOM      6  C   LIG d   1       4.371  -1.475  -7.036  0.00  0.00     0.129 A 
ATOM      7  H   LIG d   1       1.998   0.900  -7.622  0.00  0.00     0.063 H 
ATOM      8  H   LIG d   1       2.164   1.106  -5.196  0.00  0.00     0.064 H 
ATOM      9  H   LIG d   1       5.143  -1.966  -5.102  0.00  0.00     0.067 H 
ENDROOT
BRANCH   4  10
ATOM     10  N   LIG d   1       3.758  -0.283  -3.618  0.00  0.00    -0.286 N 
ATOM     11  C   LIG d   1       4.619   0.602  -3.078  0.00  0.00     0.214 C 
ATOM     12  O   LIG d   1       5.374   1.225  -3.793  0.00  0.00    -0.276 OA
ATOM     13  H   LIG d   1       3.200  -0.830  -3.041  0.00  0.00     0.155 HD
BRANCH  11  14
ATOM     14  C   LIG d   1       4.640   0.820  -1.587  0.00  0.00     0.013 C 
ATOM     15  H   LIG d   1       4.252   1.812  -1.360  0.00  0.00     0.032 H 
ATOM     16  H   LIG d   1       4.019   0.067  -1.101  0.00  0.00     0.032 H 
ATOM     17  H   LIG d   1       5.664   0.738  -1.221  0.00  0.00     0.032 H 
ENDBRANCH  11  14
ENDBRANCH   4  10
BRANCH   6  18
ATOM     18  O   LIG d   1       5.142  -2.382  -7.686  0.00  0.00    -0.506 OA
ATOM     19  H   LIG d   1       4.979  -3.298  -7.422  0.00  0.00     0.292 HD
ENDBRANCH   6  18
BRANCH   1  20
ATOM     20  C   LIG d   1       3.374  -0.789  -9.212  0.00  0.00     0.164 C 
ATOM     21  O   LIG d   1       4.380  -0.833  -9.889  0.00  0.00    -0.292 OA
BRANCH  20  22
ATOM     22  C   LIG d   1       2.020  -0.866  -9.867  0.00  0.00    -0.001 C 
ATOM     23  H   LIG d   1       1.591   0.038  -9.852  0.00  0.00     0.031 H 
ATOM     24  H   LIG d   1       2.134  -1.195 -10.900  0.00  0.00     0.031 H 
ATOM     25  H   LIG d   1       1.393  -1.575  -9.326  0.00  0.00     0.031 H 
ENDBRANCH  20  22
ENDBRANCH   1  20
TORSDOF 5
ENDMDL
MODEL 9
REMARK VINA RESULT:      -4.3      5.437      6.660
REMARK  5 active torsions:
REMARK  status: ('A' for Active; 'I' for Inactive)
REMARK    1  A    between atoms: C_1  and  C_2 
REMARK    2  A    between atoms: C_2  and  C_4 
REMARK    3  A    between atoms: C_7  and  N_11 
REMARK    4  A    between atoms: C_9  and  O_10 
REMARK       I    between atoms: N_11  and  C_12 
REMARK    5  A    between atoms: C_12  and  C_14 
ROOT
ATOM      1  C   LIG d   1       3.415   0.561 -10.260  0.00  0.00     0.059 A 
ATOM      2  C   LIG d   1       2.409   0.224  -9.346  0.00  0.00    -0.046 A 
ATOM      3  C   LIG d   1       1.474  -0.714  -9.674  0.00  0.00    -0.040 A 
ATOM      4  C   LIG d   1       1.518  -1.350 -10.914  0.00  0.00     0.037 A 
ATOM      5  C   LIG d   1       2.509  -1.027 -11.832  0.00  0.00     0.002 A 
ATOM      6  C   LIG d   1       3.460  -0.073 -11.514  0.00  0.00     0.129 A 
ATOM      7  H   LIG d   1       2.370   0.709  -8.381  0.00  0.00     0.063 H 
ATOM      8  H   LIG d   1       0.697  -0.968  -8.968  0.00  0.00     0.064 H 
ATOM      9  H   LIG d   1       2.537  -1.518 -12.793  0.00  0.00     0.067 H 
ENDROOT
BRANCH   4  10
ATOM     10  N   LIG d   1       0.561  -2.310 -11.236  0.00  0.00    -0.286 N 
ATOM     11  C   LIG d   1       0.709  -3.579 -10.808  0.00  0.00     0.214 C 
ATOM     12  O   LIG d   1       1.714  -3.905 -10.214  0.00  0.00    -0.276 OA
ATOM     13  H   LIG d   1      -0.212  -2.064 -11.769  0.00  0.00     0.155 HD
BRANCH  11  14
ATOM     14  C   LIG d   1      -0.378  -4.592 -11.064  0.00  0.00     0.013 C 
ATOM     15  H   LIG d   1      -0.748  -4.975 -10.113  0.00  0.00     0.032 H 
ATOM     16  H   LIG d   1      -1.195  -4.118 -11.608  0.00  0.00     0.032 H 
ATOM     17  H   LIG d   1       0.024  -5.415 -11.655  0.00  0.00     0.032 H 
ENDBRANCH  11  14
ENDBRANCH   4  10
BRANCH   6  18
ATOM     18  O   LIG d   1       4.430   0.246 -12.407  0.00  0.00    -0.506 OA
ATOM     19  H   LIG d   1       4.641   1.189 -12.438  0.00  0.00     0.292 HD
ENDBRANCH   6  18
BRANCH   1  20
ATOM     20  C   LIG d   1       4.417   1.573  -9.911  0.00  0.00     0.164 C 
ATOM     21  O   LIG d   1       5.592   1.365 -10.133  0.00  0.00    -0.292 OA
BRANCH  20  22
ATOM     22  C   LIG d   1       3.988   2.870  -9.275  0.00  0.00    -0.001 C 
ATOM     23  H   LIG d   1       4.338   3.637  -9.813  0.00  0.00     0.031 H 
ATOM     24  H   LIG d   1       2.900   2.916  -9.241  0.00  0.00     0.031 H 
ATOM     25  H   LIG d   1       4.386   2.927  -8.261  0.00  0.00     0.031 H 
ENDBRANCH  20  22
ENDBRANCH   1  20
TORSDOF 5
ENDMDL
MODEL 10
REMARK VINA RESULT:      -4.3     11.186     12.190
REMARK  5 active torsions:
REMARK  status: ('A' for Active; 'I' for Inactive)
REMARK    1  A    between atoms: C_1  and  C_2 
REMARK    2  A    between atoms: C_2  and  C_4 
REMARK    3  A    between atoms: C_7  and  N_11 
REMARK    4  A    between atoms: C_9  and  O_10 
REMARK       I    between atoms: N_11  and  C_12 
REMARK    5  A    between atoms: C_12  and  C_14 
ROOT
ATOM      1  C   LIG d   1      10.777   7.418   0.169  0.00  0.00     0.059 A 
ATOM      2  C   LIG d   1       9.883   7.148  -0.876  0.00  0.00    -0.046 A 
ATOM      3  C   LIG d   1       9.173   8.163  -1.448  0.00  0.00    -0.040 A 
ATOM      4  C   LIG d   1       9.339   9.475  -1.007  0.00  0.00     0.037 A 
ATOM      5  C   LIG d   1      10.222   9.761   0.027  0.00  0.00     0.002 A 
ATOM      6  C   LIG d   1      10.943   8.740   0.620  0.00  0.00     0.129 A 
ATOM      7  H   LIG d   1       9.751   6.134  -1.225  0.00  0.00     0.063 H 
ATOM      8  H   LIG d   1       8.482   7.949  -2.250  0.00  0.00     0.064 H 
ATOM      9  H   LIG d   1      10.343  10.778   0.369  0.00  0.00     0.067 H 
ENDROOT
BRANCH   4  10
ATOM     10  N   LIG d   1       8.614  10.504  -1.603  0.00  0.00    -0.286 N 
ATOM     11  C   LIG d   1       9.148  11.204  -2.623  0.00  0.00     0.214 C 
ATOM     12  O   LIG d   1      10.292  10.994  -2.968  0.00  0.00    -0.276 OA
ATOM     13  H   LIG d   1       7.722  10.717  -1.283  0.00  0.00     0.155 HD
BRANCH  11  14
ATOM     14  C   LIG d   1       8.324  12.243  -3.338  0.00  0.00     0.013 C 
ATOM     15  H   LIG d   1       7.573  11.750  -3.954  0.00  0.00     0.032 H 
ATOM     16  H   LIG d   1       7.831  12.883  -2.605  0.00  0.00     0.032 H 
ATOM     17  H   LIG d   1       8.973  12.850  -3.971  0.00  0.00     0.032 H 
ENDBRANCH  11  14
ENDBRANCH   4  10
BRANCH   6  18
ATOM     18  O   LIG d   1      11.806   9.012   1.631  0.00  0.00    -0.506 OA
ATOM     19  H   LIG d   1      12.370   8.267   1.878  0.00  0.00     0.292 HD
ENDBRANCH   6  18
BRANCH   1  20
ATOM     20  C   LIG d   1      11.535   6.328   0.788  0.00  0.00     0.164 C 
ATOM     21  O   LIG d   1      12.662   6.081   0.411  0.00  0.00    -0.292 OA
BRANCH  20  22
ATOM     22  C   LIG d   1      10.916   5.512   1.893  0.00  0.00    -0.001 C 
ATOM     23  H   LIG d   1      10.092   5.059   1.552  0.00  0.00     0.031 H 
ATOM     24  H   LIG d   1      11.628   4.760   2.233  0.00  0.00     0.031 H 
ATOM     25  H   LIG d   1      10.652   6.166   2.725  0.00  0.00     0.031 H 
ENDBRANCH  20  22
ENDBRANCH   1  20
TORSDOF 5
ENDMDL
