MODEL 1
REMARK VINA RESULT:      -6.2      0.000      0.000
REMARK  6 active torsions:
REMARK  status: ('A' for Active; 'I' for Inactive)
REMARK    1  A    between atoms: C_1  and  C_2 
REMARK    2  A    between atoms: C_2  and  C_3 
REMARK    3  A    between atoms: C_8  and  O_9 
REMARK    4  A    between atoms: C_11  and  C_24 
REMARK    5  A    between atoms: C_12  and  C_15 
REMARK    6  A    between atoms: C_24  and  C_25 
ROOT
ATOM      1  C   LIG d   1       5.706  -2.172  -4.019  0.00  0.00    -0.005 A 
ATOM      2  C   LIG d   1       5.973  -0.860  -3.748  0.00  0.00    -0.041 A 
ATOM      3  C   LIG d   1       7.201  -0.313  -4.117  0.00  0.00     0.065 A 
ATOM      4  C   LIG d   1       8.167  -1.104  -4.766  0.00  0.00     0.142 A 
ATOM      5  C   LIG d   1       7.879  -2.437  -5.034  0.00  0.00     0.023 A 
ATOM      6  C   LIG d   1       6.655  -2.965  -4.660  0.00  0.00     0.123 A 
ATOM      7  O   LIG d   1       9.353  -0.574  -5.122  0.00  0.00    -0.459 OA
ATOM      8  C   LIG d   1       9.686   0.698  -4.891  0.00  0.00     0.117 A 
ATOM      9  C   LIG d   1       8.850   1.573  -4.273  0.00  0.00     0.068 A 
ATOM     10  C   LIG d   1       7.524   1.098  -3.841  0.00  0.00     0.200 A 
ATOM     11  O   LIG d   1       6.733   1.838  -3.282  0.00  0.00    -0.286 OA
ATOM     12  H   LIG d   1       5.235  -0.248  -3.250  0.00  0.00     0.063 H 
ATOM     13  H   LIG d   1       8.609  -3.059  -5.531  0.00  0.00     0.069 H 
ENDROOT
BRANCH   9  14
ATOM     14  C   LIG d   1       9.267   2.975  -4.033  0.00  0.00    -0.007 A 
ATOM     15  C   LIG d   1       9.919   3.316  -2.850  0.00  0.00    -0.008 A 
ATOM     16  C   LIG d   1      10.307   4.626  -2.628  0.00  0.00     0.167 A 
ATOM     17  H   LIG d   1      10.122   2.560  -2.106  0.00  0.00     0.066 H 
ATOM     18  C   LIG d   1      10.045   5.602  -3.589  0.00  0.00     0.166 A 
ATOM     19  O   LIG d   1      10.948   5.212  -1.574  0.00  0.00    -0.453 OA
ATOM     20  C   LIG d   1       9.397   5.260  -4.766  0.00  0.00    -0.016 A 
ATOM     21  O   LIG d   1      10.522   6.798  -3.135  0.00  0.00    -0.453 OA
ATOM     22  C   LIG d   1       9.012   3.954  -4.993  0.00  0.00    -0.050 A 
ATOM     23  H   LIG d   1       9.194   6.017  -5.508  0.00  0.00     0.066 H 
ATOM     24  H   LIG d   1       8.510   3.690  -5.912  0.00  0.00     0.062 H 
ATOM     25  C   LIG d   1      10.710   6.626  -1.719  0.00  0.00     0.233 C 
ATOM     26  H   LIG d   1       9.817   6.908  -1.142  0.00  0.00     0.117 H 
ATOM     27  H   LIG d   1      11.581   7.184  -1.343  0.00  0.00     0.117 H 
ENDBRANCH   9  14
BRANCH   8  28
ATOM     28  C   LIG d   1      11.043   1.184  -5.333  0.00  0.00     0.003 C 
ATOM     29  H   LIG d   1      11.221   0.876  -6.374  0.00  0.00     0.034 H 
ATOM     30  H   LIG d   1      11.079   2.282  -5.264  0.00  0.00     0.034 H 
BRANCH  28  31
ATOM     31  C   LIG d   1      12.120   0.581  -4.429  0.00  0.00    -0.058 C 
ATOM     32  H   LIG d   1      12.951   1.293  -4.325  0.00  0.00     0.023 H 
ATOM     33  H   LIG d   1      12.491  -0.353  -4.876  0.00  0.00     0.023 H 
ATOM     34  H   LIG d   1      11.691   0.369  -3.439  0.00  0.00     0.023 H 
ENDBRANCH  28  31
ENDBRANCH   8  28
BRANCH   1  35
ATOM     35  C   LIG d   1       4.379  -2.765  -3.620  0.00  0.00    -0.027 C 
ATOM     36  H   LIG d   1       4.508  -3.834  -3.393  0.00  0.00     0.031 H 
ATOM     37  H   LIG d   1       3.662  -2.650  -4.446  0.00  0.00     0.031 H 
BRANCH  35  38
ATOM     38  C   LIG d   1       3.849  -2.042  -2.380  0.00  0.00    -0.061 C 
ATOM     39  H   LIG d   1       4.692  -1.756  -1.734  0.00  0.00     0.023 H 
ATOM     40  H   LIG d   1       3.174  -2.711  -1.826  0.00  0.00     0.023 H 
ATOM     41  H   LIG d   1       3.301  -1.140  -2.688  0.00  0.00     0.023 H 
ENDBRANCH  35  38
ENDBRANCH   1  35
BRANCH   6  42
ATOM     42  O   LIG d   1       6.376  -4.267  -4.923  0.00  0.00    -0.506 OA
ATOM     43  H   LIG d   1       6.117  -4.951  -4.102  0.00  0.00     0.292 HD
ENDBRANCH   6  42
TORSDOF 6
ENDMDL
MODEL 2
REMARK VINA RESULT:      -6.0      0.707      1.474
REMARK  6 active torsions:
REMARK  status: ('A' for Active; 'I' for Inactive)
REMARK    1  A    between atoms: C_1  and  C_2 
REMARK    2  A    between atoms: C_2  and  C_3 
REMARK    3  A    between atoms: C_8  and  O_9 
REMARK    4  A    between atoms: C_11  and  C_24 
REMARK    5  A    between atoms: C_12  and  C_15 
REMARK    6  A    between atoms: C_24  and  C_25 
ROOT
ATOM      1  C   LIG d   1       5.697  -2.146  -4.020  0.00  0.00    -0.005 A 
ATOM      2  C   LIG d   1       5.980  -0.837  -3.748  0.00  0.00    -0.041 A 
ATOM      3  C   LIG d   1       7.213  -0.304  -4.121  0.00  0.00     0.065 A 
ATOM      4  C   LIG d   1       8.168  -1.105  -4.773  0.00  0.00     0.142 A 
ATOM      5  C   LIG d   1       7.864  -2.434  -5.041  0.00  0.00     0.023 A 
ATOM      6  C   LIG d   1       6.635  -2.949  -4.664  0.00  0.00     0.123 A 
ATOM      7  O   LIG d   1       9.359  -0.588  -5.132  0.00  0.00    -0.459 OA
ATOM      8  C   LIG d   1       9.707   0.681  -4.902  0.00  0.00     0.117 A 
ATOM      9  C   LIG d   1       8.883   1.564  -4.281  0.00  0.00     0.068 A 
ATOM     10  C   LIG d   1       7.553   1.103  -3.844  0.00  0.00     0.200 A 
ATOM     11  O   LIG d   1       6.771   1.851  -3.283  0.00  0.00    -0.286 OA
ATOM     12  H   LIG d   1       5.250  -0.217  -3.248  0.00  0.00     0.063 H 
ATOM     13  H   LIG d   1       8.585  -3.064  -5.541  0.00  0.00     0.069 H 
ENDROOT
BRANCH   9  14
ATOM     14  C   LIG d   1       9.316   2.961  -4.040  0.00  0.00    -0.007 A 
ATOM     15  C   LIG d   1       9.051   3.947  -4.989  0.00  0.00    -0.008 A 
ATOM     16  C   LIG d   1       9.455   5.250  -4.761  0.00  0.00     0.167 A 
ATOM     17  H   LIG d   1       8.531   3.694  -5.901  0.00  0.00     0.066 H 
ATOM     18  C   LIG d   1      10.127   5.575  -3.584  0.00  0.00     0.166 A 
ATOM     19  O   LIG d   1       9.324   6.381  -5.514  0.00  0.00    -0.453 OA
ATOM     20  C   LIG d   1      10.389   4.594  -2.641  0.00  0.00    -0.016 A 
ATOM     21  O   LIG d   1      10.414   6.911  -3.601  0.00  0.00    -0.453 OA
ATOM     22  C   LIG d   1       9.983   3.293  -2.861  0.00  0.00    -0.050 A 
ATOM     23  H   LIG d   1      10.909   4.847  -1.729  0.00  0.00     0.066 H 
ATOM     24  H   LIG d   1      10.185   2.531  -2.123  0.00  0.00     0.062 H 
ATOM     25  C   LIG d   1      10.278   7.316  -4.975  0.00  0.00     0.233 C 
ATOM     26  H   LIG d   1      11.224   7.234  -5.530  0.00  0.00     0.117 H 
ATOM     27  H   LIG d   1       9.883   8.339  -5.070  0.00  0.00     0.117 H 
ENDBRANCH   9  14
BRANCH   8  28
ATOM     28  C   LIG d   1      11.067   1.151  -5.348  0.00  0.00     0.003 C 
ATOM     29  H   LIG d   1      11.240   0.841  -6.389  0.00  0.00     0.034 H 
ATOM     30  H   LIG d   1      11.116   2.249  -5.279  0.00  0.00     0.034 H 
BRANCH  28  31
ATOM     31  C   LIG d   1      12.140   0.537  -4.446  0.00  0.00    -0.058 C 
ATOM     32  H   LIG d   1      11.658  -0.058  -3.656  0.00  0.00     0.023 H 
ATOM     33  H   LIG d   1      12.737   1.339  -3.989  0.00  0.00     0.023 H 
ATOM     34  H   LIG d   1      12.795  -0.112  -5.046  0.00  0.00     0.023 H 
ENDBRANCH  28  31
ENDBRANCH   8  28
BRANCH   1  35
ATOM     35  C   LIG d   1       4.365  -2.725  -3.617  0.00  0.00    -0.027 C 
ATOM     36  H   LIG d   1       4.484  -3.793  -3.387  0.00  0.00     0.031 H 
ATOM     37  H   LIG d   1       3.648  -2.605  -4.443  0.00  0.00     0.031 H 
BRANCH  35  38
ATOM     38  C   LIG d   1       3.844  -1.991  -2.379  0.00  0.00    -0.061 C 
ATOM     39  H   LIG d   1       3.426  -2.721  -1.669  0.00  0.00     0.023 H 
ATOM     40  H   LIG d   1       3.060  -1.280  -2.678  0.00  0.00     0.023 H 
ATOM     41  H   LIG d   1       4.671  -1.446  -1.901  0.00  0.00     0.023 H 
ENDBRANCH  35  38
ENDBRANCH   1  35
BRANCH   6  42
ATOM     42  O   LIG d   1       6.341  -4.248  -4.928  0.00  0.00    -0.506 OA
ATOM     43  H   LIG d   1       7.074  -4.883  -5.445  0.00  0.00     0.292 HD
ENDBRANCH   6  42
TORSDOF 6
ENDMDL
MODEL 3
REMARK VINA RESULT:      -5.9      6.395      9.557
REMARK  6 active torsions:
REMARK  status: ('A' for Active; 'I' for Inactive)
REMARK    1  A    between atoms: C_1  and  C_2 
REMARK    2  A    between atoms: C_2  and  C_3 
REMARK    3  A    between atoms: C_8  and  O_9 
REMARK    4  A    between atoms: C_11  and  C_24 
REMARK    5  A    between atoms: C_12  and  C_15 
REMARK    6  A    between atoms: C_24  and  C_25 
ROOT
ATOM      1  C   LIG d   1       3.599   0.395  -9.046  0.00  0.00    -0.005 A 
ATOM      2  C   LIG d   1       4.085  -0.876  -8.924  0.00  0.00    -0.041 A 
ATOM      3  C   LIG d   1       4.236  -1.440  -7.657  0.00  0.00     0.065 A 
ATOM      4  C   LIG d   1       3.892  -0.709  -6.506  0.00  0.00     0.142 A 
ATOM      5  C   LIG d   1       3.400   0.582  -6.649  0.00  0.00     0.023 A 
ATOM      6  C   LIG d   1       3.256   1.129  -7.912  0.00  0.00     0.123 A 
ATOM      7  O   LIG d   1       4.039  -1.256  -5.284  0.00  0.00    -0.459 OA
ATOM      8  C   LIG d   1       4.507  -2.491  -5.085  0.00  0.00     0.117 A 
ATOM      9  C   LIG d   1       4.877  -3.306  -6.106  0.00  0.00     0.068 A 
ATOM     10  C   LIG d   1       4.757  -2.808  -7.487  0.00  0.00     0.200 A 
ATOM     11  O   LIG d   1       5.073  -3.496  -8.443  0.00  0.00    -0.286 OA
ATOM     12  H   LIG d   1       4.350  -1.443  -9.805  0.00  0.00     0.063 H 
ATOM     13  H   LIG d   1       3.131   1.158  -5.775  0.00  0.00     0.069 H 
ENDROOT
BRANCH   9  14
ATOM     14  C   LIG d   1       5.397  -4.668  -5.835  0.00  0.00    -0.007 A 
ATOM     15  C   LIG d   1       4.520  -5.748  -5.759  0.00  0.00    -0.008 A 
ATOM     16  C   LIG d   1       5.008  -7.018  -5.507  0.00  0.00     0.167 A 
ATOM     17  H   LIG d   1       3.460  -5.594  -5.897  0.00  0.00     0.066 H 
ATOM     18  C   LIG d   1       6.377  -7.215  -5.330  0.00  0.00     0.166 A 
ATOM     19  O   LIG d   1       4.375  -8.221  -5.385  0.00  0.00    -0.453 OA
ATOM     20  C   LIG d   1       7.248  -6.139  -5.407  0.00  0.00    -0.016 A 
ATOM     21  O   LIG d   1       6.600  -8.542  -5.097  0.00  0.00    -0.453 OA
ATOM     22  C   LIG d   1       6.766  -4.872  -5.663  0.00  0.00    -0.050 A 
ATOM     23  H   LIG d   1       8.308  -6.293  -5.269  0.00  0.00     0.066 H 
ATOM     24  H   LIG d   1       7.448  -4.036  -5.725  0.00  0.00     0.062 H 
ATOM     25  C   LIG d   1       5.320  -9.087  -4.727  0.00  0.00     0.233 C 
ATOM     26  H   LIG d   1       5.151  -9.055  -3.641  0.00  0.00     0.117 H 
ATOM     27  H   LIG d   1       5.186 -10.118  -5.089  0.00  0.00     0.117 H 
ENDBRANCH   9  14
BRANCH   8  28
ATOM     28  C   LIG d   1       4.630  -3.000  -3.671  0.00  0.00     0.003 C 
ATOM     29  H   LIG d   1       4.182  -4.003  -3.603  0.00  0.00     0.034 H 
ATOM     30  H   LIG d   1       5.693  -3.053  -3.392  0.00  0.00     0.034 H 
BRANCH  28  31
ATOM     31  C   LIG d   1       3.900  -2.049  -2.721  0.00  0.00    -0.058 C 
ATOM     32  H   LIG d   1       3.529  -1.180  -3.286  0.00  0.00     0.023 H 
ATOM     33  H   LIG d   1       4.594  -1.708  -1.940  0.00  0.00     0.023 H 
ATOM     34  H   LIG d   1       3.052  -2.573  -2.256  0.00  0.00     0.023 H 
ENDBRANCH  28  31
ENDBRANCH   8  28
BRANCH   1  35
ATOM     35  C   LIG d   1       3.435   1.007 -10.413  0.00  0.00    -0.027 C 
ATOM     36  H   LIG d   1       4.213   1.768 -10.570  0.00  0.00     0.031 H 
ATOM     37  H   LIG d   1       2.443   1.475 -10.490  0.00  0.00     0.031 H 
BRANCH  35  38
ATOM     38  C   LIG d   1       3.568  -0.083 -11.479  0.00  0.00    -0.061 C 
ATOM     39  H   LIG d   1       3.412  -1.069 -11.017  0.00  0.00     0.023 H 
ATOM     40  H   LIG d   1       4.574  -0.041 -11.923  0.00  0.00     0.023 H 
ATOM     41  H   LIG d   1       2.815   0.077 -12.263  0.00  0.00     0.023 H 
ENDBRANCH  35  38
ENDBRANCH   1  35
BRANCH   6  42
ATOM     42  O   LIG d   1       2.774   2.391  -8.049  0.00  0.00    -0.506 OA
ATOM     43  H   LIG d   1       1.856   2.569  -8.626  0.00  0.00     0.292 HD
ENDBRANCH   6  42
TORSDOF 6
ENDMDL
MODEL 4
REMARK VINA RESULT:      -5.8      5.676      7.820
REMARK  6 active torsions:
REMARK  status: ('A' for Active; 'I' for Inactive)
REMARK    1  A    between atoms: C_1  and  C_2 
REMARK    2  A    between atoms: C_2  and  C_3 
REMARK    3  A    between atoms: C_8  and  O_9 
REMARK    4  A    between atoms: C_11  and  C_24 
REMARK    5  A    between atoms: C_12  and  C_15 
REMARK    6  A    between atoms: C_24  and  C_25 
ROOT
ATOM      1  C   LIG d   1       4.434   0.770  -8.885  0.00  0.00    -0.005 A 
ATOM      2  C   LIG d   1       5.391  -0.127  -8.504  0.00  0.00    -0.041 A 
ATOM      3  C   LIG d   1       5.264  -0.801  -7.289  0.00  0.00     0.065 A 
ATOM      4  C   LIG d   1       4.157  -0.562  -6.455  0.00  0.00     0.142 A 
ATOM      5  C   LIG d   1       3.194   0.355  -6.857  0.00  0.00     0.023 A 
ATOM      6  C   LIG d   1       3.335   1.015  -8.065  0.00  0.00     0.123 A 
ATOM      7  O   LIG d   1       4.037  -1.214  -5.282  0.00  0.00    -0.459 OA
ATOM      8  C   LIG d   1       4.930  -2.104  -4.842  0.00  0.00     0.117 A 
ATOM      9  C   LIG d   1       6.044  -2.430  -5.546  0.00  0.00     0.068 A 
ATOM     10  C   LIG d   1       6.277  -1.776  -6.846  0.00  0.00     0.200 A 
ATOM     11  O   LIG d   1       7.259  -2.030  -7.521  0.00  0.00    -0.286 OA
ATOM     12  H   LIG d   1       6.243  -0.316  -9.141  0.00  0.00     0.063 H 
ATOM     13  H   LIG d   1       2.338   0.551  -6.229  0.00  0.00     0.069 H 
ENDROOT
BRANCH   9  14
ATOM     14  C   LIG d   1       7.011  -3.420  -5.014  0.00  0.00    -0.007 A 
ATOM     15  C   LIG d   1       7.986  -3.023  -4.101  0.00  0.00    -0.008 A 
ATOM     16  C   LIG d   1       8.886  -3.949  -3.606  0.00  0.00     0.167 A 
ATOM     17  H   LIG d   1       8.038  -1.993  -3.780  0.00  0.00     0.066 H 
ATOM     18  C   LIG d   1       8.817  -5.278  -4.022  0.00  0.00     0.166 A 
ATOM     19  O   LIG d   1       9.917  -3.823  -2.720  0.00  0.00    -0.453 OA
ATOM     20  C   LIG d   1       7.847  -5.672  -4.930  0.00  0.00    -0.016 A 
ATOM     21  O   LIG d   1       9.806  -5.983  -3.395  0.00  0.00    -0.453 OA
ATOM     22  C   LIG d   1       6.943  -4.752  -5.422  0.00  0.00    -0.050 A 
ATOM     23  H   LIG d   1       7.795  -6.701  -5.251  0.00  0.00     0.066 H 
ATOM     24  H   LIG d   1       6.186  -5.062  -6.128  0.00  0.00     0.062 H 
ATOM     25  C   LIG d   1      10.733  -4.995  -2.909  0.00  0.00     0.233 C 
ATOM     26  H   LIG d   1      11.527  -4.774  -3.638  0.00  0.00     0.117 H 
ATOM     27  H   LIG d   1      11.186  -5.285  -1.949  0.00  0.00     0.117 H 
ENDBRANCH   9  14
BRANCH   8  28
ATOM     28  C   LIG d   1       4.692  -2.773  -3.513  0.00  0.00     0.003 C 
ATOM     29  H   LIG d   1       4.260  -3.771  -3.677  0.00  0.00     0.034 H 
ATOM     30  H   LIG d   1       5.648  -2.871  -2.976  0.00  0.00     0.034 H 
BRANCH  28  31
ATOM     31  C   LIG d   1       3.725  -1.927  -2.682  0.00  0.00    -0.058 C 
ATOM     32  H   LIG d   1       4.164  -1.735  -1.692  0.00  0.00     0.023 H 
ATOM     33  H   LIG d   1       2.775  -2.468  -2.563  0.00  0.00     0.023 H 
ATOM     34  H   LIG d   1       3.541  -0.971  -3.194  0.00  0.00     0.023 H 
ENDBRANCH  28  31
ENDBRANCH   8  28
BRANCH   1  35
ATOM     35  C   LIG d   1       4.570   1.500 -10.196  0.00  0.00    -0.027 C 
ATOM     36  H   LIG d   1       5.633   1.698 -10.397  0.00  0.00     0.031 H 
ATOM     37  H   LIG d   1       4.022   2.452 -10.145  0.00  0.00     0.031 H 
BRANCH  35  38
ATOM     38  C   LIG d   1       3.991   0.639 -11.321  0.00  0.00    -0.061 C 
ATOM     39  H   LIG d   1       2.914   0.841 -11.421  0.00  0.00     0.023 H 
ATOM     40  H   LIG d   1       4.145  -0.425 -11.084  0.00  0.00     0.023 H 
ATOM     41  H   LIG d   1       4.499   0.881 -12.266  0.00  0.00     0.023 H 
ENDBRANCH  35  38
ENDBRANCH   1  35
BRANCH   6  42
ATOM     42  O   LIG d   1       2.391   1.910  -8.457  0.00  0.00    -0.506 OA
ATOM     43  H   LIG d   1       1.669   1.640  -9.240  0.00  0.00     0.292 HD
ENDBRANCH   6  42
TORSDOF 6
ENDMDL
MODEL 5
REMARK VINA RESULT:      -5.8      5.797      7.683
REMARK  6 active torsions:
REMARK  status: ('A' for Active; 'I' for Inactive)
REMARK    1  A    between atoms: C_1  and  C_2 
REMARK    2  A    between atoms: C_2  and  C_3 
REMARK    3  A    between atoms: C_8  and  O_9 
REMARK    4  A    between atoms: C_11  and  C_24 
REMARK    5  A    between atoms: C_12  and  C_15 
REMARK    6  A    between atoms: C_24  and  C_25 
ROOT
ATOM      1  C   LIG d   1       5.367  -9.394  -5.482  0.00  0.00    -0.005 A 
ATOM      2  C   LIG d   1       4.722  -8.194  -5.595  0.00  0.00    -0.041 A 
ATOM      3  C   LIG d   1       5.447  -7.007  -5.499  0.00  0.00     0.065 A 
ATOM      4  C   LIG d   1       6.837  -7.037  -5.285  0.00  0.00     0.142 A 
ATOM      5  C   LIG d   1       7.476  -8.265  -5.171  0.00  0.00     0.023 A 
ATOM      6  C   LIG d   1       6.743  -9.435  -5.269  0.00  0.00     0.123 A 
ATOM      7  O   LIG d   1       7.535  -5.888  -5.193  0.00  0.00    -0.459 OA
ATOM      8  C   LIG d   1       6.976  -4.680  -5.294  0.00  0.00     0.117 A 
ATOM      9  C   LIG d   1       5.645  -4.505  -5.500  0.00  0.00     0.068 A 
ATOM     10  C   LIG d   1       4.785  -5.695  -5.617  0.00  0.00     0.200 A 
ATOM     11  O   LIG d   1       3.584  -5.600  -5.803  0.00  0.00    -0.286 OA
ATOM     12  H   LIG d   1       3.655  -8.166  -5.761  0.00  0.00     0.063 H 
ATOM     13  H   LIG d   1       8.543  -8.306  -5.007  0.00  0.00     0.069 H 
ENDROOT
BRANCH   9  14
ATOM     14  C   LIG d   1       5.068  -3.142  -5.599  0.00  0.00    -0.007 A 
ATOM     15  C   LIG d   1       4.618  -2.490  -4.453  0.00  0.00    -0.008 A 
ATOM     16  C   LIG d   1       4.081  -1.219  -4.548  0.00  0.00     0.167 A 
ATOM     17  H   LIG d   1       4.689  -2.977  -3.491  0.00  0.00     0.066 H 
ATOM     18  C   LIG d   1       3.990  -0.593  -5.790  0.00  0.00     0.166 A 
ATOM     19  O   LIG d   1       3.577  -0.378  -3.598  0.00  0.00    -0.453 OA
ATOM     20  C   LIG d   1       4.439  -1.243  -6.929  0.00  0.00    -0.016 A 
ATOM     21  O   LIG d   1       3.430   0.641  -5.616  0.00  0.00    -0.453 OA
ATOM     22  C   LIG d   1       4.980  -2.509  -6.838  0.00  0.00    -0.050 A 
ATOM     23  H   LIG d   1       4.368  -0.757  -7.890  0.00  0.00     0.066 H 
ATOM     24  H   LIG d   1       5.332  -3.012  -7.727  0.00  0.00     0.062 H 
ATOM     25  C   LIG d   1       2.804   0.600  -4.321  0.00  0.00     0.233 C 
ATOM     26  H   LIG d   1       1.756   0.271  -4.375  0.00  0.00     0.117 H 
ATOM     27  H   LIG d   1       2.859   1.568  -3.801  0.00  0.00     0.117 H 
ENDBRANCH   9  14
BRANCH   8  28
ATOM     28  C   LIG d   1       7.856  -3.462  -5.174  0.00  0.00     0.003 C 
ATOM     29  H   LIG d   1       8.694  -3.543  -5.882  0.00  0.00     0.034 H 
ATOM     30  H   LIG d   1       7.267  -2.561  -5.404  0.00  0.00     0.034 H 
BRANCH  28  31
ATOM     31  C   LIG d   1       8.400  -3.365  -3.747  0.00  0.00    -0.058 C 
ATOM     32  H   LIG d   1       7.561  -3.338  -3.036  0.00  0.00     0.023 H 
ATOM     33  H   LIG d   1       8.997  -2.447  -3.645  0.00  0.00     0.023 H 
ATOM     34  H   LIG d   1       9.033  -4.239  -3.535  0.00  0.00     0.023 H 
ENDBRANCH  28  31
ENDBRANCH   8  28
BRANCH   1  35
ATOM     35  C   LIG d   1       4.585 -10.678  -5.584  0.00  0.00    -0.027 C 
ATOM     36  H   LIG d   1       5.266 -11.502  -5.840  0.00  0.00     0.031 H 
ATOM     37  H   LIG d   1       3.818 -10.580  -6.367  0.00  0.00     0.031 H 
BRANCH  35  38
ATOM     38  C   LIG d   1       3.909 -10.972  -4.243  0.00  0.00    -0.061 C 
ATOM     39  H   LIG d   1       4.410 -10.401  -3.447  0.00  0.00     0.023 H 
ATOM     40  H   LIG d   1       3.983 -12.048  -4.024  0.00  0.00     0.023 H 
ATOM     41  H   LIG d   1       2.851 -10.680  -4.294  0.00  0.00     0.023 H 
ENDBRANCH  35  38
ENDBRANCH   1  35
BRANCH   6  42
ATOM     42  O   LIG d   1       7.370 -10.633  -5.157  0.00  0.00    -0.506 OA
ATOM     43  H   LIG d   1       8.465 -10.673  -5.058  0.00  0.00     0.292 HD
ENDBRANCH   6  42
TORSDOF 6
ENDMDL
MODEL 6
REMARK VINA RESULT:      -5.7      3.645      9.171
REMARK  6 active torsions:
REMARK  status: ('A' for Active; 'I' for Inactive)
REMARK    1  A    between atoms: C_1  and  C_2 
REMARK    2  A    between atoms: C_2  and  C_3 
REMARK    3  A    between atoms: C_8  and  O_9 
REMARK    4  A    between atoms: C_11  and  C_24 
REMARK    5  A    between atoms: C_12  and  C_15 
REMARK    6  A    between atoms: C_24  and  C_25 
ROOT
ATOM      1  C   LIG d   1       5.725   0.121  -3.072  0.00  0.00    -0.005 A 
ATOM      2  C   LIG d   1       5.180  -1.094  -3.375  0.00  0.00    -0.041 A 
ATOM      3  C   LIG d   1       5.816  -1.929  -4.293  0.00  0.00     0.065 A 
ATOM      4  C   LIG d   1       7.015  -1.527  -4.909  0.00  0.00     0.142 A 
ATOM      5  C   LIG d   1       7.556  -0.288  -4.590  0.00  0.00     0.023 A 
ATOM      6  C   LIG d   1       6.912   0.530  -3.677  0.00  0.00     0.123 A 
ATOM      7  O   LIG d   1       7.628  -2.335  -5.797  0.00  0.00    -0.459 OA
ATOM      8  C   LIG d   1       7.156  -3.535  -6.143  0.00  0.00     0.117 A 
ATOM      9  C   LIG d   1       6.010  -4.047  -5.626  0.00  0.00     0.068 A 
ATOM     10  C   LIG d   1       5.256  -3.246  -4.645  0.00  0.00     0.200 A 
ATOM     11  O   LIG d   1       4.221  -3.655  -4.147  0.00  0.00    -0.286 OA
ATOM     12  H   LIG d   1       4.259  -1.408  -2.905  0.00  0.00     0.063 H 
ATOM     13  H   LIG d   1       8.476   0.037  -5.054  0.00  0.00     0.069 H 
ENDROOT
BRANCH   9  14
ATOM     14  C   LIG d   1       5.521  -5.383  -6.046  0.00  0.00    -0.007 A 
ATOM     15  C   LIG d   1       5.867  -6.515  -5.312  0.00  0.00    -0.008 A 
ATOM     16  C   LIG d   1       5.410  -7.760  -5.706  0.00  0.00     0.167 A 
ATOM     17  H   LIG d   1       6.493  -6.421  -4.436  0.00  0.00     0.066 H 
ATOM     18  C   LIG d   1       4.603  -7.879  -6.836  0.00  0.00     0.166 A 
ATOM     19  O   LIG d   1       5.600  -9.002  -5.173  0.00  0.00    -0.453 OA
ATOM     20  C   LIG d   1       4.259  -6.751  -7.565  0.00  0.00    -0.016 A 
ATOM     21  O   LIG d   1       4.289  -9.197  -7.010  0.00  0.00    -0.453 OA
ATOM     22  C   LIG d   1       4.709  -5.507  -7.173  0.00  0.00    -0.050 A 
ATOM     23  H   LIG d   1       3.634  -6.845  -8.441  0.00  0.00     0.066 H 
ATOM     24  H   LIG d   1       4.437  -4.629  -7.741  0.00  0.00     0.062 H 
ATOM     25  C   LIG d   1       5.243  -9.927  -6.218  0.00  0.00     0.233 C 
ATOM     26  H   LIG d   1       6.142 -10.197  -6.791  0.00  0.00     0.117 H 
ATOM     27  H   LIG d   1       4.807 -10.833  -5.771  0.00  0.00     0.117 H 
ENDBRANCH   9  14
BRANCH   8  28
ATOM     28  C   LIG d   1       7.926  -4.354  -7.147  0.00  0.00     0.003 C 
ATOM     29  H   LIG d   1       8.617  -5.028  -6.618  0.00  0.00     0.034 H 
ATOM     30  H   LIG d   1       7.224  -4.949  -7.750  0.00  0.00     0.034 H 
BRANCH  28  31
ATOM     31  C   LIG d   1       8.722  -3.422  -8.063  0.00  0.00    -0.058 C 
ATOM     32  H   LIG d   1       9.747  -3.317  -7.677  0.00  0.00     0.023 H 
ATOM     33  H   LIG d   1       8.238  -2.435  -8.090  0.00  0.00     0.023 H 
ATOM     34  H   LIG d   1       8.752  -3.843  -9.078  0.00  0.00     0.023 H 
ENDBRANCH  28  31
ENDBRANCH   8  28
BRANCH   1  35
ATOM     35  C   LIG d   1       5.039   1.025  -2.081  0.00  0.00    -0.027 C 
ATOM     36  H   LIG d   1       5.468   2.036  -2.148  0.00  0.00     0.031 H 
ATOM     37  H   LIG d   1       5.183   0.632  -1.064  0.00  0.00     0.031 H 
BRANCH  35  38
ATOM     38  C   LIG d   1       3.543   1.085  -2.397  0.00  0.00    -0.061 C 
ATOM     39  H   LIG d   1       3.395   1.542  -3.386  0.00  0.00     0.023 H 
ATOM     40  H   LIG d   1       3.031   1.691  -1.633  0.00  0.00     0.023 H 
ATOM     41  H   LIG d   1       3.127   0.067  -2.396  0.00  0.00     0.023 H 
ENDBRANCH  35  38
ENDBRANCH   1  35
BRANCH   6  42
ATOM     42  O   LIG d   1       7.443   1.740  -3.367  0.00  0.00    -0.506 OA
ATOM     43  H   LIG d   1       8.453   1.803  -2.937  0.00  0.00     0.292 HD
ENDBRANCH   6  42
TORSDOF 6
ENDMDL
MODEL 7
REMARK VINA RESULT:      -5.7      6.246      8.292
REMARK  6 active torsions:
REMARK  status: ('A' for Active; 'I' for Inactive)
REMARK    1  A    between atoms: C_1  and  C_2 
REMARK    2  A    between atoms: C_2  and  C_3 
REMARK    3  A    between atoms: C_8  and  O_9 
REMARK    4  A    between atoms: C_11  and  C_24 
REMARK    5  A    between atoms: C_12  and  C_15 
REMARK    6  A    between atoms: C_24  and  C_25 
ROOT
ATOM      1  C   LIG d   1       1.221  -3.485 -11.500  0.00  0.00    -0.005 A 
ATOM      2  C   LIG d   1       2.031  -3.414 -10.403  0.00  0.00    -0.041 A 
ATOM      3  C   LIG d   1       2.318  -2.174  -9.832  0.00  0.00     0.065 A 
ATOM      4  C   LIG d   1       1.778  -0.997 -10.381  0.00  0.00     0.142 A 
ATOM      5  C   LIG d   1       0.957  -1.087 -11.497  0.00  0.00     0.023 A 
ATOM      6  C   LIG d   1       0.682  -2.325 -12.052  0.00  0.00     0.123 A 
ATOM      7  O   LIG d   1       2.057   0.201  -9.829  0.00  0.00    -0.459 OA
ATOM      8  C   LIG d   1       2.839   0.349  -8.757  0.00  0.00     0.117 A 
ATOM      9  C   LIG d   1       3.425  -0.702  -8.128  0.00  0.00     0.068 A 
ATOM     10  C   LIG d   1       3.189  -2.059  -8.649  0.00  0.00     0.200 A 
ATOM     11  O   LIG d   1       3.688  -3.040  -8.125  0.00  0.00    -0.286 OA
ATOM     12  H   LIG d   1       2.448  -4.316  -9.977  0.00  0.00     0.063 H 
ATOM     13  H   LIG d   1       0.534  -0.193 -11.932  0.00  0.00     0.069 H 
ENDROOT
BRANCH   9  14
ATOM     14  C   LIG d   1       4.292  -0.487  -6.944  0.00  0.00    -0.007 A 
ATOM     15  C   LIG d   1       3.731  -0.421  -5.671  0.00  0.00    -0.008 A 
ATOM     16  C   LIG d   1       4.542  -0.221  -4.568  0.00  0.00     0.167 A 
ATOM     17  H   LIG d   1       2.664  -0.526  -5.544  0.00  0.00     0.066 H 
ATOM     18  C   LIG d   1       5.920  -0.085  -4.733  0.00  0.00     0.166 A 
ATOM     19  O   LIG d   1       4.251  -0.119  -3.238  0.00  0.00    -0.453 OA
ATOM     20  C   LIG d   1       6.477  -0.151  -6.001  0.00  0.00    -0.016 A 
ATOM     21  O   LIG d   1       6.489   0.101  -3.506  0.00  0.00    -0.453 OA
ATOM     22  C   LIG d   1       5.672  -0.356  -7.103  0.00  0.00    -0.050 A 
ATOM     23  H   LIG d   1       7.544  -0.046  -6.127  0.00  0.00     0.066 H 
ATOM     24  H   LIG d   1       6.109  -0.410  -8.090  0.00  0.00     0.062 H 
ATOM     25  C   LIG d   1       5.410   0.487  -2.636  0.00  0.00     0.233 C 
ATOM     26  H   LIG d   1       5.274   1.578  -2.598  0.00  0.00     0.117 H 
ATOM     27  H   LIG d   1       5.538   0.097  -1.615  0.00  0.00     0.117 H 
ENDBRANCH   9  14
BRANCH   8  28
ATOM     28  C   LIG d   1       3.082   1.738  -8.225  0.00  0.00     0.003 C 
ATOM     29  H   LIG d   1       2.117   2.234  -8.039  0.00  0.00     0.034 H 
ATOM     30  H   LIG d   1       3.649   1.675  -7.283  0.00  0.00     0.034 H 
BRANCH  28  31
ATOM     31  C   LIG d   1       3.883   2.544  -9.249  0.00  0.00    -0.058 C 
ATOM     32  H   LIG d   1       3.348   3.478  -9.480  0.00  0.00     0.023 H 
ATOM     33  H   LIG d   1       4.002   1.953 -10.168  0.00  0.00     0.023 H 
ATOM     34  H   LIG d   1       4.874   2.782  -8.835  0.00  0.00     0.023 H 
ENDBRANCH  28  31
ENDBRANCH   8  28
BRANCH   1  35
ATOM     35  C   LIG d   1       0.910  -4.824 -12.118  0.00  0.00    -0.027 C 
ATOM     36  H   LIG d   1       1.836  -5.270 -12.510  0.00  0.00     0.031 H 
ATOM     37  H   LIG d   1       0.190  -4.691 -12.939  0.00  0.00     0.031 H 
BRANCH  35  38
ATOM     38  C   LIG d   1       0.308  -5.748 -11.057  0.00  0.00    -0.061 C 
ATOM     39  H   LIG d   1       0.080  -6.725 -11.508  0.00  0.00     0.023 H 
ATOM     40  H   LIG d   1      -0.617  -5.300 -10.664  0.00  0.00     0.023 H 
ATOM     41  H   LIG d   1       1.028  -5.882 -10.237  0.00  0.00     0.023 H 
ENDBRANCH  35  38
ENDBRANCH   1  35
BRANCH   6  42
ATOM     42  O   LIG d   1      -0.122  -2.410 -13.143  0.00  0.00    -0.506 OA
ATOM     43  H   LIG d   1      -0.031  -3.266 -13.827  0.00  0.00     0.292 HD
ENDBRANCH   6  42
TORSDOF 6
ENDMDL
MODEL 8
REMARK VINA RESULT:      -5.7      3.618      6.312
REMARK  6 active torsions:
REMARK  status: ('A' for Active; 'I' for Inactive)
REMARK    1  A    between atoms: C_1  and  C_2 
REMARK    2  A    between atoms: C_2  and  C_3 
REMARK    3  A    between atoms: C_8  and  O_9 
REMARK    4  A    between atoms: C_11  and  C_24 
REMARK    5  A    between atoms: C_12  and  C_15 
REMARK    6  A    between atoms: C_24  and  C_25 
ROOT
ATOM      1  C   LIG d   1       9.370   2.793  -4.904  0.00  0.00    -0.005 A 
ATOM      2  C   LIG d   1       9.223   4.132  -4.677  0.00  0.00    -0.041 A 
ATOM      3  C   LIG d   1       9.820   4.714  -3.559  0.00  0.00     0.065 A 
ATOM      4  C   LIG d   1      10.571   3.930  -2.664  0.00  0.00     0.142 A 
ATOM      5  C   LIG d   1      10.710   2.570  -2.910  0.00  0.00     0.023 A 
ATOM      6  C   LIG d   1      10.111   2.008  -4.024  0.00  0.00     0.123 A 
ATOM      7  O   LIG d   1      11.147   4.494  -1.584  0.00  0.00    -0.459 OA
ATOM      8  C   LIG d   1      11.049   5.795  -1.296  0.00  0.00     0.117 A 
ATOM      9  C   LIG d   1      10.354   6.665  -2.073  0.00  0.00     0.068 A 
ATOM     10  C   LIG d   1       9.683   6.155  -3.281  0.00  0.00     0.200 A 
ATOM     11  O   LIG d   1       9.046   6.890  -4.016  0.00  0.00    -0.286 OA
ATOM     12  H   LIG d   1       8.647   4.739  -5.361  0.00  0.00     0.063 H 
ATOM     13  H   LIG d   1      11.283   1.954  -2.234  0.00  0.00     0.069 H 
ENDROOT
BRANCH   9  14
ATOM     14  C   LIG d   1      10.267   8.100  -1.708  0.00  0.00    -0.007 A 
ATOM     15  C   LIG d   1      11.228   8.997  -2.170  0.00  0.00    -0.008 A 
ATOM     16  C   LIG d   1      11.144  10.335  -1.829  0.00  0.00     0.167 A 
ATOM     17  H   LIG d   1      12.038   8.648  -2.793  0.00  0.00     0.066 H 
ATOM     18  C   LIG d   1      10.098  10.784  -1.024  0.00  0.00     0.166 A 
ATOM     19  O   LIG d   1      11.941  11.399  -2.142  0.00  0.00    -0.453 OA
ATOM     20  C   LIG d   1       9.142   9.890  -0.567  0.00  0.00    -0.016 A 
ATOM     21  O   LIG d   1      10.240  12.129  -0.835  0.00  0.00    -0.453 OA
ATOM     22  C   LIG d   1       9.219   8.556  -0.909  0.00  0.00    -0.050 A 
ATOM     23  H   LIG d   1       8.333  10.240   0.056  0.00  0.00     0.066 H 
ATOM     24  H   LIG d   1       8.471   7.862  -0.553  0.00  0.00     0.062 H 
ATOM     25  C   LIG d   1      11.604  12.425  -1.189  0.00  0.00     0.233 C 
ATOM     26  H   LIG d   1      12.282  12.360  -0.326  0.00  0.00     0.117 H 
ATOM     27  H   LIG d   1      11.706  13.413  -1.663  0.00  0.00     0.117 H 
ENDBRANCH   9  14
BRANCH   8  28
ATOM     28  C   LIG d   1      11.735   6.317  -0.060  0.00  0.00     0.003 C 
ATOM     29  H   LIG d   1      12.788   5.999  -0.063  0.00  0.00     0.034 H 
ATOM     30  H   LIG d   1      11.684   7.416  -0.049  0.00  0.00     0.034 H 
BRANCH  28  31
ATOM     31  C   LIG d   1      11.037   5.762   1.183  0.00  0.00    -0.058 C 
ATOM     32  H   LIG d   1      10.206   5.110   0.876  0.00  0.00     0.023 H 
ATOM     33  H   LIG d   1      10.646   6.594   1.786  0.00  0.00     0.023 H 
ATOM     34  H   LIG d   1      11.756   5.183   1.780  0.00  0.00     0.023 H 
ENDBRANCH  28  31
ENDBRANCH   8  28
BRANCH   1  35
ATOM     35  C   LIG d   1       8.724   2.163  -6.111  0.00  0.00    -0.027 C 
ATOM     36  H   LIG d   1       7.633   2.276  -6.045  0.00  0.00     0.031 H 
ATOM     37  H   LIG d   1       8.981   1.094  -6.148  0.00  0.00     0.031 H 
BRANCH  35  38
ATOM     38  C   LIG d   1       9.232   2.853  -7.380  0.00  0.00    -0.061 C 
ATOM     39  H   LIG d   1      10.316   2.694  -7.474  0.00  0.00     0.023 H 
ATOM     40  H   LIG d   1       9.023   3.931  -7.319  0.00  0.00     0.023 H 
ATOM     41  H   LIG d   1       8.721   2.429  -8.256  0.00  0.00     0.023 H 
ENDBRANCH  35  38
ENDBRANCH   1  35
BRANCH   6  42
ATOM     42  O   LIG d   1      10.248   0.678  -4.263  0.00  0.00    -0.506 OA
ATOM     43  H   LIG d   1      10.896   0.068  -3.617  0.00  0.00     0.292 HD
ENDBRANCH   6  42
TORSDOF 6
ENDMDL
MODEL 9
REMARK VINA RESULT:      -5.6      4.610     10.262
REMARK  6 active torsions:
REMARK  status: ('A' for Active; 'I' for Inactive)
REMARK    1  A    between atoms: C_1  and  C_2 
REMARK    2  A    between atoms: C_2  and  C_3 
REMARK    3  A    between atoms: C_8  and  O_9 
REMARK    4  A    between atoms: C_11  and  C_24 
REMARK    5  A    between atoms: C_12  and  C_15 
REMARK    6  A    between atoms: C_24  and  C_25 
ROOT
ATOM      1  C   LIG d   1       5.386  -1.210  -3.978  0.00  0.00    -0.005 A 
ATOM      2  C   LIG d   1       4.840  -2.342  -4.513  0.00  0.00    -0.041 A 
ATOM      3  C   LIG d   1       5.653  -3.442  -4.785  0.00  0.00     0.065 A 
ATOM      4  C   LIG d   1       7.033  -3.391  -4.513  0.00  0.00     0.142 A 
ATOM      5  C   LIG d   1       7.572  -2.232  -3.970  0.00  0.00     0.023 A 
ATOM      6  C   LIG d   1       6.751  -1.149  -3.706  0.00  0.00     0.123 A 
ATOM      7  O   LIG d   1       7.817  -4.454  -4.777  0.00  0.00    -0.459 OA
ATOM      8  C   LIG d   1       7.356  -5.594  -5.299  0.00  0.00     0.117 A 
ATOM      9  C   LIG d   1       6.048  -5.779  -5.610  0.00  0.00     0.068 A 
ATOM     10  C   LIG d   1       5.099  -4.679  -5.362  0.00  0.00     0.200 A 
ATOM     11  O   LIG d   1       3.913  -4.789  -5.620  0.00  0.00    -0.286 OA
ATOM     12  H   LIG d   1       3.781  -2.387  -4.722  0.00  0.00     0.063 H 
ATOM     13  H   LIG d   1       8.629  -2.175  -3.755  0.00  0.00     0.069 H 
ENDROOT
BRANCH   9  14
ATOM     14  C   LIG d   1       5.584  -7.061  -6.194  0.00  0.00    -0.007 A 
ATOM     15  C   LIG d   1       5.068  -8.058  -5.368  0.00  0.00    -0.008 A 
ATOM     16  C   LIG d   1       4.635  -9.252  -5.915  0.00  0.00     0.167 A 
ATOM     17  H   LIG d   1       5.006  -7.898  -4.301  0.00  0.00     0.066 H 
ATOM     18  C   LIG d   1       4.715  -9.456  -7.292  0.00  0.00     0.166 A 
ATOM     19  O   LIG d   1       4.100 -10.369  -5.340  0.00  0.00    -0.453 OA
ATOM     20  C   LIG d   1       5.228  -8.463  -8.112  0.00  0.00    -0.016 A 
ATOM     21  O   LIG d   1       4.230 -10.701  -7.577  0.00  0.00    -0.453 OA
ATOM     22  C   LIG d   1       5.656  -7.268  -7.571  0.00  0.00    -0.050 A 
ATOM     23  H   LIG d   1       5.290  -8.623  -9.178  0.00  0.00     0.066 H 
ATOM     24  H   LIG d   1       6.053  -6.495  -8.212  0.00  0.00     0.062 H 
ATOM     25  C   LIG d   1       4.234 -11.411  -6.325  0.00  0.00     0.233 C 
ATOM     26  H   LIG d   1       5.175 -11.955  -6.157  0.00  0.00     0.117 H 
ATOM     27  H   LIG d   1       3.387 -12.108  -6.239  0.00  0.00     0.117 H 
ENDBRANCH   9  14
BRANCH   8  28
ATOM     28  C   LIG d   1       8.327  -6.719  -5.553  0.00  0.00     0.003 C 
ATOM     29  H   LIG d   1       7.836  -7.497  -6.157  0.00  0.00     0.034 H 
ATOM     30  H   LIG d   1       9.203  -6.331  -6.096  0.00  0.00     0.034 H 
BRANCH  28  31
ATOM     31  C   LIG d   1       8.777  -7.315  -4.218  0.00  0.00    -0.058 C 
ATOM     32  H   LIG d   1       8.246  -8.262  -4.042  0.00  0.00     0.023 H 
ATOM     33  H   LIG d   1       8.548  -6.609  -3.407  0.00  0.00     0.023 H 
ATOM     34  H   LIG d   1       9.861  -7.502  -4.246  0.00  0.00     0.023 H 
ENDBRANCH  28  31
ENDBRANCH   8  28
BRANCH   1  35
ATOM     35  C   LIG d   1       4.508  -0.021  -3.684  0.00  0.00    -0.027 C 
ATOM     36  H   LIG d   1       3.686   0.018  -4.413  0.00  0.00     0.031 H 
ATOM     37  H   LIG d   1       5.104   0.901  -3.753  0.00  0.00     0.031 H 
BRANCH  35  38
ATOM     38  C   LIG d   1       3.931  -0.150  -2.272  0.00  0.00    -0.061 C 
ATOM     39  H   LIG d   1       2.883   0.186  -2.272  0.00  0.00     0.023 H 
ATOM     40  H   LIG d   1       4.516   0.473  -1.579  0.00  0.00     0.023 H 
ATOM     41  H   LIG d   1       3.980  -1.200  -1.951  0.00  0.00     0.023 H 
ENDBRANCH  35  38
ENDBRANCH   1  35
BRANCH   6  42
ATOM     42  O   LIG d   1       7.280  -0.017  -3.175  0.00  0.00    -0.506 OA
ATOM     43  H   LIG d   1       6.845   0.417  -2.263  0.00  0.00     0.292 HD
ENDBRANCH   6  42
TORSDOF 6
ENDMDL
