MODEL 1
REMARK VINA RESULT:      -6.2      0.000      0.000
REMARK  9 active torsions:
REMARK  status: ('A' for Active; 'I' for Inactive)
REMARK    1  A    between atoms: C_1  and  C_2 
REMARK    2  A    between atoms: C_5  and  O_31 
REMARK    3  A    between atoms: C_7  and  C_28 
REMARK    4  A    between atoms: C_7  and  C_29 
REMARK    5  A    between atoms: C_14  and  N_16 
REMARK    6  A    between atoms: N_16  and  C_17 
REMARK    7  A    between atoms: C_23  and  C_25 
REMARK    8  A    between atoms: C_25  and  C_26 
REMARK    9  A    between atoms: C_29  and  O_30 
ROOT
ATOM      1  C   LIG d   1       3.212  -1.345  -9.989  0.00  0.00    -0.020 C 
ATOM      2  C   LIG d   1       2.358  -0.458 -10.900  0.00  0.00    -0.044 C 
ATOM      3  C   LIG d   1       1.959  -1.221 -12.162  0.00  0.00    -0.026 C 
ATOM      4  C   LIG d   1       1.137  -2.448 -11.758  0.00  0.00     0.063 C 
ATOM      5  H   LIG d   1       0.259  -2.130 -11.194  0.00  0.00     0.060 H 
ATOM      6  C   LIG d   1       2.003  -3.355 -10.888  0.00  0.00     0.021 C 
ATOM      7  C   LIG d   1       2.443  -2.617  -9.620  0.00  0.00    -0.021 C 
ATOM      8  H   LIG d   1       1.572  -2.362  -9.016  0.00  0.00     0.032 H 
ATOM      9  C   LIG d   1       3.381  -3.562  -8.845  0.00  0.00    -0.016 C 
ATOM     10  C   LIG d   1       4.105  -2.781  -7.805  0.00  0.00     0.015 A 
ATOM     11  C   LIG d   1       4.210  -1.433  -7.702  0.00  0.00     0.058 A 
ATOM     12  N   LIG d   1       4.922  -0.978  -6.673  0.00  0.00    -0.229 NA
ATOM     13  C   LIG d   1       5.492  -1.787  -5.803  0.00  0.00     0.163 A 
ATOM     14  S   LIG d   1       5.044  -3.352  -6.414  0.00  0.00    -0.057 SA
ATOM     15  C   LIG d   1       3.531  -0.534  -8.726  0.00  0.00     0.013 C 
ATOM     16  H   LIG d   1       2.606  -0.139  -8.305  0.00  0.00     0.037 H 
ATOM     17  H   LIG d   1       1.458  -0.152 -10.366  0.00  0.00     0.027 H 
ATOM     18  H   LIG d   1       2.929   0.427 -11.180  0.00  0.00     0.027 H 
ATOM     19  H   LIG d   1       2.855  -1.542 -12.693  0.00  0.00     0.029 H 
ATOM     20  H   LIG d   1       1.361  -0.576 -12.806  0.00  0.00     0.029 H 
ATOM     21  H   LIG d   1       2.795  -4.348  -8.368  0.00  0.00     0.032 H 
ATOM     22  H   LIG d   1       4.099  -4.009  -9.533  0.00  0.00     0.032 H 
ENDROOT
BRANCH  13  23
ATOM     23  N   LIG d   1       6.256  -1.471  -4.689  0.00  0.00    -0.292 N 
ATOM     24  H   LIG d   1       7.174  -1.777  -4.629  0.00  0.00     0.154 HD
BRANCH  23  25
ATOM     25  C   LIG d   1       5.701  -0.714  -3.653  0.00  0.00     0.051 A 
ATOM     26  C   LIG d   1       6.061   0.617  -3.482  0.00  0.00     0.049 A 
ATOM     27  N   LIG d   1       5.544   1.332  -2.503  0.00  0.00    -0.261 NA
ATOM     28  H   LIG d   1       6.775   1.069  -4.156  0.00  0.00     0.085 H 
ATOM     29  C   LIG d   1       4.665   0.824  -1.661  0.00  0.00     0.028 A 
ATOM     30  C   LIG d   1       4.258  -0.492  -1.766  0.00  0.00    -0.042 A 
ATOM     31  H   LIG d   1       4.262   1.445  -0.874  0.00  0.00     0.083 H 
ATOM     32  C   LIG d   1       4.779  -1.283  -2.776  0.00  0.00    -0.038 A 
ATOM     33  H   LIG d   1       3.542  -0.901  -1.069  0.00  0.00     0.063 H 
ATOM     34  H   LIG d   1       4.480  -2.315  -2.883  0.00  0.00     0.064 H 
ENDBRANCH  23  25
ENDBRANCH  13  23
BRANCH  15  35
ATOM     35  C   LIG d   1       4.464   0.624  -9.086  0.00  0.00    -0.004 C 
ATOM     36  H   LIG d   1       5.394   0.528  -8.525  0.00  0.00     0.033 H 
ATOM     37  H   LIG d   1       4.679   0.599 -10.154  0.00  0.00     0.033 H 
BRANCH  35  38
ATOM     38  C   LIG d   1       3.799   1.931  -8.737  0.00  0.00     0.042 C 
ATOM     39  O   LIG d   1       4.058   2.928  -9.368  0.00  0.00    -0.550 OA
ATOM     40  O   LIG d   1       2.921   1.986  -7.724  0.00  0.00    -0.550 OA
ENDBRANCH  35  38
ENDBRANCH  15  35
BRANCH   1  41
ATOM     41  C   LIG d   1       4.514  -1.722 -10.699  0.00  0.00    -0.059 C 
ATOM     42  H   LIG d   1       5.305  -1.037 -10.397  0.00  0.00     0.024 H 
ATOM     43  H   LIG d   1       4.793  -2.741 -10.428  0.00  0.00     0.024 H 
ATOM     44  H   LIG d   1       4.370  -1.660 -11.778  0.00  0.00     0.024 H 
ENDBRANCH   1  41
BRANCH   6  45
ATOM     45  C   LIG d   1       1.202  -4.598 -10.497  0.00  0.00    -0.055 C 
ATOM     46  H   LIG d   1       0.180  -4.308 -10.247  0.00  0.00     0.024 H 
ATOM     47  H   LIG d   1       1.186  -5.298 -11.332  0.00  0.00     0.024 H 
ATOM     48  H   LIG d   1       1.666  -5.073  -9.633  0.00  0.00     0.024 H 
ENDBRANCH   6  45
BRANCH   6  49
ATOM     49  C   LIG d   1       3.240  -3.785 -11.679  0.00  0.00     0.052 C 
ATOM     50  H   LIG d   1       3.547  -2.974 -12.341  0.00  0.00     0.056 H 
ATOM     51  H   LIG d   1       4.051  -4.016 -10.988  0.00  0.00     0.056 H 
BRANCH  49  52
ATOM     52  O   LIG d   1       2.931  -4.943 -12.456  0.00  0.00    -0.394 OA
ATOM     53  H   LIG d   1       2.315  -5.552 -12.026  0.00  0.00     0.209 HD
ENDBRANCH  49  52
ENDBRANCH   6  49
BRANCH   4  54
ATOM     54  O   LIG d   1       0.725  -3.156 -12.928  0.00  0.00    -0.391 OA
ATOM     55  H   LIG d   1       1.447  -3.605 -13.391  0.00  0.00     0.210 HD
ENDBRANCH   4  54
TORSDOF 9
ENDMDL
MODEL 2
REMARK VINA RESULT:      -5.8      4.683      8.015
REMARK  9 active torsions:
REMARK  status: ('A' for Active; 'I' for Inactive)
REMARK    1  A    between atoms: C_1  and  C_2 
REMARK    2  A    between atoms: C_5  and  O_31 
REMARK    3  A    between atoms: C_7  and  C_28 
REMARK    4  A    between atoms: C_7  and  C_29 
REMARK    5  A    between atoms: C_14  and  N_16 
REMARK    6  A    between atoms: N_16  and  C_17 
REMARK    7  A    between atoms: C_23  and  C_25 
REMARK    8  A    between atoms: C_25  and  C_26 
REMARK    9  A    between atoms: C_29  and  O_30 
ROOT
ATOM      1  C   LIG d   1       4.818  -1.965  -4.382  0.00  0.00    -0.020 C 
ATOM      2  C   LIG d   1       3.563  -1.409  -5.063  0.00  0.00    -0.044 C 
ATOM      3  C   LIG d   1       2.996  -0.241  -4.259  0.00  0.00    -0.026 C 
ATOM      4  C   LIG d   1       4.049   0.868  -4.190  0.00  0.00     0.063 C 
ATOM      5  H   LIG d   1       4.322   1.178  -5.199  0.00  0.00     0.060 H 
ATOM      6  C   LIG d   1       5.284   0.329  -3.470  0.00  0.00     0.021 C 
ATOM      7  C   LIG d   1       5.870  -0.861  -4.236  0.00  0.00    -0.021 C 
ATOM      8  H   LIG d   1       6.212  -0.540  -5.219  0.00  0.00     0.032 H 
ATOM      9  C   LIG d   1       7.049  -1.401  -3.403  0.00  0.00    -0.016 C 
ATOM     10  C   LIG d   1       7.425  -2.748  -3.912  0.00  0.00     0.015 A 
ATOM     11  C   LIG d   1       6.712  -3.551  -4.741  0.00  0.00     0.058 A 
ATOM     12  N   LIG d   1       7.272  -4.720  -5.048  0.00  0.00    -0.229 NA
ATOM     13  C   LIG d   1       8.449  -5.078  -4.577  0.00  0.00     0.163 A 
ATOM     14  S   LIG d   1       8.881  -3.709  -3.596  0.00  0.00    -0.057 SA
ATOM     15  C   LIG d   1       5.359  -3.096  -5.267  0.00  0.00     0.013 C 
ATOM     16  H   LIG d   1       5.469  -2.735  -6.290  0.00  0.00     0.037 H 
ATOM     17  H   LIG d   1       3.818  -1.066  -6.066  0.00  0.00     0.027 H 
ATOM     18  H   LIG d   1       2.813  -2.196  -5.133  0.00  0.00     0.027 H 
ATOM     19  H   LIG d   1       2.752  -0.576  -3.251  0.00  0.00     0.029 H 
ATOM     20  H   LIG d   1       2.098   0.138  -4.748  0.00  0.00     0.029 H 
ATOM     21  H   LIG d   1       7.900  -0.726  -3.496  0.00  0.00     0.032 H 
ATOM     22  H   LIG d   1       6.754  -1.475  -2.356  0.00  0.00     0.032 H 
ENDROOT
BRANCH  13  23
ATOM     23  N   LIG d   1       9.159  -6.248  -4.802  0.00  0.00    -0.292 N 
ATOM     24  H   LIG d   1       9.880  -6.261  -5.449  0.00  0.00     0.154 HD
BRANCH  23  25
ATOM     25  C   LIG d   1       8.832  -7.411  -4.097  0.00  0.00     0.051 A 
ATOM     26  C   LIG d   1       8.176  -8.458  -4.730  0.00  0.00     0.049 A 
ATOM     27  N   LIG d   1       7.862  -9.554  -4.067  0.00  0.00    -0.261 NA
ATOM     28  H   LIG d   1       7.915  -8.373  -5.775  0.00  0.00     0.085 H 
ATOM     29  C   LIG d   1       8.164  -9.705  -2.792  0.00  0.00     0.028 A 
ATOM     30  C   LIG d   1       8.817  -8.706  -2.093  0.00  0.00    -0.042 A 
ATOM     31  H   LIG d   1       7.893 -10.619  -2.286  0.00  0.00     0.083 H 
ATOM     32  C   LIG d   1       9.162  -7.536  -2.748  0.00  0.00    -0.038 A 
ATOM     33  H   LIG d   1       9.057  -8.837  -1.049  0.00  0.00     0.063 H 
ATOM     34  H   LIG d   1       9.673  -6.740  -2.228  0.00  0.00     0.064 H 
ENDBRANCH  23  25
ENDBRANCH  13  23
BRANCH  15  35
ATOM     35  C   LIG d   1       4.380  -4.272  -5.244  0.00  0.00    -0.004 C 
ATOM     36  H   LIG d   1       4.852  -5.126  -4.757  0.00  0.00     0.033 H 
ATOM     37  H   LIG d   1       3.484  -3.988  -4.694  0.00  0.00     0.033 H 
BRANCH  35  38
ATOM     38  C   LIG d   1       4.008  -4.643  -6.657  0.00  0.00     0.042 C 
ATOM     39  O   LIG d   1       3.487  -5.709  -6.885  0.00  0.00    -0.550 OA
ATOM     40  O   LIG d   1       4.257  -3.789  -7.662  0.00  0.00    -0.550 OA
ENDBRANCH  35  38
ENDBRANCH  15  35
BRANCH   1  41
ATOM     41  C   LIG d   1       4.462  -2.519  -3.002  0.00  0.00    -0.059 C 
ATOM     42  H   LIG d   1       3.695  -1.894  -2.546  0.00  0.00     0.024 H 
ATOM     43  H   LIG d   1       4.085  -3.537  -3.106  0.00  0.00     0.024 H 
ATOM     44  H   LIG d   1       5.351  -2.523  -2.371  0.00  0.00     0.024 H 
ENDBRANCH   1  41
BRANCH   6  45
ATOM     45  C   LIG d   1       6.336   1.435  -3.371  0.00  0.00    -0.055 C 
ATOM     46  H   LIG d   1       6.180   2.003  -2.453  0.00  0.00     0.024 H 
ATOM     47  H   LIG d   1       7.330   0.991  -3.360  0.00  0.00     0.024 H 
ATOM     48  H   LIG d   1       6.244   2.101  -4.230  0.00  0.00     0.024 H 
ENDBRANCH   6  45
BRANCH   6  49
ATOM     49  C   LIG d   1       4.892  -0.118  -2.060  0.00  0.00     0.052 C 
ATOM     50  H   LIG d   1       3.914  -0.599  -2.090  0.00  0.00     0.056 H 
ATOM     51  H   LIG d   1       5.632  -0.825  -1.685  0.00  0.00     0.056 H 
BRANCH  49  52
ATOM     52  O   LIG d   1       4.838   1.019  -1.197  0.00  0.00    -0.394 OA
ATOM     53  H   LIG d   1       4.617   1.845  -1.649  0.00  0.00     0.209 HD
ENDBRANCH  49  52
ENDBRANCH   6  49
BRANCH   4  54
ATOM     54  O   LIG d   1       3.524   1.985  -3.470  0.00  0.00    -0.391 OA
ATOM     55  H   LIG d   1       3.002   2.592  -4.012  0.00  0.00     0.210 HD
ENDBRANCH   4  54
TORSDOF 9
ENDMDL
MODEL 3
REMARK VINA RESULT:      -5.7      5.242      8.261
REMARK  9 active torsions:
REMARK  status: ('A' for Active; 'I' for Inactive)
REMARK    1  A    between atoms: C_1  and  C_2 
REMARK    2  A    between atoms: C_5  and  O_31 
REMARK    3  A    between atoms: C_7  and  C_28 
REMARK    4  A    between atoms: C_7  and  C_29 
REMARK    5  A    between atoms: C_14  and  N_16 
REMARK    6  A    between atoms: N_16  and  C_17 
REMARK    7  A    between atoms: C_23  and  C_25 
REMARK    8  A    between atoms: C_25  and  C_26 
REMARK    9  A    between atoms: C_29  and  O_30 
ROOT
ATOM      1  C   LIG d   1       6.475  -1.577  -4.322  0.00  0.00    -0.020 C 
ATOM      2  C   LIG d   1       7.299  -0.512  -3.590  0.00  0.00    -0.044 C 
ATOM      3  C   LIG d   1       6.514   0.795  -3.499  0.00  0.00    -0.026 C 
ATOM      4  C   LIG d   1       5.225   0.543  -2.711  0.00  0.00     0.063 C 
ATOM      5  H   LIG d   1       5.472   0.158  -1.721  0.00  0.00     0.060 H 
ATOM      6  C   LIG d   1       4.383  -0.485  -3.464  0.00  0.00     0.021 C 
ATOM      7  C   LIG d   1       5.146  -1.806  -3.597  0.00  0.00    -0.021 C 
ATOM      8  H   LIG d   1       5.330  -2.232  -2.610  0.00  0.00     0.032 H 
ATOM      9  C   LIG d   1       4.272  -2.754  -4.441  0.00  0.00    -0.016 C 
ATOM     10  C   LIG d   1       5.101  -3.904  -4.892  0.00  0.00     0.015 A 
ATOM     11  C   LIG d   1       6.453  -4.012  -4.871  0.00  0.00     0.058 A 
ATOM     12  N   LIG d   1       6.956  -5.154  -5.338  0.00  0.00    -0.229 NA
ATOM     13  C   LIG d   1       6.189  -6.123  -5.793  0.00  0.00     0.163 A 
ATOM     14  S   LIG d   1       4.597  -5.454  -5.591  0.00  0.00    -0.057 SA
ATOM     15  C   LIG d   1       7.302  -2.870  -4.332  0.00  0.00     0.013 C 
ATOM     16  H   LIG d   1       7.623  -3.104  -3.317  0.00  0.00     0.037 H 
ATOM     17  H   LIG d   1       7.532  -0.863  -2.585  0.00  0.00     0.027 H 
ATOM     18  H   LIG d   1       8.227  -0.338  -4.134  0.00  0.00     0.027 H 
ATOM     19  H   LIG d   1       6.266   1.144  -4.501  0.00  0.00     0.029 H 
ATOM     20  H   LIG d   1       7.114   1.547  -2.986  0.00  0.00     0.029 H 
ATOM     21  H   LIG d   1       3.441  -3.118  -3.837  0.00  0.00     0.032 H 
ATOM     22  H   LIG d   1       3.886  -2.218  -5.308  0.00  0.00     0.032 H 
ENDROOT
BRANCH  13  23
ATOM     23  N   LIG d   1       6.556  -7.359  -6.305  0.00  0.00    -0.292 N 
ATOM     24  H   LIG d   1       7.248  -7.417  -6.982  0.00  0.00     0.154 HD
BRANCH  23  25
ATOM     25  C   LIG d   1       5.928  -8.521  -5.847  0.00  0.00     0.051 A 
ATOM     26  C   LIG d   1       4.900  -9.101  -6.579  0.00  0.00     0.049 A 
ATOM     27  N   LIG d   1       4.301 -10.194  -6.147  0.00  0.00    -0.261 NA
ATOM     28  H   LIG d   1       4.584  -8.651  -7.509  0.00  0.00     0.085 H 
ATOM     29  C   LIG d   1       4.656 -10.782  -5.021  0.00  0.00     0.028 A 
ATOM     30  C   LIG d   1       5.670 -10.263  -4.237  0.00  0.00    -0.042 A 
ATOM     31  H   LIG d   1       4.143 -11.678  -4.704  0.00  0.00     0.083 H 
ATOM     32  C   LIG d   1       6.324  -9.113  -4.649  0.00  0.00    -0.038 A 
ATOM     33  H   LIG d   1       5.951 -10.749  -3.315  0.00  0.00     0.063 H 
ATOM     34  H   LIG d   1       7.119  -8.687  -4.057  0.00  0.00     0.064 H 
ENDBRANCH  23  25
ENDBRANCH  13  23
BRANCH  15  35
ATOM     35  C   LIG d   1       8.530  -2.683  -5.225  0.00  0.00    -0.004 C 
ATOM     36  H   LIG d   1       8.427  -3.299  -6.118  0.00  0.00     0.033 H 
ATOM     37  H   LIG d   1       8.613  -1.635  -5.513  0.00  0.00     0.033 H 
BRANCH  35  38
ATOM     38  C   LIG d   1       9.767  -3.096  -4.470  0.00  0.00     0.042 C 
ATOM     39  O   LIG d   1      10.860  -2.790  -4.884  0.00  0.00    -0.550 OA
ATOM     40  O   LIG d   1       9.654  -3.806  -3.336  0.00  0.00    -0.550 OA
ENDBRANCH  35  38
ENDBRANCH  15  35
BRANCH   1  41
ATOM     41  C   LIG d   1       6.204  -1.131  -5.760  0.00  0.00    -0.059 C 
ATOM     42  H   LIG d   1       5.367  -1.698  -6.165  0.00  0.00     0.024 H 
ATOM     43  H   LIG d   1       5.961  -0.068  -5.770  0.00  0.00     0.024 H 
ATOM     44  H   LIG d   1       7.092  -1.307  -6.369  0.00  0.00     0.024 H 
ENDBRANCH   1  41
BRANCH   6  45
ATOM     45  C   LIG d   1       3.080  -0.728  -2.700  0.00  0.00    -0.055 C 
ATOM     46  H   LIG d   1       2.288  -0.985  -3.405  0.00  0.00     0.024 H 
ATOM     47  H   LIG d   1       3.219  -1.547  -1.996  0.00  0.00     0.024 H 
ATOM     48  H   LIG d   1       2.803   0.176  -2.157  0.00  0.00     0.024 H 
ENDBRANCH   6  45
BRANCH   6  49
ATOM     49  C   LIG d   1       4.054   0.054  -4.858  0.00  0.00     0.052 C 
ATOM     50  H   LIG d   1       4.918   0.589  -5.253  0.00  0.00     0.056 H 
ATOM     51  H   LIG d   1       3.809  -0.777  -5.519  0.00  0.00     0.056 H 
BRANCH  49  52
ATOM     52  O   LIG d   1       2.939   0.943  -4.775  0.00  0.00    -0.394 OA
ATOM     53  H   LIG d   1       2.799   1.316  -3.893  0.00  0.00     0.209 HD
ENDBRANCH  49  52
ENDBRANCH   6  49
BRANCH   4  54
ATOM     54  O   LIG d   1       4.493   1.763  -2.585  0.00  0.00    -0.391 OA
ATOM     55  H   LIG d   1       3.774   1.859  -3.225  0.00  0.00     0.210 HD
ENDBRANCH   4  54
TORSDOF 9
ENDMDL
MODEL 4
REMARK VINA RESULT:      -5.7      3.296      8.275
REMARK  9 active torsions:
REMARK  status: ('A' for Active; 'I' for Inactive)
REMARK    1  A    between atoms: C_1  and  C_2 
REMARK    2  A    between atoms: C_5  and  O_31 
REMARK    3  A    between atoms: C_7  and  C_28 
REMARK    4  A    between atoms: C_7  and  C_29 
REMARK    5  A    between atoms: C_14  and  N_16 
REMARK    6  A    between atoms: N_16  and  C_17 
REMARK    7  A    between atoms: C_23  and  C_25 
REMARK    8  A    between atoms: C_25  and  C_26 
REMARK    9  A    between atoms: C_29  and  O_30 
ROOT
ATOM      1  C   LIG d   1       4.677  -1.988  -4.937  0.00  0.00    -0.020 C 
ATOM      2  C   LIG d   1       4.459  -2.768  -3.637  0.00  0.00    -0.044 C 
ATOM      3  C   LIG d   1       4.914  -1.938  -2.437  0.00  0.00    -0.026 C 
ATOM      4  C   LIG d   1       4.084  -0.653  -2.384  0.00  0.00     0.063 C 
ATOM      5  H   LIG d   1       3.025  -0.904  -2.314  0.00  0.00     0.060 H 
ATOM      6  C   LIG d   1       4.336   0.148  -3.660  0.00  0.00     0.021 C 
ATOM      7  C   LIG d   1       3.913  -0.662  -4.890  0.00  0.00    -0.021 C 
ATOM      8  H   LIG d   1       2.840  -0.851  -4.860  0.00  0.00     0.032 H 
ATOM      9  C   LIG d   1       4.281   0.173  -6.132  0.00  0.00    -0.016 C 
ATOM     10  C   LIG d   1       4.219  -0.699  -7.337  0.00  0.00     0.015 A 
ATOM     11  C   LIG d   1       4.165  -2.053  -7.379  0.00  0.00     0.058 A 
ATOM     12  N   LIG d   1       4.119  -2.599  -8.593  0.00  0.00    -0.229 NA
ATOM     13  C   LIG d   1       4.124  -1.869  -9.690  0.00  0.00     0.163 A 
ATOM     14  S   LIG d   1       4.208  -0.254  -9.053  0.00  0.00    -0.057 SA
ATOM     15  C   LIG d   1       4.155  -2.858  -6.088  0.00  0.00     0.013 C 
ATOM     16  H   LIG d   1       3.136  -3.178  -5.868  0.00  0.00     0.037 H 
ATOM     17  H   LIG d   1       3.401  -3.005  -3.530  0.00  0.00     0.027 H 
ATOM     18  H   LIG d   1       5.033  -3.694  -3.672  0.00  0.00     0.027 H 
ATOM     19  H   LIG d   1       5.969  -1.687  -2.546  0.00  0.00     0.029 H 
ATOM     20  H   LIG d   1       4.764  -2.509  -1.520  0.00  0.00     0.029 H 
ATOM     21  H   LIG d   1       3.575   0.996  -6.241  0.00  0.00     0.032 H 
ATOM     22  H   LIG d   1       5.290   0.570  -6.019  0.00  0.00     0.032 H 
ENDROOT
BRANCH  13  23
ATOM     23  N   LIG d   1       4.079  -2.283 -11.013  0.00  0.00    -0.292 N 
ATOM     24  H   LIG d   1       4.901  -2.386 -11.517  0.00  0.00     0.154 HD
BRANCH  23  25
ATOM     25  C   LIG d   1       2.848  -2.551 -11.621  0.00  0.00     0.051 A 
ATOM     26  C   LIG d   1       2.504  -3.849 -11.973  0.00  0.00     0.049 A 
ATOM     27  N   LIG d   1       1.347  -4.105 -12.551  0.00  0.00    -0.261 NA
ATOM     28  H   LIG d   1       3.193  -4.658 -11.777  0.00  0.00     0.085 H 
ATOM     29  C   LIG d   1       0.472  -3.151 -12.805  0.00  0.00     0.028 A 
ATOM     30  C   LIG d   1       0.743  -1.834 -12.484  0.00  0.00    -0.042 A 
ATOM     31  H   LIG d   1      -0.467  -3.402 -13.276  0.00  0.00     0.083 H 
ATOM     32  C   LIG d   1       1.949  -1.518 -11.880  0.00  0.00    -0.038 A 
ATOM     33  H   LIG d   1       0.022  -1.059 -12.699  0.00  0.00     0.063 H 
ATOM     34  H   LIG d   1       2.187  -0.499 -11.618  0.00  0.00     0.064 H 
ENDBRANCH  23  25
ENDBRANCH  13  23
BRANCH  15  35
ATOM     35  C   LIG d   1       5.053  -4.087  -6.246  0.00  0.00    -0.004 C 
ATOM     36  H   LIG d   1       5.560  -4.044  -7.209  0.00  0.00     0.033 H 
ATOM     37  H   LIG d   1       5.792  -4.102  -5.446  0.00  0.00     0.033 H 
BRANCH  35  38
ATOM     38  C   LIG d   1       4.211  -5.336  -6.177  0.00  0.00     0.042 C 
ATOM     39  O   LIG d   1       4.080  -5.919  -5.127  0.00  0.00    -0.550 OA
ATOM     40  O   LIG d   1       3.608  -5.799  -7.283  0.00  0.00    -0.550 OA
ENDBRANCH  35  38
ENDBRANCH  15  35
BRANCH   1  41
ATOM     41  C   LIG d   1       6.168  -1.713  -5.138  0.00  0.00    -0.059 C 
ATOM     42  H   LIG d   1       6.570  -1.223  -4.252  0.00  0.00     0.024 H 
ATOM     43  H   LIG d   1       6.692  -2.656  -5.301  0.00  0.00     0.024 H 
ATOM     44  H   LIG d   1       6.305  -1.067  -6.006  0.00  0.00     0.024 H 
ENDBRANCH   1  41
BRANCH   6  45
ATOM     45  C   LIG d   1       3.532   1.448  -3.609  0.00  0.00    -0.055 C 
ATOM     46  H   LIG d   1       3.048   1.614  -4.572  0.00  0.00     0.024 H 
ATOM     47  H   LIG d   1       2.774   1.376  -2.829  0.00  0.00     0.024 H 
ATOM     48  H   LIG d   1       4.201   2.280  -3.390  0.00  0.00     0.024 H 
ENDBRANCH   6  45
BRANCH   6  49
ATOM     49  C   LIG d   1       5.826   0.483  -3.761  0.00  0.00     0.052 C 
ATOM     50  H   LIG d   1       6.408  -0.304  -3.281  0.00  0.00     0.056 H 
ATOM     51  H   LIG d   1       6.111   0.557  -4.811  0.00  0.00     0.056 H 
BRANCH  49  52
ATOM     52  O   LIG d   1       6.079   1.728  -3.108  0.00  0.00    -0.394 OA
ATOM     53  H   LIG d   1       6.917   2.141  -3.360  0.00  0.00     0.209 HD
ENDBRANCH  49  52
ENDBRANCH   6  49
BRANCH   4  54
ATOM     54  O   LIG d   1       4.471   0.122  -1.248  0.00  0.00    -0.391 OA
ATOM     55  H   LIG d   1       3.778   0.711  -0.918  0.00  0.00     0.210 HD
ENDBRANCH   4  54
TORSDOF 9
ENDMDL
MODEL 5
REMARK VINA RESULT:      -5.7      7.569     11.301
REMARK  9 active torsions:
REMARK  status: ('A' for Active; 'I' for Inactive)
REMARK    1  A    between atoms: C_1  and  C_2 
REMARK    2  A    between atoms: C_5  and  O_31 
REMARK    3  A    between atoms: C_7  and  C_28 
REMARK    4  A    between atoms: C_7  and  C_29 
REMARK    5  A    between atoms: C_14  and  N_16 
REMARK    6  A    between atoms: N_16  and  C_17 
REMARK    7  A    between atoms: C_23  and  C_25 
REMARK    8  A    between atoms: C_25  and  C_26 
REMARK    9  A    between atoms: C_29  and  O_30 
ROOT
ATOM      1  C   LIG d   1      10.281   7.616  -4.577  0.00  0.00    -0.020 C 
ATOM      2  C   LIG d   1      10.186   8.994  -3.915  0.00  0.00    -0.044 C 
ATOM      3  C   LIG d   1      10.681  10.078  -4.871  0.00  0.00    -0.026 C 
ATOM      4  C   LIG d   1       9.799  10.072  -6.123  0.00  0.00     0.063 C 
ATOM      5  H   LIG d   1       8.760  10.239  -5.839  0.00  0.00     0.060 H 
ATOM      6  C   LIG d   1       9.929   8.713  -6.809  0.00  0.00     0.021 C 
ATOM      7  C   LIG d   1       9.463   7.596  -5.871  0.00  0.00    -0.021 C 
ATOM      8  H   LIG d   1       8.404   7.718  -5.644  0.00  0.00     0.032 H 
ATOM      9  C   LIG d   1       9.709   6.259  -6.598  0.00  0.00    -0.016 C 
ATOM     10  C   LIG d   1       9.606   5.147  -5.615  0.00  0.00     0.015 A 
ATOM     11  C   LIG d   1       9.611   5.232  -4.262  0.00  0.00     0.058 A 
ATOM     12  N   LIG d   1       9.509   4.079  -3.603  0.00  0.00    -0.229 NA
ATOM     13  C   LIG d   1       9.408   2.923  -4.225  0.00  0.00     0.163 A 
ATOM     14  S   LIG d   1       9.460   3.402  -5.896  0.00  0.00    -0.057 SA
ATOM     15  C   LIG d   1       9.723   6.589  -3.583  0.00  0.00     0.013 C 
ATOM     16  H   LIG d   1       8.737   6.909  -3.245  0.00  0.00     0.037 H 
ATOM     17  H   LIG d   1       9.149   9.196  -3.648  0.00  0.00     0.027 H 
ATOM     18  H   LIG d   1      10.797   9.004  -3.013  0.00  0.00     0.027 H 
ATOM     19  H   LIG d   1      11.714   9.873  -5.152  0.00  0.00     0.029 H 
ATOM     20  H   LIG d   1      10.619  11.052  -4.385  0.00  0.00     0.029 H 
ATOM     21  H   LIG d   1       8.960   6.126  -7.379  0.00  0.00     0.032 H 
ATOM     22  H   LIG d   1      10.704   6.264  -7.044  0.00  0.00     0.032 H 
ENDROOT
BRANCH  13  23
ATOM     23  N   LIG d   1       9.294   1.649  -3.687  0.00  0.00    -0.292 N 
ATOM     24  H   LIG d   1       9.965   1.323  -3.069  0.00  0.00     0.154 HD
BRANCH  23  25
ATOM     25  C   LIG d   1       8.211   0.837  -4.038  0.00  0.00     0.051 A 
ATOM     26  C   LIG d   1       8.383  -0.225  -4.916  0.00  0.00     0.049 A 
ATOM     27  N   LIG d   1       7.364  -0.990  -5.254  0.00  0.00    -0.261 NA
ATOM     28  H   LIG d   1       9.361  -0.424  -5.331  0.00  0.00     0.085 H 
ATOM     29  C   LIG d   1       6.154  -0.790  -4.768  0.00  0.00     0.028 A 
ATOM     30  C   LIG d   1       5.904   0.247  -3.889  0.00  0.00    -0.042 A 
ATOM     31  H   LIG d   1       5.346  -1.442  -5.066  0.00  0.00     0.083 H 
ATOM     32  C   LIG d   1       6.944   1.080  -3.511  0.00  0.00    -0.038 A 
ATOM     33  H   LIG d   1       4.910   0.406  -3.499  0.00  0.00     0.063 H 
ATOM     34  H   LIG d   1       6.778   1.897  -2.825  0.00  0.00     0.064 H 
ENDBRANCH  23  25
ENDBRANCH  13  23
BRANCH  15  35
ATOM     35  C   LIG d   1      10.664   6.481  -2.380  0.00  0.00    -0.004 C 
ATOM     36  H   LIG d   1      11.094   5.481  -2.345  0.00  0.00     0.033 H 
ATOM     37  H   LIG d   1      11.461   7.218  -2.475  0.00  0.00     0.033 H 
BRANCH  35  38
ATOM     38  C   LIG d   1       9.889   6.739  -1.113  0.00  0.00     0.042 C 
ATOM     39  O   LIG d   1      10.277   6.281  -0.064  0.00  0.00    -0.550 OA
ATOM     40  O   LIG d   1       8.768   7.476  -1.151  0.00  0.00    -0.550 OA
ENDBRANCH  35  38
ENDBRANCH  15  35
BRANCH   1  41
ATOM     41  C   LIG d   1      11.741   7.286  -4.889  0.00  0.00    -0.059 C 
ATOM     42  H   LIG d   1      11.795   6.336  -5.419  0.00  0.00     0.024 H 
ATOM     43  H   LIG d   1      12.166   8.074  -5.512  0.00  0.00     0.024 H 
ATOM     44  H   LIG d   1      12.305   7.216  -3.958  0.00  0.00     0.024 H 
ENDBRANCH   1  41
BRANCH   6  45
ATOM     45  C   LIG d   1       9.072   8.702  -8.076  0.00  0.00    -0.055 C 
ATOM     46  H   LIG d   1       9.656   9.088  -8.913  0.00  0.00     0.024 H 
ATOM     47  H   LIG d   1       8.757   7.683  -8.292  0.00  0.00     0.024 H 
ATOM     48  H   LIG d   1       8.194   9.331  -7.926  0.00  0.00     0.024 H 
ENDBRANCH   6  45
BRANCH   6  49
ATOM     49  C   LIG d   1      11.392   8.477  -7.190  0.00  0.00     0.052 C 
ATOM     50  H   LIG d   1      12.040   8.980  -6.472  0.00  0.00     0.056 H 
ATOM     51  H   LIG d   1      11.601   7.407  -7.182  0.00  0.00     0.056 H 
BRANCH  49  52
ATOM     52  O   LIG d   1      11.634   9.001  -8.498  0.00  0.00    -0.394 OA
ATOM     53  H   LIG d   1      11.227   8.487  -9.209  0.00  0.00     0.209 HD
ENDBRANCH  49  52
ENDBRANCH   6  49
BRANCH   4  54
ATOM     54  O   LIG d   1      10.226  11.103  -7.015  0.00  0.00    -0.391 OA
ATOM     55  H   LIG d   1      10.222  11.987  -6.625  0.00  0.00     0.210 HD
ENDBRANCH   4  54
TORSDOF 9
ENDMDL
MODEL 6
REMARK VINA RESULT:      -5.6      4.590      7.935
REMARK  9 active torsions:
REMARK  status: ('A' for Active; 'I' for Inactive)
REMARK    1  A    between atoms: C_1  and  C_2 
REMARK    2  A    between atoms: C_5  and  O_31 
REMARK    3  A    between atoms: C_7  and  C_28 
REMARK    4  A    between atoms: C_7  and  C_29 
REMARK    5  A    between atoms: C_14  and  N_16 
REMARK    6  A    between atoms: N_16  and  C_17 
REMARK    7  A    between atoms: C_23  and  C_25 
REMARK    8  A    between atoms: C_25  and  C_26 
REMARK    9  A    between atoms: C_29  and  O_30 
ROOT
ATOM      1  C   LIG d   1       7.273  -4.687  -5.543  0.00  0.00    -0.020 C 
ATOM      2  C   LIG d   1       7.213  -6.206  -5.350  0.00  0.00    -0.044 C 
ATOM      3  C   LIG d   1       8.608  -6.760  -5.065  0.00  0.00    -0.026 C 
ATOM      4  C   LIG d   1       9.140  -6.122  -3.778  0.00  0.00     0.063 C 
ATOM      5  H   LIG d   1       8.454  -6.331  -2.956  0.00  0.00     0.060 H 
ATOM      6  C   LIG d   1       9.243  -4.612  -3.986  0.00  0.00     0.021 C 
ATOM      7  C   LIG d   1       7.864  -4.021  -4.297  0.00  0.00    -0.021 C 
ATOM      8  H   LIG d   1       7.197  -4.163  -3.447  0.00  0.00     0.032 H 
ATOM      9  C   LIG d   1       8.067  -2.519  -4.581  0.00  0.00    -0.016 C 
ATOM     10  C   LIG d   1       6.839  -1.978  -5.223  0.00  0.00     0.015 A 
ATOM     11  C   LIG d   1       5.814  -2.675  -5.775  0.00  0.00     0.058 A 
ATOM     12  N   LIG d   1       4.825  -1.949  -6.292  0.00  0.00    -0.229 NA
ATOM     13  C   LIG d   1       4.836  -0.632  -6.270  0.00  0.00     0.163 A 
ATOM     14  S   LIG d   1       6.344  -0.294  -5.474  0.00  0.00    -0.057 SA
ATOM     15  C   LIG d   1       5.838  -4.196  -5.774  0.00  0.00     0.013 C 
ATOM     16  H   LIG d   1       5.194  -4.569  -4.977  0.00  0.00     0.037 H 
ATOM     17  H   LIG d   1       6.556  -6.438  -4.512  0.00  0.00     0.027 H 
ATOM     18  H   LIG d   1       6.820  -6.668  -6.255  0.00  0.00     0.027 H 
ATOM     19  H   LIG d   1       9.274  -6.518  -5.894  0.00  0.00     0.029 H 
ATOM     20  H   LIG d   1       8.553  -7.842  -4.940  0.00  0.00     0.029 H 
ATOM     21  H   LIG d   1       8.251  -1.993  -3.644  0.00  0.00     0.032 H 
ATOM     22  H   LIG d   1       8.919  -2.386  -5.248  0.00  0.00     0.032 H 
ENDROOT
BRANCH  13  23
ATOM     23  N   LIG d   1       3.891   0.257  -6.761  0.00  0.00    -0.292 N 
ATOM     24  H   LIG d   1       3.197   0.599  -6.175  0.00  0.00     0.154 HD
BRANCH  23  25
ATOM     25  C   LIG d   1       3.936   0.658  -8.099  0.00  0.00     0.051 A 
ATOM     26  C   LIG d   1       4.639  -0.089  -9.036  0.00  0.00     0.049 A 
ATOM     27  N   LIG d   1       4.689   0.289 -10.298  0.00  0.00    -0.261 NA
ATOM     28  H   LIG d   1       5.154  -0.987  -8.726  0.00  0.00     0.085 H 
ATOM     29  C   LIG d   1       4.071   1.375 -10.722  0.00  0.00     0.028 A 
ATOM     30  C   LIG d   1       3.352   2.170  -9.850  0.00  0.00    -0.042 A 
ATOM     31  H   LIG d   1       4.133   1.648 -11.765  0.00  0.00     0.083 H 
ATOM     32  C   LIG d   1       3.277   1.814  -8.514  0.00  0.00    -0.038 A 
ATOM     33  H   LIG d   1       2.853   3.059 -10.206  0.00  0.00     0.063 H 
ATOM     34  H   LIG d   1       2.722   2.417  -7.810  0.00  0.00     0.064 H 
ENDBRANCH  23  25
ENDBRANCH  13  23
BRANCH  15  35
ATOM     35  C   LIG d   1       5.333  -4.715  -7.122  0.00  0.00    -0.004 C 
ATOM     36  H   LIG d   1       5.294  -3.892  -7.836  0.00  0.00     0.033 H 
ATOM     37  H   LIG d   1       6.009  -5.485  -7.491  0.00  0.00     0.033 H 
BRANCH  35  38
ATOM     38  C   LIG d   1       3.953  -5.296  -6.951  0.00  0.00     0.042 C 
ATOM     39  O   LIG d   1       3.493  -5.447  -5.844  0.00  0.00    -0.550 OA
ATOM     40  O   LIG d   1       3.236  -5.648  -8.030  0.00  0.00    -0.550 OA
ENDBRANCH  35  38
ENDBRANCH  15  35
BRANCH   1  41
ATOM     41  C   LIG d   1       8.133  -4.349  -6.761  0.00  0.00    -0.059 C 
ATOM     42  H   LIG d   1       7.692  -4.793  -7.653  0.00  0.00     0.024 H 
ATOM     43  H   LIG d   1       8.183  -3.266  -6.881  0.00  0.00     0.024 H 
ATOM     44  H   LIG d   1       9.139  -4.745  -6.617  0.00  0.00     0.024 H 
ENDBRANCH   1  41
BRANCH   6  45
ATOM     45  C   LIG d   1       9.796  -3.964  -2.716  0.00  0.00    -0.055 C 
ATOM     46  H   LIG d   1       9.859  -2.884  -2.856  0.00  0.00     0.024 H 
ATOM     47  H   LIG d   1       9.136  -4.183  -1.878  0.00  0.00     0.024 H 
ATOM     48  H   LIG d   1      10.790  -4.360  -2.509  0.00  0.00     0.024 H 
ENDBRANCH   6  45
BRANCH   6  49
ATOM     49  C   LIG d   1      10.193  -4.325  -5.151  0.00  0.00     0.052 C 
ATOM     50  H   LIG d   1      10.151  -5.148  -5.864  0.00  0.00     0.056 H 
ATOM     51  H   LIG d   1       9.892  -3.401  -5.645  0.00  0.00     0.056 H 
BRANCH  49  52
ATOM     52  O   LIG d   1      11.526  -4.190  -4.656  0.00  0.00    -0.394 OA
ATOM     53  H   LIG d   1      11.596  -3.647  -3.858  0.00  0.00     0.209 HD
ENDBRANCH  49  52
ENDBRANCH   6  49
BRANCH   4  54
ATOM     54  O   LIG d   1      10.430  -6.653  -3.476  0.00  0.00    -0.391 OA
ATOM     55  H   LIG d   1      10.477  -7.114  -2.627  0.00  0.00     0.210 HD
ENDBRANCH   4  54
TORSDOF 9
ENDMDL
MODEL 7
REMARK VINA RESULT:      -5.5      4.125      5.699
REMARK  9 active torsions:
REMARK  status: ('A' for Active; 'I' for Inactive)
REMARK    1  A    between atoms: C_1  and  C_2 
REMARK    2  A    between atoms: C_5  and  O_31 
REMARK    3  A    between atoms: C_7  and  C_28 
REMARK    4  A    between atoms: C_7  and  C_29 
REMARK    5  A    between atoms: C_14  and  N_16 
REMARK    6  A    between atoms: N_16  and  C_17 
REMARK    7  A    between atoms: C_23  and  C_25 
REMARK    8  A    between atoms: C_25  and  C_26 
REMARK    9  A    between atoms: C_29  and  O_30 
ROOT
ATOM      1  C   LIG d   1       4.850  -0.743  -5.840  0.00  0.00    -0.020 C 
ATOM      2  C   LIG d   1       3.537   0.045  -5.777  0.00  0.00    -0.044 C 
ATOM      3  C   LIG d   1       3.054   0.386  -7.185  0.00  0.00    -0.026 C 
ATOM      4  C   LIG d   1       2.809  -0.918  -7.952  0.00  0.00     0.063 C 
ATOM      5  H   LIG d   1       2.077  -1.524  -7.417  0.00  0.00     0.060 H 
ATOM      6  C   LIG d   1       4.127  -1.682  -8.055  0.00  0.00     0.021 C 
ATOM      7  C   LIG d   1       4.657  -2.022  -6.658  0.00  0.00    -0.021 C 
ATOM      8  H   LIG d   1       3.962  -2.689  -6.148  0.00  0.00     0.032 H 
ATOM      9  C   LIG d   1       6.025  -2.708  -6.845  0.00  0.00    -0.016 C 
ATOM     10  C   LIG d   1       6.733  -2.740  -5.537  0.00  0.00     0.015 A 
ATOM     11  C   LIG d   1       6.435  -2.040  -4.414  0.00  0.00     0.058 A 
ATOM     12  N   LIG d   1       7.233  -2.247  -3.367  0.00  0.00    -0.229 NA
ATOM     13  C   LIG d   1       8.251  -3.081  -3.416  0.00  0.00     0.163 A 
ATOM     14  S   LIG d   1       8.161  -3.671  -5.049  0.00  0.00    -0.057 SA
ATOM     15  C   LIG d   1       5.247  -1.091  -4.399  0.00  0.00     0.013 C 
ATOM     16  H   LIG d   1       4.406  -1.570  -3.897  0.00  0.00     0.037 H 
ATOM     17  H   LIG d   1       2.780  -0.554  -5.272  0.00  0.00     0.027 H 
ATOM     18  H   LIG d   1       3.697   0.968  -5.219  0.00  0.00     0.027 H 
ATOM     19  H   LIG d   1       3.814   0.974  -7.700  0.00  0.00     0.029 H 
ATOM     20  H   LIG d   1       2.126   0.955  -7.126  0.00  0.00     0.029 H 
ATOM     21  H   LIG d   1       5.876  -3.726  -7.204  0.00  0.00     0.032 H 
ATOM     22  H   LIG d   1       6.618  -2.148  -7.569  0.00  0.00     0.032 H 
ENDROOT
BRANCH  13  23
ATOM     23  N   LIG d   1       9.163  -3.403  -2.421  0.00  0.00    -0.292 N 
ATOM     24  H   LIG d   1       9.194  -2.881  -1.605  0.00  0.00     0.154 HD
BRANCH  23  25
ATOM     25  C   LIG d   1      10.039  -4.478  -2.598  0.00  0.00     0.051 A 
ATOM     26  C   LIG d   1      11.272  -4.290  -3.208  0.00  0.00     0.049 A 
ATOM     27  N   LIG d   1      12.098  -5.303  -3.381  0.00  0.00    -0.261 NA
ATOM     28  H   LIG d   1      11.555  -3.305  -3.550  0.00  0.00     0.085 H 
ATOM     29  C   LIG d   1      11.798  -6.522  -2.976  0.00  0.00     0.028 A 
ATOM     30  C   LIG d   1      10.589  -6.788  -2.360  0.00  0.00    -0.042 A 
ATOM     31  H   LIG d   1      12.504  -7.323  -3.132  0.00  0.00     0.083 H 
ATOM     32  C   LIG d   1       9.687  -5.755  -2.163  0.00  0.00    -0.038 A 
ATOM     33  H   LIG d   1      10.350  -7.790  -2.036  0.00  0.00     0.063 H 
ATOM     34  H   LIG d   1       8.736  -5.934  -1.685  0.00  0.00     0.064 H 
ENDBRANCH  23  25
ENDBRANCH  13  23
BRANCH  15  35
ATOM     35  C   LIG d   1       5.626   0.190  -3.651  0.00  0.00    -0.004 C 
ATOM     36  H   LIG d   1       6.704   0.214  -3.498  0.00  0.00     0.033 H 
ATOM     37  H   LIG d   1       5.322   1.056  -4.238  0.00  0.00     0.033 H 
BRANCH  35  38
ATOM     38  C   LIG d   1       4.927   0.216  -2.316  0.00  0.00     0.042 C 
ATOM     39  O   LIG d   1       5.005   1.195  -1.613  0.00  0.00    -0.550 OA
ATOM     40  O   LIG d   1       4.220  -0.850  -1.908  0.00  0.00    -0.550 OA
ENDBRANCH  35  38
ENDBRANCH  15  35
BRANCH   1  41
ATOM     41  C   LIG d   1       5.943   0.115  -6.480  0.00  0.00    -0.059 C 
ATOM     42  H   LIG d   1       5.690   0.310  -7.521  0.00  0.00     0.024 H 
ATOM     43  H   LIG d   1       6.025   1.060  -5.942  0.00  0.00     0.024 H 
ATOM     44  H   LIG d   1       6.896  -0.415  -6.430  0.00  0.00     0.024 H 
ENDBRANCH   1  41
BRANCH   6  45
ATOM     45  C   LIG d   1       3.902  -2.975  -8.840  0.00  0.00    -0.055 C 
ATOM     46  H   LIG d   1       4.004  -3.830  -8.169  0.00  0.00     0.024 H 
ATOM     47  H   LIG d   1       2.902  -2.969  -9.271  0.00  0.00     0.024 H 
ATOM     48  H   LIG d   1       4.641  -3.050  -9.637  0.00  0.00     0.024 H 
ENDBRANCH   6  45
BRANCH   6  49
ATOM     49  C   LIG d   1       5.155  -0.820  -8.791  0.00  0.00     0.052 C 
ATOM     50  H   LIG d   1       4.973   0.231  -8.570  0.00  0.00     0.056 H 
ATOM     51  H   LIG d   1       6.159  -1.091  -8.461  0.00  0.00     0.056 H 
BRANCH  49  52
ATOM     52  O   LIG d   1       5.040  -1.039 -10.198  0.00  0.00    -0.394 OA
ATOM     53  H   LIG d   1       4.134  -0.981 -10.532  0.00  0.00     0.209 HD
ENDBRANCH  49  52
ENDBRANCH   6  49
BRANCH   4  54
ATOM     54  O   LIG d   1       2.323  -0.620  -9.261  0.00  0.00    -0.391 OA
ATOM     55  H   LIG d   1       1.659   0.083  -9.285  0.00  0.00     0.210 HD
ENDBRANCH   4  54
TORSDOF 9
ENDMDL
MODEL 8
REMARK VINA RESULT:      -5.5      9.677     14.009
REMARK  9 active torsions:
REMARK  status: ('A' for Active; 'I' for Inactive)
REMARK    1  A    between atoms: C_1  and  C_2 
REMARK    2  A    between atoms: C_5  and  O_31 
REMARK    3  A    between atoms: C_7  and  C_28 
REMARK    4  A    between atoms: C_7  and  C_29 
REMARK    5  A    between atoms: C_14  and  N_16 
REMARK    6  A    between atoms: N_16  and  C_17 
REMARK    7  A    between atoms: C_23  and  C_25 
REMARK    8  A    between atoms: C_25  and  C_26 
REMARK    9  A    between atoms: C_29  and  O_30 
ROOT
ATOM      1  C   LIG d   1      10.782   6.720  -2.196  0.00  0.00    -0.020 C 
ATOM      2  C   LIG d   1      10.725   5.565  -1.191  0.00  0.00    -0.044 C 
ATOM      3  C   LIG d   1      11.559   5.898   0.046  0.00  0.00    -0.026 C 
ATOM      4  C   LIG d   1      10.983   7.154   0.706  0.00  0.00     0.063 C 
ATOM      5  H   LIG d   1       9.938   6.983   0.967  0.00  0.00     0.060 H 
ATOM      6  C   LIG d   1      11.081   8.316  -0.280  0.00  0.00     0.021 C 
ATOM      7  C   LIG d   1      10.275   8.010  -1.546  0.00  0.00    -0.021 C 
ATOM      8  H   LIG d   1       9.218   7.913  -1.300  0.00  0.00     0.032 H 
ATOM      9  C   LIG d   1      10.498   9.183  -2.521  0.00  0.00    -0.016 C 
ATOM     10  C   LIG d   1      10.034   8.780  -3.877  0.00  0.00     0.015 A 
ATOM     11  C   LIG d   1       9.749   7.530  -4.320  0.00  0.00     0.058 A 
ATOM     12  N   LIG d   1       9.353   7.436  -5.588  0.00  0.00    -0.229 NA
ATOM     13  C   LIG d   1       9.241   8.491  -6.368  0.00  0.00     0.163 A 
ATOM     14  S   LIG d   1       9.725   9.781  -5.307  0.00  0.00    -0.057 SA
ATOM     15  C   LIG d   1       9.887   6.339  -3.384  0.00  0.00     0.013 C 
ATOM     16  H   LIG d   1       8.902   6.050  -3.017  0.00  0.00     0.037 H 
ATOM     17  H   LIG d   1       9.691   5.396  -0.892  0.00  0.00     0.027 H 
ATOM     18  H   LIG d   1      11.117   4.662  -1.657  0.00  0.00     0.027 H 
ATOM     19  H   LIG d   1      12.592   6.081  -0.249  0.00  0.00     0.029 H 
ATOM     20  H   LIG d   1      11.519   5.064   0.748  0.00  0.00     0.029 H 
ATOM     21  H   LIG d   1       9.930  10.050  -2.184  0.00  0.00     0.032 H 
ATOM     22  H   LIG d   1      11.559   9.432  -2.556  0.00  0.00     0.032 H 
ENDROOT
BRANCH  13  23
ATOM     23  N   LIG d   1       8.843   8.556  -7.695  0.00  0.00    -0.292 N 
ATOM     24  H   LIG d   1       8.089   9.110  -7.948  0.00  0.00     0.154 HD
BRANCH  23  25
ATOM     25  C   LIG d   1       9.529   7.821  -8.667  0.00  0.00     0.051 A 
ATOM     26  C   LIG d   1      10.782   8.230  -9.106  0.00  0.00     0.049 A 
ATOM     27  N   LIG d   1      11.428   7.542 -10.026  0.00  0.00    -0.261 NA
ATOM     28  H   LIG d   1      11.229   9.122  -8.692  0.00  0.00     0.085 H 
ATOM     29  C   LIG d   1      10.925   6.444 -10.555  0.00  0.00     0.028 A 
ATOM     30  C   LIG d   1       9.683   5.975 -10.170  0.00  0.00    -0.042 A 
ATOM     31  H   LIG d   1      11.489   5.907 -11.304  0.00  0.00     0.083 H 
ATOM     32  C   LIG d   1       8.965   6.668  -9.210  0.00  0.00    -0.038 A 
ATOM     33  H   LIG d   1       9.277   5.077 -10.612  0.00  0.00     0.063 H 
ATOM     34  H   LIG d   1       7.993   6.324  -8.890  0.00  0.00     0.064 H 
ENDBRANCH  23  25
ENDBRANCH  13  23
BRANCH  15  35
ATOM     35  C   LIG d   1      10.515   5.166  -4.139  0.00  0.00    -0.004 C 
ATOM     36  H   LIG d   1      10.813   5.494  -5.135  0.00  0.00     0.033 H 
ATOM     37  H   LIG d   1      11.390   4.811  -3.596  0.00  0.00     0.033 H 
BRANCH  35  38
ATOM     38  C   LIG d   1       9.509   4.050  -4.259  0.00  0.00     0.042 C 
ATOM     39  O   LIG d   1       9.008   3.800  -5.329  0.00  0.00    -0.550 OA
ATOM     40  O   LIG d   1       9.169   3.335  -3.175  0.00  0.00    -0.550 OA
ENDBRANCH  35  38
ENDBRANCH  15  35
BRANCH   1  41
ATOM     41  C   LIG d   1      12.219   6.920  -2.681  0.00  0.00    -0.059 C 
ATOM     42  H   LIG d   1      12.240   6.910  -3.770  0.00  0.00     0.024 H 
ATOM     43  H   LIG d   1      12.593   7.878  -2.319  0.00  0.00     0.024 H 
ATOM     44  H   LIG d   1      12.847   6.116  -2.297  0.00  0.00     0.024 H 
ENDBRANCH   1  41
BRANCH   6  45
ATOM     45  C   LIG d   1      10.532   9.584   0.376  0.00  0.00    -0.055 C 
ATOM     46  H   LIG d   1      10.659  10.428  -0.302  0.00  0.00     0.024 H 
ATOM     47  H   LIG d   1       9.474   9.450   0.596  0.00  0.00     0.024 H 
ATOM     48  H   LIG d   1      11.074   9.777   1.302  0.00  0.00     0.024 H 
ENDBRANCH   6  45
BRANCH   6  49
ATOM     49  C   LIG d   1      12.548   8.539  -0.654  0.00  0.00     0.052 C 
ATOM     50  H   LIG d   1      13.074   7.584  -0.648  0.00  0.00     0.056 H 
ATOM     51  H   LIG d   1      12.606   8.979  -1.650  0.00  0.00     0.056 H 
BRANCH  49  52
ATOM     52  O   LIG d   1      13.153   9.421   0.293  0.00  0.00    -0.394 OA
ATOM     53  H   LIG d   1      13.591   8.969   1.027  0.00  0.00     0.209 HD
ENDBRANCH  49  52
ENDBRANCH   6  49
BRANCH   4  54
ATOM     54  O   LIG d   1      11.729   7.461   1.885  0.00  0.00    -0.391 OA
ATOM     55  H   LIG d   1      12.149   6.692   2.296  0.00  0.00     0.210 HD
ENDBRANCH   4  54
TORSDOF 9
ENDMDL
MODEL 9
REMARK VINA RESULT:      -5.3      5.333      7.459
REMARK  9 active torsions:
REMARK  status: ('A' for Active; 'I' for Inactive)
REMARK    1  A    between atoms: C_1  and  C_2 
REMARK    2  A    between atoms: C_5  and  O_31 
REMARK    3  A    between atoms: C_7  and  C_28 
REMARK    4  A    between atoms: C_7  and  C_29 
REMARK    5  A    between atoms: C_14  and  N_16 
REMARK    6  A    between atoms: N_16  and  C_17 
REMARK    7  A    between atoms: C_23  and  C_25 
REMARK    8  A    between atoms: C_25  and  C_26 
REMARK    9  A    between atoms: C_29  and  O_30 
ROOT
ATOM      1  C   LIG d   1       7.166  -6.553  -5.866  0.00  0.00    -0.020 C 
ATOM      2  C   LIG d   1       6.455  -7.881  -6.142  0.00  0.00    -0.044 C 
ATOM      3  C   LIG d   1       7.470  -9.022  -6.211  0.00  0.00    -0.026 C 
ATOM      4  C   LIG d   1       8.193  -9.122  -4.865  0.00  0.00     0.063 C 
ATOM      5  H   LIG d   1       7.464  -9.287  -4.070  0.00  0.00     0.060 H 
ATOM      6  C   LIG d   1       8.939  -7.814  -4.610  0.00  0.00     0.021 C 
ATOM      7  C   LIG d   1       7.956  -6.640  -4.557  0.00  0.00    -0.021 C 
ATOM      8  H   LIG d   1       7.272  -6.765  -3.717  0.00  0.00     0.032 H 
ATOM      9  C   LIG d   1       8.791  -5.356  -4.389  0.00  0.00    -0.016 C 
ATOM     10  C   LIG d   1       7.930  -4.177  -4.681  0.00  0.00     0.015 A 
ATOM     11  C   LIG d   1       6.719  -4.165  -5.291  0.00  0.00     0.058 A 
ATOM     12  N   LIG d   1       6.150  -2.970  -5.438  0.00  0.00    -0.229 NA
ATOM     13  C   LIG d   1       6.725  -1.863  -5.015  0.00  0.00     0.163 A 
ATOM     14  S   LIG d   1       8.213  -2.460  -4.341  0.00  0.00    -0.057 SA
ATOM     15  C   LIG d   1       6.087  -5.467  -5.760  0.00  0.00     0.013 C 
ATOM     16  H   LIG d   1       5.326  -5.780  -5.044  0.00  0.00     0.037 H 
ATOM     17  H   LIG d   1       5.742  -8.083  -5.343  0.00  0.00     0.027 H 
ATOM     18  H   LIG d   1       5.923  -7.815  -7.091  0.00  0.00     0.027 H 
ATOM     19  H   LIG d   1       8.194  -8.819  -7.000  0.00  0.00     0.029 H 
ATOM     20  H   LIG d   1       6.953  -9.959  -6.419  0.00  0.00     0.029 H 
ATOM     21  H   LIG d   1       9.160  -5.292  -3.365  0.00  0.00     0.032 H 
ATOM     22  H   LIG d   1       9.633  -5.374  -5.080  0.00  0.00     0.032 H 
ENDROOT
BRANCH  13  23
ATOM     23  N   LIG d   1       6.265  -0.556  -5.091  0.00  0.00    -0.292 N 
ATOM     24  H   LIG d   1       6.591   0.032  -5.789  0.00  0.00     0.154 HD
BRANCH  23  25
ATOM     25  C   LIG d   1       5.334  -0.088  -4.160  0.00  0.00     0.051 A 
ATOM     26  C   LIG d   1       3.973  -0.159  -4.428  0.00  0.00     0.049 A 
ATOM     27  N   LIG d   1       3.091   0.287  -3.554  0.00  0.00    -0.261 NA
ATOM     28  H   LIG d   1       3.633  -0.579  -5.363  0.00  0.00     0.085 H 
ATOM     29  C   LIG d   1       3.460   0.802  -2.397  0.00  0.00     0.028 A 
ATOM     30  C   LIG d   1       4.796   0.907  -2.059  0.00  0.00    -0.042 A 
ATOM     31  H   LIG d   1       2.706   1.152  -1.707  0.00  0.00     0.083 H 
ATOM     32  C   LIG d   1       5.757   0.456  -2.949  0.00  0.00    -0.038 A 
ATOM     33  H   LIG d   1       5.088   1.334  -1.111  0.00  0.00     0.063 H 
ATOM     34  H   LIG d   1       6.808   0.525  -2.711  0.00  0.00     0.064 H 
ENDBRANCH  23  25
ENDBRANCH  13  23
BRANCH  15  35
ATOM     35  C   LIG d   1       5.441  -5.256  -7.131  0.00  0.00    -0.004 C 
ATOM     36  H   LIG d   1       5.677  -4.256  -7.494  0.00  0.00     0.033 H 
ATOM     37  H   LIG d   1       5.824  -5.997  -7.831  0.00  0.00     0.033 H 
BRANCH  35  38
ATOM     38  C   LIG d   1       3.946  -5.406  -7.010  0.00  0.00     0.042 C 
ATOM     39  O   LIG d   1       3.415  -5.317  -5.928  0.00  0.00    -0.550 OA
ATOM     40  O   LIG d   1       3.204  -5.639  -8.104  0.00  0.00    -0.550 OA
ENDBRANCH  35  38
ENDBRANCH  15  35
BRANCH   1  41
ATOM     41  C   LIG d   1       8.117  -6.220  -7.016  0.00  0.00    -0.059 C 
ATOM     42  H   LIG d   1       8.944  -5.617  -6.642  0.00  0.00     0.024 H 
ATOM     43  H   LIG d   1       8.506  -7.144  -7.445  0.00  0.00     0.024 H 
ATOM     44  H   LIG d   1       7.578  -5.663  -7.784  0.00  0.00     0.024 H 
ENDBRANCH   1  41
BRANCH   6  45
ATOM     45  C   LIG d   1       9.687  -7.909  -3.279  0.00  0.00    -0.055 C 
ATOM     46  H   LIG d   1       9.727  -8.951  -2.959  0.00  0.00     0.024 H 
ATOM     47  H   LIG d   1      10.699  -7.528  -3.403  0.00  0.00     0.024 H 
ATOM     48  H   LIG d   1       9.165  -7.319  -2.526  0.00  0.00     0.024 H 
ENDBRANCH   6  45
BRANCH   6  49
ATOM     49  C   LIG d   1       9.948  -7.580  -5.737  0.00  0.00     0.052 C 
ATOM     50  H   LIG d   1       9.582  -8.042  -6.654  0.00  0.00     0.056 H 
ATOM     51  H   LIG d   1      10.073  -6.508  -5.895  0.00  0.00     0.056 H 
BRANCH  49  52
ATOM     52  O   LIG d   1      11.204  -8.159  -5.380  0.00  0.00    -0.394 OA
ATOM     53  H   LIG d   1      11.462  -8.003  -4.461  0.00  0.00     0.209 HD
ENDBRANCH  49  52
ENDBRANCH   6  49
BRANCH   4  54
ATOM     54  O   LIG d   1       9.122 -10.206  -4.899  0.00  0.00    -0.391 OA
ATOM     55  H   LIG d   1       9.981 -10.000  -4.505  0.00  0.00     0.210 HD
ENDBRANCH   4  54
TORSDOF 9
ENDMDL
