MODEL 1
REMARK VINA RESULT:      -5.4      0.000      0.000
REMARK  4 active torsions:
REMARK  status: ('A' for Active; 'I' for Inactive)
REMARK    1  A    between atoms: C_1  and  C_2 
REMARK       I    between atoms: C_2  and  N_4 
REMARK    2  A    between atoms: N_4  and  C_5 
REMARK    3  A    between atoms: C_10  and  C_11 
REMARK    4  A    between atoms: C_11  and  O_12 
ROOT
ATOM      1  C   LIG d   1       3.814  -1.137  -3.613  0.00  0.00     0.039 A 
ATOM      2  C   LIG d   1       4.385  -1.268  -2.352  0.00  0.00    -0.040 A 
ATOM      3  C   LIG d   1       4.524  -0.160  -1.541  0.00  0.00    -0.060 A 
ATOM      4  C   LIG d   1       4.088   1.078  -1.977  0.00  0.00    -0.061 A 
ATOM      5  C   LIG d   1       3.516   1.211  -3.228  0.00  0.00    -0.055 A 
ATOM      6  C   LIG d   1       3.378   0.107  -4.047  0.00  0.00    -0.001 A 
ATOM      7  H   LIG d   1       4.721  -2.235  -2.010  0.00  0.00     0.064 H 
ATOM      8  H   LIG d   1       4.971  -0.262  -0.562  0.00  0.00     0.062 H 
ATOM      9  H   LIG d   1       4.195   1.942  -1.338  0.00  0.00     0.062 H 
ATOM     10  H   LIG d   1       3.177   2.179  -3.565  0.00  0.00     0.062 H 
ENDROOT
BRANCH   1  11
ATOM     11  N   LIG d   1       3.675  -2.257  -4.439  0.00  0.00    -0.285 N 
ATOM     12  C   LIG d   1       4.707  -2.659  -5.209  0.00  0.00     0.214 C 
ATOM     13  O   LIG d   1       5.728  -2.004  -5.246  0.00  0.00    -0.276 OA
ATOM     14  H   LIG d   1       2.838  -2.744  -4.460  0.00  0.00     0.155 HD
BRANCH  12  15
ATOM     15  C   LIG d   1       4.595  -3.926  -6.017  0.00  0.00     0.013 C 
ATOM     16  H   LIG d   1       4.503  -3.675  -7.074  0.00  0.00     0.032 H 
ATOM     17  H   LIG d   1       5.486  -4.535  -5.865  0.00  0.00     0.032 H 
ATOM     18  H   LIG d   1       3.715  -4.483  -5.698  0.00  0.00     0.032 H 
ENDBRANCH  12  15
ENDBRANCH   1  11
BRANCH   6  19
ATOM     19  C   LIG d   1       2.753   0.253  -5.411  0.00  0.00     0.071 C 
ATOM     20  H   LIG d   1       2.096  -0.596  -5.602  0.00  0.00     0.061 H 
ATOM     21  H   LIG d   1       2.173   1.175  -5.448  0.00  0.00     0.061 H 
BRANCH  19  22
ATOM     22  O   LIG d   1       3.780   0.294  -6.403  0.00  0.00    -0.390 OA
ATOM     23  H   LIG d   1       3.485   0.029  -7.285  0.00  0.00     0.210 HD
ENDBRANCH  19  22
ENDBRANCH   6  19
TORSDOF 4
ENDMDL
MODEL 2
REMARK VINA RESULT:      -5.3      1.478      2.683
REMARK  4 active torsions:
REMARK  status: ('A' for Active; 'I' for Inactive)
REMARK    1  A    between atoms: C_1  and  C_2 
REMARK       I    between atoms: C_2  and  N_4 
REMARK    2  A    between atoms: N_4  and  C_5 
REMARK    3  A    between atoms: C_10  and  C_11 
REMARK    4  A    between atoms: C_11  and  O_12 
ROOT
ATOM      1  C   LIG d   1       3.687  -0.269  -4.195  0.00  0.00     0.039 A 
ATOM      2  C   LIG d   1       3.221   0.936  -3.683  0.00  0.00    -0.040 A 
ATOM      3  C   LIG d   1       3.643   1.366  -2.440  0.00  0.00    -0.060 A 
ATOM      4  C   LIG d   1       4.535   0.603  -1.709  0.00  0.00    -0.061 A 
ATOM      5  C   LIG d   1       5.005  -0.594  -2.217  0.00  0.00    -0.055 A 
ATOM      6  C   LIG d   1       4.583  -1.032  -3.458  0.00  0.00    -0.001 A 
ATOM      7  H   LIG d   1       2.527   1.534  -4.255  0.00  0.00     0.064 H 
ATOM      8  H   LIG d   1       3.278   2.301  -2.041  0.00  0.00     0.062 H 
ATOM      9  H   LIG d   1       4.867   0.944  -0.740  0.00  0.00     0.062 H 
ATOM     10  H   LIG d   1       5.702  -1.186  -1.644  0.00  0.00     0.062 H 
ENDROOT
BRANCH   1  11
ATOM     11  N   LIG d   1       3.259  -0.710  -5.451  0.00  0.00    -0.285 N 
ATOM     12  C   LIG d   1       3.949  -0.366  -6.557  0.00  0.00     0.214 C 
ATOM     13  O   LIG d   1       4.895   0.389  -6.472  0.00  0.00    -0.276 OA
ATOM     14  H   LIG d   1       2.465  -1.261  -5.527  0.00  0.00     0.155 HD
BRANCH  12  15
ATOM     15  C   LIG d   1       3.552  -0.928  -7.898  0.00  0.00     0.013 C 
ATOM     16  H   LIG d   1       2.504  -0.698  -8.092  0.00  0.00     0.032 H 
ATOM     17  H   LIG d   1       4.172  -0.485  -8.677  0.00  0.00     0.032 H 
ATOM     18  H   LIG d   1       3.692  -2.009  -7.894  0.00  0.00     0.032 H 
ENDBRANCH  12  15
ENDBRANCH   1  11
BRANCH   6  19
ATOM     19  C   LIG d   1       5.096  -2.336  -4.012  0.00  0.00     0.071 C 
ATOM     20  H   LIG d   1       5.688  -2.143  -4.907  0.00  0.00     0.061 H 
ATOM     21  H   LIG d   1       5.718  -2.829  -3.265  0.00  0.00     0.061 H 
BRANCH  19  22
ATOM     22  O   LIG d   1       3.991  -3.179  -4.344  0.00  0.00    -0.390 OA
ATOM     23  H   LIG d   1       3.719  -3.770  -3.629  0.00  0.00     0.210 HD
ENDBRANCH  19  22
ENDBRANCH   6  19
TORSDOF 4
ENDMDL
MODEL 3
REMARK VINA RESULT:      -5.1      2.016      2.812
REMARK  4 active torsions:
REMARK  status: ('A' for Active; 'I' for Inactive)
REMARK    1  A    between atoms: C_1  and  C_2 
REMARK       I    between atoms: C_2  and  N_4 
REMARK    2  A    between atoms: N_4  and  C_5 
REMARK    3  A    between atoms: C_10  and  C_11 
REMARK    4  A    between atoms: C_11  and  O_12 
ROOT
ATOM      1  C   LIG d   1       3.988  -0.183  -4.449  0.00  0.00     0.039 A 
ATOM      2  C   LIG d   1       3.031   0.195  -3.516  0.00  0.00    -0.040 A 
ATOM      3  C   LIG d   1       3.423   0.731  -2.305  0.00  0.00    -0.060 A 
ATOM      4  C   LIG d   1       4.767   0.899  -2.025  0.00  0.00    -0.061 A 
ATOM      5  C   LIG d   1       5.722   0.528  -2.953  0.00  0.00    -0.055 A 
ATOM      6  C   LIG d   1       5.336  -0.012  -4.164  0.00  0.00    -0.001 A 
ATOM      7  H   LIG d   1       1.982   0.068  -3.736  0.00  0.00     0.064 H 
ATOM      8  H   LIG d   1       2.679   1.022  -1.578  0.00  0.00     0.062 H 
ATOM      9  H   LIG d   1       5.071   1.321  -1.079  0.00  0.00     0.062 H 
ATOM     10  H   LIG d   1       6.770   0.661  -2.730  0.00  0.00     0.062 H 
ENDROOT
BRANCH   1  11
ATOM     11  N   LIG d   1       3.595  -0.729  -5.675  0.00  0.00    -0.285 N 
ATOM     12  C   LIG d   1       3.131   0.075  -6.654  0.00  0.00     0.214 C 
ATOM     13  O   LIG d   1       2.980   1.260  -6.444  0.00  0.00    -0.276 OA
ATOM     14  H   LIG d   1       3.654  -1.686  -5.821  0.00  0.00     0.155 HD
BRANCH  12  15
ATOM     15  C   LIG d   1       2.809  -0.498  -8.010  0.00  0.00     0.013 C 
ATOM     16  H   LIG d   1       1.866  -1.043  -7.960  0.00  0.00     0.032 H 
ATOM     17  H   LIG d   1       2.724   0.310  -8.735  0.00  0.00     0.032 H 
ATOM     18  H   LIG d   1       3.605  -1.178  -8.314  0.00  0.00     0.032 H 
ENDBRANCH  12  15
ENDBRANCH   1  11
BRANCH   6  19
ATOM     19  C   LIG d   1       6.378  -0.416  -5.176  0.00  0.00     0.071 C 
ATOM     20  H   LIG d   1       7.340  -0.538  -4.679  0.00  0.00     0.061 H 
ATOM     21  H   LIG d   1       6.087  -1.358  -5.641  0.00  0.00     0.061 H 
BRANCH  19  22
ATOM     22  O   LIG d   1       6.485   0.598  -6.178  0.00  0.00    -0.390 OA
ATOM     23  H   LIG d   1       6.120   1.453  -5.911  0.00  0.00     0.210 HD
ENDBRANCH  19  22
ENDBRANCH   6  19
TORSDOF 4
ENDMDL
MODEL 4
REMARK VINA RESULT:      -4.8      2.129      2.714
REMARK  4 active torsions:
REMARK  status: ('A' for Active; 'I' for Inactive)
REMARK    1  A    between atoms: C_1  and  C_2 
REMARK       I    between atoms: C_2  and  N_4 
REMARK    2  A    between atoms: N_4  and  C_5 
REMARK    3  A    between atoms: C_10  and  C_11 
REMARK    4  A    between atoms: C_11  and  O_12 
ROOT
ATOM      1  C   LIG d   1       5.632  -0.660  -2.997  0.00  0.00     0.039 A 
ATOM      2  C   LIG d   1       5.857   0.703  -2.842  0.00  0.00    -0.040 A 
ATOM      3  C   LIG d   1       4.800   1.549  -2.574  0.00  0.00    -0.060 A 
ATOM      4  C   LIG d   1       3.520   1.041  -2.451  0.00  0.00    -0.061 A 
ATOM      5  C   LIG d   1       3.293  -0.314  -2.600  0.00  0.00    -0.055 A 
ATOM      6  C   LIG d   1       4.346  -1.166  -2.872  0.00  0.00    -0.001 A 
ATOM      7  H   LIG d   1       6.857   1.099  -2.934  0.00  0.00     0.064 H 
ATOM      8  H   LIG d   1       4.974   2.609  -2.456  0.00  0.00     0.062 H 
ATOM      9  H   LIG d   1       2.695   1.705  -2.237  0.00  0.00     0.062 H 
ATOM     10  H   LIG d   1       2.292  -0.707  -2.502  0.00  0.00     0.062 H 
ENDROOT
BRANCH   1  11
ATOM     11  N   LIG d   1       6.701  -1.520  -3.273  0.00  0.00    -0.285 N 
ATOM     12  C   LIG d   1       7.097  -1.715  -4.547  0.00  0.00     0.214 C 
ATOM     13  O   LIG d   1       6.478  -1.209  -5.459  0.00  0.00    -0.276 OA
ATOM     14  H   LIG d   1       7.156  -1.975  -2.549  0.00  0.00     0.155 HD
BRANCH  12  15
ATOM     15  C   LIG d   1       8.314  -2.555  -4.837  0.00  0.00     0.013 C 
ATOM     16  H   LIG d   1       8.888  -2.098  -5.643  0.00  0.00     0.032 H 
ATOM     17  H   LIG d   1       8.933  -2.620  -3.942  0.00  0.00     0.032 H 
ATOM     18  H   LIG d   1       8.001  -3.555  -5.136  0.00  0.00     0.032 H 
ENDBRANCH  12  15
ENDBRANCH   1  11
BRANCH   6  19
ATOM     19  C   LIG d   1       4.098  -2.644  -3.034  0.00  0.00     0.071 C 
ATOM     20  H   LIG d   1       4.921  -3.201  -2.585  0.00  0.00     0.061 H 
ATOM     21  H   LIG d   1       3.165  -2.913  -2.538  0.00  0.00     0.061 H 
BRANCH  19  22
ATOM     22  O   LIG d   1       4.010  -2.962  -4.424  0.00  0.00    -0.390 OA
ATOM     23  H   LIG d   1       4.385  -2.287  -5.006  0.00  0.00     0.210 HD
ENDBRANCH  19  22
ENDBRANCH   6  19
TORSDOF 4
ENDMDL
MODEL 5
REMARK VINA RESULT:      -4.7      2.064      2.514
REMARK  4 active torsions:
REMARK  status: ('A' for Active; 'I' for Inactive)
REMARK    1  A    between atoms: C_1  and  C_2 
REMARK       I    between atoms: C_2  and  N_4 
REMARK    2  A    between atoms: N_4  and  C_5 
REMARK    3  A    between atoms: C_10  and  C_11 
REMARK    4  A    between atoms: C_11  and  O_12 
ROOT
ATOM      1  C   LIG d   1       4.540  -0.566  -4.663  0.00  0.00     0.039 A 
ATOM      2  C   LIG d   1       5.487  -1.339  -4.001  0.00  0.00    -0.040 A 
ATOM      3  C   LIG d   1       5.157  -1.968  -2.817  0.00  0.00    -0.060 A 
ATOM      4  C   LIG d   1       3.883  -1.836  -2.295  0.00  0.00    -0.061 A 
ATOM      5  C   LIG d   1       2.937  -1.072  -2.953  0.00  0.00    -0.055 A 
ATOM      6  C   LIG d   1       3.263  -0.437  -4.136  0.00  0.00    -0.001 A 
ATOM      7  H   LIG d   1       6.480  -1.445  -4.411  0.00  0.00     0.064 H 
ATOM      8  H   LIG d   1       5.894  -2.565  -2.301  0.00  0.00     0.062 H 
ATOM      9  H   LIG d   1       3.627  -2.332  -1.371  0.00  0.00     0.062 H 
ATOM     10  H   LIG d   1       1.944  -0.973  -2.542  0.00  0.00     0.062 H 
ENDROOT
BRANCH   1  11
ATOM     11  N   LIG d   1       4.872   0.075  -5.861  0.00  0.00    -0.285 N 
ATOM     12  C   LIG d   1       4.740  -0.577  -7.034  0.00  0.00     0.214 C 
ATOM     13  O   LIG d   1       4.411  -1.744  -7.046  0.00  0.00    -0.276 OA
ATOM     14  H   LIG d   1       5.198   0.988  -5.848  0.00  0.00     0.155 HD
BRANCH  12  15
ATOM     15  C   LIG d   1       4.994   0.147  -8.331  0.00  0.00     0.013 C 
ATOM     16  H   LIG d   1       4.901   1.222  -8.171  0.00  0.00     0.032 H 
ATOM     17  H   LIG d   1       5.999  -0.082  -8.686  0.00  0.00     0.032 H 
ATOM     18  H   LIG d   1       4.264  -0.173  -9.074  0.00  0.00     0.032 H 
ENDBRANCH  12  15
ENDBRANCH   1  11
BRANCH   6  19
ATOM     19  C   LIG d   1       2.231   0.395  -4.854  0.00  0.00     0.071 C 
ATOM     20  H   LIG d   1       2.122   0.035  -5.877  0.00  0.00     0.061 H 
ATOM     21  H   LIG d   1       1.275   0.313  -4.337  0.00  0.00     0.061 H 
BRANCH  19  22
ATOM     22  O   LIG d   1       2.650   1.760  -4.871  0.00  0.00    -0.390 OA
ATOM     23  H   LIG d   1       3.603   1.880  -4.763  0.00  0.00     0.210 HD
ENDBRANCH  19  22
ENDBRANCH   6  19
TORSDOF 4
ENDMDL
MODEL 6
REMARK VINA RESULT:      -4.7      2.700      3.434
REMARK  4 active torsions:
REMARK  status: ('A' for Active; 'I' for Inactive)
REMARK    1  A    between atoms: C_1  and  C_2 
REMARK       I    between atoms: C_2  and  N_4 
REMARK    2  A    between atoms: N_4  and  C_5 
REMARK    3  A    between atoms: C_10  and  C_11 
REMARK    4  A    between atoms: C_11  and  O_12 
ROOT
ATOM      1  C   LIG d   1       5.253  -0.501  -4.113  0.00  0.00     0.039 A 
ATOM      2  C   LIG d   1       5.110  -1.841  -4.451  0.00  0.00    -0.040 A 
ATOM      3  C   LIG d   1       4.464  -2.704  -3.589  0.00  0.00    -0.060 A 
ATOM      4  C   LIG d   1       3.953  -2.235  -2.393  0.00  0.00    -0.061 A 
ATOM      5  C   LIG d   1       4.090  -0.902  -2.054  0.00  0.00    -0.055 A 
ATOM      6  C   LIG d   1       4.738  -0.034  -2.911  0.00  0.00    -0.001 A 
ATOM      7  H   LIG d   1       5.505  -2.207  -5.388  0.00  0.00     0.064 H 
ATOM      8  H   LIG d   1       4.356  -3.747  -3.851  0.00  0.00     0.062 H 
ATOM      9  H   LIG d   1       3.445  -2.912  -1.722  0.00  0.00     0.062 H 
ATOM     10  H   LIG d   1       3.689  -0.539  -1.119  0.00  0.00     0.062 H 
ENDROOT
BRANCH   1  11
ATOM     11  N   LIG d   1       5.910   0.376  -4.982  0.00  0.00    -0.285 N 
ATOM     12  C   LIG d   1       7.258   0.400  -5.025  0.00  0.00     0.214 C 
ATOM     13  O   LIG d   1       7.901  -0.281  -4.253  0.00  0.00    -0.276 OA
ATOM     14  H   LIG d   1       5.397   0.967  -5.554  0.00  0.00     0.155 HD
BRANCH  12  15
ATOM     15  C   LIG d   1       7.964   1.265  -6.036  0.00  0.00     0.013 C 
ATOM     16  H   LIG d   1       8.032   2.285  -5.658  0.00  0.00     0.032 H 
ATOM     17  H   LIG d   1       8.967   0.875  -6.212  0.00  0.00     0.032 H 
ATOM     18  H   LIG d   1       7.404   1.261  -6.971  0.00  0.00     0.032 H 
ENDBRANCH  12  15
ENDBRANCH   1  11
BRANCH   6  19
ATOM     19  C   LIG d   1       4.886   1.420  -2.542  0.00  0.00     0.071 C 
ATOM     20  H   LIG d   1       4.643   1.554  -1.488  0.00  0.00     0.061 H 
ATOM     21  H   LIG d   1       5.913   1.738  -2.720  0.00  0.00     0.061 H 
BRANCH  19  22
ATOM     22  O   LIG d   1       3.998   2.206  -3.339  0.00  0.00    -0.390 OA
ATOM     23  H   LIG d   1       3.080   1.901  -3.321  0.00  0.00     0.210 HD
ENDBRANCH  19  22
ENDBRANCH   6  19
TORSDOF 4
ENDMDL
MODEL 7
REMARK VINA RESULT:      -4.6      2.942      4.247
REMARK  4 active torsions:
REMARK  status: ('A' for Active; 'I' for Inactive)
REMARK    1  A    between atoms: C_1  and  C_2 
REMARK       I    between atoms: C_2  and  N_4 
REMARK    2  A    between atoms: N_4  and  C_5 
REMARK    3  A    between atoms: C_10  and  C_11 
REMARK    4  A    between atoms: C_11  and  O_12 
ROOT
ATOM      1  C   LIG d   1       6.149  -0.713  -3.058  0.00  0.00     0.039 A 
ATOM      2  C   LIG d   1       5.245  -0.004  -2.276  0.00  0.00    -0.040 A 
ATOM      3  C   LIG d   1       3.981  -0.511  -2.053  0.00  0.00    -0.060 A 
ATOM      4  C   LIG d   1       3.616  -1.728  -2.600  0.00  0.00    -0.061 A 
ATOM      5  C   LIG d   1       4.513  -2.438  -3.375  0.00  0.00    -0.055 A 
ATOM      6  C   LIG d   1       5.778  -1.935  -3.605  0.00  0.00    -0.001 A 
ATOM      7  H   LIG d   1       5.532   0.944  -1.845  0.00  0.00     0.064 H 
ATOM      8  H   LIG d   1       3.277   0.042  -1.448  0.00  0.00     0.062 H 
ATOM      9  H   LIG d   1       2.627  -2.124  -2.420  0.00  0.00     0.062 H 
ATOM     10  H   LIG d   1       4.224  -3.388  -3.800  0.00  0.00     0.062 H 
ENDROOT
BRANCH   1  11
ATOM     11  N   LIG d   1       7.430  -0.201  -3.290  0.00  0.00    -0.285 N 
ATOM     12  C   LIG d   1       7.577   1.034  -3.811  0.00  0.00     0.214 C 
ATOM     13  O   LIG d   1       6.602   1.669  -4.153  0.00  0.00    -0.276 OA
ATOM     14  H   LIG d   1       8.211  -0.733  -3.077  0.00  0.00     0.155 HD
BRANCH  12  15
ATOM     15  C   LIG d   1       8.954   1.629  -3.959  0.00  0.00     0.013 C 
ATOM     16  H   LIG d   1       9.431   1.223  -4.852  0.00  0.00     0.032 H 
ATOM     17  H   LIG d   1       8.874   2.712  -4.051  0.00  0.00     0.032 H 
ATOM     18  H   LIG d   1       9.552   1.381  -3.083  0.00  0.00     0.032 H 
ENDBRANCH  12  15
ENDBRANCH   1  11
BRANCH   6  19
ATOM     19  C   LIG d   1       6.757  -2.710  -4.449  0.00  0.00     0.071 C 
ATOM     20  H   LIG d   1       6.276  -3.613  -4.827  0.00  0.00     0.061 H 
ATOM     21  H   LIG d   1       7.082  -2.095  -5.288  0.00  0.00     0.061 H 
BRANCH  19  22
ATOM     22  O   LIG d   1       7.889  -3.070  -3.655  0.00  0.00    -0.390 OA
ATOM     23  H   LIG d   1       8.105  -4.013  -3.683  0.00  0.00     0.210 HD
ENDBRANCH  19  22
ENDBRANCH   6  19
TORSDOF 4
ENDMDL
MODEL 8
REMARK VINA RESULT:      -4.5      1.748      2.055
REMARK  4 active torsions:
REMARK  status: ('A' for Active; 'I' for Inactive)
REMARK    1  A    between atoms: C_1  and  C_2 
REMARK       I    between atoms: C_2  and  N_4 
REMARK    2  A    between atoms: N_4  and  C_5 
REMARK    3  A    between atoms: C_10  and  C_11 
REMARK    4  A    between atoms: C_11  and  O_12 
ROOT
ATOM      1  C   LIG d   1       4.485  -0.643  -4.221  0.00  0.00     0.039 A 
ATOM      2  C   LIG d   1       3.266  -0.534  -3.561  0.00  0.00    -0.040 A 
ATOM      3  C   LIG d   1       3.147   0.302  -2.469  0.00  0.00    -0.060 A 
ATOM      4  C   LIG d   1       4.236   1.036  -2.036  0.00  0.00    -0.061 A 
ATOM      5  C   LIG d   1       5.448   0.933  -2.692  0.00  0.00    -0.055 A 
ATOM      6  C   LIG d   1       5.575   0.096  -3.783  0.00  0.00    -0.001 A 
ATOM      7  H   LIG d   1       2.415  -1.103  -3.902  0.00  0.00     0.064 H 
ATOM      8  H   LIG d   1       2.200   0.384  -1.954  0.00  0.00     0.062 H 
ATOM      9  H   LIG d   1       4.139   1.691  -1.183  0.00  0.00     0.062 H 
ATOM     10  H   LIG d   1       6.296   1.508  -2.350  0.00  0.00     0.062 H 
ENDROOT
BRANCH   1  11
ATOM     11  N   LIG d   1       4.610  -1.492  -5.326  0.00  0.00    -0.285 N 
ATOM     12  C   LIG d   1       4.610  -2.829  -5.152  0.00  0.00     0.214 C 
ATOM     13  O   LIG d   1       4.582  -3.295  -4.033  0.00  0.00    -0.276 OA
ATOM     14  H   LIG d   1       4.698  -1.119  -6.216  0.00  0.00     0.155 HD
BRANCH  12  15
ATOM     15  C   LIG d   1       4.637  -3.744  -6.349  0.00  0.00     0.013 C 
ATOM     16  H   LIG d   1       3.847  -4.489  -6.255  0.00  0.00     0.032 H 
ATOM     17  H   LIG d   1       4.479  -3.160  -7.256  0.00  0.00     0.032 H 
ATOM     18  H   LIG d   1       5.603  -4.244  -6.402  0.00  0.00     0.032 H 
ENDBRANCH  12  15
ENDBRANCH   1  11
BRANCH   6  19
ATOM     19  C   LIG d   1       6.897  -0.015  -4.499  0.00  0.00     0.071 C 
ATOM     20  H   LIG d   1       7.659   0.530  -3.941  0.00  0.00     0.061 H 
ATOM     21  H   LIG d   1       7.184  -1.064  -4.573  0.00  0.00     0.061 H 
BRANCH  19  22
ATOM     22  O   LIG d   1       6.777   0.540  -5.809  0.00  0.00    -0.390 OA
ATOM     23  H   LIG d   1       7.624   0.702  -6.247  0.00  0.00     0.210 HD
ENDBRANCH  19  22
ENDBRANCH   6  19
TORSDOF 4
ENDMDL
MODEL 9
REMARK VINA RESULT:      -4.4      2.151      3.393
REMARK  4 active torsions:
REMARK  status: ('A' for Active; 'I' for Inactive)
REMARK    1  A    between atoms: C_1  and  C_2 
REMARK       I    between atoms: C_2  and  N_4 
REMARK    2  A    between atoms: N_4  and  C_5 
REMARK    3  A    between atoms: C_10  and  C_11 
REMARK    4  A    between atoms: C_11  and  O_12 
ROOT
ATOM      1  C   LIG d   1       4.536  -0.491  -4.643  0.00  0.00     0.039 A 
ATOM      2  C   LIG d   1       3.229  -0.255  -4.233  0.00  0.00    -0.040 A 
ATOM      3  C   LIG d   1       2.739  -0.877  -3.102  0.00  0.00    -0.060 A 
ATOM      4  C   LIG d   1       3.550  -1.726  -2.372  0.00  0.00    -0.061 A 
ATOM      5  C   LIG d   1       4.852  -1.959  -2.773  0.00  0.00    -0.055 A 
ATOM      6  C   LIG d   1       5.347  -1.344  -3.906  0.00  0.00    -0.001 A 
ATOM      7  H   LIG d   1       2.598   0.411  -4.801  0.00  0.00     0.064 H 
ATOM      8  H   LIG d   1       1.722  -0.696  -2.786  0.00  0.00     0.062 H 
ATOM      9  H   LIG d   1       3.165  -2.208  -1.486  0.00  0.00     0.062 H 
ATOM     10  H   LIG d   1       5.482  -2.623  -2.200  0.00  0.00     0.062 H 
ENDROOT
BRANCH   1  11
ATOM     11  N   LIG d   1       5.035   0.134  -5.790  0.00  0.00    -0.285 N 
ATOM     12  C   LIG d   1       4.727  -0.351  -7.010  0.00  0.00     0.214 C 
ATOM     13  O   LIG d   1       4.084  -1.375  -7.111  0.00  0.00    -0.276 OA
ATOM     14  H   LIG d   1       5.603   0.916  -5.709  0.00  0.00     0.155 HD
BRANCH  12  15
ATOM     15  C   LIG d   1       5.174   0.383  -8.248  0.00  0.00     0.013 C 
ATOM     16  H   LIG d   1       4.302   0.667  -8.837  0.00  0.00     0.032 H 
ATOM     17  H   LIG d   1       5.725   1.278  -7.960  0.00  0.00     0.032 H 
ATOM     18  H   LIG d   1       5.818  -0.265  -8.842  0.00  0.00     0.032 H 
ENDBRANCH  12  15
ENDBRANCH   1  11
BRANCH   6  19
ATOM     19  C   LIG d   1       6.768  -1.597  -4.343  0.00  0.00     0.071 C 
ATOM     20  H   LIG d   1       6.825  -2.561  -4.850  0.00  0.00     0.061 H 
ATOM     21  H   LIG d   1       7.084  -0.809  -5.025  0.00  0.00     0.061 H 
BRANCH  19  22
ATOM     22  O   LIG d   1       7.622  -1.610  -3.198  0.00  0.00    -0.390 OA
ATOM     23  H   LIG d   1       7.898  -0.731  -2.905  0.00  0.00     0.210 HD
ENDBRANCH  19  22
ENDBRANCH   6  19
TORSDOF 4
ENDMDL
MODEL 10
REMARK VINA RESULT:      -4.3      3.485      5.517
REMARK  4 active torsions:
REMARK  status: ('A' for Active; 'I' for Inactive)
REMARK    1  A    between atoms: C_1  and  C_2 
REMARK       I    between atoms: C_2  and  N_4 
REMARK    2  A    between atoms: N_4  and  C_5 
REMARK    3  A    between atoms: C_10  and  C_11 
REMARK    4  A    between atoms: C_11  and  O_12 
ROOT
ATOM      1  C   LIG d   1       2.955   0.516  -8.069  0.00  0.00     0.039 A 
ATOM      2  C   LIG d   1       3.048   1.874  -8.347  0.00  0.00    -0.040 A 
ATOM      3  C   LIG d   1       3.462   2.295  -9.595  0.00  0.00    -0.060 A 
ATOM      4  C   LIG d   1       3.776   1.366 -10.571  0.00  0.00    -0.061 A 
ATOM      5  C   LIG d   1       3.681   0.014 -10.299  0.00  0.00    -0.055 A 
ATOM      6  C   LIG d   1       3.271  -0.413  -9.051  0.00  0.00    -0.001 A 
ATOM      7  H   LIG d   1       2.799   2.599  -7.587  0.00  0.00     0.064 H 
ATOM      8  H   LIG d   1       3.537   3.351  -9.811  0.00  0.00     0.062 H 
ATOM      9  H   LIG d   1       4.096   1.698 -11.547  0.00  0.00     0.062 H 
ATOM     10  H   LIG d   1       3.926  -0.708 -11.063  0.00  0.00     0.062 H 
ENDROOT
BRANCH   1  11
ATOM     11  N   LIG d   1       2.540   0.086  -6.804  0.00  0.00    -0.285 N 
ATOM     12  C   LIG d   1       3.430   0.006  -5.794  0.00  0.00     0.214 C 
ATOM     13  O   LIG d   1       4.604   0.229  -6.000  0.00  0.00    -0.276 OA
ATOM     14  H   LIG d   1       1.613  -0.155  -6.654  0.00  0.00     0.155 HD
BRANCH  12  15
ATOM     15  C   LIG d   1       2.963  -0.353  -4.406  0.00  0.00     0.013 C 
ATOM     16  H   LIG d   1       3.643   0.078  -3.671  0.00  0.00     0.032 H 
ATOM     17  H   LIG d   1       1.959   0.040  -4.247  0.00  0.00     0.032 H 
ATOM     18  H   LIG d   1       2.950  -1.437  -4.297  0.00  0.00     0.032 H 
ENDBRANCH  12  15
ENDBRANCH   1  11
BRANCH   6  19
ATOM     19  C   LIG d   1       3.166  -1.888  -8.755  0.00  0.00     0.071 C 
ATOM     20  H   LIG d   1       2.236  -2.086  -8.222  0.00  0.00     0.061 H 
ATOM     21  H   LIG d   1       3.174  -2.448  -9.690  0.00  0.00     0.061 H 
BRANCH  19  22
ATOM     22  O   LIG d   1       4.274  -2.291  -7.948  0.00  0.00    -0.390 OA
ATOM     23  H   LIG d   1       4.020  -2.703  -7.110  0.00  0.00     0.210 HD
ENDBRANCH  19  22
ENDBRANCH   6  19
TORSDOF 4
ENDMDL
