MODEL 1
REMARK VINA RESULT:      -5.4      0.000      0.000
REMARK  11 active torsions:
REMARK  status: ('A' for Active; 'I' for Inactive)
REMARK    1  A    between atoms: C_1  and  C_2 
REMARK    2  A    between atoms: C_5  and  O_27 
REMARK    3  A    between atoms: C_6  and  O_25 
REMARK    4  A    between atoms: C_12  and  C_13 
REMARK    5  A    between atoms: C_13  and  C_14 
REMARK       I    between atoms: C_14  and  N_16 
REMARK       I    between atoms: N_16  and  CA_17 
REMARK    6  A    between atoms: CA_17  and  CB_19 
REMARK       I    between atoms: CA_17  and  C_23 
REMARK    7  A    between atoms: CB_19  and  CG_20 
REMARK    8  A    between atoms: CG_20  and  SD_21 
REMARK    9  A    between atoms: SD_21  and  CE_22 
REMARK   10  A    between atoms: O_25  and  C_26 
REMARK   11  A    between atoms: O_27  and  C_28 
ROOT
ATOM      1  C   UNK d   0       6.756  -3.377  -5.235  0.00  0.00    -0.029 A 
ATOM      2  C   UNK d   0       6.179  -2.368  -4.344  0.00  0.00     0.025 A 
ATOM      3  C   UNK d   0       6.868  -1.184  -4.054  0.00  0.00    -0.005 A 
ATOM      4  C   UNK d   0       6.302  -0.257  -3.206  0.00  0.00     0.162 A 
ATOM      5  C   UNK d   0       5.047  -0.496  -2.639  0.00  0.00     0.165 A 
ATOM      6  C   UNK d   0       4.359  -1.664  -2.921  0.00  0.00     0.027 A 
ATOM      7  C   UNK d   0       4.916  -2.608  -3.773  0.00  0.00     0.143 A 
ATOM      8  O   UNK d   0       4.256  -3.751  -4.055  0.00  0.00    -0.422 OA
ATOM      9  C   UNK d   0       4.777  -4.677  -4.875  0.00  0.00     0.341 A 
ATOM     10  O   UNK d   0       4.145  -5.694  -5.101  0.00  0.00    -0.245 OA
ATOM     11  C   UNK d   0       6.038  -4.503  -5.482  0.00  0.00     0.049 A 
ATOM     12  H   UNK d   0       7.838  -1.000  -4.491  0.00  0.00     0.066 H 
ATOM     13  H   UNK d   0       3.391  -1.840  -2.479  0.00  0.00     0.069 H 
ENDROOT
BRANCH  11  14
ATOM     14  C   UNK d   0       6.589  -5.565  -6.398  0.00  0.00     0.056 C 
ATOM     15  H   UNK d   0       7.336  -5.124  -7.057  0.00  0.00     0.041 H 
ATOM     16  H   UNK d   0       5.779  -5.984  -6.997  0.00  0.00     0.041 H 
BRANCH  14  17
ATOM     17  C   UNK d   0       7.225  -6.657  -5.577  0.00  0.00     0.218 C 
ATOM     18  O   UNK d   0       8.386  -6.564  -5.240  0.00  0.00    -0.275 OA
ATOM     19  N   MET d   1       6.502  -7.736  -5.217  0.00  0.00    -0.307 N 
ATOM     20  CA  MET d   1       7.119  -8.798  -4.418  0.00  0.00     0.063 C 
ATOM     21  H   MET d   1       5.573  -7.810  -5.486  0.00  0.00     0.149 HD
ATOM     22  HA  MET d   1       7.834  -8.359  -3.720  0.00  0.00     0.056 H 
ATOM     23  C   MET d   1       7.836  -9.761  -5.330  0.00  0.00     0.062 C 
ATOM     24  O   MET d   1       7.829  -9.579  -6.524  0.00  0.00    -0.548 OA
ATOM     25  OXT MET d   1       8.478 -10.820  -4.815  0.00  0.00    -0.548 OA
BRANCH  20  26
ATOM     26  CB  MET d   1       6.037  -9.544  -3.636  0.00  0.00    -0.020 C 
ATOM     27  HB1 MET d   1       5.910  -9.079  -2.658  0.00  0.00     0.029 H 
ATOM     28  HB2 MET d   1       6.334 -10.584  -3.508  0.00  0.00     0.029 H 
BRANCH  26  29
ATOM     29  CG  MET d   1       4.717  -9.483  -4.406  0.00  0.00    -0.005 C 
ATOM     30  HG1 MET d   1       4.922  -9.438  -5.476  0.00  0.00     0.038 H 
ATOM     31  HG2 MET d   1       4.162  -8.594  -4.105  0.00  0.00     0.038 H 
BRANCH  29  32
ATOM     32  SD  MET d   1       3.733 -10.963  -4.041  0.00  0.00    -0.164 SA
BRANCH  32  33
ATOM     33  CE  MET d   1       3.760 -11.901  -5.592  0.00  0.00    -0.018 C 
ATOM     34  HE1 MET d   1       3.209 -11.355  -6.357  0.00  0.00     0.034 H 
ATOM     35  HE2 MET d   1       4.792 -12.040  -5.915  0.00  0.00     0.034 H 
ATOM     36  HE3 MET d   1       3.294 -12.875  -5.436  0.00  0.00     0.034 H 
ENDBRANCH  32  33
ENDBRANCH  29  32
ENDBRANCH  26  29
ENDBRANCH  20  26
ENDBRANCH  14  17
ENDBRANCH  11  14
BRANCH   1  37
ATOM     37  C   UNK d   0       8.109  -3.168  -5.866  0.00  0.00    -0.038 C 
ATOM     38  H   UNK d   0       8.889  -3.354  -5.126  0.00  0.00     0.028 H 
ATOM     39  H   UNK d   0       8.231  -3.858  -6.702  0.00  0.00     0.028 H 
ATOM     40  H   UNK d   0       8.188  -2.143  -6.226  0.00  0.00     0.028 H 
ENDBRANCH   1  37
BRANCH   4  41
ATOM     41  O   UNK d   0       6.968   0.895  -2.921  0.00  0.00    -0.491 OA
BRANCH  41  42
ATOM     42  C   UNK d   0       7.864   1.391  -3.917  0.00  0.00     0.079 C 
ATOM     43  H   UNK d   0       8.637   0.647  -4.112  0.00  0.00     0.066 H 
ATOM     44  H   UNK d   0       7.312   1.591  -4.835  0.00  0.00     0.066 H 
ATOM     45  H   UNK d   0       8.326   2.312  -3.563  0.00  0.00     0.066 H 
ENDBRANCH  41  42
ENDBRANCH   4  41
BRANCH   5  46
ATOM     46  O   UNK d   0       4.497   0.424  -1.805  0.00  0.00    -0.491 OA
BRANCH  46  47
ATOM     47  C   UNK d   0       3.561   1.340  -2.376  0.00  0.00     0.079 C 
ATOM     48  H   UNK d   0       3.872   1.595  -3.388  0.00  0.00     0.066 H 
ATOM     49  H   UNK d   0       2.574   0.878  -2.405  0.00  0.00     0.066 H 
ATOM     50  H   UNK d   0       3.522   2.244  -1.769  0.00  0.00     0.066 H 
ENDBRANCH  46  47
ENDBRANCH   5  46
TORSDOF 13
ENDMDL
MODEL 2
REMARK VINA RESULT:      -5.2      5.379      9.028
REMARK  11 active torsions:
REMARK  status: ('A' for Active; 'I' for Inactive)
REMARK    1  A    between atoms: C_1  and  C_2 
REMARK    2  A    between atoms: C_5  and  O_27 
REMARK    3  A    between atoms: C_6  and  O_25 
REMARK    4  A    between atoms: C_12  and  C_13 
REMARK    5  A    between atoms: C_13  and  C_14 
REMARK       I    between atoms: C_14  and  N_16 
REMARK       I    between atoms: N_16  and  CA_17 
REMARK    6  A    between atoms: CA_17  and  CB_19 
REMARK       I    between atoms: CA_17  and  C_23 
REMARK    7  A    between atoms: CB_19  and  CG_20 
REMARK    8  A    between atoms: CG_20  and  SD_21 
REMARK    9  A    between atoms: SD_21  and  CE_22 
REMARK   10  A    between atoms: O_25  and  C_26 
REMARK   11  A    between atoms: O_27  and  C_28 
ROOT
ATOM      1  C   UNK d   0       2.660  -1.669  -9.058  0.00  0.00    -0.029 A 
ATOM      2  C   UNK d   0       2.345  -2.975  -9.641  0.00  0.00     0.025 A 
ATOM      3  C   UNK d   0       1.291  -3.121 -10.552  0.00  0.00    -0.005 A 
ATOM      4  C   UNK d   0       1.014  -4.363 -11.079  0.00  0.00     0.162 A 
ATOM      5  C   UNK d   0       1.779  -5.472 -10.707  0.00  0.00     0.165 A 
ATOM      6  C   UNK d   0       2.823  -5.336  -9.808  0.00  0.00     0.027 A 
ATOM      7  C   UNK d   0       3.114  -4.091  -9.268  0.00  0.00     0.143 A 
ATOM      8  O   UNK d   0       4.129  -3.944  -8.389  0.00  0.00    -0.422 OA
ATOM      9  C   UNK d   0       4.427  -2.750  -7.855  0.00  0.00     0.341 A 
ATOM     10  O   UNK d   0       5.351  -2.666  -7.066  0.00  0.00    -0.245 OA
ATOM     11  C   UNK d   0       3.697  -1.589  -8.184  0.00  0.00     0.049 A 
ATOM     12  H   UNK d   0       0.699  -2.264 -10.839  0.00  0.00     0.066 H 
ATOM     13  H   UNK d   0       3.409  -6.197  -9.527  0.00  0.00     0.069 H 
ENDROOT
BRANCH  11  14
ATOM     14  C   UNK d   0       4.063  -0.265  -7.564  0.00  0.00     0.056 C 
ATOM     15  H   UNK d   0       3.728   0.545  -8.212  0.00  0.00     0.041 H 
ATOM     16  H   UNK d   0       5.145  -0.208  -7.442  0.00  0.00     0.041 H 
BRANCH  14  17
ATOM     17  C   UNK d   0       3.397  -0.139  -6.218  0.00  0.00     0.218 C 
ATOM     18  O   UNK d   0       2.382   0.514  -6.102  0.00  0.00    -0.275 OA
ATOM     19  N   MET d   1       3.930  -0.754  -5.143  0.00  0.00    -0.307 N 
ATOM     20  CA  MET d   1       3.283  -0.632  -3.834  0.00  0.00     0.063 C 
ATOM     21  H   MET d   1       4.742  -1.276  -5.236  0.00  0.00     0.149 HD
ATOM     22  HA  MET d   1       2.201  -0.598  -3.965  0.00  0.00     0.056 H 
ATOM     23  C   MET d   1       3.746   0.635  -3.161  0.00  0.00     0.062 C 
ATOM     24  O   MET d   1       4.537   1.360  -3.717  0.00  0.00    -0.548 OA
ATOM     25  OXT MET d   1       3.282   0.955  -1.943  0.00  0.00    -0.548 OA
BRANCH  20  26
ATOM     26  CB  MET d   1       3.654  -1.836  -2.968  0.00  0.00    -0.020 C 
ATOM     27  HB1 MET d   1       2.774  -2.464  -2.822  0.00  0.00     0.029 H 
ATOM     28  HB2 MET d   1       4.016  -1.489  -2.000  0.00  0.00     0.029 H 
BRANCH  26  29
ATOM     29  CG  MET d   1       4.751  -2.647  -3.661  0.00  0.00    -0.005 C 
ATOM     30  HG1 MET d   1       4.609  -2.599  -4.741  0.00  0.00     0.038 H 
ATOM     31  HG2 MET d   1       4.697  -3.685  -3.333  0.00  0.00     0.038 H 
BRANCH  29  32
ATOM     32  SD  MET d   1       6.374  -1.960  -3.232  0.00  0.00    -0.164 SA
BRANCH  32  33
ATOM     33  CE  MET d   1       7.533  -2.895  -4.267  0.00  0.00    -0.018 C 
ATOM     34  HE1 MET d   1       8.066  -3.619  -3.653  0.00  0.00     0.034 H 
ATOM     35  HE2 MET d   1       6.982  -3.417  -5.049  0.00  0.00     0.034 H 
ATOM     36  HE3 MET d   1       8.248  -2.209  -4.723  0.00  0.00     0.034 H 
ENDBRANCH  32  33
ENDBRANCH  29  32
ENDBRANCH  26  29
ENDBRANCH  20  26
ENDBRANCH  14  17
ENDBRANCH  11  14
BRANCH   1  37
ATOM     37  C   UNK d   0       1.859  -0.444  -9.422  0.00  0.00    -0.038 C 
ATOM     38  H   UNK d   0       0.915  -0.749  -9.875  0.00  0.00     0.028 H 
ATOM     39  H   UNK d   0       1.660   0.140  -8.524  0.00  0.00     0.028 H 
ATOM     40  H   UNK d   0       2.423   0.161 -10.132  0.00  0.00     0.028 H 
ENDBRANCH   1  37
BRANCH   4  41
ATOM     41  O   UNK d   0      -0.009  -4.511 -11.964  0.00  0.00    -0.491 OA
BRANCH  41  42
ATOM     42  C   UNK d   0      -1.322  -4.662 -11.419  0.00  0.00     0.079 C 
ATOM     43  H   UNK d   0      -1.947  -3.831 -11.744  0.00  0.00     0.066 H 
ATOM     44  H   UNK d   0      -1.753  -5.600 -11.768  0.00  0.00     0.066 H 
ATOM     45  H   UNK d   0      -1.264  -4.670 -10.331  0.00  0.00     0.066 H 
ENDBRANCH  41  42
ENDBRANCH   4  41
BRANCH   5  46
ATOM     46  O   UNK d   0       1.499  -6.692 -11.232  0.00  0.00    -0.491 OA
BRANCH  46  47
ATOM     47  C   UNK d   0       0.837  -7.629 -10.381  0.00  0.00     0.079 C 
ATOM     48  H   UNK d   0       0.221  -7.093  -9.659  0.00  0.00     0.066 H 
ATOM     49  H   UNK d   0       0.205  -8.282 -10.983  0.00  0.00     0.066 H 
ATOM     50  H   UNK d   0       1.579  -8.227  -9.852  0.00  0.00     0.066 H 
ENDBRANCH  46  47
ENDBRANCH   5  46
TORSDOF 13
ENDMDL
MODEL 3
REMARK VINA RESULT:      -5.2      5.608      9.311
REMARK  11 active torsions:
REMARK  status: ('A' for Active; 'I' for Inactive)
REMARK    1  A    between atoms: C_1  and  C_2 
REMARK    2  A    between atoms: C_5  and  O_27 
REMARK    3  A    between atoms: C_6  and  O_25 
REMARK    4  A    between atoms: C_12  and  C_13 
REMARK    5  A    between atoms: C_13  and  C_14 
REMARK       I    between atoms: C_14  and  N_16 
REMARK       I    between atoms: N_16  and  CA_17 
REMARK    6  A    between atoms: CA_17  and  CB_19 
REMARK       I    between atoms: CA_17  and  C_23 
REMARK    7  A    between atoms: CB_19  and  CG_20 
REMARK    8  A    between atoms: CG_20  and  SD_21 
REMARK    9  A    between atoms: SD_21  and  CE_22 
REMARK   10  A    between atoms: O_25  and  C_26 
REMARK   11  A    between atoms: O_27  and  C_28 
ROOT
ATOM      1  C   UNK d   0       9.742   4.270  -5.600  0.00  0.00    -0.029 A 
ATOM      2  C   UNK d   0       9.778   5.571  -4.929  0.00  0.00     0.025 A 
ATOM      3  C   UNK d   0       9.659   6.760  -5.657  0.00  0.00    -0.005 A 
ATOM      4  C   UNK d   0       9.703   7.970  -4.999  0.00  0.00     0.162 A 
ATOM      5  C   UNK d   0       9.864   8.010  -3.611  0.00  0.00     0.165 A 
ATOM      6  C   UNK d   0       9.981   6.839  -2.884  0.00  0.00     0.027 A 
ATOM      7  C   UNK d   0       9.940   5.612  -3.533  0.00  0.00     0.143 A 
ATOM      8  O   UNK d   0      10.053   4.462  -2.834  0.00  0.00    -0.422 OA
ATOM      9  C   UNK d   0      10.017   3.266  -3.443  0.00  0.00     0.341 A 
ATOM     10  O   UNK d   0      10.124   2.255  -2.772  0.00  0.00    -0.245 OA
ATOM     11  C   UNK d   0       9.857   3.151  -4.839  0.00  0.00     0.049 A 
ATOM     12  H   UNK d   0       9.535   6.730  -6.730  0.00  0.00     0.066 H 
ATOM     13  H   UNK d   0      10.105   6.879  -1.813  0.00  0.00     0.069 H 
ENDROOT
BRANCH  11  14
ATOM     14  C   UNK d   0       9.820   1.789  -5.485  0.00  0.00     0.056 C 
ATOM     15  H   UNK d   0      10.553   1.140  -5.007  0.00  0.00     0.041 H 
ATOM     16  H   UNK d   0      10.055   1.885  -6.546  0.00  0.00     0.041 H 
BRANCH  14  17
ATOM     17  C   UNK d   0       8.444   1.195  -5.326  0.00  0.00     0.218 C 
ATOM     18  O   UNK d   0       7.575   1.454  -6.132  0.00  0.00    -0.275 OA
ATOM     19  N   MET d   1       8.180   0.375  -4.290  0.00  0.00    -0.307 N 
ATOM     20  CA  MET d   1       6.843  -0.203  -4.135  0.00  0.00     0.063 C 
ATOM     21  H   MET d   1       8.875   0.168  -3.646  0.00  0.00     0.149 HD
ATOM     22  HA  MET d   1       6.420  -0.410  -5.119  0.00  0.00     0.056 H 
ATOM     23  C   MET d   1       5.955   0.772  -3.404  0.00  0.00     0.062 C 
ATOM     24  O   MET d   1       6.396   1.839  -3.048  0.00  0.00    -0.548 OA
ATOM     25  OXT MET d   1       4.678   0.454  -3.148  0.00  0.00    -0.548 OA
BRANCH  20  26
ATOM     26  CB  MET d   1       6.938  -1.504  -3.338  0.00  0.00    -0.020 C 
ATOM     27  HB1 MET d   1       6.141  -1.534  -2.594  0.00  0.00     0.029 H 
ATOM     28  HB2 MET d   1       7.904  -1.552  -2.836  0.00  0.00     0.029 H 
BRANCH  26  29
ATOM     29  CG  MET d   1       6.797  -2.696  -4.286  0.00  0.00    -0.005 C 
ATOM     30  HG1 MET d   1       7.271  -3.571  -3.842  0.00  0.00     0.038 H 
ATOM     31  HG2 MET d   1       7.280  -2.464  -5.235  0.00  0.00     0.038 H 
BRANCH  29  32
ATOM     32  SD  MET d   1       5.038  -3.039  -4.570  0.00  0.00    -0.164 SA
BRANCH  32  33
ATOM     33  CE  MET d   1       4.759  -2.511  -6.282  0.00  0.00    -0.018 C 
ATOM     34  HE1 MET d   1       4.202  -3.282  -6.814  0.00  0.00     0.034 H 
ATOM     35  HE2 MET d   1       4.190  -1.582  -6.287  0.00  0.00     0.034 H 
ATOM     36  HE3 MET d   1       5.719  -2.352  -6.775  0.00  0.00     0.034 H 
ENDBRANCH  32  33
ENDBRANCH  29  32
ENDBRANCH  26  29
ENDBRANCH  20  26
ENDBRANCH  14  17
ENDBRANCH  11  14
BRANCH   1  37
ATOM     37  C   UNK d   0       9.577   4.175  -7.095  0.00  0.00    -0.038 C 
ATOM     38  H   UNK d   0      10.527   4.403  -7.582  0.00  0.00     0.028 H 
ATOM     39  H   UNK d   0       9.265   3.164  -7.363  0.00  0.00     0.028 H 
ATOM     40  H   UNK d   0       8.821   4.888  -7.424  0.00  0.00     0.028 H 
ENDBRANCH   1  37
BRANCH   4  41
ATOM     41  O   UNK d   0       9.589   9.129  -5.703  0.00  0.00    -0.491 OA
BRANCH  41  42
ATOM     42  C   UNK d   0       9.510   9.020  -7.126  0.00  0.00     0.079 C 
ATOM     43  H   UNK d   0       8.968   9.877  -7.525  0.00  0.00     0.066 H 
ATOM     44  H   UNK d   0      10.516   8.998  -7.544  0.00  0.00     0.066 H 
ATOM     45  H   UNK d   0       8.986   8.102  -7.391  0.00  0.00     0.066 H 
ENDBRANCH  41  42
ENDBRANCH   4  41
BRANCH   5  46
ATOM     46  O   UNK d   0       9.905   9.207  -2.971  0.00  0.00    -0.491 OA
BRANCH  46  47
ATOM     47  C   UNK d   0      11.178   9.643  -2.490  0.00  0.00     0.079 C 
ATOM     48  H   UNK d   0      11.728  10.121  -3.300  0.00  0.00     0.066 H 
ATOM     49  H   UNK d   0      11.034  10.355  -1.679  0.00  0.00     0.066 H 
ATOM     50  H   UNK d   0      11.742   8.785  -2.126  0.00  0.00     0.066 H 
ENDBRANCH  46  47
ENDBRANCH   5  46
TORSDOF 13
ENDMDL
MODEL 4
REMARK VINA RESULT:      -5.1      6.283      8.690
REMARK  11 active torsions:
REMARK  status: ('A' for Active; 'I' for Inactive)
REMARK    1  A    between atoms: C_1  and  C_2 
REMARK    2  A    between atoms: C_5  and  O_27 
REMARK    3  A    between atoms: C_6  and  O_25 
REMARK    4  A    between atoms: C_12  and  C_13 
REMARK    5  A    between atoms: C_13  and  C_14 
REMARK       I    between atoms: C_14  and  N_16 
REMARK       I    between atoms: N_16  and  CA_17 
REMARK    6  A    between atoms: CA_17  and  CB_19 
REMARK       I    between atoms: CA_17  and  C_23 
REMARK    7  A    between atoms: CB_19  and  CG_20 
REMARK    8  A    between atoms: CG_20  and  SD_21 
REMARK    9  A    between atoms: SD_21  and  CE_22 
REMARK   10  A    between atoms: O_25  and  C_26 
REMARK   11  A    between atoms: O_27  and  C_28 
ROOT
ATOM      1  C   UNK d   0       8.684   2.252  -5.081  0.00  0.00    -0.029 A 
ATOM      2  C   UNK d   0       9.033   3.095  -6.227  0.00  0.00     0.025 A 
ATOM      3  C   UNK d   0       9.662   4.332  -6.045  0.00  0.00    -0.005 A 
ATOM      4  C   UNK d   0       9.973   5.106  -7.141  0.00  0.00     0.162 A 
ATOM      5  C   UNK d   0       9.661   4.659  -8.429  0.00  0.00     0.165 A 
ATOM      6  C   UNK d   0       9.040   3.437  -8.617  0.00  0.00     0.027 A 
ATOM      7  C   UNK d   0       8.720   2.646  -7.522  0.00  0.00     0.143 A 
ATOM      8  O   UNK d   0       8.113   1.452  -7.692  0.00  0.00    -0.422 OA
ATOM      9  C   UNK d   0       7.795   0.672  -6.646  0.00  0.00     0.341 A 
ATOM     10  O   UNK d   0       7.248  -0.397  -6.847  0.00  0.00    -0.245 OA
ATOM     11  C   UNK d   0       8.079   1.060  -5.321  0.00  0.00     0.049 A 
ATOM     12  H   UNK d   0       9.903   4.679  -5.051  0.00  0.00     0.066 H 
ATOM     13  H   UNK d   0       8.803   3.099  -9.614  0.00  0.00     0.069 H 
ENDROOT
BRANCH  11  14
ATOM     14  C   UNK d   0       7.707   0.156  -4.173  0.00  0.00     0.056 C 
ATOM     15  H   UNK d   0       8.359   0.361  -3.324  0.00  0.00     0.041 H 
ATOM     16  H   UNK d   0       7.824  -0.884  -4.478  0.00  0.00     0.041 H 
BRANCH  14  17
ATOM     17  C   UNK d   0       6.275   0.408  -3.778  0.00  0.00     0.218 C 
ATOM     18  O   UNK d   0       6.024   0.974  -2.736  0.00  0.00    -0.275 OA
ATOM     19  N   MET d   1       5.274   0.003  -4.585  0.00  0.00    -0.307 N 
ATOM     20  CA  MET d   1       3.881   0.247  -4.202  0.00  0.00     0.063 C 
ATOM     21  H   MET d   1       5.475  -0.450  -5.419  0.00  0.00     0.149 HD
ATOM     22  HA  MET d   1       3.810   1.201  -3.677  0.00  0.00     0.056 H 
ATOM     23  C   MET d   1       3.407  -0.860  -3.296  0.00  0.00     0.062 C 
ATOM     24  O   MET d   1       4.156  -1.762  -3.003  0.00  0.00    -0.548 OA
ATOM     25  OXT MET d   1       2.153  -0.845  -2.818  0.00  0.00    -0.548 OA
BRANCH  20  26
ATOM     26  CB  MET d   1       3.007   0.292  -5.456  0.00  0.00    -0.020 C 
ATOM     27  HB1 MET d   1       2.789   1.329  -5.712  0.00  0.00     0.029 H 
ATOM     28  HB2 MET d   1       2.074  -0.238  -5.266  0.00  0.00     0.029 H 
BRANCH  26  29
ATOM     29  CG  MET d   1       3.745  -0.376  -6.617  0.00  0.00    -0.005 C 
ATOM     30  HG1 MET d   1       3.823  -1.448  -6.430  0.00  0.00     0.038 H 
ATOM     31  HG2 MET d   1       4.744   0.050  -6.705  0.00  0.00     0.038 H 
BRANCH  29  32
ATOM     32  SD  MET d   1       2.830  -0.096  -8.158  0.00  0.00    -0.164 SA
BRANCH  32  33
ATOM     33  CE  MET d   1       2.936   1.696  -8.412  0.00  0.00    -0.018 C 
ATOM     34  HE1 MET d   1       3.911   2.053  -8.081  0.00  0.00     0.034 H 
ATOM     35  HE2 MET d   1       2.806   1.921  -9.471  0.00  0.00     0.034 H 
ATOM     36  HE3 MET d   1       2.153   2.192  -7.836  0.00  0.00     0.034 H 
ENDBRANCH  32  33
ENDBRANCH  29  32
ENDBRANCH  26  29
ENDBRANCH  20  26
ENDBRANCH  14  17
ENDBRANCH  11  14
BRANCH   1  37
ATOM     37  C   UNK d   0       8.993   2.694  -3.673  0.00  0.00    -0.038 C 
ATOM     38  H   UNK d   0       9.203   1.819  -3.055  0.00  0.00     0.028 H 
ATOM     39  H   UNK d   0       9.864   3.350  -3.681  0.00  0.00     0.028 H 
ATOM     40  H   UNK d   0       8.137   3.230  -3.264  0.00  0.00     0.028 H 
ENDBRANCH   1  37
BRANCH   4  41
ATOM     41  O   UNK d   0      10.584   6.310  -6.971  0.00  0.00    -0.491 OA
BRANCH  41  42
ATOM     42  C   UNK d   0       9.768   7.394  -6.520  0.00  0.00     0.079 C 
ATOM     43  H   UNK d   0       9.052   7.657  -7.299  0.00  0.00     0.066 H 
ATOM     44  H   UNK d   0       9.233   7.095  -5.619  0.00  0.00     0.066 H 
ATOM     45  H   UNK d   0      10.398   8.255  -6.300  0.00  0.00     0.066 H 
ENDBRANCH  41  42
ENDBRANCH   4  41
BRANCH   5  46
ATOM     46  O   UNK d   0       9.971   5.429  -9.504  0.00  0.00    -0.491 OA
BRANCH  46  47
ATOM     47  C   UNK d   0       8.891   6.100 -10.156  0.00  0.00     0.079 C 
ATOM     48  H   UNK d   0       9.204   6.408 -11.153  0.00  0.00     0.066 H 
ATOM     49  H   UNK d   0       8.040   5.425 -10.234  0.00  0.00     0.066 H 
ATOM     50  H   UNK d   0       8.607   6.978  -9.576  0.00  0.00     0.066 H 
ENDBRANCH  46  47
ENDBRANCH   5  46
TORSDOF 13
ENDMDL
MODEL 5
REMARK VINA RESULT:      -5.1      6.399      8.949
REMARK  11 active torsions:
REMARK  status: ('A' for Active; 'I' for Inactive)
REMARK    1  A    between atoms: C_1  and  C_2 
REMARK    2  A    between atoms: C_5  and  O_27 
REMARK    3  A    between atoms: C_6  and  O_25 
REMARK    4  A    between atoms: C_12  and  C_13 
REMARK    5  A    between atoms: C_13  and  C_14 
REMARK       I    between atoms: C_14  and  N_16 
REMARK       I    between atoms: N_16  and  CA_17 
REMARK    6  A    between atoms: CA_17  and  CB_19 
REMARK       I    between atoms: CA_17  and  C_23 
REMARK    7  A    between atoms: CB_19  and  CG_20 
REMARK    8  A    between atoms: CG_20  and  SD_21 
REMARK    9  A    between atoms: SD_21  and  CE_22 
REMARK   10  A    between atoms: O_25  and  C_26 
REMARK   11  A    between atoms: O_27  and  C_28 
ROOT
ATOM      1  C   UNK d   0       8.604  -9.330  -3.037  0.00  0.00    -0.029 A 
ATOM      2  C   UNK d   0       7.157  -9.497  -3.191  0.00  0.00     0.025 A 
ATOM      3  C   UNK d   0       6.475  -8.910  -4.264  0.00  0.00    -0.005 A 
ATOM      4  C   UNK d   0       5.112  -9.078  -4.379  0.00  0.00     0.162 A 
ATOM      5  C   UNK d   0       4.414  -9.830  -3.430  0.00  0.00     0.165 A 
ATOM      6  C   UNK d   0       5.081 -10.413  -2.366  0.00  0.00     0.027 A 
ATOM      7  C   UNK d   0       6.453 -10.253  -2.237  0.00  0.00     0.143 A 
ATOM      8  O   UNK d   0       7.116 -10.816  -1.203  0.00  0.00    -0.422 OA
ATOM      9  C   UNK d   0       8.442 -10.672  -1.060  0.00  0.00     0.341 A 
ATOM     10  O   UNK d   0       8.997 -11.198  -0.111  0.00  0.00    -0.245 OA
ATOM     11  C   UNK d   0       9.210  -9.927  -1.979  0.00  0.00     0.049 A 
ATOM     12  H   UNK d   0       7.014  -8.329  -4.998  0.00  0.00     0.066 H 
ATOM     13  H   UNK d   0       4.534 -10.992  -1.638  0.00  0.00     0.069 H 
ENDROOT
BRANCH  11  14
ATOM     14  C   UNK d   0      10.698  -9.790  -1.783  0.00  0.00     0.056 C 
ATOM     15  H   UNK d   0      11.154  -9.431  -2.706  0.00  0.00     0.041 H 
ATOM     16  H   UNK d   0      11.121 -10.761  -1.523  0.00  0.00     0.041 H 
BRANCH  14  17
ATOM     17  C   UNK d   0      10.971  -8.808  -0.673  0.00  0.00     0.218 C 
ATOM     18  O   UNK d   0      10.946  -7.617  -0.897  0.00  0.00    -0.275 OA
ATOM     19  N   MET d   1      11.242  -9.256   0.569  0.00  0.00    -0.307 N 
ATOM     20  CA  MET d   1      11.508  -8.302   1.649  0.00  0.00     0.063 C 
ATOM     21  H   MET d   1      11.262 -10.209   0.749  0.00  0.00     0.149 HD
ATOM     22  HA  MET d   1      10.890  -7.413   1.509  0.00  0.00     0.056 H 
ATOM     23  C   MET d   1      12.963  -7.910   1.628  0.00  0.00     0.062 C 
ATOM     24  O   MET d   1      13.702  -8.381   0.796  0.00  0.00    -0.548 OA
ATOM     25  OXT MET d   1      13.437  -7.040   2.533  0.00  0.00    -0.548 OA
BRANCH  20  26
ATOM     26  CB  MET d   1      11.172  -8.947   2.994  0.00  0.00    -0.020 C 
ATOM     27  HB1 MET d   1      10.138  -9.295   2.983  0.00  0.00     0.029 H 
ATOM     28  HB2 MET d   1      11.300  -8.214   3.790  0.00  0.00     0.029 H 
BRANCH  26  29
ATOM     29  CG  MET d   1      12.107 -10.133   3.239  0.00  0.00    -0.005 C 
ATOM     30  HG1 MET d   1      12.778  -9.902   4.067  0.00  0.00     0.038 H 
ATOM     31  HG2 MET d   1      12.692 -10.326   2.340  0.00  0.00     0.038 H 
BRANCH  29  32
ATOM     32  SD  MET d   1      11.126 -11.603   3.649  0.00  0.00    -0.164 SA
BRANCH  32  33
ATOM     33  CE  MET d   1      11.799 -12.150   5.241  0.00  0.00    -0.018 C 
ATOM     34  HE1 MET d   1      12.388 -11.347   5.683  0.00  0.00     0.034 H 
ATOM     35  HE2 MET d   1      10.980 -12.413   5.911  0.00  0.00     0.034 H 
ATOM     36  HE3 MET d   1      12.435 -13.023   5.086  0.00  0.00     0.034 H 
ENDBRANCH  32  33
ENDBRANCH  29  32
ENDBRANCH  26  29
ENDBRANCH  20  26
ENDBRANCH  14  17
ENDBRANCH  11  14
BRANCH   1  37
ATOM     37  C   UNK d   0       9.400  -8.524  -4.031  0.00  0.00    -0.038 C 
ATOM     38  H   UNK d   0       8.800  -8.353  -4.926  0.00  0.00     0.028 H 
ATOM     39  H   UNK d   0       9.670  -7.565  -3.587  0.00  0.00     0.028 H 
ATOM     40  H   UNK d   0      10.305  -9.068  -4.300  0.00  0.00     0.028 H 
ENDBRANCH   1  37
BRANCH   4  41
ATOM     41  O   UNK d   0       4.444  -8.510  -5.419  0.00  0.00    -0.491 OA
BRANCH  41  42
ATOM     42  C   UNK d   0       4.778  -8.966  -6.732  0.00  0.00     0.079 C 
ATOM     43  H   UNK d   0       4.357  -9.960  -6.888  0.00  0.00     0.066 H 
ATOM     44  H   UNK d   0       4.370  -8.277  -7.471  0.00  0.00     0.066 H 
ATOM     45  H   UNK d   0       5.862  -9.011  -6.836  0.00  0.00     0.066 H 
ENDBRANCH  41  42
ENDBRANCH   4  41
BRANCH   5  46
ATOM     46  O   UNK d   0       3.071  -9.990  -3.551  0.00  0.00    -0.491 OA
BRANCH  46  47
ATOM     47  C   UNK d   0       2.609 -11.250  -4.044  0.00  0.00     0.079 C 
ATOM     48  H   UNK d   0       1.863 -11.085  -4.820  0.00  0.00     0.066 H 
ATOM     49  H   UNK d   0       3.449 -11.806  -4.459  0.00  0.00     0.066 H 
ATOM     50  H   UNK d   0       2.165 -11.818  -3.227  0.00  0.00     0.066 H 
ENDBRANCH  46  47
ENDBRANCH   5  46
TORSDOF 13
ENDMDL
MODEL 6
REMARK VINA RESULT:      -5.0      5.432      9.056
REMARK  11 active torsions:
REMARK  status: ('A' for Active; 'I' for Inactive)
REMARK    1  A    between atoms: C_1  and  C_2 
REMARK    2  A    between atoms: C_5  and  O_27 
REMARK    3  A    between atoms: C_6  and  O_25 
REMARK    4  A    between atoms: C_12  and  C_13 
REMARK    5  A    between atoms: C_13  and  C_14 
REMARK       I    between atoms: C_14  and  N_16 
REMARK       I    between atoms: N_16  and  CA_17 
REMARK    6  A    between atoms: CA_17  and  CB_19 
REMARK       I    between atoms: CA_17  and  C_23 
REMARK    7  A    between atoms: CB_19  and  CG_20 
REMARK    8  A    between atoms: CG_20  and  SD_21 
REMARK    9  A    between atoms: SD_21  and  CE_22 
REMARK   10  A    between atoms: O_25  and  C_26 
REMARK   11  A    between atoms: O_27  and  C_28 
ROOT
ATOM      1  C   UNK d   0       9.747   3.549  -4.414  0.00  0.00    -0.029 A 
ATOM      2  C   UNK d   0       9.777   5.013  -4.445  0.00  0.00     0.025 A 
ATOM      3  C   UNK d   0       9.855   5.757  -3.261  0.00  0.00    -0.005 A 
ATOM      4  C   UNK d   0       9.875   7.133  -3.321  0.00  0.00     0.162 A 
ATOM      5  C   UNK d   0       9.819   7.784  -4.557  0.00  0.00     0.165 A 
ATOM      6  C   UNK d   0       9.743   7.056  -5.732  0.00  0.00     0.027 A 
ATOM      7  C   UNK d   0       9.721   5.669  -5.687  0.00  0.00     0.143 A 
ATOM      8  O   UNK d   0       9.646   4.946  -6.826  0.00  0.00    -0.422 OA
ATOM      9  C   UNK d   0       9.623   3.605  -6.805  0.00  0.00     0.341 A 
ATOM     10  O   UNK d   0       9.555   2.995  -7.857  0.00  0.00    -0.245 OA
ATOM     11  C   UNK d   0       9.676   2.882  -5.595  0.00  0.00     0.049 A 
ATOM     12  H   UNK d   0       9.897   5.254  -2.306  0.00  0.00     0.066 H 
ATOM     13  H   UNK d   0       9.700   7.566  -6.681  0.00  0.00     0.069 H 
ENDROOT
BRANCH  11  14
ATOM     14  C   UNK d   0       9.649   1.376  -5.613  0.00  0.00     0.056 C 
ATOM     15  H   UNK d   0      10.281   0.992  -4.812  0.00  0.00     0.041 H 
ATOM     16  H   UNK d   0      10.022   1.017  -6.573  0.00  0.00     0.041 H 
BRANCH  14  17
ATOM     17  C   UNK d   0       8.235   0.895  -5.411  0.00  0.00     0.218 C 
ATOM     18  O   UNK d   0       7.364   1.235  -6.183  0.00  0.00    -0.275 OA
ATOM     19  N   MET d   1       7.940   0.088  -4.373  0.00  0.00    -0.307 N 
ATOM     20  CA  MET d   1       6.565  -0.378  -4.177  0.00  0.00     0.063 C 
ATOM     21  H   MET d   1       8.637  -0.183  -3.755  0.00  0.00     0.149 HD
ATOM     22  HA  MET d   1       6.094  -0.539  -5.147  0.00  0.00     0.056 H 
ATOM     23  C   MET d   1       5.787   0.658  -3.407  0.00  0.00     0.062 C 
ATOM     24  O   MET d   1       6.327   1.681  -3.058  0.00  0.00    -0.548 OA
ATOM     25  OXT MET d   1       4.497   0.443  -3.109  0.00  0.00    -0.548 OA
BRANCH  20  26
ATOM     26  CB  MET d   1       6.579  -1.692  -3.394  0.00  0.00    -0.020 C 
ATOM     27  HB1 MET d   1       6.265  -1.507  -2.366  0.00  0.00     0.029 H 
ATOM     28  HB2 MET d   1       7.588  -2.104  -3.396  0.00  0.00     0.029 H 
BRANCH  26  29
ATOM     29  CG  MET d   1       5.621  -2.688  -4.049  0.00  0.00    -0.005 C 
ATOM     30  HG1 MET d   1       4.608  -2.508  -3.688  0.00  0.00     0.038 H 
ATOM     31  HG2 MET d   1       5.922  -3.704  -3.794  0.00  0.00     0.038 H 
BRANCH  29  32
ATOM     32  SD  MET d   1       5.667  -2.478  -5.851  0.00  0.00    -0.164 SA
BRANCH  32  33
ATOM     33  CE  MET d   1       4.550  -3.764  -6.471  0.00  0.00    -0.018 C 
ATOM     34  HE1 MET d   1       5.112  -4.682  -6.643  0.00  0.00     0.034 H 
ATOM     35  HE2 MET d   1       3.766  -3.949  -5.737  0.00  0.00     0.034 H 
ATOM     36  HE3 MET d   1       4.100  -3.434  -7.408  0.00  0.00     0.034 H 
ENDBRANCH  32  33
ENDBRANCH  29  32
ENDBRANCH  26  29
ENDBRANCH  20  26
ENDBRANCH  14  17
ENDBRANCH  11  14
BRANCH   1  37
ATOM     37  C   UNK d   0       9.798   2.802  -3.105  0.00  0.00    -0.038 C 
ATOM     38  H   UNK d   0       8.845   2.298  -2.936  0.00  0.00     0.028 H 
ATOM     39  H   UNK d   0      10.599   2.062  -3.141  0.00  0.00     0.028 H 
ATOM     40  H   UNK d   0       9.987   3.503  -2.293  0.00  0.00     0.028 H 
ENDBRANCH   1  37
BRANCH   4  41
ATOM     41  O   UNK d   0       9.949   7.861  -2.174  0.00  0.00    -0.491 OA
BRANCH  41  42
ATOM     42  C   UNK d   0      10.131   7.136  -0.956  0.00  0.00     0.079 C 
ATOM     43  H   UNK d   0      10.001   7.810  -0.110  0.00  0.00     0.066 H 
ATOM     44  H   UNK d   0       9.398   6.333  -0.898  0.00  0.00     0.066 H 
ATOM     45  H   UNK d   0      11.136   6.714  -0.932  0.00  0.00     0.066 H 
ENDBRANCH  41  42
ENDBRANCH   4  41
BRANCH   5  46
ATOM     46  O   UNK d   0       9.840   9.140  -4.607  0.00  0.00    -0.491 OA
BRANCH  46  47
ATOM     47  C   UNK d   0       9.519   9.750  -5.859  0.00  0.00     0.079 C 
ATOM     48  H   UNK d   0      10.096  10.667  -5.975  0.00  0.00     0.066 H 
ATOM     49  H   UNK d   0       9.762   9.063  -6.669  0.00  0.00     0.066 H 
ATOM     50  H   UNK d   0       8.455   9.985  -5.887  0.00  0.00     0.066 H 
ENDBRANCH  46  47
ENDBRANCH   5  46
TORSDOF 13
ENDMDL
MODEL 7
REMARK VINA RESULT:      -5.0      4.649      8.215
REMARK  11 active torsions:
REMARK  status: ('A' for Active; 'I' for Inactive)
REMARK    1  A    between atoms: C_1  and  C_2 
REMARK    2  A    between atoms: C_5  and  O_27 
REMARK    3  A    between atoms: C_6  and  O_25 
REMARK    4  A    between atoms: C_12  and  C_13 
REMARK    5  A    between atoms: C_13  and  C_14 
REMARK       I    between atoms: C_14  and  N_16 
REMARK       I    between atoms: N_16  and  CA_17 
REMARK    6  A    between atoms: CA_17  and  CB_19 
REMARK       I    between atoms: CA_17  and  C_23 
REMARK    7  A    between atoms: CB_19  and  CG_20 
REMARK    8  A    between atoms: CG_20  and  SD_21 
REMARK    9  A    between atoms: SD_21  and  CE_22 
REMARK   10  A    between atoms: O_25  and  C_26 
REMARK   11  A    between atoms: O_27  and  C_28 
ROOT
ATOM      1  C   UNK d   0       5.571  -2.891  -5.093  0.00  0.00    -0.029 A 
ATOM      2  C   UNK d   0       6.818  -3.542  -4.685  0.00  0.00     0.025 A 
ATOM      3  C   UNK d   0       7.180  -4.792  -5.203  0.00  0.00    -0.005 A 
ATOM      4  C   UNK d   0       8.355  -5.383  -4.795  0.00  0.00     0.162 A 
ATOM      5  C   UNK d   0       9.183  -4.740  -3.871  0.00  0.00     0.165 A 
ATOM      6  C   UNK d   0       8.833  -3.504  -3.355  0.00  0.00     0.027 A 
ATOM      7  C   UNK d   0       7.651  -2.896  -3.756  0.00  0.00     0.143 A 
ATOM      8  O   UNK d   0       7.298  -1.690  -3.260  0.00  0.00    -0.422 OA
ATOM      9  C   UNK d   0       6.159  -1.085  -3.633  0.00  0.00     0.341 A 
ATOM     10  O   UNK d   0       5.881   0.001  -3.159  0.00  0.00    -0.245 OA
ATOM     11  C   UNK d   0       5.277  -1.676  -4.561  0.00  0.00     0.049 A 
ATOM     12  H   UNK d   0       6.540  -5.290  -5.916  0.00  0.00     0.066 H 
ATOM     13  H   UNK d   0       9.478  -3.014  -2.642  0.00  0.00     0.069 H 
ENDROOT
BRANCH  11  14
ATOM     14  C   UNK d   0       4.008  -0.965  -4.956  0.00  0.00     0.056 C 
ATOM     15  H   UNK d   0       3.794  -0.177  -4.234  0.00  0.00     0.041 H 
ATOM     16  H   UNK d   0       3.183  -1.677  -4.972  0.00  0.00     0.041 H 
BRANCH  14  17
ATOM     17  C   UNK d   0       4.177  -0.359  -6.325  0.00  0.00     0.218 C 
ATOM     18  O   UNK d   0       5.231   0.156  -6.634  0.00  0.00    -0.275 OA
ATOM     19  N   MET d   1       3.157  -0.389  -7.205  0.00  0.00    -0.307 N 
ATOM     20  CA  MET d   1       3.321   0.200  -8.537  0.00  0.00     0.063 C 
ATOM     21  H   MET d   1       2.314  -0.800  -6.958  0.00  0.00     0.149 HD
ATOM     22  HA  MET d   1       4.345   0.045  -8.879  0.00  0.00     0.056 H 
ATOM     23  C   MET d   1       3.032   1.678  -8.471  0.00  0.00     0.062 C 
ATOM     24  O   MET d   1       2.720   2.186  -7.420  0.00  0.00    -0.548 OA
ATOM     25  OXT MET d   1       3.120   2.428  -9.580  0.00  0.00    -0.548 OA
BRANCH  20  26
ATOM     26  CB  MET d   1       2.352  -0.468  -9.513  0.00  0.00    -0.020 C 
ATOM     27  HB1 MET d   1       2.580  -0.145 -10.530  0.00  0.00     0.029 H 
ATOM     28  HB2 MET d   1       1.330  -0.182  -9.262  0.00  0.00     0.029 H 
BRANCH  26  29
ATOM     29  CG  MET d   1       2.495  -1.988  -9.416  0.00  0.00    -0.005 C 
ATOM     30  HG1 MET d   1       2.222  -2.314  -8.412  0.00  0.00     0.038 H 
ATOM     31  HG2 MET d   1       3.527  -2.269  -9.622  0.00  0.00     0.038 H 
BRANCH  29  32
ATOM     32  SD  MET d   1       1.400  -2.778 -10.627  0.00  0.00    -0.164 SA
BRANCH  32  33
ATOM     33  CE  MET d   1       1.037  -1.459 -11.817  0.00  0.00    -0.018 C 
ATOM     34  HE1 MET d   1       1.774  -0.663 -11.713  0.00  0.00     0.034 H 
ATOM     35  HE2 MET d   1       1.076  -1.861 -12.829  0.00  0.00     0.034 H 
ATOM     36  HE3 MET d   1       0.041  -1.058 -11.623  0.00  0.00     0.034 H 
ENDBRANCH  32  33
ENDBRANCH  29  32
ENDBRANCH  26  29
ENDBRANCH  20  26
ENDBRANCH  14  17
ENDBRANCH  11  14
BRANCH   1  37
ATOM     37  C   UNK d   0       4.642  -3.548  -6.082  0.00  0.00    -0.038 C 
ATOM     38  H   UNK d   0       3.616  -3.239  -5.878  0.00  0.00     0.028 H 
ATOM     39  H   UNK d   0       4.918  -3.248  -7.094  0.00  0.00     0.028 H 
ATOM     40  H   UNK d   0       4.720  -4.631  -5.990  0.00  0.00     0.028 H 
ENDBRANCH   1  37
BRANCH   4  41
ATOM     41  O   UNK d   0       8.712  -6.598  -5.294  0.00  0.00    -0.491 OA
BRANCH  41  42
ATOM     42  C   UNK d   0       8.033  -7.741  -4.767  0.00  0.00     0.079 C 
ATOM     43  H   UNK d   0       8.051  -8.544  -5.503  0.00  0.00     0.066 H 
ATOM     44  H   UNK d   0       8.532  -8.070  -3.856  0.00  0.00     0.066 H 
ATOM     45  H   UNK d   0       7.001  -7.477  -4.541  0.00  0.00     0.066 H 
ENDBRANCH  41  42
ENDBRANCH   4  41
BRANCH   5  46
ATOM     46  O   UNK d   0      10.340  -5.330  -3.476  0.00  0.00    -0.491 OA
BRANCH  46  47
ATOM     47  C   UNK d   0      11.518  -4.521  -3.483  0.00  0.00     0.079 C 
ATOM     48  H   UNK d   0      12.188  -4.847  -2.688  0.00  0.00     0.066 H 
ATOM     49  H   UNK d   0      12.020  -4.621  -4.445  0.00  0.00     0.066 H 
ATOM     50  H   UNK d   0      11.244  -3.479  -3.322  0.00  0.00     0.066 H 
ENDBRANCH  46  47
ENDBRANCH   5  46
TORSDOF 13
ENDMDL
MODEL 8
REMARK VINA RESULT:      -4.9      4.679      7.972
REMARK  11 active torsions:
REMARK  status: ('A' for Active; 'I' for Inactive)
REMARK    1  A    between atoms: C_1  and  C_2 
REMARK    2  A    between atoms: C_5  and  O_27 
REMARK    3  A    between atoms: C_6  and  O_25 
REMARK    4  A    between atoms: C_12  and  C_13 
REMARK    5  A    between atoms: C_13  and  C_14 
REMARK       I    between atoms: C_14  and  N_16 
REMARK       I    between atoms: N_16  and  CA_17 
REMARK    6  A    between atoms: CA_17  and  CB_19 
REMARK       I    between atoms: CA_17  and  C_23 
REMARK    7  A    between atoms: CB_19  and  CG_20 
REMARK    8  A    between atoms: CG_20  and  SD_21 
REMARK    9  A    between atoms: SD_21  and  CE_22 
REMARK   10  A    between atoms: O_25  and  C_26 
REMARK   11  A    between atoms: O_27  and  C_28 
ROOT
ATOM      1  C   UNK d   0       6.544  -2.303  -4.193  0.00  0.00    -0.029 A 
ATOM      2  C   UNK d   0       7.504  -3.409  -4.227  0.00  0.00     0.025 A 
ATOM      3  C   UNK d   0       8.736  -3.313  -3.569  0.00  0.00    -0.005 A 
ATOM      4  C   UNK d   0       9.622  -4.367  -3.625  0.00  0.00     0.162 A 
ATOM      5  C   UNK d   0       9.292  -5.526  -4.333  0.00  0.00     0.165 A 
ATOM      6  C   UNK d   0       8.076  -5.629  -4.985  0.00  0.00     0.027 A 
ATOM      7  C   UNK d   0       7.173  -4.575  -4.939  0.00  0.00     0.143 A 
ATOM      8  O   UNK d   0       5.983  -4.663  -5.571  0.00  0.00    -0.422 OA
ATOM      9  C   UNK d   0       5.097  -3.655  -5.540  0.00  0.00     0.341 A 
ATOM     10  O   UNK d   0       4.036  -3.779  -6.126  0.00  0.00    -0.245 OA
ATOM     11  C   UNK d   0       5.363  -2.457  -4.846  0.00  0.00     0.049 A 
ATOM     12  H   UNK d   0       8.992  -2.417  -3.023  0.00  0.00     0.066 H 
ATOM     13  H   UNK d   0       7.829  -6.527  -5.529  0.00  0.00     0.069 H 
ENDROOT
BRANCH  11  14
ATOM     14  C   UNK d   0       4.341  -1.349  -4.833  0.00  0.00     0.056 C 
ATOM     15  H   UNK d   0       4.599  -0.626  -4.058  0.00  0.00     0.041 H 
ATOM     16  H   UNK d   0       3.355  -1.766  -4.626  0.00  0.00     0.041 H 
BRANCH  14  17
ATOM     17  C   UNK d   0       4.326  -0.663  -6.175  0.00  0.00     0.218 C 
ATOM     18  O   UNK d   0       5.324  -0.108  -6.583  0.00  0.00    -0.275 OA
ATOM     19  N   MET d   1       3.204  -0.668  -6.920  0.00  0.00    -0.307 N 
ATOM     20  CA  MET d   1       3.189  -0.001  -8.225  0.00  0.00     0.063 C 
ATOM     21  H   MET d   1       2.406  -1.111  -6.593  0.00  0.00     0.149 HD
ATOM     22  HA  MET d   1       4.164  -0.113  -8.702  0.00  0.00     0.056 H 
ATOM     23  C   MET d   1       2.887   1.464  -8.038  0.00  0.00     0.062 C 
ATOM     24  O   MET d   1       2.702   1.905  -6.928  0.00  0.00    -0.548 OA
ATOM     25  OXT MET d   1       2.822   2.276  -9.103  0.00  0.00    -0.548 OA
BRANCH  20  26
ATOM     26  CB  MET d   1       2.114  -0.635  -9.109  0.00  0.00    -0.020 C 
ATOM     27  HB1 MET d   1       1.247   0.024  -9.158  0.00  0.00     0.029 H 
ATOM     28  HB2 MET d   1       1.817  -1.595  -8.687  0.00  0.00     0.029 H 
BRANCH  26  29
ATOM     29  CG  MET d   1       2.673  -0.850 -10.517  0.00  0.00    -0.005 C 
ATOM     30  HG1 MET d   1       3.606  -1.409 -10.456  0.00  0.00     0.038 H 
ATOM     31  HG2 MET d   1       2.858   0.117 -10.985  0.00  0.00     0.038 H 
BRANCH  29  32
ATOM     32  SD  MET d   1       1.473  -1.781 -11.510  0.00  0.00    -0.164 SA
BRANCH  32  33
ATOM     33  CE  MET d   1       1.079  -3.222 -10.483  0.00  0.00    -0.018 C 
ATOM     34  HE1 MET d   1       0.886  -4.083 -11.122  0.00  0.00     0.034 H 
ATOM     35  HE2 MET d   1       1.919  -3.439  -9.823  0.00  0.00     0.034 H 
ATOM     36  HE3 MET d   1       0.192  -3.010  -9.883  0.00  0.00     0.034 H 
ENDBRANCH  32  33
ENDBRANCH  29  32
ENDBRANCH  26  29
ENDBRANCH  20  26
ENDBRANCH  14  17
ENDBRANCH  11  14
BRANCH   1  37
ATOM     37  C   UNK d   0       6.856  -1.030  -3.448  0.00  0.00    -0.038 C 
ATOM     38  H   UNK d   0       6.746  -0.178  -4.121  0.00  0.00     0.028 H 
ATOM     39  H   UNK d   0       6.168  -0.922  -2.609  0.00  0.00     0.028 H 
ATOM     40  H   UNK d   0       7.880  -1.068  -3.076  0.00  0.00     0.028 H 
ENDBRANCH   1  37
BRANCH   4  41
ATOM     41  O   UNK d   0      10.821  -4.279  -2.988  0.00  0.00    -0.491 OA
BRANCH  41  42
ATOM     42  C   UNK d   0      11.851  -3.536  -3.644  0.00  0.00     0.079 C 
ATOM     43  H   UNK d   0      11.413  -2.937  -4.443  0.00  0.00     0.066 H 
ATOM     44  H   UNK d   0      12.341  -2.882  -2.925  0.00  0.00     0.066 H 
ATOM     45  H   UNK d   0      12.582  -4.225  -4.066  0.00  0.00     0.066 H 
ENDBRANCH  41  42
ENDBRANCH   4  41
BRANCH   5  46
ATOM     46  O   UNK d   0      10.171  -6.560  -4.381  0.00  0.00    -0.491 OA
BRANCH  46  47
ATOM     47  C   UNK d   0       9.677  -7.850  -4.017  0.00  0.00     0.079 C 
ATOM     48  H   UNK d   0       8.911  -8.160  -4.727  0.00  0.00     0.066 H 
ATOM     49  H   UNK d   0      10.496  -8.569  -4.030  0.00  0.00     0.066 H 
ATOM     50  H   UNK d   0       9.247  -7.806  -3.016  0.00  0.00     0.066 H 
ENDBRANCH  46  47
ENDBRANCH   5  46
TORSDOF 13
ENDMDL
MODEL 9
REMARK VINA RESULT:      -4.8      5.802      9.329
REMARK  11 active torsions:
REMARK  status: ('A' for Active; 'I' for Inactive)
REMARK    1  A    between atoms: C_1  and  C_2 
REMARK    2  A    between atoms: C_5  and  O_27 
REMARK    3  A    between atoms: C_6  and  O_25 
REMARK    4  A    between atoms: C_12  and  C_13 
REMARK    5  A    between atoms: C_13  and  C_14 
REMARK       I    between atoms: C_14  and  N_16 
REMARK       I    between atoms: N_16  and  CA_17 
REMARK    6  A    between atoms: CA_17  and  CB_19 
REMARK       I    between atoms: CA_17  and  C_23 
REMARK    7  A    between atoms: CB_19  and  CG_20 
REMARK    8  A    between atoms: CG_20  and  SD_21 
REMARK    9  A    between atoms: SD_21  and  CE_22 
REMARK   10  A    between atoms: O_25  and  C_26 
REMARK   11  A    between atoms: O_27  and  C_28 
ROOT
ATOM      1  C   UNK d   0       9.877   4.616  -4.256  0.00  0.00    -0.029 A 
ATOM      2  C   UNK d   0      10.086   5.225  -2.941  0.00  0.00     0.025 A 
ATOM      3  C   UNK d   0       9.632   6.521  -2.667  0.00  0.00    -0.005 A 
ATOM      4  C   UNK d   0       9.849   7.070  -1.422  0.00  0.00     0.162 A 
ATOM      5  C   UNK d   0      10.520   6.339  -0.438  0.00  0.00     0.165 A 
ATOM      6  C   UNK d   0      10.971   5.057  -0.700  0.00  0.00     0.027 A 
ATOM      7  C   UNK d   0      10.760   4.490  -1.950  0.00  0.00     0.143 A 
ATOM      8  O   UNK d   0      11.196   3.241  -2.219  0.00  0.00    -0.422 OA
ATOM      9  C   UNK d   0      11.003   2.675  -3.421  0.00  0.00     0.341 A 
ATOM     10  O   UNK d   0      11.415   1.546  -3.618  0.00  0.00    -0.245 OA
ATOM     11  C   UNK d   0      10.336   3.354  -4.460  0.00  0.00     0.049 A 
ATOM     12  H   UNK d   0       9.115   7.087  -3.427  0.00  0.00     0.066 H 
ATOM     13  H   UNK d   0      11.487   4.499   0.065  0.00  0.00     0.069 H 
ENDROOT
BRANCH  11  14
ATOM     14  C   UNK d   0      10.137   2.684  -5.796  0.00  0.00     0.056 C 
ATOM     15  H   UNK d   0      10.978   2.022  -5.998  0.00  0.00     0.041 H 
ATOM     16  H   UNK d   0      10.076   3.443  -6.577  0.00  0.00     0.041 H 
BRANCH  14  17
ATOM     17  C   UNK d   0       8.861   1.883  -5.771  0.00  0.00     0.218 C 
ATOM     18  O   UNK d   0       7.931   2.203  -6.481  0.00  0.00    -0.275 OA
ATOM     19  N   MET d   1       8.754   0.812  -4.961  0.00  0.00    -0.307 N 
ATOM     20  CA  MET d   1       7.513   0.033  -4.937  0.00  0.00     0.063 C 
ATOM     21  H   MET d   1       9.498   0.556  -4.393  0.00  0.00     0.149 HD
ATOM     22  HA  MET d   1       7.080   0.008  -5.939  0.00  0.00     0.056 H 
ATOM     23  C   MET d   1       6.537   0.671  -3.984  0.00  0.00     0.062 C 
ATOM     24  O   MET d   1       6.846   1.674  -3.385  0.00  0.00    -0.548 OA
ATOM     25  OXT MET d   1       5.325   0.126  -3.799  0.00  0.00    -0.548 OA
BRANCH  20  26
ATOM     26  CB  MET d   1       7.816  -1.395  -4.479  0.00  0.00    -0.020 C 
ATOM     27  HB1 MET d   1       7.421  -1.545  -3.474  0.00  0.00     0.029 H 
ATOM     28  HB2 MET d   1       8.894  -1.553  -4.473  0.00  0.00     0.029 H 
BRANCH  26  29
ATOM     29  CG  MET d   1       7.160  -2.389  -5.439  0.00  0.00    -0.005 C 
ATOM     30  HG1 MET d   1       6.320  -2.874  -4.941  0.00  0.00     0.038 H 
ATOM     31  HG2 MET d   1       7.890  -3.142  -5.736  0.00  0.00     0.038 H 
BRANCH  29  32
ATOM     32  SD  MET d   1       6.566  -1.510  -6.910  0.00  0.00    -0.164 SA
BRANCH  32  33
ATOM     33  CE  MET d   1       4.791  -1.875  -6.952  0.00  0.00    -0.018 C 
ATOM     34  HE1 MET d   1       4.354  -1.671  -5.976  0.00  0.00     0.034 H 
ATOM     35  HE2 MET d   1       4.309  -1.251  -7.705  0.00  0.00     0.034 H 
ATOM     36  HE3 MET d   1       4.641  -2.926  -7.203  0.00  0.00     0.034 H 
ENDBRANCH  32  33
ENDBRANCH  29  32
ENDBRANCH  26  29
ENDBRANCH  20  26
ENDBRANCH  14  17
ENDBRANCH  11  14
BRANCH   1  37
ATOM     37  C   UNK d   0       9.165   5.368  -5.352  0.00  0.00    -0.038 C 
ATOM     38  H   UNK d   0       8.632   6.218  -4.924  0.00  0.00     0.028 H 
ATOM     39  H   UNK d   0       9.895   5.726  -6.080  0.00  0.00     0.028 H 
ATOM     40  H   UNK d   0       8.455   4.705  -5.846  0.00  0.00     0.028 H 
ENDBRANCH   1  37
BRANCH   4  41
ATOM     41  O   UNK d   0       9.411   8.330  -1.151  0.00  0.00    -0.491 OA
BRANCH  41  42
ATOM     42  C   UNK d   0       9.879   9.378  -2.002  0.00  0.00     0.079 C 
ATOM     43  H   UNK d   0       9.060   9.728  -2.630  0.00  0.00     0.066 H 
ATOM     44  H   UNK d   0      10.250  10.202  -1.392  0.00  0.00     0.066 H 
ATOM     45  H   UNK d   0      10.685   9.001  -2.632  0.00  0.00     0.066 H 
ENDBRANCH  41  42
ENDBRANCH   4  41
BRANCH   5  46
ATOM     46  O   UNK d   0      10.729   6.888   0.786  0.00  0.00    -0.491 OA
BRANCH  46  47
ATOM     47  C   UNK d   0      11.012   5.990   1.862  0.00  0.00     0.079 C 
ATOM     48  H   UNK d   0      10.130   5.386   2.072  0.00  0.00     0.066 H 
ATOM     49  H   UNK d   0      11.839   5.339   1.582  0.00  0.00     0.066 H 
ATOM     50  H   UNK d   0      11.281   6.561   2.750  0.00  0.00     0.066 H 
ENDBRANCH  46  47
ENDBRANCH   5  46
TORSDOF 13
ENDMDL
MODEL 10
REMARK VINA RESULT:      -4.6      3.317      8.841
REMARK  11 active torsions:
REMARK  status: ('A' for Active; 'I' for Inactive)
REMARK    1  A    between atoms: C_1  and  C_2 
REMARK    2  A    between atoms: C_5  and  O_27 
REMARK    3  A    between atoms: C_6  and  O_25 
REMARK    4  A    between atoms: C_12  and  C_13 
REMARK    5  A    between atoms: C_13  and  C_14 
REMARK       I    between atoms: C_14  and  N_16 
REMARK       I    between atoms: N_16  and  CA_17 
REMARK    6  A    between atoms: CA_17  and  CB_19 
REMARK       I    between atoms: CA_17  and  C_23 
REMARK    7  A    between atoms: CB_19  and  CG_20 
REMARK    8  A    between atoms: CG_20  and  SD_21 
REMARK    9  A    between atoms: SD_21  and  CE_22 
REMARK   10  A    between atoms: O_25  and  C_26 
REMARK   11  A    between atoms: O_27  and  C_28 
ROOT
ATOM      1  C   UNK d   0       5.703  -5.479  -5.658  0.00  0.00    -0.029 A 
ATOM      2  C   UNK d   0       6.665  -6.548  -5.383  0.00  0.00     0.025 A 
ATOM      3  C   UNK d   0       6.285  -7.894  -5.452  0.00  0.00    -0.005 A 
ATOM      4  C   UNK d   0       7.210  -8.878  -5.182  0.00  0.00     0.162 A 
ATOM      5  C   UNK d   0       8.522  -8.536  -4.840  0.00  0.00     0.165 A 
ATOM      6  C   UNK d   0       8.906  -7.208  -4.770  0.00  0.00     0.027 A 
ATOM      7  C   UNK d   0       7.985  -6.205  -5.040  0.00  0.00     0.143 A 
ATOM      8  O   UNK d   0       8.347  -4.906  -4.974  0.00  0.00    -0.422 OA
ATOM      9  C   UNK d   0       7.471  -3.921  -5.229  0.00  0.00     0.341 A 
ATOM     10  O   UNK d   0       7.843  -2.763  -5.157  0.00  0.00    -0.245 OA
ATOM     11  C   UNK d   0       6.133  -4.193  -5.579  0.00  0.00     0.049 A 
ATOM     12  H   UNK d   0       5.272  -8.159  -5.715  0.00  0.00     0.066 H 
ATOM     13  H   UNK d   0       9.920  -6.953  -4.506  0.00  0.00     0.069 H 
ENDROOT
BRANCH  11  14
ATOM     14  C   UNK d   0       5.180  -3.059  -5.860  0.00  0.00     0.056 C 
ATOM     15  H   UNK d   0       4.255  -3.457  -6.277  0.00  0.00     0.041 H 
ATOM     16  H   UNK d   0       5.635  -2.372  -6.575  0.00  0.00     0.041 H 
BRANCH  14  17
ATOM     17  C   UNK d   0       4.879  -2.326  -4.578  0.00  0.00     0.218 C 
ATOM     18  O   UNK d   0       4.250  -2.876  -3.699  0.00  0.00    -0.275 OA
ATOM     19  N   MET d   1       5.309  -1.060  -4.410  0.00  0.00    -0.307 N 
ATOM     20  CA  MET d   1       5.016  -0.347  -3.164  0.00  0.00     0.063 C 
ATOM     21  H   MET d   1       5.812  -0.621  -5.113  0.00  0.00     0.149 HD
ATOM     22  HA  MET d   1       5.039  -1.050  -2.329  0.00  0.00     0.056 H 
ATOM     23  C   MET d   1       3.650   0.281  -3.253  0.00  0.00     0.062 C 
ATOM     24  O   MET d   1       2.989   0.148  -4.256  0.00  0.00    -0.548 OA
ATOM     25  OXT MET d   1       3.168   0.990  -2.221  0.00  0.00    -0.548 OA
BRANCH  20  26
ATOM     26  CB  MET d   1       6.066   0.742  -2.940  0.00  0.00    -0.020 C 
ATOM     27  HB1 MET d   1       6.403   0.716  -1.903  0.00  0.00     0.029 H 
ATOM     28  HB2 MET d   1       5.629   1.717  -3.155  0.00  0.00     0.029 H 
BRANCH  26  29
ATOM     29  CG  MET d   1       7.258   0.502  -3.869  0.00  0.00    -0.005 C 
ATOM     30  HG1 MET d   1       6.910   0.038  -4.793  0.00  0.00     0.038 H 
ATOM     31  HG2 MET d   1       7.974  -0.157  -3.378  0.00  0.00     0.038 H 
BRANCH  29  32
ATOM     32  SD  MET d   1       8.057   2.085  -4.251  0.00  0.00    -0.164 SA
BRANCH  32  33
ATOM     33  CE  MET d   1       9.828   1.699  -4.225  0.00  0.00    -0.018 C 
ATOM     34  HE1 MET d   1      10.400   2.602  -4.440  0.00  0.00     0.034 H 
ATOM     35  HE2 MET d   1      10.104   1.320  -3.241  0.00  0.00     0.034 H 
ATOM     36  HE3 MET d   1      10.047   0.943  -4.980  0.00  0.00     0.034 H 
ENDBRANCH  32  33
ENDBRANCH  29  32
ENDBRANCH  26  29
ENDBRANCH  20  26
ENDBRANCH  14  17
ENDBRANCH  11  14
BRANCH   1  37
ATOM     37  C   UNK d   0       4.276  -5.797  -6.023  0.00  0.00    -0.038 C 
ATOM     38  H   UNK d   0       3.682  -5.904  -5.114  0.00  0.00     0.028 H 
ATOM     39  H   UNK d   0       3.868  -4.989  -6.631  0.00  0.00     0.028 H 
ATOM     40  H   UNK d   0       4.244  -6.729  -6.588  0.00  0.00     0.028 H 
ENDBRANCH   1  37
BRANCH   4  41
ATOM     41  O   UNK d   0       6.846 -10.188  -5.247  0.00  0.00    -0.491 OA
BRANCH  41  42
ATOM     42  C   UNK d   0       6.099 -10.709  -4.146  0.00  0.00     0.079 C 
ATOM     43  H   UNK d   0       6.207 -11.794  -4.116  0.00  0.00     0.066 H 
ATOM     44  H   UNK d   0       6.475 -10.281  -3.217  0.00  0.00     0.066 H 
ATOM     45  H   UNK d   0       5.047 -10.452  -4.266  0.00  0.00     0.066 H 
ENDBRANCH  41  42
ENDBRANCH   4  41
BRANCH   5  46
ATOM     46  O   UNK d   0       9.427  -9.513  -4.576  0.00  0.00    -0.491 OA
BRANCH  46  47
ATOM     47  C   UNK d   0       9.858  -9.650  -3.221  0.00  0.00     0.079 C 
ATOM     48  H   UNK d   0      10.938  -9.791  -3.196  0.00  0.00     0.066 H 
ATOM     49  H   UNK d   0       9.596  -8.751  -2.665  0.00  0.00     0.066 H 
ATOM     50  H   UNK d   0       9.369 -10.513  -2.770  0.00  0.00     0.066 H 
ENDBRANCH  46  47
ENDBRANCH   5  46
TORSDOF 13
ENDMDL
