MODEL 1
REMARK VINA RESULT:      -6.2      0.000      0.000
REMARK  7 active torsions:
REMARK  status: ('A' for Active; 'I' for Inactive)
REMARK    1  A    between atoms: C_1  and  C_2 
REMARK    2  A    between atoms: C_2  and  O_4 
REMARK    3  A    between atoms: O_4  and  C_5 
REMARK    4  A    between atoms: C_9  and  O_11 
REMARK    5  A    between atoms: O_11  and  C_12 
REMARK    6  A    between atoms: C_12  and  C_14 
REMARK    7  A    between atoms: C_18  and  C_21 
ROOT
ATOM      1  C   LIG d   1       3.511  -0.599  -4.277  0.00  0.00     0.139 A 
ATOM      2  C   LIG d   1       4.002  -1.883  -4.076  0.00  0.00     0.024 A 
ATOM      3  C   LIG d   1       4.546  -2.593  -5.131  0.00  0.00     0.139 A 
ATOM      4  C   LIG d   1       4.589  -2.004  -6.408  0.00  0.00     0.102 A 
ATOM      5  C   LIG d   1       4.097  -0.705  -6.604  0.00  0.00     0.149 A 
ATOM      6  C   LIG d   1       3.559  -0.011  -5.535  0.00  0.00     0.024 A 
ATOM      7  C   LIG d   1       5.152  -2.770  -7.530  0.00  0.00     0.174 C 
ATOM      8  O   LIG d   1       5.019  -2.409  -8.681  0.00  0.00    -0.292 OA
ATOM      9  C   LIG d   1       5.906  -4.038  -7.172  0.00  0.00     0.052 C 
ATOM     10  C   LIG d   1       5.128  -4.728  -6.042  0.00  0.00     0.132 C 
ATOM     11  H   LIG d   1       4.128  -4.985  -6.392  0.00  0.00     0.079 H 
ATOM     12  O   LIG d   1       5.029  -3.842  -4.928  0.00  0.00    -0.483 OA
ATOM     13  H   LIG d   1       3.959  -2.327  -3.092  0.00  0.00     0.069 H 
ATOM     14  H   LIG d   1       3.177   0.988  -5.678  0.00  0.00     0.069 H 
ATOM     15  H   LIG d   1       6.831  -3.803  -6.875  0.00  0.00     0.038 H 
ATOM     16  H   LIG d   1       5.960  -4.695  -8.041  0.00  0.00     0.038 H 
ENDROOT
BRANCH  10  17
ATOM     17  C   LIG d   1       5.852  -5.981  -5.626  0.00  0.00    -0.007 A 
ATOM     18  C   LIG d   1       5.152  -7.162  -5.460  0.00  0.00    -0.055 A 
ATOM     19  C   LIG d   1       5.818  -8.312  -5.078  0.00  0.00    -0.061 A 
ATOM     20  H   LIG d   1       4.086  -7.186  -5.629  0.00  0.00     0.062 H 
ATOM     21  C   LIG d   1       7.182  -8.282  -4.861  0.00  0.00    -0.062 A 
ATOM     22  H   LIG d   1       5.270  -9.234  -4.949  0.00  0.00     0.062 H 
ATOM     23  C   LIG d   1       7.883  -7.102  -5.027  0.00  0.00    -0.061 A 
ATOM     24  H   LIG d   1       7.702  -9.180  -4.562  0.00  0.00     0.062 H 
ATOM     25  C   LIG d   1       7.219  -5.953  -5.414  0.00  0.00    -0.055 A 
ATOM     26  H   LIG d   1       8.948  -7.078  -4.858  0.00  0.00     0.062 H 
ATOM     27  H   LIG d   1       7.766  -5.032  -5.547  0.00  0.00     0.062 H 
ENDBRANCH  10  17
BRANCH   5  28
ATOM     28  O   LIG d   1       4.148  -0.133  -7.834  0.00  0.00    -0.425 OA
BRANCH  28  29
ATOM     29  C   LIG d   1       3.000   0.357  -8.326  0.00  0.00     0.309 C 
ATOM     30  O   LIG d   1       2.078  -0.388  -8.564  0.00  0.00    -0.251 OA
BRANCH  29  31
ATOM     31  C   LIG d   1       2.859   1.835  -8.582  0.00  0.00     0.034 C 
ATOM     32  H   LIG d   1       3.847   2.296  -8.597  0.00  0.00     0.034 H 
ATOM     33  H   LIG d   1       2.370   1.993  -9.544  0.00  0.00     0.034 H 
ATOM     34  H   LIG d   1       2.259   2.286  -7.792  0.00  0.00     0.034 H 
ENDBRANCH  29  31
ENDBRANCH  28  29
ENDBRANCH   5  28
BRANCH   1  35
ATOM     35  O   LIG d   1       2.979   0.088  -3.234  0.00  0.00    -0.426 OA
BRANCH  35  36
ATOM     36  C   LIG d   1       3.697   1.113  -2.749  0.00  0.00     0.309 C 
ATOM     37  O   LIG d   1       3.588   2.213  -3.239  0.00  0.00    -0.251 OA
BRANCH  36  38
ATOM     38  C   LIG d   1       4.639   0.894  -1.594  0.00  0.00     0.034 C 
ATOM     39  H   LIG d   1       4.065   0.655  -0.698  0.00  0.00     0.034 H 
ATOM     40  H   LIG d   1       5.312   0.068  -1.825  0.00  0.00     0.034 H 
ATOM     41  H   LIG d   1       5.222   1.800  -1.422  0.00  0.00     0.034 H 
ENDBRANCH  36  38
ENDBRANCH  35  36
ENDBRANCH   1  35
TORSDOF 7
ENDMDL
MODEL 2
REMARK VINA RESULT:      -6.1     10.606     13.305
REMARK  7 active torsions:
REMARK  status: ('A' for Active; 'I' for Inactive)
REMARK    1  A    between atoms: C_1  and  C_2 
REMARK    2  A    between atoms: C_2  and  O_4 
REMARK    3  A    between atoms: O_4  and  C_5 
REMARK    4  A    between atoms: C_9  and  O_11 
REMARK    5  A    between atoms: O_11  and  C_12 
REMARK    6  A    between atoms: C_12  and  C_14 
REMARK    7  A    between atoms: C_18  and  C_21 
ROOT
ATOM      1  C   LIG d   1      10.235   9.745  -0.870  0.00  0.00     0.139 A 
ATOM      2  C   LIG d   1      10.101   9.658  -2.250  0.00  0.00     0.024 A 
ATOM      3  C   LIG d   1       9.985   8.423  -2.862  0.00  0.00     0.139 A 
ATOM      4  C   LIG d   1      10.011   7.259  -2.074  0.00  0.00     0.102 A 
ATOM      5  C   LIG d   1      10.141   7.351  -0.680  0.00  0.00     0.149 A 
ATOM      6  C   LIG d   1      10.253   8.597  -0.087  0.00  0.00     0.024 A 
ATOM      7  C   LIG d   1       9.905   5.948  -2.730  0.00  0.00     0.174 C 
ATOM      8  O   LIG d   1      10.138   4.914  -2.138  0.00  0.00    -0.292 OA
ATOM      9  C   LIG d   1       9.491   5.955  -4.191  0.00  0.00     0.052 C 
ATOM     10  C   LIG d   1      10.212   7.132  -4.864  0.00  0.00     0.132 C 
ATOM     11  H   LIG d   1      11.290   6.988  -4.791  0.00  0.00     0.079 H 
ATOM     12  O   LIG d   1       9.848   8.346  -4.207  0.00  0.00    -0.483 OA
ATOM     13  H   LIG d   1      10.087  10.559  -2.846  0.00  0.00     0.069 H 
ATOM     14  H   LIG d   1      10.355   8.676   0.985  0.00  0.00     0.069 H 
ATOM     15  H   LIG d   1       8.499   6.062  -4.255  0.00  0.00     0.038 H 
ATOM     16  H   LIG d   1       9.786   5.018  -4.665  0.00  0.00     0.038 H 
ENDROOT
BRANCH  10  17
ATOM     17  C   LIG d   1       9.810   7.205  -6.314  0.00  0.00    -0.007 A 
ATOM     18  C   LIG d   1       9.975   6.103  -7.133  0.00  0.00    -0.055 A 
ATOM     19  C   LIG d   1       9.605   6.171  -8.464  0.00  0.00    -0.061 A 
ATOM     20  H   LIG d   1      10.390   5.191  -6.734  0.00  0.00     0.062 H 
ATOM     21  C   LIG d   1       9.072   7.339  -8.976  0.00  0.00    -0.062 A 
ATOM     22  H   LIG d   1       9.733   5.310  -9.103  0.00  0.00     0.062 H 
ATOM     23  C   LIG d   1       8.908   8.440  -8.156  0.00  0.00    -0.061 A 
ATOM     24  H   LIG d   1       8.784   7.391 -10.015  0.00  0.00     0.062 H 
ATOM     25  C   LIG d   1       9.272   8.372  -6.825  0.00  0.00    -0.055 A 
ATOM     26  H   LIG d   1       8.491   9.352  -8.556  0.00  0.00     0.062 H 
ATOM     27  H   LIG d   1       9.140   9.231  -6.184  0.00  0.00     0.062 H 
ENDBRANCH  10  17
BRANCH   5  28
ATOM     28  O   LIG d   1      10.155   6.228   0.082  0.00  0.00    -0.425 OA
BRANCH  28  29
ATOM     29  C   LIG d   1      11.186   6.080   0.929  0.00  0.00     0.309 C 
ATOM     30  O   LIG d   1      12.321   6.129   0.515  0.00  0.00    -0.251 OA
BRANCH  29  31
ATOM     31  C   LIG d   1      10.930   5.853   2.397  0.00  0.00     0.034 C 
ATOM     32  H   LIG d   1      10.778   6.813   2.891  0.00  0.00     0.034 H 
ATOM     33  H   LIG d   1      10.039   5.237   2.519  0.00  0.00     0.034 H 
ATOM     34  H   LIG d   1      11.786   5.347   2.842  0.00  0.00     0.034 H 
ENDBRANCH  29  31
ENDBRANCH  28  29
ENDBRANCH   5  28
BRANCH   1  35
ATOM     35  O   LIG d   1      10.349  10.962  -0.280  0.00  0.00    -0.426 OA
BRANCH  35  36
ATOM     36  C   LIG d   1      11.439  11.173   0.476  0.00  0.00     0.309 C 
ATOM     37  O   LIG d   1      11.319  11.406   1.657  0.00  0.00    -0.251 OA
BRANCH  36  38
ATOM     38  C   LIG d   1      12.810  11.117  -0.145  0.00  0.00     0.034 C 
ATOM     39  H   LIG d   1      13.525  10.739   0.586  0.00  0.00     0.034 H 
ATOM     40  H   LIG d   1      12.791  10.454  -1.010  0.00  0.00     0.034 H 
ATOM     41  H   LIG d   1      13.108  12.117  -0.461  0.00  0.00     0.034 H 
ENDBRANCH  36  38
ENDBRANCH  35  36
ENDBRANCH   1  35
TORSDOF 7
ENDMDL
MODEL 3
REMARK VINA RESULT:      -6.1      2.491      6.273
REMARK  7 active torsions:
REMARK  status: ('A' for Active; 'I' for Inactive)
REMARK    1  A    between atoms: C_1  and  C_2 
REMARK    2  A    between atoms: C_2  and  O_4 
REMARK    3  A    between atoms: O_4  and  C_5 
REMARK    4  A    between atoms: C_9  and  O_11 
REMARK    5  A    between atoms: O_11  and  C_12 
REMARK    6  A    between atoms: C_12  and  C_14 
REMARK    7  A    between atoms: C_18  and  C_21 
ROOT
ATOM      1  C   LIG d   1       5.851  -2.539  -5.152  0.00  0.00     0.139 A 
ATOM      2  C   LIG d   1       5.331  -2.679  -6.433  0.00  0.00     0.024 A 
ATOM      3  C   LIG d   1       4.482  -1.716  -6.949  0.00  0.00     0.139 A 
ATOM      4  C   LIG d   1       4.146  -0.601  -6.160  0.00  0.00     0.102 A 
ATOM      5  C   LIG d   1       4.678  -0.461  -4.869  0.00  0.00     0.149 A 
ATOM      6  C   LIG d   1       5.527  -1.435  -4.373  0.00  0.00     0.024 A 
ATOM      7  C   LIG d   1       3.229   0.410  -6.705  0.00  0.00     0.174 C 
ATOM      8  O   LIG d   1       2.735   1.270  -6.005  0.00  0.00    -0.292 OA
ATOM      9  C   LIG d   1       2.931   0.321  -8.192  0.00  0.00     0.052 C 
ATOM     10  C   LIG d   1       2.780  -1.167  -8.538  0.00  0.00     0.132 C 
ATOM     11  H   LIG d   1       1.948  -1.589  -7.973  0.00  0.00     0.079 H 
ATOM     12  O   LIG d   1       3.984  -1.855  -8.200  0.00  0.00    -0.483 OA
ATOM     13  H   LIG d   1       5.592  -3.542  -7.027  0.00  0.00     0.069 H 
ATOM     14  H   LIG d   1       5.940  -1.335  -3.381  0.00  0.00     0.069 H 
ATOM     15  H   LIG d   1       3.683   0.732  -8.707  0.00  0.00     0.038 H 
ATOM     16  H   LIG d   1       2.005   0.851  -8.417  0.00  0.00     0.038 H 
ENDROOT
BRANCH  10  17
ATOM     17  C   LIG d   1       2.513  -1.315 -10.013  0.00  0.00    -0.007 A 
ATOM     18  C   LIG d   1       1.246  -1.080 -10.514  0.00  0.00    -0.055 A 
ATOM     19  C   LIG d   1       1.002  -1.216 -11.868  0.00  0.00    -0.061 A 
ATOM     20  H   LIG d   1       0.447  -0.791  -9.848  0.00  0.00     0.062 H 
ATOM     21  C   LIG d   1       2.024  -1.587 -12.722  0.00  0.00    -0.062 A 
ATOM     22  H   LIG d   1       0.012  -1.032 -12.259  0.00  0.00     0.062 H 
ATOM     23  C   LIG d   1       3.292  -1.821 -12.221  0.00  0.00    -0.061 A 
ATOM     24  H   LIG d   1       1.834  -1.693 -13.779  0.00  0.00     0.062 H 
ATOM     25  C   LIG d   1       3.537  -1.681 -10.868  0.00  0.00    -0.055 A 
ATOM     26  H   LIG d   1       4.090  -2.110 -12.887  0.00  0.00     0.062 H 
ATOM     27  H   LIG d   1       4.527  -1.860 -10.478  0.00  0.00     0.062 H 
ENDBRANCH  10  17
BRANCH   5  28
ATOM     28  O   LIG d   1       4.362   0.620  -4.113  0.00  0.00    -0.425 OA
BRANCH  28  29
ATOM     29  C   LIG d   1       3.829   0.383  -2.904  0.00  0.00     0.309 C 
ATOM     30  O   LIG d   1       2.781  -0.213  -2.812  0.00  0.00    -0.251 OA
BRANCH  29  31
ATOM     31  C   LIG d   1       4.536   0.860  -1.661  0.00  0.00     0.034 C 
ATOM     32  H   LIG d   1       5.494   1.303  -1.936  0.00  0.00     0.034 H 
ATOM     33  H   LIG d   1       3.921   1.607  -1.157  0.00  0.00     0.034 H 
ATOM     34  H   LIG d   1       4.704   0.016  -0.992  0.00  0.00     0.034 H 
ENDBRANCH  29  31
ENDBRANCH  28  29
ENDBRANCH   5  28
BRANCH   1  35
ATOM     35  O   LIG d   1       6.682  -3.490  -4.656  0.00  0.00    -0.426 OA
BRANCH  35  36
ATOM     36  C   LIG d   1       7.945  -3.118  -4.391  0.00  0.00     0.309 C 
ATOM     37  O   LIG d   1       8.380  -3.215  -3.267  0.00  0.00    -0.251 OA
BRANCH  36  38
ATOM     38  C   LIG d   1       8.820  -2.582  -5.494  0.00  0.00     0.034 C 
ATOM     39  H   LIG d   1       9.159  -1.579  -5.234  0.00  0.00     0.034 H 
ATOM     40  H   LIG d   1       9.683  -3.235  -5.624  0.00  0.00     0.034 H 
ATOM     41  H   LIG d   1       8.251  -2.544  -6.424  0.00  0.00     0.034 H 
ENDBRANCH  36  38
ENDBRANCH  35  36
ENDBRANCH   1  35
TORSDOF 7
ENDMDL
MODEL 4
REMARK VINA RESULT:      -6.1      3.187      7.729
REMARK  7 active torsions:
REMARK  status: ('A' for Active; 'I' for Inactive)
REMARK    1  A    between atoms: C_1  and  C_2 
REMARK    2  A    between atoms: C_2  and  O_4 
REMARK    3  A    between atoms: O_4  and  C_5 
REMARK    4  A    between atoms: C_9  and  O_11 
REMARK    5  A    between atoms: O_11  and  C_12 
REMARK    6  A    between atoms: C_12  and  C_14 
REMARK    7  A    between atoms: C_18  and  C_21 
ROOT
ATOM      1  C   LIG d   1       5.365  -6.332  -6.114  0.00  0.00     0.139 A 
ATOM      2  C   LIG d   1       4.779  -5.224  -5.517  0.00  0.00     0.024 A 
ATOM      3  C   LIG d   1       5.569  -4.228  -4.971  0.00  0.00     0.139 A 
ATOM      4  C   LIG d   1       6.969  -4.355  -5.021  0.00  0.00     0.102 A 
ATOM      5  C   LIG d   1       7.556  -5.474  -5.631  0.00  0.00     0.149 A 
ATOM      6  C   LIG d   1       6.747  -6.458  -6.173  0.00  0.00     0.024 A 
ATOM      7  C   LIG d   1       7.804  -3.304  -4.424  0.00  0.00     0.174 C 
ATOM      8  O   LIG d   1       8.995  -3.458  -4.242  0.00  0.00    -0.292 OA
ATOM      9  C   LIG d   1       7.098  -2.014  -4.043  0.00  0.00     0.052 C 
ATOM     10  C   LIG d   1       5.741  -2.400  -3.438  0.00  0.00     0.132 C 
ATOM     11  H   LIG d   1       5.899  -3.006  -2.546  0.00  0.00     0.079 H 
ATOM     12  O   LIG d   1       4.992  -3.147  -4.395  0.00  0.00    -0.483 OA
ATOM     13  H   LIG d   1       3.703  -5.140  -5.480  0.00  0.00     0.069 H 
ATOM     14  H   LIG d   1       7.192  -7.322  -6.643  0.00  0.00     0.069 H 
ATOM     15  H   LIG d   1       6.977  -1.448  -4.858  0.00  0.00     0.038 H 
ATOM     16  H   LIG d   1       7.692  -1.470  -3.308  0.00  0.00     0.038 H 
ENDROOT
BRANCH  10  17
ATOM     17  C   LIG d   1       4.982  -1.151  -3.070  0.00  0.00    -0.007 A 
ATOM     18  C   LIG d   1       3.600  -1.156  -3.073  0.00  0.00    -0.055 A 
ATOM     19  C   LIG d   1       2.904  -0.010  -2.734  0.00  0.00    -0.061 A 
ATOM     20  H   LIG d   1       3.064  -2.054  -3.338  0.00  0.00     0.062 H 
ATOM     21  C   LIG d   1       3.590   1.141  -2.394  0.00  0.00    -0.062 A 
ATOM     22  H   LIG d   1       1.824  -0.014  -2.736  0.00  0.00     0.062 H 
ATOM     23  C   LIG d   1       4.973   1.146  -2.390  0.00  0.00    -0.061 A 
ATOM     24  H   LIG d   1       3.047   2.036  -2.130  0.00  0.00     0.062 H 
ATOM     25  C   LIG d   1       5.669  -0.001  -2.724  0.00  0.00    -0.055 A 
ATOM     26  H   LIG d   1       5.508   2.044  -2.124  0.00  0.00     0.062 H 
ATOM     27  H   LIG d   1       6.748   0.001  -2.717  0.00  0.00     0.062 H 
ENDBRANCH  10  17
BRANCH   5  28
ATOM     28  O   LIG d   1       8.907  -5.592  -5.689  0.00  0.00    -0.425 OA
BRANCH  28  29
ATOM     29  C   LIG d   1       9.447  -6.691  -5.140  0.00  0.00     0.309 C 
ATOM     30  O   LIG d   1      10.059  -7.472  -5.831  0.00  0.00    -0.251 OA
BRANCH  29  31
ATOM     31  C   LIG d   1       9.291  -6.952  -3.664  0.00  0.00     0.034 C 
ATOM     32  H   LIG d   1       9.092  -6.012  -3.149  0.00  0.00     0.034 H 
ATOM     33  H   LIG d   1       8.460  -7.639  -3.502  0.00  0.00     0.034 H 
ATOM     34  H   LIG d   1      10.208  -7.393  -3.274  0.00  0.00     0.034 H 
ENDBRANCH  29  31
ENDBRANCH  28  29
ENDBRANCH   5  28
BRANCH   1  35
ATOM     35  O   LIG d   1       4.580  -7.304  -6.646  0.00  0.00    -0.426 OA
BRANCH  35  36
ATOM     36  C   LIG d   1       4.661  -8.525  -6.092  0.00  0.00     0.309 C 
ATOM     37  O   LIG d   1       4.313  -8.693  -4.947  0.00  0.00    -0.251 OA
BRANCH  36  38
ATOM     38  C   LIG d   1       5.184  -9.685  -6.899  0.00  0.00     0.034 C 
ATOM     39  H   LIG d   1       6.150  -9.421  -7.330  0.00  0.00     0.034 H 
ATOM     40  H   LIG d   1       5.300 -10.555  -6.252  0.00  0.00     0.034 H 
ATOM     41  H   LIG d   1       4.480  -9.919  -7.699  0.00  0.00     0.034 H 
ENDBRANCH  36  38
ENDBRANCH  35  36
ENDBRANCH   1  35
TORSDOF 7
ENDMDL
MODEL 5
REMARK VINA RESULT:      -6.0      2.557      6.316
REMARK  7 active torsions:
REMARK  status: ('A' for Active; 'I' for Inactive)
REMARK    1  A    between atoms: C_1  and  C_2 
REMARK    2  A    between atoms: C_2  and  O_4 
REMARK    3  A    between atoms: O_4  and  C_5 
REMARK    4  A    between atoms: C_9  and  O_11 
REMARK    5  A    between atoms: O_11  and  C_12 
REMARK    6  A    between atoms: C_12  and  C_14 
REMARK    7  A    between atoms: C_18  and  C_21 
ROOT
ATOM      1  C   LIG d   1       4.082  -3.796  -9.097  0.00  0.00     0.139 A 
ATOM      2  C   LIG d   1       4.314  -3.395  -7.788  0.00  0.00     0.024 A 
ATOM      3  C   LIG d   1       3.902  -2.145  -7.360  0.00  0.00     0.139 A 
ATOM      4  C   LIG d   1       3.253  -1.286  -8.266  0.00  0.00     0.102 A 
ATOM      5  C   LIG d   1       3.016  -1.699  -9.586  0.00  0.00     0.149 A 
ATOM      6  C   LIG d   1       3.435  -2.954  -9.993  0.00  0.00     0.024 A 
ATOM      7  C   LIG d   1       2.833   0.047  -7.812  0.00  0.00     0.174 C 
ATOM      8  O   LIG d   1       2.472   0.905  -8.591  0.00  0.00    -0.292 OA
ATOM      9  C   LIG d   1       2.877   0.296  -6.315  0.00  0.00     0.052 C 
ATOM     10  C   LIG d   1       4.154  -0.367  -5.780  0.00  0.00     0.132 C 
ATOM     11  H   LIG d   1       5.026   0.089  -6.250  0.00  0.00     0.079 H 
ATOM     12  O   LIG d   1       4.125  -1.762  -6.081  0.00  0.00    -0.483 OA
ATOM     13  H   LIG d   1       4.817  -4.060  -7.103  0.00  0.00     0.069 H 
ATOM     14  H   LIG d   1       3.258  -3.278 -11.007  0.00  0.00     0.069 H 
ATOM     15  H   LIG d   1       2.065  -0.100  -5.887  0.00  0.00     0.038 H 
ATOM     16  H   LIG d   1       2.904   1.369  -6.117  0.00  0.00     0.038 H 
ENDROOT
BRANCH  10  17
ATOM     17  C   LIG d   1       4.232  -0.176  -4.287  0.00  0.00    -0.007 A 
ATOM     18  C   LIG d   1       4.807  -1.153  -3.495  0.00  0.00    -0.055 A 
ATOM     19  C   LIG d   1       4.878  -0.977  -2.125  0.00  0.00    -0.061 A 
ATOM     20  H   LIG d   1       5.200  -2.051  -3.945  0.00  0.00     0.062 H 
ATOM     21  C   LIG d   1       4.375   0.173  -1.548  0.00  0.00    -0.062 A 
ATOM     22  H   LIG d   1       5.328  -1.740  -1.506  0.00  0.00     0.062 H 
ATOM     23  C   LIG d   1       3.800   1.150  -2.340  0.00  0.00    -0.061 A 
ATOM     24  H   LIG d   1       4.431   0.310  -0.478  0.00  0.00     0.062 H 
ATOM     25  C   LIG d   1       3.733   0.977  -3.710  0.00  0.00    -0.055 A 
ATOM     26  H   LIG d   1       3.408   2.048  -1.889  0.00  0.00     0.062 H 
ATOM     27  H   LIG d   1       3.288   1.741  -4.329  0.00  0.00     0.062 H 
ENDBRANCH  10  17
BRANCH   5  28
ATOM     28  O   LIG d   1       2.381  -0.875 -10.457  0.00  0.00    -0.425 OA
BRANCH  28  29
ATOM     29  C   LIG d   1       3.020  -0.591 -11.603  0.00  0.00     0.309 C 
ATOM     30  O   LIG d   1       2.648  -1.087 -12.641  0.00  0.00    -0.251 OA
BRANCH  29  31
ATOM     31  C   LIG d   1       4.200   0.347 -11.597  0.00  0.00     0.034 C 
ATOM     32  H   LIG d   1       4.517   0.523 -10.569  0.00  0.00     0.034 H 
ATOM     33  H   LIG d   1       5.021  -0.099 -12.159  0.00  0.00     0.034 H 
ATOM     34  H   LIG d   1       3.915   1.293 -12.058  0.00  0.00     0.034 H 
ENDBRANCH  29  31
ENDBRANCH  28  29
ENDBRANCH   5  28
BRANCH   1  35
ATOM     35  O   LIG d   1       4.492  -5.024  -9.507  0.00  0.00    -0.426 OA
BRANCH  35  36
ATOM     36  C   LIG d   1       3.901  -6.086  -8.936  0.00  0.00     0.309 C 
ATOM     37  O   LIG d   1       2.711  -6.256  -9.064  0.00  0.00    -0.251 OA
BRANCH  36  38
ATOM     38  C   LIG d   1       4.720  -7.066  -8.138  0.00  0.00     0.034 C 
ATOM     39  H   LIG d   1       4.437  -7.005  -7.087  0.00  0.00     0.034 H 
ATOM     40  H   LIG d   1       4.539  -8.076  -8.505  0.00  0.00     0.034 H 
ATOM     41  H   LIG d   1       5.779  -6.826  -8.243  0.00  0.00     0.034 H 
ENDBRANCH  36  38
ENDBRANCH  35  36
ENDBRANCH   1  35
TORSDOF 7
ENDMDL
MODEL 6
REMARK VINA RESULT:      -6.0      6.143      7.857
REMARK  7 active torsions:
REMARK  status: ('A' for Active; 'I' for Inactive)
REMARK    1  A    between atoms: C_1  and  C_2 
REMARK    2  A    between atoms: C_2  and  O_4 
REMARK    3  A    between atoms: O_4  and  C_5 
REMARK    4  A    between atoms: C_9  and  O_11 
REMARK    5  A    between atoms: O_11  and  C_12 
REMARK    6  A    between atoms: C_12  and  C_14 
REMARK    7  A    between atoms: C_18  and  C_21 
ROOT
ATOM      1  C   LIG d   1      10.889   4.277  -3.605  0.00  0.00     0.139 A 
ATOM      2  C   LIG d   1       9.837   3.561  -3.050  0.00  0.00     0.024 A 
ATOM      3  C   LIG d   1       9.095   2.695  -3.833  0.00  0.00     0.139 A 
ATOM      4  C   LIG d   1       9.414   2.554  -5.195  0.00  0.00     0.102 A 
ATOM      5  C   LIG d   1      10.482   3.275  -5.750  0.00  0.00     0.149 A 
ATOM      6  C   LIG d   1      11.213   4.135  -4.948  0.00  0.00     0.024 A 
ATOM      7  C   LIG d   1       8.612   1.646  -6.027  0.00  0.00     0.174 C 
ATOM      8  O   LIG d   1       8.695   1.646  -7.239  0.00  0.00    -0.292 OA
ATOM      9  C   LIG d   1       7.670   0.709  -5.292  0.00  0.00     0.052 C 
ATOM     10  C   LIG d   1       7.041   1.506  -4.141  0.00  0.00     0.132 C 
ATOM     11  H   LIG d   1       6.476   2.347  -4.545  0.00  0.00     0.079 H 
ATOM     12  O   LIG d   1       8.073   1.995  -3.285  0.00  0.00    -0.483 OA
ATOM     13  H   LIG d   1       9.598   3.681  -2.003  0.00  0.00     0.069 H 
ATOM     14  H   LIG d   1      12.035   4.694  -5.368  0.00  0.00     0.069 H 
ATOM     15  H   LIG d   1       8.185  -0.074  -4.943  0.00  0.00     0.038 H 
ATOM     16  H   LIG d   1       6.891   0.358  -5.970  0.00  0.00     0.038 H 
ENDROOT
BRANCH  10  17
ATOM     17  C   LIG d   1       6.118   0.612  -3.355  0.00  0.00    -0.007 A 
ATOM     18  C   LIG d   1       5.186   1.164  -2.495  0.00  0.00    -0.055 A 
ATOM     19  C   LIG d   1       4.339   0.342  -1.775  0.00  0.00    -0.061 A 
ATOM     20  H   LIG d   1       5.119   2.235  -2.387  0.00  0.00     0.062 H 
ATOM     21  C   LIG d   1       4.423  -1.031  -1.913  0.00  0.00    -0.062 A 
ATOM     22  H   LIG d   1       3.611   0.773  -1.104  0.00  0.00     0.062 H 
ATOM     23  C   LIG d   1       5.355  -1.583  -2.773  0.00  0.00    -0.061 A 
ATOM     24  H   LIG d   1       3.762  -1.672  -1.350  0.00  0.00     0.062 H 
ATOM     25  C   LIG d   1       6.199  -0.761  -3.497  0.00  0.00    -0.055 A 
ATOM     26  H   LIG d   1       5.421  -2.654  -2.881  0.00  0.00     0.062 H 
ATOM     27  H   LIG d   1       6.923  -1.192  -4.171  0.00  0.00     0.062 H 
ENDBRANCH  10  17
BRANCH   5  28
ATOM     28  O   LIG d   1      10.797   3.131  -7.062  0.00  0.00    -0.425 OA
BRANCH  28  29
ATOM     29  C   LIG d   1      10.856   4.250  -7.801  0.00  0.00     0.309 C 
ATOM     30  O   LIG d   1      11.915   4.622  -8.250  0.00  0.00    -0.251 OA
BRANCH  29  31
ATOM     31  C   LIG d   1       9.604   5.043  -8.071  0.00  0.00     0.034 C 
ATOM     32  H   LIG d   1       9.816   5.818  -8.808  0.00  0.00     0.034 H 
ATOM     33  H   LIG d   1       8.829   4.379  -8.455  0.00  0.00     0.034 H 
ATOM     34  H   LIG d   1       9.260   5.506  -7.146  0.00  0.00     0.034 H 
ENDBRANCH  29  31
ENDBRANCH  28  29
ENDBRANCH   5  28
BRANCH   1  35
ATOM     35  O   LIG d   1      11.610   5.125  -2.827  0.00  0.00    -0.426 OA
BRANCH  35  36
ATOM     36  C   LIG d   1      10.948   6.150  -2.267  0.00  0.00     0.309 C 
ATOM     37  O   LIG d   1      10.530   7.050  -2.958  0.00  0.00    -0.251 OA
BRANCH  36  38
ATOM     38  C   LIG d   1      10.724   6.179  -0.777  0.00  0.00     0.034 C 
ATOM     39  H   LIG d   1      11.221   5.324  -0.319  0.00  0.00     0.034 H 
ATOM     40  H   LIG d   1      11.133   7.101  -0.365  0.00  0.00     0.034 H 
ATOM     41  H   LIG d   1       9.654   6.131  -0.569  0.00  0.00     0.034 H 
ENDBRANCH  36  38
ENDBRANCH  35  36
ENDBRANCH   1  35
TORSDOF 7
ENDMDL
MODEL 7
REMARK VINA RESULT:      -5.9      6.360      8.098
REMARK  7 active torsions:
REMARK  status: ('A' for Active; 'I' for Inactive)
REMARK    1  A    between atoms: C_1  and  C_2 
REMARK    2  A    between atoms: C_2  and  O_4 
REMARK    3  A    between atoms: O_4  and  C_5 
REMARK    4  A    between atoms: C_9  and  O_11 
REMARK    5  A    between atoms: O_11  and  C_12 
REMARK    6  A    between atoms: C_12  and  C_14 
REMARK    7  A    between atoms: C_18  and  C_21 
ROOT
ATOM      1  C   LIG d   1      10.588   4.439  -3.928  0.00  0.00     0.139 A 
ATOM      2  C   LIG d   1       9.463   3.810  -3.413  0.00  0.00     0.024 A 
ATOM      3  C   LIG d   1       9.061   2.583  -3.910  0.00  0.00     0.139 A 
ATOM      4  C   LIG d   1       9.802   1.985  -4.946  0.00  0.00     0.102 A 
ATOM      5  C   LIG d   1      10.941   2.621  -5.459  0.00  0.00     0.149 A 
ATOM      6  C   LIG d   1      11.326   3.848  -4.946  0.00  0.00     0.024 A 
ATOM      7  C   LIG d   1       9.362   0.690  -5.483  0.00  0.00     0.174 C 
ATOM      8  O   LIG d   1       9.822   0.232  -6.510  0.00  0.00    -0.292 OA
ATOM      9  C   LIG d   1       8.299  -0.047  -4.687  0.00  0.00     0.052 C 
ATOM     10  C   LIG d   1       7.289   1.001  -4.197  0.00  0.00     0.132 C 
ATOM     11  H   LIG d   1       6.828   1.492  -5.054  0.00  0.00     0.079 H 
ATOM     12  O   LIG d   1       7.966   1.972  -3.399  0.00  0.00    -0.483 OA
ATOM     13  H   LIG d   1       8.899   4.281  -2.621  0.00  0.00     0.069 H 
ATOM     14  H   LIG d   1      12.202   4.345  -5.337  0.00  0.00     0.069 H 
ATOM     15  H   LIG d   1       8.726  -0.518  -3.916  0.00  0.00     0.038 H 
ATOM     16  H   LIG d   1       7.797  -0.776  -5.325  0.00  0.00     0.038 H 
ENDROOT
BRANCH  10  17
ATOM     17  C   LIG d   1       6.225   0.326  -3.371  0.00  0.00    -0.007 A 
ATOM     18  C   LIG d   1       6.108  -1.052  -3.387  0.00  0.00    -0.055 A 
ATOM     19  C   LIG d   1       5.131  -1.670  -2.629  0.00  0.00    -0.061 A 
ATOM     20  H   LIG d   1       6.779  -1.644  -3.991  0.00  0.00     0.062 H 
ATOM     21  C   LIG d   1       4.272  -0.913  -1.856  0.00  0.00    -0.062 A 
ATOM     22  H   LIG d   1       5.040  -2.747  -2.641  0.00  0.00     0.062 H 
ATOM     23  C   LIG d   1       4.389   0.464  -1.839  0.00  0.00    -0.061 A 
ATOM     24  H   LIG d   1       3.509  -1.397  -1.264  0.00  0.00     0.062 H 
ATOM     25  C   LIG d   1       5.369   1.083  -2.593  0.00  0.00    -0.055 A 
ATOM     26  H   LIG d   1       3.719   1.056  -1.235  0.00  0.00     0.062 H 
ATOM     27  H   LIG d   1       5.463   2.159  -2.578  0.00  0.00     0.062 H 
ENDBRANCH  10  17
BRANCH   5  28
ATOM     28  O   LIG d   1      11.662   2.040  -6.452  0.00  0.00    -0.425 OA
BRANCH  28  29
ATOM     29  C   LIG d   1      12.937   1.724  -6.174  0.00  0.00     0.309 C 
ATOM     30  O   LIG d   1      13.837   2.287  -6.750  0.00  0.00    -0.251 OA
BRANCH  29  31
ATOM     31  C   LIG d   1      13.245   0.667  -5.145  0.00  0.00     0.034 C 
ATOM     32  H   LIG d   1      12.900  -0.303  -5.506  0.00  0.00     0.034 H 
ATOM     33  H   LIG d   1      14.321   0.629  -4.974  0.00  0.00     0.034 H 
ATOM     34  H   LIG d   1      12.737   0.909  -4.212  0.00  0.00     0.034 H 
ENDBRANCH  29  31
ENDBRANCH  28  29
ENDBRANCH   5  28
BRANCH   1  35
ATOM     35  O   LIG d   1      10.972   5.644  -3.434  0.00  0.00    -0.426 OA
BRANCH  35  36
ATOM     36  C   LIG d   1      10.070   6.637  -3.481  0.00  0.00     0.309 C 
ATOM     37  O   LIG d   1       9.636   7.109  -2.455  0.00  0.00    -0.251 OA
BRANCH  36  38
ATOM     38  C   LIG d   1       9.599   7.166  -4.811  0.00  0.00     0.034 C 
ATOM     39  H   LIG d   1       9.109   6.366  -5.367  0.00  0.00     0.034 H 
ATOM     40  H   LIG d   1       8.893   7.980  -4.649  0.00  0.00     0.034 H 
ATOM     41  H   LIG d   1      10.453   7.533  -5.380  0.00  0.00     0.034 H 
ENDBRANCH  36  38
ENDBRANCH  35  36
ENDBRANCH   1  35
TORSDOF 7
ENDMDL
MODEL 8
REMARK VINA RESULT:      -5.9      5.268      7.456
REMARK  7 active torsions:
REMARK  status: ('A' for Active; 'I' for Inactive)
REMARK    1  A    between atoms: C_1  and  C_2 
REMARK    2  A    between atoms: C_2  and  O_4 
REMARK    3  A    between atoms: O_4  and  C_5 
REMARK    4  A    between atoms: C_9  and  O_11 
REMARK    5  A    between atoms: O_11  and  C_12 
REMARK    6  A    between atoms: C_12  and  C_14 
REMARK    7  A    between atoms: C_18  and  C_21 
ROOT
ATOM      1  C   LIG d   1       8.351   2.203  -8.324  0.00  0.00     0.139 A 
ATOM      2  C   LIG d   1       7.505   1.351  -7.626  0.00  0.00     0.024 A 
ATOM      3  C   LIG d   1       7.557   1.295  -6.245  0.00  0.00     0.139 A 
ATOM      4  C   LIG d   1       8.480   2.105  -5.557  0.00  0.00     0.102 A 
ATOM      5  C   LIG d   1       9.328   2.969  -6.266  0.00  0.00     0.149 A 
ATOM      6  C   LIG d   1       9.258   3.011  -7.648  0.00  0.00     0.024 A 
ATOM      7  C   LIG d   1       8.544   2.030  -4.091  0.00  0.00     0.174 C 
ATOM      8  O   LIG d   1       9.454   2.532  -3.463  0.00  0.00    -0.292 OA
ATOM      9  C   LIG d   1       7.412   1.288  -3.402  0.00  0.00     0.052 C 
ATOM     10  C   LIG d   1       7.093   0.052  -4.254  0.00  0.00     0.132 C 
ATOM     11  H   LIG d   1       7.971  -0.592  -4.307  0.00  0.00     0.079 H 
ATOM     12  O   LIG d   1       6.726   0.466  -5.570  0.00  0.00    -0.483 OA
ATOM     13  H   LIG d   1       6.805   0.730  -8.164  0.00  0.00     0.069 H 
ATOM     14  H   LIG d   1       9.908   3.672  -8.201  0.00  0.00     0.069 H 
ATOM     15  H   LIG d   1       6.616   1.887  -3.331  0.00  0.00     0.038 H 
ATOM     16  H   LIG d   1       7.724   0.980  -2.403  0.00  0.00     0.038 H 
ENDROOT
BRANCH  10  17
ATOM     17  C   LIG d   1       5.950  -0.707  -3.630  0.00  0.00    -0.007 A 
ATOM     18  C   LIG d   1       5.562  -1.926  -4.155  0.00  0.00    -0.055 A 
ATOM     19  C   LIG d   1       4.514  -2.622  -3.581  0.00  0.00    -0.061 A 
ATOM     20  H   LIG d   1       6.076  -2.334  -5.011  0.00  0.00     0.062 H 
ATOM     21  C   LIG d   1       3.854  -2.101  -2.484  0.00  0.00    -0.062 A 
ATOM     22  H   LIG d   1       4.210  -3.575  -3.991  0.00  0.00     0.062 H 
ATOM     23  C   LIG d   1       4.243  -0.882  -1.959  0.00  0.00    -0.061 A 
ATOM     24  H   LIG d   1       3.036  -2.644  -2.036  0.00  0.00     0.062 H 
ATOM     25  C   LIG d   1       5.294  -0.188  -2.529  0.00  0.00    -0.055 A 
ATOM     26  H   LIG d   1       3.729  -0.474  -1.102  0.00  0.00     0.062 H 
ATOM     27  H   LIG d   1       5.600   0.762  -2.117  0.00  0.00     0.062 H 
ENDBRANCH  10  17
BRANCH   5  28
ATOM     28  O   LIG d   1      10.210   3.758  -5.603  0.00  0.00    -0.425 OA
BRANCH  28  29
ATOM     29  C   LIG d   1       9.987   5.082  -5.635  0.00  0.00     0.309 C 
ATOM     30  O   LIG d   1       9.106   5.562  -4.962  0.00  0.00    -0.251 OA
BRANCH  29  31
ATOM     31  C   LIG d   1      10.837   5.969  -6.508  0.00  0.00     0.034 C 
ATOM     32  H   LIG d   1      11.618   6.432  -5.904  0.00  0.00     0.034 H 
ATOM     33  H   LIG d   1      11.295   5.371  -7.296  0.00  0.00     0.034 H 
ATOM     34  H   LIG d   1      10.215   6.744  -6.955  0.00  0.00     0.034 H 
ENDBRANCH  29  31
ENDBRANCH  28  29
ENDBRANCH   5  28
BRANCH   1  35
ATOM     35  O   LIG d   1       8.292   2.249  -9.679  0.00  0.00    -0.426 OA
BRANCH  35  36
ATOM     36  C   LIG d   1       9.402   1.901 -10.350  0.00  0.00     0.309 C 
ATOM     37  O   LIG d   1       9.985   2.722 -11.019  0.00  0.00    -0.251 OA
BRANCH  36  38
ATOM     38  C   LIG d   1       9.922   0.490 -10.267  0.00  0.00     0.034 C 
ATOM     39  H   LIG d   1      10.482   0.255 -11.172  0.00  0.00     0.034 H 
ATOM     40  H   LIG d   1      10.576   0.393  -9.400  0.00  0.00     0.034 H 
ATOM     41  H   LIG d   1       9.084  -0.202 -10.168  0.00  0.00     0.034 H 
ENDBRANCH  36  38
ENDBRANCH  35  36
ENDBRANCH   1  35
TORSDOF 7
ENDMDL
MODEL 9
REMARK VINA RESULT:      -5.7      2.549      5.818
REMARK  7 active torsions:
REMARK  status: ('A' for Active; 'I' for Inactive)
REMARK    1  A    between atoms: C_1  and  C_2 
REMARK    2  A    between atoms: C_2  and  O_4 
REMARK    3  A    between atoms: O_4  and  C_5 
REMARK    4  A    between atoms: C_9  and  O_11 
REMARK    5  A    between atoms: O_11  and  C_12 
REMARK    6  A    between atoms: C_12  and  C_14 
REMARK    7  A    between atoms: C_18  and  C_21 
ROOT
ATOM      1  C   LIG d   1       5.311  -1.228  -3.470  0.00  0.00     0.139 A 
ATOM      2  C   LIG d   1       4.561  -0.943  -4.604  0.00  0.00     0.024 A 
ATOM      3  C   LIG d   1       4.784  -1.639  -5.779  0.00  0.00     0.139 A 
ATOM      4  C   LIG d   1       5.782  -2.631  -5.813  0.00  0.00     0.102 A 
ATOM      5  C   LIG d   1       6.532  -2.919  -4.663  0.00  0.00     0.149 A 
ATOM      6  C   LIG d   1       6.291  -2.212  -3.498  0.00  0.00     0.024 A 
ATOM      7  C   LIG d   1       6.027  -3.355  -7.068  0.00  0.00     0.174 C 
ATOM      8  O   LIG d   1       7.006  -4.058  -7.221  0.00  0.00    -0.292 OA
ATOM      9  C   LIG d   1       4.993  -3.177  -8.165  0.00  0.00     0.052 C 
ATOM     10  C   LIG d   1       4.575  -1.700  -8.162  0.00  0.00     0.132 C 
ATOM     11  H   LIG d   1       5.442  -1.075  -8.374  0.00  0.00     0.079 H 
ATOM     12  O   LIG d   1       4.046  -1.361  -6.880  0.00  0.00    -0.483 OA
ATOM     13  H   LIG d   1       3.802  -0.176  -4.568  0.00  0.00     0.069 H 
ATOM     14  H   LIG d   1       6.866  -2.427  -2.609  0.00  0.00     0.069 H 
ATOM     15  H   LIG d   1       4.209  -3.770  -7.982  0.00  0.00     0.038 H 
ATOM     16  H   LIG d   1       5.427  -3.438  -9.131  0.00  0.00     0.038 H 
ENDROOT
BRANCH  10  17
ATOM     17  C   LIG d   1       3.522  -1.474  -9.215  0.00  0.00    -0.007 A 
ATOM     18  C   LIG d   1       2.370  -0.775  -8.902  0.00  0.00    -0.055 A 
ATOM     19  C   LIG d   1       1.404  -0.567  -9.870  0.00  0.00    -0.061 A 
ATOM     20  H   LIG d   1       2.225  -0.392  -7.904  0.00  0.00     0.062 H 
ATOM     21  C   LIG d   1       1.589  -1.057 -11.149  0.00  0.00    -0.062 A 
ATOM     22  H   LIG d   1       0.505  -0.021  -9.625  0.00  0.00     0.062 H 
ATOM     23  C   LIG d   1       2.740  -1.756 -11.462  0.00  0.00    -0.061 A 
ATOM     24  H   LIG d   1       0.834  -0.895 -11.904  0.00  0.00     0.062 H 
ATOM     25  C   LIG d   1       3.709  -1.960 -10.496  0.00  0.00    -0.055 A 
ATOM     26  H   LIG d   1       2.885  -2.138 -12.460  0.00  0.00     0.062 H 
ATOM     27  H   LIG d   1       4.610  -2.501 -10.741  0.00  0.00     0.062 H 
ENDBRANCH  10  17
BRANCH   5  28
ATOM     28  O   LIG d   1       7.487  -3.882  -4.693  0.00  0.00    -0.425 OA
BRANCH  28  29
ATOM     29  C   LIG d   1       8.728  -3.522  -4.330  0.00  0.00     0.309 C 
ATOM     30  O   LIG d   1       9.354  -2.743  -5.011  0.00  0.00    -0.251 OA
BRANCH  29  31
ATOM     31  C   LIG d   1       9.342  -4.088  -3.075  0.00  0.00     0.034 C 
ATOM     32  H   LIG d   1       8.669  -3.918  -2.234  0.00  0.00     0.034 H 
ATOM     33  H   LIG d   1       9.504  -5.159  -3.201  0.00  0.00     0.034 H 
ATOM     34  H   LIG d   1      10.295  -3.596  -2.883  0.00  0.00     0.034 H 
ENDBRANCH  29  31
ENDBRANCH  28  29
ENDBRANCH   5  28
BRANCH   1  35
ATOM     35  O   LIG d   1       5.084  -0.538  -2.323  0.00  0.00    -0.426 OA
BRANCH  35  36
ATOM     36  C   LIG d   1       4.974   0.797  -2.426  0.00  0.00     0.309 C 
ATOM     37  O   LIG d   1       5.957   1.470  -2.632  0.00  0.00    -0.251 OA
BRANCH  36  38
ATOM     38  C   LIG d   1       3.627   1.455  -2.287  0.00  0.00     0.034 C 
ATOM     39  H   LIG d   1       3.758   2.486  -1.960  0.00  0.00     0.034 H 
ATOM     40  H   LIG d   1       3.113   1.441  -3.248  0.00  0.00     0.034 H 
ATOM     41  H   LIG d   1       3.032   0.913  -1.550  0.00  0.00     0.034 H 
ENDBRANCH  36  38
ENDBRANCH  35  36
ENDBRANCH   1  35
TORSDOF 7
ENDMDL
MODEL 10
REMARK VINA RESULT:      -5.6      5.133      6.579
REMARK  7 active torsions:
REMARK  status: ('A' for Active; 'I' for Inactive)
REMARK    1  A    between atoms: C_1  and  C_2 
REMARK    2  A    between atoms: C_2  and  O_4 
REMARK    3  A    between atoms: O_4  and  C_5 
REMARK    4  A    between atoms: C_9  and  O_11 
REMARK    5  A    between atoms: O_11  and  C_12 
REMARK    6  A    between atoms: C_12  and  C_14 
REMARK    7  A    between atoms: C_18  and  C_21 
ROOT
ATOM      1  C   LIG d   1       9.681   3.653  -5.102  0.00  0.00     0.139 A 
ATOM      2  C   LIG d   1       8.774   2.916  -4.353  0.00  0.00     0.024 A 
ATOM      3  C   LIG d   1       8.033   1.911  -4.948  0.00  0.00     0.139 A 
ATOM      4  C   LIG d   1       8.205   1.650  -6.320  0.00  0.00     0.102 A 
ATOM      5  C   LIG d   1       9.127   2.394  -7.071  0.00  0.00     0.149 A 
ATOM      6  C   LIG d   1       9.859   3.394  -6.455  0.00  0.00     0.024 A 
ATOM      7  C   LIG d   1       7.403   0.593  -6.953  0.00  0.00     0.174 C 
ATOM      8  O   LIG d   1       7.346   0.468  -8.159  0.00  0.00    -0.292 OA
ATOM      9  C   LIG d   1       6.648  -0.335  -6.017  0.00  0.00     0.052 C 
ATOM     10  C   LIG d   1       6.082   0.528  -4.880  0.00  0.00     0.132 C 
ATOM     11  H   LIG d   1       5.396   1.269  -5.291  0.00  0.00     0.079 H 
ATOM     12  O   LIG d   1       7.154   1.191  -4.211  0.00  0.00    -0.483 OA
ATOM     13  H   LIG d   1       8.646   3.129  -3.301  0.00  0.00     0.069 H 
ATOM     14  H   LIG d   1      10.570   3.971  -7.027  0.00  0.00     0.069 H 
ATOM     15  H   LIG d   1       7.272  -1.029  -5.661  0.00  0.00     0.038 H 
ATOM     16  H   LIG d   1       5.833  -0.821  -6.555  0.00  0.00     0.038 H 
ENDROOT
BRANCH  10  17
ATOM     17  C   LIG d   1       5.346  -0.351  -3.901  0.00  0.00    -0.007 A 
ATOM     18  C   LIG d   1       5.009   0.137  -2.652  0.00  0.00    -0.055 A 
ATOM     19  C   LIG d   1       4.334  -0.670  -1.755  0.00  0.00    -0.061 A 
ATOM     20  H   LIG d   1       5.272   1.147  -2.378  0.00  0.00     0.062 H 
ATOM     21  C   LIG d   1       3.996  -1.963  -2.106  0.00  0.00    -0.062 A 
ATOM     22  H   LIG d   1       4.070  -0.288  -0.780  0.00  0.00     0.062 H 
ATOM     23  C   LIG d   1       4.333  -2.451  -3.355  0.00  0.00    -0.061 A 
ATOM     24  H   LIG d   1       3.469  -2.593  -1.405  0.00  0.00     0.062 H 
ATOM     25  C   LIG d   1       5.004  -1.643  -4.254  0.00  0.00    -0.055 A 
ATOM     26  H   LIG d   1       4.069  -3.461  -3.629  0.00  0.00     0.062 H 
ATOM     27  H   LIG d   1       5.263  -2.023  -5.231  0.00  0.00     0.062 H 
ENDBRANCH  10  17
BRANCH   5  28
ATOM     28  O   LIG d   1       9.300   2.135  -8.392  0.00  0.00    -0.425 OA
BRANCH  28  29
ATOM     29  C   LIG d   1       9.059   3.142  -9.247  0.00  0.00     0.309 C 
ATOM     30  O   LIG d   1       7.945   3.599  -9.342  0.00  0.00    -0.251 OA
BRANCH  29  31
ATOM     31  C   LIG d   1      10.178   3.702 -10.087  0.00  0.00     0.034 C 
ATOM     32  H   LIG d   1      11.073   3.811  -9.473  0.00  0.00     0.034 H 
ATOM     33  H   LIG d   1      10.386   3.023 -10.915  0.00  0.00     0.034 H 
ATOM     34  H   LIG d   1       9.885   4.675 -10.480  0.00  0.00     0.034 H 
ENDBRANCH  29  31
ENDBRANCH  28  29
ENDBRANCH   5  28
BRANCH   1  35
ATOM     35  O   LIG d   1      10.401   4.638  -4.507  0.00  0.00    -0.426 OA
BRANCH  35  36
ATOM     36  C   LIG d   1       9.722   5.709  -4.066  0.00  0.00     0.309 C 
ATOM     37  O   LIG d   1       9.556   5.873  -2.879  0.00  0.00    -0.251 OA
BRANCH  36  38
ATOM     38  C   LIG d   1       9.167   6.707  -5.048  0.00  0.00     0.034 C 
ATOM     39  H   LIG d   1       9.852   6.808  -5.890  0.00  0.00     0.034 H 
ATOM     40  H   LIG d   1       8.197   6.363  -5.409  0.00  0.00     0.034 H 
ATOM     41  H   LIG d   1       9.049   7.674  -4.558  0.00  0.00     0.034 H 
ENDBRANCH  36  38
ENDBRANCH  35  36
ENDBRANCH   1  35
TORSDOF 7
ENDMDL
