MODEL 1
REMARK VINA RESULT:      -6.2      0.000      0.000
REMARK  17 active torsions:
REMARK  status: ('A' for Active; 'I' for Inactive)
REMARK    1  A    between atoms: C_1  and  C_2 
REMARK    2  A    between atoms: C_2  and  C_4 
REMARK    3  A    between atoms: C_2  and  N_6 
REMARK       I    between atoms: N_6  and  C_7 
REMARK    4  A    between atoms: C_7  and  C_9 
REMARK    5  A    between atoms: C_9  and  C_11 
REMARK    6  A    between atoms: C_9  and  N_16 
REMARK    7  A    between atoms: C_11  and  C_12 
REMARK    8  A    between atoms: C_12  and  C_13 
REMARK       I    between atoms: C_13  and  N_15 
REMARK       I    between atoms: N_16  and  C_17 
REMARK    9  A    between atoms: C_17  and  C_19 
REMARK   10  A    between atoms: C_19  and  C_21 
REMARK   11  A    between atoms: C_19  and  N_29 
REMARK       I    between atoms: N_29  and  C_30 
REMARK       I    between atoms: C_30  and  N_32 
REMARK   12  A    between atoms: N_32  and  C_33 
REMARK   13  A    between atoms: C_33  and  C_35 
REMARK   14  A    between atoms: C_33  and  C_39 
REMARK   15  A    between atoms: C_35  and  C_36 
REMARK   16  A    between atoms: C_36  and  C_37 
REMARK   17  A    between atoms: C_36  and  C_38 
ROOT
ATOM      1  C   UNK d   1       8.963   1.687  -4.572  0.00  0.00     0.132 C 
ATOM      2  H   UNK d   1       8.345   1.848  -5.455  0.00  0.00     0.063 H 
ENDROOT
BRANCH   1   3
ATOM      3  C   UNK d   1      10.315   1.172  -4.991  0.00  0.00     0.237 C 
ATOM      4  N   UNK d   1      10.959   0.269  -4.226  0.00  0.00    -0.302 N 
ATOM      5  H   UNK d   1      10.578  -0.009  -3.379  0.00  0.00     0.149 HD
ATOM      6  O   UNK d   1      10.825   1.570  -6.018  0.00  0.00    -0.274 OA
BRANCH   4   7
ATOM      7  C   UNK d   1      12.236  -0.293  -4.673  0.00  0.00     0.100 C 
ATOM      8  H   UNK d   1      12.401  -0.033  -5.719  0.00  0.00     0.059 H 
BRANCH   7   9
ATOM      9  C   UNK d   1      12.205  -1.792  -4.527  0.00  0.00     0.234 C 
ATOM     10  N   UNK d   1      11.093  -2.401  -4.068  0.00  0.00    -0.305 N 
ATOM     11  H   UNK d   1      10.314  -1.874  -3.832  0.00  0.00     0.149 HD
ATOM     12  O   UNK d   1      13.180  -2.451  -4.821  0.00  0.00    -0.274 OA
BRANCH  10  13
ATOM     13  C   UNK d   1      11.063  -3.859  -3.926  0.00  0.00     0.076 C 
ATOM     14  H   UNK d   1      12.083  -4.242  -3.882  0.00  0.00     0.057 H 
BRANCH  13  15
ATOM     15  C   UNK d   1      10.323  -4.231  -2.640  0.00  0.00    -0.040 C 
ATOM     16  H   UNK d   1      10.664  -3.591  -1.826  0.00  0.00     0.025 H 
ATOM     17  H   UNK d   1       9.250  -4.095  -2.785  0.00  0.00     0.025 H 
ATOM     18  H   UNK d   1      10.526  -5.272  -2.391  0.00  0.00     0.025 H 
ENDBRANCH  13  15
BRANCH  13  19
ATOM     19  C   UNK d   1      10.351  -4.464  -5.109  0.00  0.00     0.140 C 
ATOM     20  O   UNK d   1       9.234  -4.905  -4.980  0.00  0.00    -0.299 OA
ATOM     21  H   UNK d   1      10.840  -4.503  -6.071  0.00  0.00     0.105 H 
ENDBRANCH  13  19
ENDBRANCH  10  13
ENDBRANCH   7   9
BRANCH   7  22
ATOM     22  C   UNK d   1      13.371   0.279  -3.821  0.00  0.00    -0.018 C 
ATOM     23  H   UNK d   1      12.959   0.704  -2.905  0.00  0.00     0.029 H 
ATOM     24  H   UNK d   1      14.072  -0.517  -3.567  0.00  0.00     0.029 H 
BRANCH  22  25
ATOM     25  C   UNK d   1      14.100   1.369  -4.607  0.00  0.00     0.026 C 
ATOM     26  H   UNK d   1      15.175   1.199  -4.553  0.00  0.00     0.036 H 
ATOM     27  H   UNK d   1      13.781   1.342  -5.648  0.00  0.00     0.036 H 
BRANCH  25  28
ATOM     28  C   UNK d   1      13.775   2.717  -4.017  0.00  0.00     0.211 C 
ATOM     29  O   UNK d   1      13.058   3.487  -4.623  0.00  0.00    -0.276 OA
ATOM     30  N   UNK d   1      14.279   3.068  -2.818  0.00  0.00    -0.329 N 
ATOM     31  H   UNK d   1      14.852   2.453  -2.334  0.00  0.00     0.145 HD
ATOM     32  H   UNK d   1      14.070   3.936  -2.439  0.00  0.00     0.145 HD
ENDBRANCH  25  28
ENDBRANCH  22  25
ENDBRANCH   7  22
ENDBRANCH   4   7
ENDBRANCH   1   3
BRANCH   1  33
ATOM     33  C   UNK d   1       9.132   3.008  -3.819  0.00  0.00     0.098 C 
ATOM     34  H   UNK d   1       8.256   3.187  -3.193  0.00  0.00     0.069 H 
ATOM     35  N   UNK d   1      10.336   2.946  -2.976  0.00  0.00    -0.236 N 
ATOM     36  C   UNK d   1      10.775   4.129  -2.400  0.00  0.00     0.327 C 
ATOM     37  H   UNK d   1      10.807   2.110  -2.831  0.00  0.00     0.245 HD
ATOM     38  N   UNK d   1      10.751   5.257  -3.207  0.00  0.00    -0.241 N 
ATOM     39  N   UNK d   1      11.183   4.178  -1.164  0.00  0.00    -0.295 N 
ATOM     40  C   UNK d   1       9.569   5.456  -4.061  0.00  0.00     0.061 C 
ATOM     41  H   UNK d   1      11.488   5.889  -3.209  0.00  0.00     0.244 HD
ATOM     42  C   UNK d   1       9.290   4.155  -4.823  0.00  0.00     0.010 C 
ATOM     43  H   UNK d   1       9.762   6.262  -4.770  0.00  0.00     0.063 H 
ATOM     44  H   UNK d   1       8.710   5.709  -3.441  0.00  0.00     0.063 H 
ATOM     45  H   UNK d   1      10.121   3.940  -5.493  0.00  0.00     0.033 H 
ATOM     46  H   UNK d   1       8.372   4.263  -5.402  0.00  0.00     0.033 H 
ATOM     47  H   UNK d   1      11.482   5.020  -0.785  0.00  0.00     0.254 HD
ATOM     48  H   UNK d   1      11.189   3.374  -0.623  0.00  0.00     0.254 HD
ENDBRANCH   1  33
BRANCH   1  49
ATOM     49  N   UNK d   1       8.317   0.705  -3.697  0.00  0.00    -0.285 N 
ATOM     50  C   UNK d   0       7.088   0.238  -3.999  0.00  0.00     0.301 C 
ATOM     51  O   UNK d   0       6.518   0.632  -4.998  0.00  0.00    -0.253 OA
ATOM     52  N   UNK d   1       6.494  -0.665  -3.195  0.00  0.00    -0.291 N 
ATOM     53  H   UNK d   1       6.951  -0.979  -2.398  0.00  0.00     0.151 HD
ATOM     54  H   UNK d   1       8.772   0.391  -2.900  0.00  0.00     0.151 HD
BRANCH  52  55
ATOM     55  C   UNK d   1       5.160  -1.172  -3.523  0.00  0.00     0.064 C 
ATOM     56  H   UNK d   1       4.748  -0.601  -4.355  0.00  0.00     0.056 H 
BRANCH  55  57
ATOM     57  C   UNK d   1       4.247  -1.031  -2.304  0.00  0.00    -0.027 C 
ATOM     58  H   UNK d   1       3.752  -1.982  -2.108  0.00  0.00     0.029 H 
ATOM     59  H   UNK d   1       4.839  -0.743  -1.436  0.00  0.00     0.029 H 
BRANCH  57  60
ATOM     60  C   UNK d   1       3.192   0.043  -2.580  0.00  0.00    -0.045 C 
ATOM     61  H   UNK d   1       2.338  -0.110  -1.920  0.00  0.00     0.030 H 
BRANCH  60  62
ATOM     62  C   UNK d   1       3.793   1.427  -2.323  0.00  0.00    -0.063 C 
ATOM     63  H   UNK d   1       3.640   2.058  -3.199  0.00  0.00     0.023 H 
ATOM     64  H   UNK d   1       3.306   1.879  -1.459  0.00  0.00     0.023 H 
ATOM     65  H   UNK d   1       4.861   1.328  -2.129  0.00  0.00     0.023 H 
ENDBRANCH  60  62
BRANCH  60  66
ATOM     66  C   UNK d   1       2.735  -0.052  -4.037  0.00  0.00    -0.063 C 
ATOM     67  H   UNK d   1       3.608  -0.071  -4.690  0.00  0.00     0.023 H 
ATOM     68  H   UNK d   1       2.156  -0.965  -4.179  0.00  0.00     0.023 H 
ATOM     69  H   UNK d   1       2.116   0.812  -4.281  0.00  0.00     0.023 H 
ENDBRANCH  60  66
ENDBRANCH  57  60
ENDBRANCH  55  57
BRANCH  55  70
ATOM     70  C   UNK d   1       5.257  -2.626  -3.912  0.00  0.00     0.062 C 
ATOM     71  O   UNK d   1       4.271  -3.341  -3.845  0.00  0.00    -0.548 OA
ATOM     72  O   UNK d   1       6.319  -3.085  -4.296  0.00  0.00    -0.548 OA
ENDBRANCH  55  70
ENDBRANCH  52  55
ENDBRANCH   1  49
TORSDOF 17
ENDMDL
MODEL 2
REMARK VINA RESULT:      -6.1      3.197      7.223
REMARK  17 active torsions:
REMARK  status: ('A' for Active; 'I' for Inactive)
REMARK    1  A    between atoms: C_1  and  C_2 
REMARK    2  A    between atoms: C_2  and  C_4 
REMARK    3  A    between atoms: C_2  and  N_6 
REMARK       I    between atoms: N_6  and  C_7 
REMARK    4  A    between atoms: C_7  and  C_9 
REMARK    5  A    between atoms: C_9  and  C_11 
REMARK    6  A    between atoms: C_9  and  N_16 
REMARK    7  A    between atoms: C_11  and  C_12 
REMARK    8  A    between atoms: C_12  and  C_13 
REMARK       I    between atoms: C_13  and  N_15 
REMARK       I    between atoms: N_16  and  C_17 
REMARK    9  A    between atoms: C_17  and  C_19 
REMARK   10  A    between atoms: C_19  and  C_21 
REMARK   11  A    between atoms: C_19  and  N_29 
REMARK       I    between atoms: N_29  and  C_30 
REMARK       I    between atoms: C_30  and  N_32 
REMARK   12  A    between atoms: N_32  and  C_33 
REMARK   13  A    between atoms: C_33  and  C_35 
REMARK   14  A    between atoms: C_33  and  C_39 
REMARK   15  A    between atoms: C_35  and  C_36 
REMARK   16  A    between atoms: C_36  and  C_37 
REMARK   17  A    between atoms: C_36  and  C_38 
ROOT
ATOM      1  C   UNK d   1       6.492  -0.967  -4.740  0.00  0.00     0.132 C 
ATOM      2  H   UNK d   1       6.271  -1.720  -5.497  0.00  0.00     0.063 H 
ENDROOT
BRANCH   1   3
ATOM      3  C   UNK d   1       7.113   0.239  -5.396  0.00  0.00     0.237 C 
ATOM      4  N   UNK d   1       7.391   0.219  -6.715  0.00  0.00    -0.302 N 
ATOM      5  H   UNK d   1       7.242  -0.588  -7.230  0.00  0.00     0.149 HD
ATOM      6  O   UNK d   1       7.362   1.227  -4.738  0.00  0.00    -0.274 OA
BRANCH   4   7
ATOM      7  C   UNK d   1       7.919   1.419  -7.369  0.00  0.00     0.100 C 
ATOM      8  H   UNK d   1       8.042   2.212  -6.631  0.00  0.00     0.059 H 
BRANCH   7   9
ATOM      9  C   UNK d   1       6.959   1.872  -8.438  0.00  0.00     0.234 C 
ATOM     10  N   UNK d   1       5.667   1.487  -8.392  0.00  0.00    -0.305 N 
ATOM     11  H   UNK d   1       5.357   0.919  -7.670  0.00  0.00     0.149 HD
ATOM     12  O   UNK d   1       7.348   2.582  -9.342  0.00  0.00    -0.274 OA
BRANCH  10  13
ATOM     13  C   UNK d   1       4.735   1.928  -9.432  0.00  0.00     0.076 C 
ATOM     14  H   UNK d   1       5.099   2.853  -9.879  0.00  0.00     0.057 H 
BRANCH  13  15
ATOM     15  C   UNK d   1       4.624   0.848 -10.509  0.00  0.00    -0.040 C 
ATOM     16  H   UNK d   1       5.295   0.023 -10.267  0.00  0.00     0.025 H 
ATOM     17  H   UNK d   1       3.598   0.481 -10.552  0.00  0.00     0.025 H 
ATOM     18  H   UNK d   1       4.901   1.268 -11.475  0.00  0.00     0.025 H 
ENDBRANCH  13  15
BRANCH  13  19
ATOM     19  C   UNK d   1       3.377   2.168  -8.820  0.00  0.00     0.140 C 
ATOM     20  O   UNK d   1       3.141   1.773  -7.704  0.00  0.00    -0.299 OA
ATOM     21  H   UNK d   1       2.619   2.693  -9.380  0.00  0.00     0.105 H 
ENDBRANCH  13  19
ENDBRANCH  10  13
ENDBRANCH   7   9
BRANCH   7  22
ATOM     22  C   UNK d   1       9.274   1.099  -8.004  0.00  0.00    -0.018 C 
ATOM     23  H   UNK d   1       9.278   0.065  -8.352  0.00  0.00     0.029 H 
ATOM     24  H   UNK d   1       9.447   1.766  -8.849  0.00  0.00     0.029 H 
BRANCH  22  25
ATOM     25  C   UNK d   1      10.381   1.292  -6.967  0.00  0.00     0.026 C 
ATOM     26  H   UNK d   1      11.332   1.450  -7.475  0.00  0.00     0.036 H 
ATOM     27  H   UNK d   1      10.152   2.159  -6.348  0.00  0.00     0.036 H 
BRANCH  25  28
ATOM     28  C   UNK d   1      10.475   0.065  -6.096  0.00  0.00     0.211 C 
ATOM     29  O   UNK d   1      10.457  -1.038  -6.600  0.00  0.00    -0.276 OA
ATOM     30  N   UNK d   1      10.581   0.194  -4.759  0.00  0.00    -0.329 N 
ATOM     31  H   UNK d   1      10.595   1.076  -4.356  0.00  0.00     0.145 HD
ATOM     32  H   UNK d   1      10.641  -0.596  -4.199  0.00  0.00     0.145 HD
ENDBRANCH  25  28
ENDBRANCH  22  25
ENDBRANCH   7  22
ENDBRANCH   4   7
ENDBRANCH   1   3
BRANCH   1  33
ATOM     33  C   UNK d   1       5.197  -0.555  -4.037  0.00  0.00     0.098 C 
ATOM     34  H   UNK d   1       5.430   0.106  -3.201  0.00  0.00     0.069 H 
ATOM     35  N   UNK d   1       4.318   0.142  -4.988  0.00  0.00    -0.236 N 
ATOM     36  C   UNK d   1       3.012   0.385  -4.591  0.00  0.00     0.327 C 
ATOM     37  H   UNK d   1       4.640   0.420  -5.861  0.00  0.00     0.245 HD
ATOM     38  N   UNK d   1       2.363  -0.648  -3.931  0.00  0.00    -0.241 N 
ATOM     39  N   UNK d   1       2.427   1.525  -4.823  0.00  0.00    -0.295 N 
ATOM     40  C   UNK d   1       3.126  -1.389  -2.915  0.00  0.00     0.061 C 
ATOM     41  H   UNK d   1       1.441  -0.874  -4.133  0.00  0.00     0.244 HD
ATOM     42  C   UNK d   1       4.474  -1.803  -3.518  0.00  0.00     0.010 C 
ATOM     43  H   UNK d   1       2.571  -2.279  -2.616  0.00  0.00     0.063 H 
ATOM     44  H   UNK d   1       3.294  -0.752  -2.047  0.00  0.00     0.063 H 
ATOM     45  H   UNK d   1       4.305  -2.495  -4.343  0.00  0.00     0.033 H 
ATOM     46  H   UNK d   1       5.081  -2.287  -2.754  0.00  0.00     0.033 H 
ATOM     47  H   UNK d   1       1.512   1.670  -4.532  0.00  0.00     0.254 HD
ATOM     48  H   UNK d   1       2.904   2.230  -5.287  0.00  0.00     0.254 HD
ENDBRANCH   1  33
BRANCH   1  49
ATOM     49  N   UNK d   1       7.426  -1.523  -3.758  0.00  0.00    -0.285 N 
ATOM     50  C   UNK d   0       8.219  -2.561  -4.094  0.00  0.00     0.301 C 
ATOM     51  O   UNK d   0       8.158  -3.034  -5.212  0.00  0.00    -0.253 OA
ATOM     52  N   UNK d   1       9.078  -3.072  -3.191  0.00  0.00    -0.291 N 
ATOM     53  H   UNK d   1       9.126  -2.694  -2.298  0.00  0.00     0.151 HD
ATOM     54  H   UNK d   1       7.474  -1.146  -2.866  0.00  0.00     0.151 HD
BRANCH  52  55
ATOM     55  C   UNK d   1       9.939  -4.199  -3.556  0.00  0.00     0.064 C 
ATOM     56  H   UNK d   1       9.652  -4.574  -4.538  0.00  0.00     0.056 H 
BRANCH  55  57
ATOM     57  C   UNK d   1       9.787  -5.314  -2.519  0.00  0.00    -0.027 C 
ATOM     58  H   UNK d   1      10.673  -5.344  -1.885  0.00  0.00     0.029 H 
ATOM     59  H   UNK d   1       8.907  -5.124  -1.906  0.00  0.00     0.029 H 
BRANCH  57  60
ATOM     60  C   UNK d   1       9.629  -6.658  -3.235  0.00  0.00    -0.045 C 
ATOM     61  H   UNK d   1      10.597  -6.981  -3.618  0.00  0.00     0.030 H 
BRANCH  60  62
ATOM     62  C   UNK d   1       9.096  -7.701  -2.249  0.00  0.00    -0.063 C 
ATOM     63  H   UNK d   1       8.393  -8.357  -2.761  0.00  0.00     0.023 H 
ATOM     64  H   UNK d   1       9.928  -8.290  -1.861  0.00  0.00     0.023 H 
ATOM     65  H   UNK d   1       8.592  -7.197  -1.426  0.00  0.00     0.023 H 
ENDBRANCH  60  62
BRANCH  60  66
ATOM     66  C   UNK d   1       8.645  -6.505  -4.397  0.00  0.00    -0.063 C 
ATOM     67  H   UNK d   1       9.167  -6.674  -5.339  0.00  0.00     0.023 H 
ATOM     68  H   UNK d   1       7.841  -7.232  -4.291  0.00  0.00     0.023 H 
ATOM     69  H   UNK d   1       8.228  -5.497  -4.388  0.00  0.00     0.023 H 
ENDBRANCH  60  66
ENDBRANCH  57  60
ENDBRANCH  55  57
BRANCH  55  70
ATOM     70  C   UNK d   1      11.375  -3.742  -3.595  0.00  0.00     0.062 C 
ATOM     71  O   UNK d   1      11.640  -2.591  -3.897  0.00  0.00    -0.548 OA
ATOM     72  O   UNK d   1      12.271  -4.523  -3.322  0.00  0.00    -0.548 OA
ENDBRANCH  55  70
ENDBRANCH  52  55
ENDBRANCH   1  49
TORSDOF 17
ENDMDL
MODEL 3
REMARK VINA RESULT:      -6.0      3.143      5.606
REMARK  17 active torsions:
REMARK  status: ('A' for Active; 'I' for Inactive)
REMARK    1  A    between atoms: C_1  and  C_2 
REMARK    2  A    between atoms: C_2  and  C_4 
REMARK    3  A    between atoms: C_2  and  N_6 
REMARK       I    between atoms: N_6  and  C_7 
REMARK    4  A    between atoms: C_7  and  C_9 
REMARK    5  A    between atoms: C_9  and  C_11 
REMARK    6  A    between atoms: C_9  and  N_16 
REMARK    7  A    between atoms: C_11  and  C_12 
REMARK    8  A    between atoms: C_12  and  C_13 
REMARK       I    between atoms: C_13  and  N_15 
REMARK       I    between atoms: N_16  and  C_17 
REMARK    9  A    between atoms: C_17  and  C_19 
REMARK   10  A    between atoms: C_19  and  C_21 
REMARK   11  A    between atoms: C_19  and  N_29 
REMARK       I    between atoms: N_29  and  C_30 
REMARK       I    between atoms: C_30  and  N_32 
REMARK   12  A    between atoms: N_32  and  C_33 
REMARK   13  A    between atoms: C_33  and  C_35 
REMARK   14  A    between atoms: C_33  and  C_39 
REMARK   15  A    between atoms: C_35  and  C_36 
REMARK   16  A    between atoms: C_36  and  C_37 
REMARK   17  A    between atoms: C_36  and  C_38 
ROOT
ATOM      1  C   UNK d   1       8.196   1.894  -5.179  0.00  0.00     0.132 C 
ATOM      2  H   UNK d   1       7.364   2.508  -4.836  0.00  0.00     0.063 H 
ENDROOT
BRANCH   1   3
ATOM      3  C   UNK d   1       8.213   1.866  -6.685  0.00  0.00     0.237 C 
ATOM      4  N   UNK d   1       7.251   1.205  -7.358  0.00  0.00    -0.302 N 
ATOM      5  H   UNK d   1       6.579   0.701  -6.873  0.00  0.00     0.149 HD
ATOM      6  O   UNK d   1       9.093   2.440  -7.293  0.00  0.00    -0.274 OA
BRANCH   4   7
ATOM      7  C   UNK d   1       7.221   1.245  -8.822  0.00  0.00     0.100 C 
ATOM      8  H   UNK d   1       7.599   2.208  -9.167  0.00  0.00     0.059 H 
BRANCH   7   9
ATOM      9  C   UNK d   1       5.804   1.061  -9.301  0.00  0.00     0.234 C 
ATOM     10  N   UNK d   1       4.809   0.884  -8.408  0.00  0.00    -0.305 N 
ATOM     11  H   UNK d   1       5.005   0.876  -7.459  0.00  0.00     0.149 HD
ATOM     12  O   UNK d   1       5.559   1.070 -10.489  0.00  0.00    -0.274 OA
BRANCH  10  13
ATOM     13  C   UNK d   1       3.432   0.704  -8.875  0.00  0.00     0.076 C 
ATOM     14  H   UNK d   1       3.438   0.421  -9.927  0.00  0.00     0.057 H 
BRANCH  13  15
ATOM     15  C   UNK d   1       2.754  -0.395  -8.054  0.00  0.00    -0.040 C 
ATOM     16  H   UNK d   1       2.012  -0.903  -8.670  0.00  0.00     0.025 H 
ATOM     17  H   UNK d   1       3.503  -1.114  -7.720  0.00  0.00     0.025 H 
ATOM     18  H   UNK d   1       2.264   0.048  -7.187  0.00  0.00     0.025 H 
ENDBRANCH  13  15
BRANCH  13  19
ATOM     19  C   UNK d   1       2.673   1.996  -8.707  0.00  0.00     0.140 C 
ATOM     20  O   UNK d   1       2.665   2.558  -7.638  0.00  0.00    -0.299 OA
ATOM     21  H   UNK d   1       2.136   2.419  -9.544  0.00  0.00     0.105 H 
ENDBRANCH  13  19
ENDBRANCH  10  13
ENDBRANCH   7   9
BRANCH   7  22
ATOM     22  C   UNK d   1       8.098   0.123  -9.381  0.00  0.00    -0.018 C 
ATOM     23  H   UNK d   1       8.113   0.182 -10.470  0.00  0.00     0.029 H 
ATOM     24  H   UNK d   1       9.113   0.230  -8.999  0.00  0.00     0.029 H 
BRANCH  22  25
ATOM     25  C   UNK d   1       7.531  -1.230  -8.951  0.00  0.00     0.026 C 
ATOM     26  H   UNK d   1       6.496  -1.107  -8.635  0.00  0.00     0.036 H 
ATOM     27  H   UNK d   1       7.575  -1.926  -9.788  0.00  0.00     0.036 H 
BRANCH  25  28
ATOM     28  C   UNK d   1       8.344  -1.775  -7.804  0.00  0.00     0.211 C 
ATOM     29  O   UNK d   1       9.250  -1.116  -7.337  0.00  0.00    -0.276 OA
ATOM     30  N   UNK d   1       8.065  -2.992  -7.298  0.00  0.00    -0.329 N 
ATOM     31  H   UNK d   1       7.342  -3.518  -7.671  0.00  0.00     0.145 HD
ATOM     32  H   UNK d   1       8.589  -3.341  -6.560  0.00  0.00     0.145 HD
ENDBRANCH  25  28
ENDBRANCH  22  25
ENDBRANCH   7  22
ENDBRANCH   4   7
ENDBRANCH   1   3
BRANCH   1  33
ATOM     33  C   UNK d   1       9.511   2.482  -4.665  0.00  0.00     0.098 C 
ATOM     34  H   UNK d   1       9.871   3.240  -5.362  0.00  0.00     0.069 H 
ATOM     35  N   UNK d   1       9.297   3.091  -3.342  0.00  0.00    -0.236 N 
ATOM     36  C   UNK d   1      10.422   3.468  -2.623  0.00  0.00     0.327 C 
ATOM     37  H   UNK d   1       8.404   3.220  -2.986  0.00  0.00     0.245 HD
ATOM     38  N   UNK d   1      11.489   2.582  -2.631  0.00  0.00    -0.241 N 
ATOM     39  N   UNK d   1      10.473   4.598  -1.977  0.00  0.00    -0.295 N 
ATOM     40  C   UNK d   1      11.833   1.947  -3.913  0.00  0.00     0.061 C 
ATOM     41  H   UNK d   1      11.988   2.388  -1.822  0.00  0.00     0.244 HD
ATOM     42  C   UNK d   1      10.556   1.368  -4.533  0.00  0.00     0.010 C 
ATOM     43  H   UNK d   1      12.553   1.146  -3.742  0.00  0.00     0.063 H 
ATOM     44  H   UNK d   1      12.263   2.690  -4.585  0.00  0.00     0.063 H 
ATOM     45  H   UNK d   1      10.167   0.578  -3.892  0.00  0.00     0.033 H 
ATOM     46  H   UNK d   1      10.782   0.961  -5.518  0.00  0.00     0.033 H 
ATOM     47  H   UNK d   1      11.274   4.840  -1.484  0.00  0.00     0.254 HD
ATOM     48  H   UNK d   1       9.712   5.199  -1.989  0.00  0.00     0.254 HD
ENDBRANCH   1  33
BRANCH   1  49
ATOM     49  N   UNK d   1       8.039   0.530  -4.668  0.00  0.00    -0.285 N 
ATOM     50  C   UNK d   0       6.806   0.001  -4.526  0.00  0.00     0.301 C 
ATOM     51  O   UNK d   0       5.826   0.657  -4.823  0.00  0.00    -0.253 OA
ATOM     52  N   UNK d   1       6.661  -1.253  -4.057  0.00  0.00    -0.291 N 
ATOM     53  H   UNK d   1       7.443  -1.776  -3.820  0.00  0.00     0.151 HD
ATOM     54  H   UNK d   1       8.820   0.007  -4.431  0.00  0.00     0.151 HD
BRANCH  52  55
ATOM     55  C   UNK d   1       5.322  -1.827  -3.902  0.00  0.00     0.064 C 
ATOM     56  H   UNK d   1       4.600  -1.215  -4.443  0.00  0.00     0.056 H 
BRANCH  55  57
ATOM     57  C   UNK d   1       4.951  -1.865  -2.419  0.00  0.00    -0.027 C 
ATOM     58  H   UNK d   1       4.618  -2.869  -2.153  0.00  0.00     0.029 H 
ATOM     59  H   UNK d   1       5.821  -1.600  -1.819  0.00  0.00     0.029 H 
BRANCH  57  60
ATOM     60  C   UNK d   1       3.823  -0.867  -2.150  0.00  0.00    -0.045 C 
ATOM     61  H   UNK d   1       3.200  -1.235  -1.335  0.00  0.00     0.030 H 
BRANCH  60  62
ATOM     62  C   UNK d   1       4.422   0.487  -1.762  0.00  0.00    -0.063 C 
ATOM     63  H   UNK d   1       4.438   0.580  -0.676  0.00  0.00     0.023 H 
ATOM     64  H   UNK d   1       5.440   0.557  -2.148  0.00  0.00     0.023 H 
ATOM     65  H   UNK d   1       3.816   1.287  -2.187  0.00  0.00     0.023 H 
ENDBRANCH  60  62
BRANCH  60  66
ATOM     66  C   UNK d   1       2.972  -0.706  -3.411  0.00  0.00    -0.063 C 
ATOM     67  H   UNK d   1       3.259  -1.463  -4.141  0.00  0.00     0.023 H 
ATOM     68  H   UNK d   1       1.919  -0.826  -3.158  0.00  0.00     0.023 H 
ATOM     69  H   UNK d   1       3.133   0.287  -3.833  0.00  0.00     0.023 H 
ENDBRANCH  60  66
ENDBRANCH  57  60
ENDBRANCH  55  57
BRANCH  55  70
ATOM     70  C   UNK d   1       5.309  -3.228  -4.460  0.00  0.00     0.062 C 
ATOM     71  O   UNK d   1       4.286  -3.891  -4.418  0.00  0.00    -0.548 OA
ATOM     72  O   UNK d   1       6.320  -3.697  -4.954  0.00  0.00    -0.548 OA
ENDBRANCH  55  70
ENDBRANCH  52  55
ENDBRANCH   1  49
TORSDOF 17
ENDMDL
MODEL 4
REMARK VINA RESULT:      -6.0      2.793      6.021
REMARK  17 active torsions:
REMARK  status: ('A' for Active; 'I' for Inactive)
REMARK    1  A    between atoms: C_1  and  C_2 
REMARK    2  A    between atoms: C_2  and  C_4 
REMARK    3  A    between atoms: C_2  and  N_6 
REMARK       I    between atoms: N_6  and  C_7 
REMARK    4  A    between atoms: C_7  and  C_9 
REMARK    5  A    between atoms: C_9  and  C_11 
REMARK    6  A    between atoms: C_9  and  N_16 
REMARK    7  A    between atoms: C_11  and  C_12 
REMARK    8  A    between atoms: C_12  and  C_13 
REMARK       I    between atoms: C_13  and  N_15 
REMARK       I    between atoms: N_16  and  C_17 
REMARK    9  A    between atoms: C_17  and  C_19 
REMARK   10  A    between atoms: C_19  and  C_21 
REMARK   11  A    between atoms: C_19  and  N_29 
REMARK       I    between atoms: N_29  and  C_30 
REMARK       I    between atoms: C_30  and  N_32 
REMARK   12  A    between atoms: N_32  and  C_33 
REMARK   13  A    between atoms: C_33  and  C_35 
REMARK   14  A    between atoms: C_33  and  C_39 
REMARK   15  A    between atoms: C_35  and  C_36 
REMARK   16  A    between atoms: C_36  and  C_37 
REMARK   17  A    between atoms: C_36  and  C_38 
ROOT
ATOM      1  C   UNK d   1       9.232   2.821  -4.009  0.00  0.00     0.132 C 
ATOM      2  H   UNK d   1       8.334   3.434  -3.933  0.00  0.00     0.063 H 
ENDROOT
BRANCH   1   3
ATOM      3  C   UNK d   1       9.771   2.890  -5.414  0.00  0.00     0.237 C 
ATOM      4  N   UNK d   1       9.435   3.921  -6.214  0.00  0.00    -0.302 N 
ATOM      5  H   UNK d   1       8.805   4.590  -5.906  0.00  0.00     0.149 HD
ATOM      6  O   UNK d   1      10.506   2.017  -5.826  0.00  0.00    -0.274 OA
BRANCH   4   7
ATOM      7  C   UNK d   1      10.022   4.031  -7.552  0.00  0.00     0.100 C 
ATOM      8  H   UNK d   1      10.776   3.254  -7.684  0.00  0.00     0.059 H 
BRANCH   7   9
ATOM      9  C   UNK d   1      10.665   5.385  -7.709  0.00  0.00     0.234 C 
ATOM     10  N   UNK d   1      10.417   6.358  -6.809  0.00  0.00    -0.305 N 
ATOM     11  H   UNK d   1       9.825   6.185  -6.061  0.00  0.00     0.149 HD
ATOM     12  O   UNK d   1      11.405   5.600  -8.646  0.00  0.00    -0.274 OA
BRANCH  10  13
ATOM     13  C   UNK d   1      11.041   7.673  -6.963  0.00  0.00     0.076 C 
ATOM     14  H   UNK d   1      11.667   7.678  -7.856  0.00  0.00     0.057 H 
BRANCH  13  15
ATOM     15  C   UNK d   1       9.955   8.742  -7.095  0.00  0.00    -0.040 C 
ATOM     16  H   UNK d   1       8.986   8.307  -6.847  0.00  0.00     0.025 H 
ATOM     17  H   UNK d   1      10.169   9.566  -6.413  0.00  0.00     0.025 H 
ATOM     18  H   UNK d   1       9.933   9.114  -8.119  0.00  0.00     0.025 H 
ENDBRANCH  13  15
BRANCH  13  19
ATOM     19  C   UNK d   1      11.892   7.970  -5.753  0.00  0.00     0.140 C 
ATOM     20  O   UNK d   1      11.897   7.206  -4.818  0.00  0.00    -0.299 OA
ATOM     21  H   UNK d   1      12.496   8.864  -5.725  0.00  0.00     0.105 H 
ENDBRANCH  13  19
ENDBRANCH  10  13
ENDBRANCH   7   9
BRANCH   7  22
ATOM     22  C   UNK d   1       8.926   3.862  -8.606  0.00  0.00    -0.018 C 
ATOM     23  H   UNK d   1       7.999   4.304  -8.240  0.00  0.00     0.029 H 
ATOM     24  H   UNK d   1       9.227   4.362  -9.527  0.00  0.00     0.029 H 
BRANCH  22  25
ATOM     25  C   UNK d   1       8.708   2.374  -8.881  0.00  0.00     0.026 C 
ATOM     26  H   UNK d   1       8.888   2.168  -9.936  0.00  0.00     0.036 H 
ATOM     27  H   UNK d   1       9.398   1.787  -8.275  0.00  0.00     0.036 H 
BRANCH  25  28
ATOM     28  C   UNK d   1       7.291   1.999  -8.531  0.00  0.00     0.211 C 
ATOM     29  O   UNK d   1       6.392   2.233  -9.312  0.00  0.00    -0.276 OA
ATOM     30  N   UNK d   1       7.022   1.404  -7.352  0.00  0.00    -0.329 N 
ATOM     31  H   UNK d   1       7.740   1.217  -6.728  0.00  0.00     0.145 HD
ATOM     32  H   UNK d   1       6.109   1.164  -7.128  0.00  0.00     0.145 HD
ENDBRANCH  25  28
ENDBRANCH  22  25
ENDBRANCH   7  22
ENDBRANCH   4   7
ENDBRANCH   1   3
BRANCH   1  33
ATOM     33  C   UNK d   1      10.288   3.340  -3.032  0.00  0.00     0.098 C 
ATOM     34  H   UNK d   1      10.294   2.720  -2.135  0.00  0.00     0.069 H 
ATOM     35  N   UNK d   1      11.614   3.298  -3.669  0.00  0.00    -0.236 N 
ATOM     36  C   UNK d   1      12.656   3.943  -3.020  0.00  0.00     0.327 C 
ATOM     37  H   UNK d   1      11.753   2.839  -4.513  0.00  0.00     0.245 HD
ATOM     38  N   UNK d   1      12.371   5.186  -2.473  0.00  0.00    -0.241 N 
ATOM     39  N   UNK d   1      13.839   3.407  -2.925  0.00  0.00    -0.295 N 
ATOM     40  C   UNK d   1      11.092   5.337  -1.763  0.00  0.00     0.061 C 
ATOM     41  H   UNK d   1      12.992   5.927  -2.558  0.00  0.00     0.244 HD
ATOM     42  C   UNK d   1       9.969   4.791  -2.652  0.00  0.00     0.010 C 
ATOM     43  H   UNK d   1      10.912   6.392  -1.553  0.00  0.00     0.063 H 
ATOM     44  H   UNK d   1      11.124   4.777  -0.828  0.00  0.00     0.063 H 
ATOM     45  H   UNK d   1       9.893   5.396  -3.555  0.00  0.00     0.033 H 
ATOM     46  H   UNK d   1       9.024   4.827  -2.109  0.00  0.00     0.033 H 
ATOM     47  H   UNK d   1      14.550   3.878  -2.462  0.00  0.00     0.254 HD
ATOM     48  H   UNK d   1      14.010   2.536  -3.316  0.00  0.00     0.254 HD
ENDBRANCH   1  33
BRANCH   1  49
ATOM     49  N   UNK d   1       8.903   1.432  -3.680  0.00  0.00    -0.285 N 
ATOM     50  C   UNK d   0       7.648   0.974  -3.866  0.00  0.00     0.301 C 
ATOM     51  O   UNK d   0       6.791   1.714  -4.308  0.00  0.00    -0.253 OA
ATOM     52  N   UNK d   1       7.346  -0.304  -3.564  0.00  0.00    -0.291 N 
ATOM     53  H   UNK d   1       8.031  -0.894  -3.212  0.00  0.00     0.151 HD
ATOM     54  H   UNK d   1       9.587   0.842  -3.327  0.00  0.00     0.151 HD
BRANCH  52  55
ATOM     55  C   UNK d   1       5.983  -0.801  -3.767  0.00  0.00     0.064 C 
ATOM     56  H   UNK d   1       5.308   0.040  -3.921  0.00  0.00     0.056 H 
BRANCH  55  57
ATOM     57  C   UNK d   1       5.541  -1.593  -2.535  0.00  0.00    -0.027 C 
ATOM     58  H   UNK d   1       5.325  -2.622  -2.823  0.00  0.00     0.029 H 
ATOM     59  H   UNK d   1       6.336  -1.582  -1.790  0.00  0.00     0.029 H 
BRANCH  57  60
ATOM     60  C   UNK d   1       4.281  -0.955  -1.945  0.00  0.00    -0.045 C 
ATOM     61  H   UNK d   1       4.078  -1.391  -0.967  0.00  0.00     0.030 H 
BRANCH  60  62
ATOM     62  C   UNK d   1       4.494   0.553  -1.797  0.00  0.00    -0.063 C 
ATOM     63  H   UNK d   1       5.297   0.873  -2.460  0.00  0.00     0.023 H 
ATOM     64  H   UNK d   1       3.575   1.077  -2.060  0.00  0.00     0.023 H 
ATOM     65  H   UNK d   1       4.761   0.782  -0.766  0.00  0.00     0.023 H 
ENDBRANCH  60  62
BRANCH  60  66
ATOM     66  C   UNK d   1       3.094  -1.213  -2.875  0.00  0.00    -0.063 C 
ATOM     67  H   UNK d   1       3.164  -0.557  -3.743  0.00  0.00     0.023 H 
ATOM     68  H   UNK d   1       3.108  -2.252  -3.204  0.00  0.00     0.023 H 
ATOM     69  H   UNK d   1       2.164  -1.013  -2.342  0.00  0.00     0.023 H 
ENDBRANCH  60  66
ENDBRANCH  57  60
ENDBRANCH  55  57
BRANCH  55  70
ATOM     70  C   UNK d   1       5.951  -1.698  -4.978  0.00  0.00     0.062 C 
ATOM     71  O   UNK d   1       5.819  -1.214  -6.091  0.00  0.00    -0.548 OA
ATOM     72  O   UNK d   1       6.058  -2.905  -4.847  0.00  0.00    -0.548 OA
ENDBRANCH  55  70
ENDBRANCH  52  55
ENDBRANCH   1  49
TORSDOF 17
ENDMDL
MODEL 5
REMARK VINA RESULT:      -5.8      3.427      6.242
REMARK  17 active torsions:
REMARK  status: ('A' for Active; 'I' for Inactive)
REMARK    1  A    between atoms: C_1  and  C_2 
REMARK    2  A    between atoms: C_2  and  C_4 
REMARK    3  A    between atoms: C_2  and  N_6 
REMARK       I    between atoms: N_6  and  C_7 
REMARK    4  A    between atoms: C_7  and  C_9 
REMARK    5  A    between atoms: C_9  and  C_11 
REMARK    6  A    between atoms: C_9  and  N_16 
REMARK    7  A    between atoms: C_11  and  C_12 
REMARK    8  A    between atoms: C_12  and  C_13 
REMARK       I    between atoms: C_13  and  N_15 
REMARK       I    between atoms: N_16  and  C_17 
REMARK    9  A    between atoms: C_17  and  C_19 
REMARK   10  A    between atoms: C_19  and  C_21 
REMARK   11  A    between atoms: C_19  and  N_29 
REMARK       I    between atoms: N_29  and  C_30 
REMARK       I    between atoms: C_30  and  N_32 
REMARK   12  A    between atoms: N_32  and  C_33 
REMARK   13  A    between atoms: C_33  and  C_35 
REMARK   14  A    between atoms: C_33  and  C_39 
REMARK   15  A    between atoms: C_35  and  C_36 
REMARK   16  A    between atoms: C_36  and  C_37 
REMARK   17  A    between atoms: C_36  and  C_38 
ROOT
ATOM      1  C   UNK d   1       8.694   1.702  -4.945  0.00  0.00     0.132 C 
ATOM      2  H   UNK d   1       7.917   2.460  -4.852  0.00  0.00     0.063 H 
ENDROOT
BRANCH   1   3
ATOM      3  C   UNK d   1       8.871   1.339  -6.397  0.00  0.00     0.237 C 
ATOM      4  N   UNK d   1       7.982   1.771  -7.313  0.00  0.00    -0.302 N 
ATOM      5  H   UNK d   1       7.199   2.269  -7.032  0.00  0.00     0.149 HD
ATOM      6  O   UNK d   1       9.815   0.658  -6.741  0.00  0.00    -0.274 OA
BRANCH   4   7
ATOM      7  C   UNK d   1       8.198   1.487  -8.733  0.00  0.00     0.100 C 
ATOM      8  H   UNK d   1       8.850   0.619  -8.836  0.00  0.00     0.059 H 
BRANCH   7   9
ATOM      9  C   UNK d   1       8.841   2.679  -9.392  0.00  0.00     0.234 C 
ATOM     10  N   UNK d   1       8.932   3.849  -8.728  0.00  0.00    -0.305 N 
ATOM     11  H   UNK d   1       8.585   3.922  -7.826  0.00  0.00     0.149 HD
ATOM     12  O   UNK d   1       9.275   2.588 -10.521  0.00  0.00    -0.274 OA
BRANCH  10  13
ATOM     13  C   UNK d   1       9.558   5.008  -9.369  0.00  0.00     0.076 C 
ATOM     14  H   UNK d   1      10.141   4.678 -10.229  0.00  0.00     0.057 H 
BRANCH  13  15
ATOM     15  C   UNK d   1       8.472   5.982  -9.832  0.00  0.00    -0.040 C 
ATOM     16  H   UNK d   1       8.439   6.836  -9.156  0.00  0.00     0.025 H 
ATOM     17  H   UNK d   1       8.699   6.325 -10.842  0.00  0.00     0.025 H 
ATOM     18  H   UNK d   1       7.506   5.478  -9.828  0.00  0.00     0.025 H 
ENDBRANCH  13  15
BRANCH  13  19
ATOM     19  C   UNK d   1      10.465   5.699  -8.383  0.00  0.00     0.140 C 
ATOM     20  O   UNK d   1      10.797   6.845  -8.569  0.00  0.00    -0.299 OA
ATOM     21  H   UNK d   1      10.817   5.169  -7.511  0.00  0.00     0.105 H 
ENDBRANCH  13  19
ENDBRANCH  10  13
ENDBRANCH   7   9
BRANCH   7  22
ATOM     22  C   UNK d   1       6.854   1.196  -9.405  0.00  0.00    -0.018 C 
ATOM     23  H   UNK d   1       6.995   1.122 -10.484  0.00  0.00     0.029 H 
ATOM     24  H   UNK d   1       6.454   0.255  -9.026  0.00  0.00     0.029 H 
BRANCH  22  25
ATOM     25  C   UNK d   1       5.874   2.328  -9.095  0.00  0.00     0.026 C 
ATOM     26  H   UNK d   1       5.969   2.616  -8.048  0.00  0.00     0.036 H 
ATOM     27  H   UNK d   1       6.097   3.186  -9.729  0.00  0.00     0.036 H 
BRANCH  25  28
ATOM     28  C   UNK d   1       4.465   1.861  -9.361  0.00  0.00     0.211 C 
ATOM     29  O   UNK d   1       4.118   1.598 -10.494  0.00  0.00    -0.276 OA
ATOM     30  N   UNK d   1       3.593   1.734  -8.342  0.00  0.00    -0.329 N 
ATOM     31  H   UNK d   1       3.871   1.944  -7.437  0.00  0.00     0.145 HD
ATOM     32  H   UNK d   1       2.687   1.433  -8.514  0.00  0.00     0.145 HD
ENDBRANCH  25  28
ENDBRANCH  22  25
ENDBRANCH   7  22
ENDBRANCH   4   7
ENDBRANCH   1   3
BRANCH   1  33
ATOM     33  C   UNK d   1      10.011   2.249  -4.392  0.00  0.00     0.098 C 
ATOM     34  H   UNK d   1      10.684   1.422  -4.162  0.00  0.00     0.069 H 
ATOM     35  N   UNK d   1      10.637   3.132  -5.389  0.00  0.00    -0.236 N 
ATOM     36  C   UNK d   1      11.717   3.897  -4.975  0.00  0.00     0.327 C 
ATOM     37  H   UNK d   1      10.304   3.179  -6.299  0.00  0.00     0.245 HD
ATOM     38  N   UNK d   1      11.611   4.498  -3.729  0.00  0.00    -0.241 N 
ATOM     39  N   UNK d   1      12.778   4.041  -5.718  0.00  0.00    -0.295 N 
ATOM     40  C   UNK d   1      11.046   3.693  -2.635  0.00  0.00     0.061 C 
ATOM     41  H   UNK d   1      11.898   5.414  -3.587  0.00  0.00     0.244 HD
ATOM     42  C   UNK d   1       9.737   3.057  -3.118  0.00  0.00     0.010 C 
ATOM     43  H   UNK d   1      10.846   4.334  -1.776  0.00  0.00     0.063 H 
ATOM     44  H   UNK d   1      11.752   2.911  -2.354  0.00  0.00     0.063 H 
ATOM     45  H   UNK d   1       9.010   3.840  -3.333  0.00  0.00     0.033 H 
ATOM     46  H   UNK d   1       9.346   2.398  -2.344  0.00  0.00     0.033 H 
ATOM     47  H   UNK d   1      13.522   4.579  -5.403  0.00  0.00     0.254 HD
ATOM     48  H   UNK d   1      12.825   3.609  -6.585  0.00  0.00     0.254 HD
ENDBRANCH   1  33
BRANCH   1  49
ATOM     49  N   UNK d   1       8.304   0.509  -4.188  0.00  0.00    -0.285 N 
ATOM     50  C   UNK d   0       7.036   0.055  -4.252  0.00  0.00     0.301 C 
ATOM     51  O   UNK d   0       6.217   0.636  -4.938  0.00  0.00    -0.253 OA
ATOM     52  N   UNK d   1       6.677  -1.041  -3.557  0.00  0.00    -0.291 N 
ATOM     53  H   UNK d   1       7.332  -1.504  -3.009  0.00  0.00     0.151 HD
ATOM     54  H   UNK d   1       8.958   0.047  -3.641  0.00  0.00     0.151 HD
BRANCH  52  55
ATOM     55  C   UNK d   1       5.300  -1.535  -3.625  0.00  0.00     0.064 C 
ATOM     56  H   UNK d   1       4.718  -0.897  -4.292  0.00  0.00     0.056 H 
BRANCH  55  57
ATOM     57  C   UNK d   1       4.679  -1.513  -2.227  0.00  0.00    -0.027 C 
ATOM     58  H   UNK d   1       4.134  -2.441  -2.057  0.00  0.00     0.029 H 
ATOM     59  H   UNK d   1       5.467  -1.410  -1.481  0.00  0.00     0.029 H 
BRANCH  57  60
ATOM     60  C   UNK d   1       3.715  -0.330  -2.116  0.00  0.00    -0.045 C 
ATOM     61  H   UNK d   1       2.961  -0.546  -1.360  0.00  0.00     0.030 H 
BRANCH  60  62
ATOM     62  C   UNK d   1       4.493   0.927  -1.717  0.00  0.00    -0.063 C 
ATOM     63  H   UNK d   1       5.413   0.638  -1.209  0.00  0.00     0.023 H 
ATOM     64  H   UNK d   1       4.736   1.502  -2.610  0.00  0.00     0.023 H 
ATOM     65  H   UNK d   1       3.883   1.533  -1.048  0.00  0.00     0.023 H 
ENDBRANCH  60  62
BRANCH  60  66
ATOM     66  C   UNK d   1       3.032  -0.099  -3.466  0.00  0.00    -0.063 C 
ATOM     67  H   UNK d   1       1.959  -0.257  -3.362  0.00  0.00     0.023 H 
ATOM     68  H   UNK d   1       3.218   0.922  -3.798  0.00  0.00     0.023 H 
ATOM     69  H   UNK d   1       3.434  -0.798  -4.200  0.00  0.00     0.023 H 
ENDBRANCH  60  66
ENDBRANCH  57  60
ENDBRANCH  55  57
BRANCH  55  70
ATOM     70  C   UNK d   1       5.298  -2.946  -4.154  0.00  0.00     0.062 C 
ATOM     71  O   UNK d   1       6.315  -3.419  -4.634  0.00  0.00    -0.548 OA
ATOM     72  O   UNK d   1       4.281  -3.616  -4.100  0.00  0.00    -0.548 OA
ENDBRANCH  55  70
ENDBRANCH  52  55
ENDBRANCH   1  49
TORSDOF 17
ENDMDL
MODEL 6
REMARK VINA RESULT:      -5.7      6.250     10.337
REMARK  17 active torsions:
REMARK  status: ('A' for Active; 'I' for Inactive)
REMARK    1  A    between atoms: C_1  and  C_2 
REMARK    2  A    between atoms: C_2  and  C_4 
REMARK    3  A    between atoms: C_2  and  N_6 
REMARK       I    between atoms: N_6  and  C_7 
REMARK    4  A    between atoms: C_7  and  C_9 
REMARK    5  A    between atoms: C_9  and  C_11 
REMARK    6  A    between atoms: C_9  and  N_16 
REMARK    7  A    between atoms: C_11  and  C_12 
REMARK    8  A    between atoms: C_12  and  C_13 
REMARK       I    between atoms: C_13  and  N_15 
REMARK       I    between atoms: N_16  and  C_17 
REMARK    9  A    between atoms: C_17  and  C_19 
REMARK   10  A    between atoms: C_19  and  C_21 
REMARK   11  A    between atoms: C_19  and  N_29 
REMARK       I    between atoms: N_29  and  C_30 
REMARK       I    between atoms: C_30  and  N_32 
REMARK   12  A    between atoms: N_32  and  C_33 
REMARK   13  A    between atoms: C_33  and  C_35 
REMARK   14  A    between atoms: C_33  and  C_39 
REMARK   15  A    between atoms: C_35  and  C_36 
REMARK   16  A    between atoms: C_36  and  C_37 
REMARK   17  A    between atoms: C_36  and  C_38 
ROOT
ATOM      1  C   UNK d   1       4.873  -4.612  -7.308  0.00  0.00     0.132 C 
ATOM      2  H   UNK d   1       5.901  -4.258  -7.229  0.00  0.00     0.063 H 
ENDROOT
BRANCH   1   3
ATOM      3  C   UNK d   1       4.293  -4.181  -8.631  0.00  0.00     0.237 C 
ATOM      4  N   UNK d   1       3.761  -2.951  -8.763  0.00  0.00    -0.302 N 
ATOM      5  H   UNK d   1       3.701  -2.362  -7.995  0.00  0.00     0.149 HD
ATOM      6  O   UNK d   1       4.306  -4.942  -9.576  0.00  0.00    -0.274 OA
BRANCH   4   7
ATOM      7  C   UNK d   1       3.270  -2.502 -10.069  0.00  0.00     0.100 C 
ATOM      8  H   UNK d   1       3.590  -3.204 -10.839  0.00  0.00     0.059 H 
BRANCH   7   9
ATOM      9  C   UNK d   1       3.829  -1.136 -10.372  0.00  0.00     0.234 C 
ATOM     10  N   UNK d   1       3.789  -0.167  -9.435  0.00  0.00    -0.305 N 
ATOM     11  H   UNK d   1       3.401  -0.350  -8.566  0.00  0.00     0.149 HD
ATOM     12  O   UNK d   1       4.313  -0.906 -11.461  0.00  0.00    -0.274 OA
BRANCH  10  13
ATOM     13  C   UNK d   1       4.332   1.161  -9.732  0.00  0.00     0.076 C 
ATOM     14  H   UNK d   1       4.514   1.249 -10.803  0.00  0.00     0.057 H 
BRANCH  13  15
ATOM     15  C   UNK d   1       3.330   2.231  -9.294  0.00  0.00    -0.040 C 
ATOM     16  H   UNK d   1       2.875   1.937  -8.348  0.00  0.00     0.025 H 
ATOM     17  H   UNK d   1       3.846   3.183  -9.170  0.00  0.00     0.025 H 
ATOM     18  H   UNK d   1       2.554   2.334 -10.052  0.00  0.00     0.025 H 
ENDBRANCH  13  15
BRANCH  13  19
ATOM     19  C   UNK d   1       5.628   1.351  -8.985  0.00  0.00     0.140 C 
ATOM     20  O   UNK d   1       6.315   2.319  -9.207  0.00  0.00    -0.299 OA
ATOM     21  H   UNK d   1       5.940   0.622  -8.252  0.00  0.00     0.105 H 
ENDBRANCH  13  19
ENDBRANCH  10  13
ENDBRANCH   7   9
BRANCH   7  22
ATOM     22  C   UNK d   1       1.742  -2.433 -10.043  0.00  0.00    -0.018 C 
ATOM     23  H   UNK d   1       1.379  -2.770  -9.072  0.00  0.00     0.029 H 
ATOM     24  H   UNK d   1       1.421  -1.406 -10.214  0.00  0.00     0.029 H 
BRANCH  22  25
ATOM     25  C   UNK d   1       1.173  -3.334 -11.141  0.00  0.00     0.026 C 
ATOM     26  H   UNK d   1       0.427  -2.783 -11.713  0.00  0.00     0.036 H 
ATOM     27  H   UNK d   1       1.977  -3.651 -11.804  0.00  0.00     0.036 H 
BRANCH  25  28
ATOM     28  C   UNK d   1       0.531  -4.545 -10.515  0.00  0.00     0.211 C 
ATOM     29  O   UNK d   1       1.174  -5.563 -10.366  0.00  0.00    -0.276 OA
ATOM     30  N   UNK d   1      -0.757  -4.498 -10.121  0.00  0.00    -0.329 N 
ATOM     31  H   UNK d   1      -1.271  -3.684 -10.240  0.00  0.00     0.145 HD
ATOM     32  H   UNK d   1      -1.169  -5.278  -9.718  0.00  0.00     0.145 HD
ENDBRANCH  25  28
ENDBRANCH  22  25
ENDBRANCH   7  22
ENDBRANCH   4   7
ENDBRANCH   1   3
BRANCH   1  33
ATOM     33  C   UNK d   1       4.851  -6.139  -7.215  0.00  0.00     0.098 C 
ATOM     34  H   UNK d   1       3.947  -6.521  -7.691  0.00  0.00     0.069 H 
ATOM     35  N   UNK d   1       6.035  -6.693  -7.889  0.00  0.00    -0.236 N 
ATOM     36  C   UNK d   1       6.301  -8.042  -7.707  0.00  0.00     0.327 C 
ATOM     37  H   UNK d   1       6.610  -6.136  -8.438  0.00  0.00     0.245 HD
ATOM     38  N   UNK d   1       6.145  -8.537  -6.421  0.00  0.00    -0.241 N 
ATOM     39  N   UNK d   1       6.675  -8.805  -8.695  0.00  0.00    -0.295 N 
ATOM     40  C   UNK d   1       4.965  -8.093  -5.662  0.00  0.00     0.061 C 
ATOM     41  H   UNK d   1       6.791  -9.150  -6.036  0.00  0.00     0.244 HD
ATOM     42  C   UNK d   1       4.875  -6.565  -5.743  0.00  0.00     0.010 C 
ATOM     43  H   UNK d   1       5.063  -8.400  -4.621  0.00  0.00     0.063 H 
ATOM     44  H   UNK d   1       4.067  -8.536  -6.093  0.00  0.00     0.063 H 
ATOM     45  H   UNK d   1       5.742  -6.124  -5.251  0.00  0.00     0.033 H 
ATOM     46  H   UNK d   1       3.964  -6.227  -5.250  0.00  0.00     0.033 H 
ATOM     47  H   UNK d   1       6.852  -9.747  -8.540  0.00  0.00     0.254 HD
ATOM     48  H   UNK d   1       6.776  -8.433  -9.584  0.00  0.00     0.254 HD
ENDBRANCH   1  33
BRANCH   1  49
ATOM     49  N   UNK d   1       4.076  -4.045  -6.218  0.00  0.00    -0.285 N 
ATOM     50  C   UNK d   0       4.360  -2.814  -5.746  0.00  0.00     0.301 C 
ATOM     51  O   UNK d   0       5.277  -2.176  -6.226  0.00  0.00    -0.253 OA
ATOM     52  N   UNK d   1       3.627  -2.291  -4.744  0.00  0.00    -0.291 N 
ATOM     53  H   UNK d   1       2.896  -2.801  -4.361  0.00  0.00     0.151 HD
ATOM     54  H   UNK d   1       3.345  -4.554  -5.835  0.00  0.00     0.151 HD
BRANCH  52  55
ATOM     55  C   UNK d   1       3.935  -0.954  -4.231  0.00  0.00     0.064 C 
ATOM     56  H   UNK d   1       4.995  -0.745  -4.375  0.00  0.00     0.056 H 
BRANCH  55  57
ATOM     57  C   UNK d   1       3.600  -0.890  -2.740  0.00  0.00    -0.027 C 
ATOM     58  H   UNK d   1       2.731  -0.249  -2.590  0.00  0.00     0.029 H 
ATOM     59  H   UNK d   1       3.382  -1.892  -2.372  0.00  0.00     0.029 H 
BRANCH  57  60
ATOM     60  C   UNK d   1       4.793  -0.314  -1.974  0.00  0.00    -0.045 C 
ATOM     61  H   UNK d   1       4.937  -0.876  -1.051  0.00  0.00     0.030 H 
BRANCH  60  62
ATOM     62  C   UNK d   1       6.053  -0.419  -2.837  0.00  0.00    -0.063 C 
ATOM     63  H   UNK d   1       6.933  -0.246  -2.218  0.00  0.00     0.023 H 
ATOM     64  H   UNK d   1       6.108  -1.415  -3.278  0.00  0.00     0.023 H 
ATOM     65  H   UNK d   1       6.012   0.328  -3.630  0.00  0.00     0.023 H 
ENDBRANCH  60  62
BRANCH  60  66
ATOM     66  C   UNK d   1       4.525   1.155  -1.640  0.00  0.00    -0.063 C 
ATOM     67  H   UNK d   1       3.468   1.375  -1.795  0.00  0.00     0.023 H 
ATOM     68  H   UNK d   1       4.786   1.346  -0.600  0.00  0.00     0.023 H 
ATOM     69  H   UNK d   1       5.128   1.791  -2.289  0.00  0.00     0.023 H 
ENDBRANCH  60  66
ENDBRANCH  57  60
ENDBRANCH  55  57
BRANCH  55  70
ATOM     70  C   UNK d   1       3.116   0.070  -4.975  0.00  0.00     0.062 C 
ATOM     71  O   UNK d   1       1.971   0.304  -4.626  0.00  0.00    -0.548 OA
ATOM     72  O   UNK d   1       3.599   0.666  -5.923  0.00  0.00    -0.548 OA
ENDBRANCH  55  70
ENDBRANCH  52  55
ENDBRANCH   1  49
TORSDOF 17
ENDMDL
MODEL 7
REMARK VINA RESULT:      -5.7      5.068      8.400
REMARK  17 active torsions:
REMARK  status: ('A' for Active; 'I' for Inactive)
REMARK    1  A    between atoms: C_1  and  C_2 
REMARK    2  A    between atoms: C_2  and  C_4 
REMARK    3  A    between atoms: C_2  and  N_6 
REMARK       I    between atoms: N_6  and  C_7 
REMARK    4  A    between atoms: C_7  and  C_9 
REMARK    5  A    between atoms: C_9  and  C_11 
REMARK    6  A    between atoms: C_9  and  N_16 
REMARK    7  A    between atoms: C_11  and  C_12 
REMARK    8  A    between atoms: C_12  and  C_13 
REMARK       I    between atoms: C_13  and  N_15 
REMARK       I    between atoms: N_16  and  C_17 
REMARK    9  A    between atoms: C_17  and  C_19 
REMARK   10  A    between atoms: C_19  and  C_21 
REMARK   11  A    between atoms: C_19  and  N_29 
REMARK       I    between atoms: N_29  and  C_30 
REMARK       I    between atoms: C_30  and  N_32 
REMARK   12  A    between atoms: N_32  and  C_33 
REMARK   13  A    between atoms: C_33  and  C_35 
REMARK   14  A    between atoms: C_33  and  C_39 
REMARK   15  A    between atoms: C_35  and  C_36 
REMARK   16  A    between atoms: C_36  and  C_37 
REMARK   17  A    between atoms: C_36  and  C_38 
ROOT
ATOM      1  C   UNK d   1       3.735  -2.524  -7.700  0.00  0.00     0.132 C 
ATOM      2  H   UNK d   1       2.931  -2.827  -7.030  0.00  0.00     0.063 H 
ENDROOT
BRANCH   1   3
ATOM      3  C   UNK d   1       4.761  -3.625  -7.784  0.00  0.00     0.237 C 
ATOM      4  N   UNK d   1       4.843  -4.545  -6.802  0.00  0.00    -0.302 N 
ATOM      5  H   UNK d   1       4.281  -4.468  -6.016  0.00  0.00     0.149 HD
ATOM      6  O   UNK d   1       5.512  -3.684  -8.735  0.00  0.00    -0.274 OA
BRANCH   4   7
ATOM      7  C   UNK d   1       5.785  -5.661  -6.922  0.00  0.00     0.100 C 
ATOM      8  H   UNK d   1       6.271  -5.624  -7.897  0.00  0.00     0.059 H 
BRANCH   7   9
ATOM      9  C   UNK d   1       5.040  -6.963  -6.782  0.00  0.00     0.234 C 
ATOM     10  N   UNK d   1       5.501  -7.918  -5.948  0.00  0.00    -0.305 N 
ATOM     11  H   UNK d   1       6.311  -7.765  -5.438  0.00  0.00     0.149 HD
ATOM     12  O   UNK d   1       4.026  -7.154  -7.420  0.00  0.00    -0.274 OA
BRANCH  10  13
ATOM     13  C   UNK d   1       4.776  -9.184  -5.813  0.00  0.00     0.076 C 
ATOM     14  H   UNK d   1       3.820  -9.113  -6.332  0.00  0.00     0.057 H 
BRANCH  13  15
ATOM     15  C   UNK d   1       5.606 -10.314  -6.423  0.00  0.00    -0.040 C 
ATOM     16  H   UNK d   1       5.011 -11.227  -6.454  0.00  0.00     0.025 H 
ATOM     17  H   UNK d   1       5.905 -10.041  -7.436  0.00  0.00     0.025 H 
ATOM     18  H   UNK d   1       6.495 -10.482  -5.815  0.00  0.00     0.025 H 
ENDBRANCH  13  15
BRANCH  13  19
ATOM     19  C   UNK d   1       4.534  -9.470  -4.353  0.00  0.00     0.140 C 
ATOM     20  O   UNK d   1       3.429  -9.775  -3.973  0.00  0.00    -0.299 OA
ATOM     21  H   UNK d   1       5.349  -9.403  -3.647  0.00  0.00     0.105 H 
ENDBRANCH  13  19
ENDBRANCH  10  13
ENDBRANCH   7   9
BRANCH   7  22
ATOM     22  C   UNK d   1       6.841  -5.557  -5.820  0.00  0.00    -0.018 C 
ATOM     23  H   UNK d   1       6.379  -5.179  -4.908  0.00  0.00     0.029 H 
ATOM     24  H   UNK d   1       7.265  -6.543  -5.629  0.00  0.00     0.029 H 
BRANCH  22  25
ATOM     25  C   UNK d   1       7.950  -4.603  -6.265  0.00  0.00     0.026 C 
ATOM     26  H   UNK d   1       8.921  -5.037  -6.028  0.00  0.00     0.036 H 
ATOM     27  H   UNK d   1       7.878  -4.439  -7.340  0.00  0.00     0.036 H 
BRANCH  25  28
ATOM     28  C   UNK d   1       7.800  -3.287  -5.546  0.00  0.00     0.211 C 
ATOM     29  O   UNK d   1       7.429  -3.267  -4.391  0.00  0.00    -0.276 OA
ATOM     30  N   UNK d   1       8.079  -2.134  -6.185  0.00  0.00    -0.329 N 
ATOM     31  H   UNK d   1       8.375  -2.150  -7.108  0.00  0.00     0.145 HD
ATOM     32  H   UNK d   1       7.982  -1.287  -5.721  0.00  0.00     0.145 HD
ENDBRANCH  25  28
ENDBRANCH  22  25
ENDBRANCH   7  22
ENDBRANCH   4   7
ENDBRANCH   1   3
BRANCH   1  33
ATOM     33  C   UNK d   1       3.165  -2.252  -9.093  0.00  0.00     0.098 C 
ATOM     34  H   UNK d   1       3.982  -2.104  -9.801  0.00  0.00     0.069 H 
ATOM     35  N   UNK d   1       2.342  -3.394  -9.522  0.00  0.00    -0.236 N 
ATOM     36  C   UNK d   1       1.561  -3.228 -10.656  0.00  0.00     0.327 C 
ATOM     37  H   UNK d   1       2.344  -4.230  -9.029  0.00  0.00     0.245 HD
ATOM     38  N   UNK d   1       0.892  -2.019 -10.776  0.00  0.00    -0.241 N 
ATOM     39  N   UNK d   1       1.464  -4.158 -11.563  0.00  0.00    -0.295 N 
ATOM     40  C   UNK d   1       1.631  -0.796 -10.424  0.00  0.00     0.061 C 
ATOM     41  H   UNK d   1      -0.029  -1.982 -11.080  0.00  0.00     0.244 HD
ATOM     42  C   UNK d   1       2.286  -0.997  -9.053  0.00  0.00     0.010 C 
ATOM     43  H   UNK d   1       0.943   0.048 -10.382  0.00  0.00     0.063 H 
ATOM     44  H   UNK d   1       2.400  -0.606 -11.173  0.00  0.00     0.063 H 
ATOM     45  H   UNK d   1       1.513  -1.118  -8.295  0.00  0.00     0.033 H 
ATOM     46  H   UNK d   1       2.900  -0.129  -8.812  0.00  0.00     0.033 H 
ATOM     47  H   UNK d   1       0.913  -4.015 -12.349  0.00  0.00     0.254 HD
ATOM     48  H   UNK d   1       1.943  -4.994 -11.453  0.00  0.00     0.254 HD
ENDBRANCH   1  33
BRANCH   1  49
ATOM     49  N   UNK d   1       4.368  -1.307  -7.185  0.00  0.00    -0.285 N 
ATOM     50  C   UNK d   0       4.654  -1.201  -5.871  0.00  0.00     0.301 C 
ATOM     51  O   UNK d   0       4.388  -2.116  -5.116  0.00  0.00    -0.253 OA
ATOM     52  N   UNK d   1       5.235  -0.082  -5.397  0.00  0.00    -0.291 N 
ATOM     53  H   UNK d   1       5.447   0.648  -6.000  0.00  0.00     0.151 HD
ATOM     54  H   UNK d   1       4.579  -0.578  -7.788  0.00  0.00     0.151 HD
BRANCH  52  55
ATOM     55  C   UNK d   1       5.546   0.033  -3.970  0.00  0.00     0.064 C 
ATOM     56  H   UNK d   1       5.558  -0.959  -3.519  0.00  0.00     0.056 H 
BRANCH  55  57
ATOM     57  C   UNK d   1       4.484   0.894  -3.284  0.00  0.00    -0.027 C 
ATOM     58  H   UNK d   1       4.970   1.689  -2.719  0.00  0.00     0.029 H 
ATOM     59  H   UNK d   1       3.827   1.331  -4.036  0.00  0.00     0.029 H 
BRANCH  57  60
ATOM     60  C   UNK d   1       3.660   0.024  -2.333  0.00  0.00    -0.045 C 
ATOM     61  H   UNK d   1       3.346   0.620  -1.476  0.00  0.00     0.030 H 
BRANCH  60  62
ATOM     62  C   UNK d   1       2.424  -0.505  -3.066  0.00  0.00    -0.063 C 
ATOM     63  H   UNK d   1       1.779  -1.028  -2.360  0.00  0.00     0.023 H 
ATOM     64  H   UNK d   1       1.879   0.331  -3.506  0.00  0.00     0.023 H 
ATOM     65  H   UNK d   1       2.735  -1.191  -3.852  0.00  0.00     0.023 H 
ENDBRANCH  60  62
BRANCH  60  66
ATOM     66  C   UNK d   1       4.510  -1.154  -1.852  0.00  0.00    -0.063 C 
ATOM     67  H   UNK d   1       3.859  -1.934  -1.457  0.00  0.00     0.023 H 
ATOM     68  H   UNK d   1       5.086  -1.551  -2.687  0.00  0.00     0.023 H 
ATOM     69  H   UNK d   1       5.190  -0.815  -1.069  0.00  0.00     0.023 H 
ENDBRANCH  60  66
ENDBRANCH  57  60
ENDBRANCH  55  57
BRANCH  55  70
ATOM     70  C   UNK d   1       6.899   0.677  -3.802  0.00  0.00     0.062 C 
ATOM     71  O   UNK d   1       7.910   0.047  -4.065  0.00  0.00    -0.548 OA
ATOM     72  O   UNK d   1       6.983   1.826  -3.404  0.00  0.00    -0.548 OA
ENDBRANCH  55  70
ENDBRANCH  52  55
ENDBRANCH   1  49
TORSDOF 17
ENDMDL
MODEL 8
REMARK VINA RESULT:      -5.6      5.097      8.657
REMARK  17 active torsions:
REMARK  status: ('A' for Active; 'I' for Inactive)
REMARK    1  A    between atoms: C_1  and  C_2 
REMARK    2  A    between atoms: C_2  and  C_4 
REMARK    3  A    between atoms: C_2  and  N_6 
REMARK       I    between atoms: N_6  and  C_7 
REMARK    4  A    between atoms: C_7  and  C_9 
REMARK    5  A    between atoms: C_9  and  C_11 
REMARK    6  A    between atoms: C_9  and  N_16 
REMARK    7  A    between atoms: C_11  and  C_12 
REMARK    8  A    between atoms: C_12  and  C_13 
REMARK       I    between atoms: C_13  and  N_15 
REMARK       I    between atoms: N_16  and  C_17 
REMARK    9  A    between atoms: C_17  and  C_19 
REMARK   10  A    between atoms: C_19  and  C_21 
REMARK   11  A    between atoms: C_19  and  N_29 
REMARK       I    between atoms: N_29  and  C_30 
REMARK       I    between atoms: C_30  and  N_32 
REMARK   12  A    between atoms: N_32  and  C_33 
REMARK   13  A    between atoms: C_33  and  C_35 
REMARK   14  A    between atoms: C_33  and  C_39 
REMARK   15  A    between atoms: C_35  and  C_36 
REMARK   16  A    between atoms: C_36  and  C_37 
REMARK   17  A    between atoms: C_36  and  C_38 
ROOT
ATOM      1  C   UNK d   1       4.655  -3.074  -5.322  0.00  0.00     0.132 C 
ATOM      2  H   UNK d   1       3.584  -3.268  -5.264  0.00  0.00     0.063 H 
ENDROOT
BRANCH   1   3
ATOM      3  C   UNK d   1       4.968  -2.360  -6.611  0.00  0.00     0.237 C 
ATOM      4  N   UNK d   1       3.975  -1.792  -7.325  0.00  0.00    -0.302 N 
ATOM      5  H   UNK d   1       3.054  -1.889  -7.037  0.00  0.00     0.149 HD
ATOM      6  O   UNK d   1       6.112  -2.296  -7.008  0.00  0.00    -0.274 OA
BRANCH   4   7
ATOM      7  C   UNK d   1       4.287  -1.029  -8.536  0.00  0.00     0.100 C 
ATOM      8  H   UNK d   1       4.903  -1.637  -9.200  0.00  0.00     0.059 H 
BRANCH   7   9
ATOM      9  C   UNK d   1       5.038   0.223  -8.161  0.00  0.00     0.234 C 
ATOM     10  N   UNK d   1       6.371   0.292  -8.351  0.00  0.00    -0.305 N 
ATOM     11  H   UNK d   1       6.846  -0.463  -8.729  0.00  0.00     0.149 HD
ATOM     12  O   UNK d   1       4.443   1.168  -7.687  0.00  0.00    -0.274 OA
BRANCH  10  13
ATOM     13  C   UNK d   1       7.099   1.509  -7.986  0.00  0.00     0.076 C 
ATOM     14  H   UNK d   1       6.389   2.304  -7.757  0.00  0.00     0.057 H 
BRANCH  13  15
ATOM     15  C   UNK d   1       7.972   1.234  -6.760  0.00  0.00    -0.040 C 
ATOM     16  H   UNK d   1       7.352   0.836  -5.956  0.00  0.00     0.025 H 
ATOM     17  H   UNK d   1       8.743   0.507  -7.018  0.00  0.00     0.025 H 
ATOM     18  H   UNK d   1       8.440   2.161  -6.431  0.00  0.00     0.025 H 
ENDBRANCH  13  15
BRANCH  13  19
ATOM     19  C   UNK d   1       7.974   1.936  -9.139  0.00  0.00     0.140 C 
ATOM     20  O   UNK d   1       7.981   1.293 -10.161  0.00  0.00    -0.299 OA
ATOM     21  H   UNK d   1       8.593   2.816  -9.049  0.00  0.00     0.105 H 
ENDBRANCH  13  19
ENDBRANCH  10  13
ENDBRANCH   7   9
BRANCH   7  22
ATOM     22  C   UNK d   1       2.988  -0.650  -9.249  0.00  0.00    -0.018 C 
ATOM     23  H   UNK d   1       2.168  -1.249  -8.852  0.00  0.00     0.029 H 
ATOM     24  H   UNK d   1       2.778   0.407  -9.085  0.00  0.00     0.029 H 
BRANCH  22  25
ATOM     25  C   UNK d   1       3.134  -0.914 -10.748  0.00  0.00     0.026 C 
ATOM     26  H   UNK d   1       3.658  -1.857 -10.903  0.00  0.00     0.036 H 
ATOM     27  H   UNK d   1       2.147  -0.969 -11.206  0.00  0.00     0.036 H 
BRANCH  25  28
ATOM     28  C   UNK d   1       3.919   0.206 -11.382  0.00  0.00     0.211 C 
ATOM     29  O   UNK d   1       3.700   1.356 -11.063  0.00  0.00    -0.276 OA
ATOM     30  N   UNK d   1       4.864  -0.070 -12.302  0.00  0.00    -0.329 N 
ATOM     31  H   UNK d   1       5.039  -0.989 -12.557  0.00  0.00     0.145 HD
ATOM     32  H   UNK d   1       5.369   0.651 -12.710  0.00  0.00     0.145 HD
ENDBRANCH  25  28
ENDBRANCH  22  25
ENDBRANCH   7  22
ENDBRANCH   4   7
ENDBRANCH   1   3
BRANCH   1  33
ATOM     33  C   UNK d   1       5.079  -2.200  -4.140  0.00  0.00     0.098 C 
ATOM     34  H   UNK d   1       6.069  -2.504  -3.797  0.00  0.00     0.069 H 
ATOM     35  N   UNK d   1       5.112  -0.789  -4.555  0.00  0.00    -0.236 N 
ATOM     36  C   UNK d   1       5.251   0.167  -3.559  0.00  0.00     0.327 C 
ATOM     37  H   UNK d   1       5.037  -0.536  -5.489  0.00  0.00     0.245 HD
ATOM     38  N   UNK d   1       4.507  -0.028  -2.405  0.00  0.00    -0.241 N 
ATOM     39  N   UNK d   1       6.043   1.191  -3.700  0.00  0.00    -0.295 N 
ATOM     40  C   UNK d   1       4.442  -1.394  -1.862  0.00  0.00     0.061 C 
ATOM     41  H   UNK d   1       4.046   0.709  -1.974  0.00  0.00     0.244 HD
ATOM     42  C   UNK d   1       4.070  -2.355  -2.997  0.00  0.00     0.010 C 
ATOM     43  H   UNK d   1       3.684  -1.440  -1.079  0.00  0.00     0.063 H 
ATOM     44  H   UNK d   1       5.413  -1.670  -1.451  0.00  0.00     0.063 H 
ATOM     45  H   UNK d   1       3.070  -2.120  -3.360  0.00  0.00     0.033 H 
ATOM     46  H   UNK d   1       4.092  -3.380  -2.627  0.00  0.00     0.033 H 
ATOM     47  H   UNK d   1       6.125   1.844  -2.987  0.00  0.00     0.254 HD
ATOM     48  H   UNK d   1       6.552   1.302  -4.518  0.00  0.00     0.254 HD
ENDBRANCH   1  33
BRANCH   1  49
ATOM     49  N   UNK d   1       5.384  -4.343  -5.278  0.00  0.00    -0.285 N 
ATOM     50  C   UNK d   0       4.726  -5.505  -5.464  0.00  0.00     0.301 C 
ATOM     51  O   UNK d   0       3.528  -5.499  -5.669  0.00  0.00    -0.253 OA
ATOM     52  N   UNK d   1       5.397  -6.673  -5.424  0.00  0.00    -0.291 N 
ATOM     53  H   UNK d   1       6.354  -6.678  -5.260  0.00  0.00     0.151 HD
ATOM     54  H   UNK d   1       6.340  -4.348  -5.114  0.00  0.00     0.151 HD
BRANCH  52  55
ATOM     55  C   UNK d   1       4.682  -7.936  -5.626  0.00  0.00     0.064 C 
ATOM     56  H   UNK d   1       3.637  -7.811  -5.344  0.00  0.00     0.056 H 
BRANCH  55  57
ATOM     57  C   UNK d   1       5.318  -9.026  -4.762  0.00  0.00    -0.027 C 
ATOM     58  H   UNK d   1       6.222  -9.394  -5.248  0.00  0.00     0.029 H 
ATOM     59  H   UNK d   1       5.572  -8.615  -3.785  0.00  0.00     0.029 H 
BRANCH  57  60
ATOM     60  C   UNK d   1       4.328 -10.180  -4.588  0.00  0.00    -0.045 C 
ATOM     61  H   UNK d   1       3.587 -10.146  -5.386  0.00  0.00     0.030 H 
BRANCH  60  62
ATOM     62  C   UNK d   1       5.081 -11.511  -4.649  0.00  0.00    -0.063 C 
ATOM     63  H   UNK d   1       4.762 -12.069  -5.529  0.00  0.00     0.023 H 
ATOM     64  H   UNK d   1       6.153 -11.319  -4.710  0.00  0.00     0.023 H 
ATOM     65  H   UNK d   1       4.866 -12.091  -3.752  0.00  0.00     0.023 H 
ENDBRANCH  60  62
BRANCH  60  66
ATOM     66  C   UNK d   1       3.628 -10.052  -3.234  0.00  0.00    -0.063 C 
ATOM     67  H   UNK d   1       2.564 -10.260  -3.354  0.00  0.00     0.023 H 
ATOM     68  H   UNK d   1       4.060 -10.765  -2.532  0.00  0.00     0.023 H 
ATOM     69  H   UNK d   1       3.760  -9.040  -2.851  0.00  0.00     0.023 H 
ENDBRANCH  60  66
ENDBRANCH  57  60
ENDBRANCH  55  57
BRANCH  55  70
ATOM     70  C   UNK d   1       4.766  -8.333  -7.078  0.00  0.00     0.062 C 
ATOM     71  O   UNK d   1       3.786  -8.224  -7.797  0.00  0.00    -0.548 OA
ATOM     72  O   UNK d   1       5.812  -8.761  -7.534  0.00  0.00    -0.548 OA
ENDBRANCH  55  70
ENDBRANCH  52  55
ENDBRANCH   1  49
TORSDOF 17
ENDMDL
MODEL 9
REMARK VINA RESULT:      -5.6      3.293      5.830
REMARK  17 active torsions:
REMARK  status: ('A' for Active; 'I' for Inactive)
REMARK    1  A    between atoms: C_1  and  C_2 
REMARK    2  A    between atoms: C_2  and  C_4 
REMARK    3  A    between atoms: C_2  and  N_6 
REMARK       I    between atoms: N_6  and  C_7 
REMARK    4  A    between atoms: C_7  and  C_9 
REMARK    5  A    between atoms: C_9  and  C_11 
REMARK    6  A    between atoms: C_9  and  N_16 
REMARK    7  A    between atoms: C_11  and  C_12 
REMARK    8  A    between atoms: C_12  and  C_13 
REMARK       I    between atoms: C_13  and  N_15 
REMARK       I    between atoms: N_16  and  C_17 
REMARK    9  A    between atoms: C_17  and  C_19 
REMARK   10  A    between atoms: C_19  and  C_21 
REMARK   11  A    between atoms: C_19  and  N_29 
REMARK       I    between atoms: N_29  and  C_30 
REMARK       I    between atoms: C_30  and  N_32 
REMARK   12  A    between atoms: N_32  and  C_33 
REMARK   13  A    between atoms: C_33  and  C_35 
REMARK   14  A    between atoms: C_33  and  C_39 
REMARK   15  A    between atoms: C_35  and  C_36 
REMARK   16  A    between atoms: C_36  and  C_37 
REMARK   17  A    between atoms: C_36  and  C_38 
ROOT
ATOM      1  C   UNK d   1       8.874   1.823  -4.356  0.00  0.00     0.132 C 
ATOM      2  H   UNK d   1       8.009   2.486  -4.384  0.00  0.00     0.063 H 
ENDROOT
BRANCH   1   3
ATOM      3  C   UNK d   1       9.453   1.692  -5.741  0.00  0.00     0.237 C 
ATOM      4  N   UNK d   1       9.248   2.665  -6.651  0.00  0.00    -0.302 N 
ATOM      5  H   UNK d   1       8.683   3.422  -6.433  0.00  0.00     0.149 HD
ATOM      6  O   UNK d   1      10.104   0.712  -6.037  0.00  0.00    -0.274 OA
BRANCH   4   7
ATOM      7  C   UNK d   1       9.877   2.577  -7.971  0.00  0.00     0.100 C 
ATOM      8  H   UNK d   1      10.817   2.031  -7.890  0.00  0.00     0.059 H 
BRANCH   7   9
ATOM      9  C   UNK d   1      10.145   3.964  -8.493  0.00  0.00     0.234 C 
ATOM     10  N   UNK d   1      10.728   4.131  -9.698  0.00  0.00    -0.305 N 
ATOM     11  H   UNK d   1      10.973   3.357 -10.228  0.00  0.00     0.149 HD
ATOM     12  O   UNK d   1       9.839   4.932  -7.829  0.00  0.00    -0.274 OA
BRANCH  10  13
ATOM     13  C   UNK d   1      10.989   5.480 -10.204  0.00  0.00     0.076 C 
ATOM     14  H   UNK d   1      10.708   6.214  -9.448  0.00  0.00     0.057 H 
BRANCH  13  15
ATOM     15  C   UNK d   1      12.477   5.625 -10.528  0.00  0.00    -0.040 C 
ATOM     16  H   UNK d   1      12.615   5.626 -11.610  0.00  0.00     0.025 H 
ATOM     17  H   UNK d   1      12.851   6.561 -10.113  0.00  0.00     0.025 H 
ATOM     18  H   UNK d   1      13.027   4.790 -10.094  0.00  0.00     0.025 H 
ENDBRANCH  13  15
BRANCH  13  19
ATOM     19  C   UNK d   1      10.178   5.713 -11.454  0.00  0.00     0.140 C 
ATOM     20  O   UNK d   1       9.373   4.888 -11.813  0.00  0.00    -0.299 OA
ATOM     21  H   UNK d   1      10.318   6.617 -12.027  0.00  0.00     0.105 H 
ENDBRANCH  13  19
ENDBRANCH  10  13
ENDBRANCH   7   9
BRANCH   7  22
ATOM     22  C   UNK d   1       8.942   1.842  -8.934  0.00  0.00    -0.018 C 
ATOM     23  H   UNK d   1       9.333   1.917  -9.949  0.00  0.00     0.029 H 
ATOM     24  H   UNK d   1       8.877   0.792  -8.647  0.00  0.00     0.029 H 
BRANCH  22  25
ATOM     25  C   UNK d   1       7.551   2.473  -8.875  0.00  0.00     0.026 C 
ATOM     26  H   UNK d   1       7.568   3.331  -8.204  0.00  0.00     0.036 H 
ATOM     27  H   UNK d   1       7.257   2.798  -9.872  0.00  0.00     0.036 H 
BRANCH  25  28
ATOM     28  C   UNK d   1       6.559   1.458  -8.366  0.00  0.00     0.211 C 
ATOM     29  O   UNK d   1       6.949   0.473  -7.776  0.00  0.00    -0.276 OA
ATOM     30  N   UNK d   1       5.240   1.646  -8.566  0.00  0.00    -0.329 N 
ATOM     31  H   UNK d   1       4.928   2.434  -9.038  0.00  0.00     0.145 HD
ATOM     32  H   UNK d   1       4.602   0.993  -8.238  0.00  0.00     0.145 HD
ENDBRANCH  25  28
ENDBRANCH  22  25
ENDBRANCH   7  22
ENDBRANCH   4   7
ENDBRANCH   1   3
BRANCH   1  33
ATOM     33  C   UNK d   1       9.931   2.403  -3.414  0.00  0.00     0.098 C 
ATOM     34  H   UNK d   1       9.920   1.857  -2.470  0.00  0.00     0.069 H 
ATOM     35  N   UNK d   1      11.261   2.289  -4.034  0.00  0.00    -0.236 N 
ATOM     36  C   UNK d   1      12.308   2.968  -3.429  0.00  0.00     0.327 C 
ATOM     37  H   UNK d   1      11.399   1.762  -4.837  0.00  0.00     0.245 HD
ATOM     38  N   UNK d   1      12.039   4.255  -2.987  0.00  0.00    -0.241 N 
ATOM     39  N   UNK d   1      13.482   2.423  -3.280  0.00  0.00    -0.295 N 
ATOM     40  C   UNK d   1      10.757   4.483  -2.302  0.00  0.00     0.061 C 
ATOM     41  H   UNK d   1      12.673   4.977  -3.125  0.00  0.00     0.244 HD
ATOM     42  C   UNK d   1       9.632   3.884  -3.155  0.00  0.00     0.010 C 
ATOM     43  H   UNK d   1      10.593   5.554  -2.180  0.00  0.00     0.063 H 
ATOM     44  H   UNK d   1      10.773   3.999  -1.326  0.00  0.00     0.063 H 
ATOM     45  H   UNK d   1       9.574   4.415  -4.104  0.00  0.00     0.033 H 
ATOM     46  H   UNK d   1       8.685   3.978  -2.625  0.00  0.00     0.033 H 
ATOM     47  H   UNK d   1      14.197   2.919  -2.850  0.00  0.00     0.254 HD
ATOM     48  H   UNK d   1      13.642   1.521  -3.599  0.00  0.00     0.254 HD
ENDBRANCH   1  33
BRANCH   1  49
ATOM     49  N   UNK d   1       8.461   0.503  -3.873  0.00  0.00    -0.285 N 
ATOM     50  C   UNK d   0       7.174   0.117  -3.986  0.00  0.00     0.301 C 
ATOM     51  O   UNK d   0       6.358   0.864  -4.490  0.00  0.00    -0.253 OA
ATOM     52  N   UNK d   1       6.794  -1.097  -3.543  0.00  0.00    -0.291 N 
ATOM     53  H   UNK d   1       7.446  -1.693  -3.141  0.00  0.00     0.151 HD
ATOM     54  H   UNK d   1       9.112  -0.092  -3.471  0.00  0.00     0.151 HD
BRANCH  52  55
ATOM     55  C   UNK d   1       5.396  -1.518  -3.666  0.00  0.00     0.064 C 
ATOM     56  H   UNK d   1       4.861  -0.818  -4.309  0.00  0.00     0.056 H 
BRANCH  55  57
ATOM     57  C   UNK d   1       4.745  -1.538  -2.282  0.00  0.00    -0.027 C 
ATOM     58  H   UNK d   1       4.239  -2.492  -2.132  0.00  0.00     0.029 H 
ATOM     59  H   UNK d   1       5.511  -1.409  -1.517  0.00  0.00     0.029 H 
BRANCH  57  60
ATOM     60  C   UNK d   1       3.727  -0.400  -2.180  0.00  0.00    -0.045 C 
ATOM     61  H   UNK d   1       2.945  -0.676  -1.473  0.00  0.00     0.030 H 
BRANCH  60  62
ATOM     62  C   UNK d   1       4.429   0.870  -1.694  0.00  0.00    -0.063 C 
ATOM     63  H   UNK d   1       5.492   0.670  -1.563  0.00  0.00     0.023 H 
ATOM     64  H   UNK d   1       4.296   1.662  -2.432  0.00  0.00     0.023 H 
ATOM     65  H   UNK d   1       3.996   1.183  -0.744  0.00  0.00     0.023 H 
ENDBRANCH  60  62
BRANCH  60  66
ATOM     66  C   UNK d   1       3.107  -0.146  -3.556  0.00  0.00    -0.063 C 
ATOM     67  H   UNK d   1       2.020  -0.128  -3.466  0.00  0.00     0.023 H 
ATOM     68  H   UNK d   1       3.455   0.812  -3.941  0.00  0.00     0.023 H 
ATOM     69  H   UNK d   1       3.402  -0.942  -4.239  0.00  0.00     0.023 H 
ENDBRANCH  60  66
ENDBRANCH  57  60
ENDBRANCH  55  57
BRANCH  55  70
ATOM     70  C   UNK d   1       5.338  -2.898  -4.269  0.00  0.00     0.062 C 
ATOM     71  O   UNK d   1       6.340  -3.391  -4.759  0.00  0.00    -0.548 OA
ATOM     72  O   UNK d   1       4.290  -3.521  -4.265  0.00  0.00    -0.548 OA
ENDBRANCH  55  70
ENDBRANCH  52  55
ENDBRANCH   1  49
TORSDOF 17
ENDMDL
MODEL 10
REMARK VINA RESULT:      -5.5      5.922     10.075
REMARK  17 active torsions:
REMARK  status: ('A' for Active; 'I' for Inactive)
REMARK    1  A    between atoms: C_1  and  C_2 
REMARK    2  A    between atoms: C_2  and  C_4 
REMARK    3  A    between atoms: C_2  and  N_6 
REMARK       I    between atoms: N_6  and  C_7 
REMARK    4  A    between atoms: C_7  and  C_9 
REMARK    5  A    between atoms: C_9  and  C_11 
REMARK    6  A    between atoms: C_9  and  N_16 
REMARK    7  A    between atoms: C_11  and  C_12 
REMARK    8  A    between atoms: C_12  and  C_13 
REMARK       I    between atoms: C_13  and  N_15 
REMARK       I    between atoms: N_16  and  C_17 
REMARK    9  A    between atoms: C_17  and  C_19 
REMARK   10  A    between atoms: C_19  and  C_21 
REMARK   11  A    between atoms: C_19  and  N_29 
REMARK       I    between atoms: N_29  and  C_30 
REMARK       I    between atoms: C_30  and  N_32 
REMARK   12  A    between atoms: N_32  and  C_33 
REMARK   13  A    between atoms: C_33  and  C_35 
REMARK   14  A    between atoms: C_33  and  C_39 
REMARK   15  A    between atoms: C_35  and  C_36 
REMARK   16  A    between atoms: C_36  and  C_37 
REMARK   17  A    between atoms: C_36  and  C_38 
ROOT
ATOM      1  C   UNK d   1      10.055   9.446  -6.424  0.00  0.00     0.132 C 
ATOM      2  H   UNK d   1      11.116   9.548  -6.648  0.00  0.00     0.063 H 
ENDROOT
BRANCH   1   3
ATOM      3  C   UNK d   1       9.850   8.289  -5.479  0.00  0.00     0.237 C 
ATOM      4  N   UNK d   1      10.841   7.917  -4.646  0.00  0.00    -0.302 N 
ATOM      5  H   UNK d   1      11.704   8.357  -4.691  0.00  0.00     0.149 HD
ATOM      6  O   UNK d   1       8.793   7.694  -5.469  0.00  0.00    -0.274 OA
BRANCH   4   7
ATOM      7  C   UNK d   1      10.615   6.846  -3.672  0.00  0.00     0.100 C 
ATOM      8  H   UNK d   1       9.680   6.335  -3.903  0.00  0.00     0.059 H 
BRANCH   7   9
ATOM      9  C   UNK d   1      10.536   7.435  -2.287  0.00  0.00     0.234 C 
ATOM     10  N   UNK d   1      11.159   6.825  -1.258  0.00  0.00    -0.305 N 
ATOM     11  H   UNK d   1      11.658   6.009  -1.410  0.00  0.00     0.149 HD
ATOM     12  O   UNK d   1       9.911   8.457  -2.097  0.00  0.00    -0.274 OA
BRANCH  10  13
ATOM     13  C   UNK d   1      11.081   7.398   0.088  0.00  0.00     0.076 C 
ATOM     14  H   UNK d   1      10.178   8.002   0.174  0.00  0.00     0.057 H 
BRANCH  13  15
ATOM     15  C   UNK d   1      11.043   6.271   1.121  0.00  0.00    -0.040 C 
ATOM     16  H   UNK d   1      10.020   6.136   1.474  0.00  0.00     0.025 H 
ATOM     17  H   UNK d   1      11.394   5.346   0.663  0.00  0.00     0.025 H 
ATOM     18  H   UNK d   1      11.686   6.527   1.962  0.00  0.00     0.025 H 
ENDBRANCH  13  15
BRANCH  13  19
ATOM     19  C   UNK d   1      12.290   8.266   0.335  0.00  0.00     0.140 C 
ATOM     20  O   UNK d   1      13.395   7.781   0.312  0.00  0.00    -0.299 OA
ATOM     21  H   UNK d   1      12.166   9.320   0.532  0.00  0.00     0.105 H 
ENDBRANCH  13  19
ENDBRANCH  10  13
ENDBRANCH   7   9
BRANCH   7  22
ATOM     22  C   UNK d   1      11.772   5.847  -3.735  0.00  0.00    -0.018 C 
ATOM     23  H   UNK d   1      12.511   6.192  -4.459  0.00  0.00     0.029 H 
ATOM     24  H   UNK d   1      12.237   5.766  -2.752  0.00  0.00     0.029 H 
BRANCH  22  25
ATOM     25  C   UNK d   1      11.240   4.478  -4.162  0.00  0.00     0.026 C 
ATOM     26  H   UNK d   1      10.228   4.586  -4.550  0.00  0.00     0.036 H 
ATOM     27  H   UNK d   1      11.884   4.063  -4.937  0.00  0.00     0.036 H 
BRANCH  25  28
ATOM     28  C   UNK d   1      11.226   3.551  -2.973  0.00  0.00     0.211 C 
ATOM     29  O   UNK d   1      10.702   3.902  -1.937  0.00  0.00    -0.276 OA
ATOM     30  N   UNK d   1      11.793   2.332  -3.062  0.00  0.00    -0.329 N 
ATOM     31  H   UNK d   1      12.212   2.051  -3.890  0.00  0.00     0.145 HD
ATOM     32  H   UNK d   1      11.784   1.736  -2.297  0.00  0.00     0.145 HD
ENDBRANCH  25  28
ENDBRANCH  22  25
ENDBRANCH   7  22
ENDBRANCH   4   7
ENDBRANCH   1   3
BRANCH   1  33
ATOM     33  C   UNK d   1       9.543  10.732  -5.773  0.00  0.00     0.098 C 
ATOM     34  H   UNK d   1       8.744  11.157  -6.381  0.00  0.00     0.069 H 
ATOM     35  N   UNK d   1       9.033  10.435  -4.425  0.00  0.00    -0.236 N 
ATOM     36  C   UNK d   1       8.743  11.512  -3.600  0.00  0.00     0.327 C 
ATOM     37  H   UNK d   1       8.908   9.521  -4.123  0.00  0.00     0.245 HD
ATOM     38  N   UNK d   1       9.654  12.558  -3.603  0.00  0.00    -0.241 N 
ATOM     39  N   UNK d   1       7.668  11.540  -2.865  0.00  0.00    -0.295 N 
ATOM     40  C   UNK d   1      10.197  12.981  -4.903  0.00  0.00     0.061 C 
ATOM     41  H   UNK d   1       9.923  12.992  -2.778  0.00  0.00     0.244 HD
ATOM     42  C   UNK d   1      10.691  11.741  -5.656  0.00  0.00     0.010 C 
ATOM     43  H   UNK d   1      11.027  13.670  -4.746  0.00  0.00     0.063 H 
ATOM     44  H   UNK d   1       9.415  13.474  -5.482  0.00  0.00     0.063 H 
ATOM     45  H   UNK d   1      11.518  11.289  -5.109  0.00  0.00     0.033 H 
ATOM     46  H   UNK d   1      11.027  12.030  -6.652  0.00  0.00     0.033 H 
ATOM     47  H   UNK d   1       7.487  12.307  -2.299  0.00  0.00     0.254 HD
ATOM     48  H   UNK d   1       7.048  10.794  -2.883  0.00  0.00     0.254 HD
ENDBRANCH   1  33
BRANCH   1  49
ATOM     49  N   UNK d   1       9.316   9.198  -7.665  0.00  0.00    -0.285 N 
ATOM     50  C   UNK d   0       9.886   8.487  -8.658  0.00  0.00     0.301 C 
ATOM     51  O   UNK d   0      11.013   8.050  -8.523  0.00  0.00    -0.253 OA
ATOM     52  N   UNK d   1       9.207   8.259  -9.799  0.00  0.00    -0.291 N 
ATOM     53  H   UNK d   1       8.308   8.608  -9.906  0.00  0.00     0.151 HD
ATOM     54  H   UNK d   1       8.417   9.547  -7.772  0.00  0.00     0.151 HD
BRANCH  52  55
ATOM     55  C   UNK d   1       9.826   7.486 -10.878  0.00  0.00     0.064 C 
ATOM     56  H   UNK d   1      10.814   7.150 -10.564  0.00  0.00     0.056 H 
BRANCH  55  57
ATOM     57  C   UNK d   1       9.958   8.364 -12.124  0.00  0.00    -0.027 C 
ATOM     58  H   UNK d   1       9.554   7.834 -12.987  0.00  0.00     0.029 H 
ATOM     59  H   UNK d   1       9.405   9.292 -11.976  0.00  0.00     0.029 H 
BRANCH  57  60
ATOM     60  C   UNK d   1      11.434   8.684 -12.369  0.00  0.00    -0.045 C 
ATOM     61  H   UNK d   1      11.615   8.764 -13.441  0.00  0.00     0.030 H 
BRANCH  60  62
ATOM     62  C   UNK d   1      11.788  10.010 -11.692  0.00  0.00    -0.063 C 
ATOM     63  H   UNK d   1      11.768  10.812 -12.430  0.00  0.00     0.023 H 
ATOM     64  H   UNK d   1      11.061  10.221 -10.906  0.00  0.00     0.023 H 
ATOM     65  H   UNK d   1      12.784   9.940 -11.256  0.00  0.00     0.023 H 
ENDBRANCH  60  62
BRANCH  60  66
ATOM     66  C   UNK d   1      12.302   7.566 -11.787  0.00  0.00    -0.063 C 
ATOM     67  H   UNK d   1      13.216   7.994 -11.374  0.00  0.00     0.023 H 
ATOM     68  H   UNK d   1      11.753   7.053 -10.998  0.00  0.00     0.023 H 
ATOM     69  H   UNK d   1      12.556   6.856 -12.574  0.00  0.00     0.023 H 
ENDBRANCH  60  66
ENDBRANCH  57  60
ENDBRANCH  55  57
BRANCH  55  70
ATOM     70  C   UNK d   1       8.967   6.289 -11.196  0.00  0.00     0.062 C 
ATOM     71  O   UNK d   1       8.418   5.677 -10.295  0.00  0.00    -0.548 OA
ATOM     72  O   UNK d   1       8.819   5.934 -12.353  0.00  0.00    -0.548 OA
ENDBRANCH  55  70
ENDBRANCH  52  55
ENDBRANCH   1  49
TORSDOF 17
ENDMDL
