MODEL 1
REMARK VINA RESULT:      -6.2      0.000      0.000
REMARK  16 active torsions:
REMARK  status: ('A' for Active; 'I' for Inactive)
REMARK    1  A    between atoms: C_1  and  C_2 
REMARK    2  A    between atoms: C_3  and  C_4 
REMARK    3  A    between atoms: C_3  and  C_5 
REMARK    4  A    between atoms: C_5  and  O_7 
REMARK    5  A    between atoms: O_7  and  C_8 
REMARK    6  A    between atoms: C_12  and  O_38 
REMARK    7  A    between atoms: C_13  and  O_36 
REMARK    8  A    between atoms: C_14  and  O_34 
REMARK    9  A    between atoms: C_21  and  O_22 
REMARK   10  A    between atoms: O_22  and  C_23 
REMARK   11  A    between atoms: C_28  and  C_33 
REMARK   12  A    between atoms: C_30  and  C_31 
REMARK   13  A    between atoms: C_30  and  O_32 
REMARK   14  A    between atoms: O_34  and  C_35 
REMARK   15  A    between atoms: O_36  and  C_37 
REMARK   16  A    between atoms: O_38  and  C_39 
ROOT
ATOM      1  C   LIG d   1       5.491  -2.426  -4.951  0.00  0.00     0.158 C 
ATOM      2  H   LIG d   1       4.977  -2.518  -3.983  0.00  0.00     0.082 H 
ATOM      3  C   LIG d   1       4.931  -3.425  -5.943  0.00  0.00     0.011 A 
ATOM      4  C   LIG d   1       4.720  -4.734  -5.580  0.00  0.00    -0.009 A 
ATOM      5  C   LIG d   1       4.162  -5.624  -6.489  0.00  0.00     0.166 A 
ATOM      6  C   LIG d   1       3.817  -5.187  -7.765  0.00  0.00     0.204 A 
ATOM      7  C   LIG d   1       4.042  -3.870  -8.137  0.00  0.00     0.173 A 
ATOM      8  C   LIG d   1       4.618  -2.976  -7.225  0.00  0.00     0.038 A 
ATOM      9  C   LIG d   1       4.935  -1.599  -7.647  0.00  0.00     0.035 A 
ATOM     10  C   LIG d   1       6.245  -1.127  -7.626  0.00  0.00    -0.032 A 
ATOM     11  C   LIG d   1       6.535   0.171  -7.976  0.00  0.00    -0.012 A 
ATOM     12  C   LIG d   1       5.516   1.025  -8.380  0.00  0.00     0.170 A 
ATOM     13  C   LIG d   1       4.205   0.563  -8.432  0.00  0.00     0.208 A 
ATOM     14  C   LIG d   1       3.910  -0.742  -8.067  0.00  0.00     0.173 A 
ATOM     15  O   LIG d   1       3.402   1.580  -8.870  0.00  0.00    -0.449 OA
ATOM     16  C   LIG d   1       4.292   2.544  -9.465  0.00  0.00     0.233 C 
ATOM     17  O   LIG d   1       5.537   2.331  -8.776  0.00  0.00    -0.453 OA
ATOM     18  C   LIG d   1       7.349  -2.081  -7.217  0.00  0.00    -0.022 C 
ATOM     19  C   LIG d   1       7.778  -1.785  -5.782  0.00  0.00    -0.007 C 
ATOM     20  H   LIG d   1       7.573  -0.726  -5.564  0.00  0.00     0.033 H 
ATOM     21  C   LIG d   1       6.995  -2.648  -4.795  0.00  0.00     0.107 C 
ATOM     22  H   LIG d   1       4.988  -5.070  -4.590  0.00  0.00     0.066 H 
ATOM     23  H   LIG d   1       7.555   0.526  -7.938  0.00  0.00     0.066 H 
ATOM     24  H   LIG d   1       4.375   2.350 -10.544  0.00  0.00     0.117 H 
ATOM     25  H   LIG d   1       3.894   3.558  -9.303  0.00  0.00     0.117 H 
ATOM     26  H   LIG d   1       6.981  -3.116  -7.282  0.00  0.00     0.032 H 
ATOM     27  H   LIG d   1       8.210  -1.956  -7.890  0.00  0.00     0.032 H 
ENDROOT
BRANCH   1  28
ATOM     28  O   LIG d   1       5.250  -1.077  -5.434  0.00  0.00    -0.450 OA
BRANCH  28  29
ATOM     29  C   LIG d   1       4.770  -0.186  -4.543  0.00  0.00     0.335 C 
ATOM     30  O   LIG d   1       5.513   0.636  -4.045  0.00  0.00    -0.245 OA
BRANCH  29  31
ATOM     31  C   LIG d   1       3.347  -0.210  -4.176  0.00  0.00     0.029 C 
ATOM     32  C   LIG d   1       2.954  -0.850  -3.077  0.00  0.00    -0.077 C 
ATOM     33  H   LIG d   1       1.889  -0.868  -2.801  0.00  0.00     0.057 H 
BRANCH  32  34
ATOM     34  C   LIG d   1       3.968  -1.552  -2.210  0.00  0.00    -0.046 C 
ATOM     35  H   LIG d   1       3.513  -1.800  -1.241  0.00  0.00     0.027 H 
ATOM     36  H   LIG d   1       4.834  -0.893  -2.053  0.00  0.00     0.027 H 
ATOM     37  H   LIG d   1       4.298  -2.477  -2.707  0.00  0.00     0.027 H 
ENDBRANCH  32  34
BRANCH  31  38
ATOM     38  C   LIG d   1       2.333   0.492  -5.041  0.00  0.00    -0.033 C 
ATOM     39  H   LIG d   1       1.673   1.105  -4.409  0.00  0.00     0.028 H 
ATOM     40  H   LIG d   1       1.732  -0.255  -5.582  0.00  0.00     0.028 H 
ATOM     41  H   LIG d   1       2.851   1.138  -5.764  0.00  0.00     0.028 H 
ENDBRANCH  31  38
ENDBRANCH  29  31
ENDBRANCH  28  29
ENDBRANCH   1  28
BRANCH  21  42
ATOM     42  C   LIG d   1       7.412  -2.285  -3.368  0.00  0.00    -0.032 C 
ATOM     43  H   LIG d   1       7.068  -3.068  -2.677  0.00  0.00     0.026 H 
ATOM     44  H   LIG d   1       6.959  -1.322  -3.088  0.00  0.00     0.026 H 
ATOM     45  H   LIG d   1       8.507  -2.205  -3.316  0.00  0.00     0.026 H 
ENDBRANCH  21  42
BRANCH  21  46
ATOM     46  O   LIG d   1       7.294  -4.024  -5.035  0.00  0.00    -0.385 OA
ATOM     47  H   LIG d   1       6.608  -4.807  -4.676  0.00  0.00     0.210 HD
ENDBRANCH  21  46
BRANCH  19  48
ATOM     48  C   LIG d   1       9.272  -2.077  -5.632  0.00  0.00    -0.059 C 
ATOM     49  H   LIG d   1       9.549  -2.918  -6.284  0.00  0.00     0.023 H 
ATOM     50  H   LIG d   1       9.492  -2.336  -4.586  0.00  0.00     0.023 H 
ATOM     51  H   LIG d   1       9.850  -1.186  -5.919  0.00  0.00     0.023 H 
ENDBRANCH  19  48
BRANCH   7  52
ATOM     52  O   LIG d   1       3.703  -3.448  -9.384  0.00  0.00    -0.491 OA
BRANCH  52  53
ATOM     53  C   LIG d   1       4.715  -3.521 -10.390  0.00  0.00     0.079 C 
ATOM     54  H   LIG d   1       4.615  -2.665 -11.075  0.00  0.00     0.066 H 
ATOM     55  H   LIG d   1       4.603  -4.458 -10.956  0.00  0.00     0.066 H 
ATOM     56  H   LIG d   1       5.708  -3.496  -9.915  0.00  0.00     0.066 H 
ENDBRANCH  52  53
ENDBRANCH   7  52
BRANCH   5  57
ATOM     57  O   LIG d   1       3.946  -6.918  -6.131  0.00  0.00    -0.491 OA
BRANCH  57  58
ATOM     58  C   LIG d   1       5.062  -7.641  -5.610  0.00  0.00     0.079 C 
ATOM     59  H   LIG d   1       5.628  -8.091  -6.440  0.00  0.00     0.066 H 
ATOM     60  H   LIG d   1       4.704  -8.434  -4.938  0.00  0.00     0.066 H 
ATOM     61  H   LIG d   1       5.716  -6.954  -5.052  0.00  0.00     0.066 H 
ENDBRANCH  57  58
ENDBRANCH   5  57
BRANCH   6  62
ATOM     62  O   LIG d   1       3.258  -6.055  -8.650  0.00  0.00    -0.488 OA
BRANCH  62  63
ATOM     63  C   LIG d   1       4.145  -6.927  -9.353  0.00  0.00     0.079 C 
ATOM     64  H   LIG d   1       3.760  -7.957  -9.307  0.00  0.00     0.066 H 
ATOM     65  H   LIG d   1       5.142  -6.887  -8.891  0.00  0.00     0.066 H 
ATOM     66  H   LIG d   1       4.214  -6.609 -10.404  0.00  0.00     0.066 H 
ENDBRANCH  62  63
ENDBRANCH   6  62
BRANCH  14  67
ATOM     67  O   LIG d   1       2.626  -1.190  -8.117  0.00  0.00    -0.491 OA
BRANCH  67  68
ATOM     68  C   LIG d   1       1.882  -0.891  -9.300  0.00  0.00     0.079 C 
ATOM     69  H   LIG d   1       1.355  -1.796  -9.639  0.00  0.00     0.066 H 
ATOM     70  H   LIG d   1       2.568  -0.550 -10.089  0.00  0.00     0.066 H 
ATOM     71  H   LIG d   1       1.150  -0.100  -9.083  0.00  0.00     0.066 H 
ENDBRANCH  67  68
ENDBRANCH  14  67
TORSDOF 16
ENDMDL
MODEL 2
REMARK VINA RESULT:      -5.8      2.021      3.680
REMARK  16 active torsions:
REMARK  status: ('A' for Active; 'I' for Inactive)
REMARK    1  A    between atoms: C_1  and  C_2 
REMARK    2  A    between atoms: C_3  and  C_4 
REMARK    3  A    between atoms: C_3  and  C_5 
REMARK    4  A    between atoms: C_5  and  O_7 
REMARK    5  A    between atoms: O_7  and  C_8 
REMARK    6  A    between atoms: C_12  and  O_38 
REMARK    7  A    between atoms: C_13  and  O_36 
REMARK    8  A    between atoms: C_14  and  O_34 
REMARK    9  A    between atoms: C_21  and  O_22 
REMARK   10  A    between atoms: O_22  and  C_23 
REMARK   11  A    between atoms: C_28  and  C_33 
REMARK   12  A    between atoms: C_30  and  C_31 
REMARK   13  A    between atoms: C_30  and  O_32 
REMARK   14  A    between atoms: O_34  and  C_35 
REMARK   15  A    between atoms: O_36  and  C_37 
REMARK   16  A    between atoms: O_38  and  C_39 
ROOT
ATOM      1  C   LIG d   1       6.599  -0.743  -4.376  0.00  0.00     0.158 C 
ATOM      2  H   LIG d   1       6.217  -0.695  -3.346  0.00  0.00     0.082 H 
ATOM      3  C   LIG d   1       7.177  -2.115  -4.659  0.00  0.00     0.011 A 
ATOM      4  C   LIG d   1       8.016  -2.725  -3.756  0.00  0.00    -0.009 A 
ATOM      5  C   LIG d   1       8.498  -4.002  -4.012  0.00  0.00     0.166 A 
ATOM      6  C   LIG d   1       8.132  -4.660  -5.182  0.00  0.00     0.204 A 
ATOM      7  C   LIG d   1       7.298  -4.041  -6.100  0.00  0.00     0.173 A 
ATOM      8  C   LIG d   1       6.821  -2.747  -5.849  0.00  0.00     0.038 A 
ATOM      9  C   LIG d   1       6.004  -2.055  -6.862  0.00  0.00     0.035 A 
ATOM     10  C   LIG d   1       6.433  -0.862  -7.436  0.00  0.00    -0.032 A 
ATOM     11  C   LIG d   1       5.651  -0.193  -8.348  0.00  0.00    -0.012 A 
ATOM     12  C   LIG d   1       4.422  -0.720  -8.726  0.00  0.00     0.170 A 
ATOM     13  C   LIG d   1       3.988  -1.925  -8.183  0.00  0.00     0.208 A 
ATOM     14  C   LIG d   1       4.772  -2.594  -7.254  0.00  0.00     0.173 A 
ATOM     15  O   LIG d   1       2.769  -2.232  -8.721  0.00  0.00    -0.449 OA
ATOM     16  C   LIG d   1       2.648  -1.406  -9.895  0.00  0.00     0.233 C 
ATOM     17  O   LIG d   1       3.475  -0.266  -9.598  0.00  0.00    -0.453 OA
ATOM     18  C   LIG d   1       7.792  -0.319  -7.040  0.00  0.00    -0.022 C 
ATOM     19  C   LIG d   1       7.616   0.832  -6.053  0.00  0.00    -0.007 C 
ATOM     20  H   LIG d   1       6.635   1.299  -6.226  0.00  0.00     0.033 H 
ATOM     21  C   LIG d   1       7.668   0.323  -4.615  0.00  0.00     0.107 C 
ATOM     22  H   LIG d   1       8.298  -2.212  -2.848  0.00  0.00     0.066 H 
ATOM     23  H   LIG d   1       5.992   0.741  -8.771  0.00  0.00     0.066 H 
ATOM     24  H   LIG d   1       3.005  -1.962 -10.774  0.00  0.00     0.117 H 
ATOM     25  H   LIG d   1       1.593  -1.129 -10.040  0.00  0.00     0.117 H 
ATOM     26  H   LIG d   1       8.382  -1.118  -6.568  0.00  0.00     0.032 H 
ATOM     27  H   LIG d   1       8.317   0.044  -7.936  0.00  0.00     0.032 H 
ENDROOT
BRANCH   1  28
ATOM     28  O   LIG d   1       5.471  -0.502  -5.259  0.00  0.00    -0.450 OA
BRANCH  28  29
ATOM     29  C   LIG d   1       4.272  -0.298  -4.677  0.00  0.00     0.335 C 
ATOM     30  O   LIG d   1       3.401   0.301  -5.275  0.00  0.00    -0.245 OA
BRANCH  29  31
ATOM     31  C   LIG d   1       4.019  -0.800  -3.320  0.00  0.00     0.029 C 
ATOM     32  C   LIG d   1       3.873   0.054  -2.310  0.00  0.00    -0.077 C 
ATOM     33  H   LIG d   1       3.684  -0.322  -1.293  0.00  0.00     0.057 H 
BRANCH  32  34
ATOM     34  C   LIG d   1       3.968   1.538  -2.559  0.00  0.00    -0.046 C 
ATOM     35  H   LIG d   1       4.637   1.725  -3.411  0.00  0.00     0.027 H 
ATOM     36  H   LIG d   1       4.367   2.034  -1.662  0.00  0.00     0.027 H 
ATOM     37  H   LIG d   1       2.968   1.937  -2.784  0.00  0.00     0.027 H 
ENDBRANCH  32  34
BRANCH  31  38
ATOM     38  C   LIG d   1       3.924  -2.284  -3.070  0.00  0.00    -0.033 C 
ATOM     39  H   LIG d   1       4.492  -2.823  -3.844  0.00  0.00     0.028 H 
ATOM     40  H   LIG d   1       2.870  -2.595  -3.105  0.00  0.00     0.028 H 
ATOM     41  H   LIG d   1       4.343  -2.517  -2.080  0.00  0.00     0.028 H 
ENDBRANCH  31  38
ENDBRANCH  29  31
ENDBRANCH  28  29
ENDBRANCH   1  28
BRANCH  21  42
ATOM     42  C   LIG d   1       7.434   1.493  -3.657  0.00  0.00    -0.032 C 
ATOM     43  H   LIG d   1       6.746   2.214  -4.121  0.00  0.00     0.026 H 
ATOM     44  H   LIG d   1       8.393   1.987  -3.441  0.00  0.00     0.026 H 
ATOM     45  H   LIG d   1       6.995   1.117  -2.721  0.00  0.00     0.026 H 
ENDBRANCH  21  42
BRANCH  21  46
ATOM     46  O   LIG d   1       8.956  -0.241  -4.361  0.00  0.00    -0.385 OA
ATOM     47  H   LIG d   1       9.054  -1.315  -4.146  0.00  0.00     0.210 HD
ENDBRANCH  21  46
BRANCH  19  48
ATOM     48  C   LIG d   1       8.734   1.854  -6.266  0.00  0.00    -0.059 C 
ATOM     49  H   LIG d   1       9.409   1.846  -5.398  0.00  0.00     0.023 H 
ATOM     50  H   LIG d   1       8.298   2.857  -6.381  0.00  0.00     0.023 H 
ATOM     51  H   LIG d   1       9.301   1.594  -7.173  0.00  0.00     0.023 H 
ENDBRANCH  19  48
BRANCH   7  52
ATOM     52  O   LIG d   1       6.942  -4.688  -7.242  0.00  0.00    -0.491 OA
BRANCH  52  53
ATOM     53  C   LIG d   1       7.832  -4.577  -8.354  0.00  0.00     0.079 C 
ATOM     54  H   LIG d   1       7.768  -3.562  -8.776  0.00  0.00     0.066 H 
ATOM     55  H   LIG d   1       7.552  -5.312  -9.123  0.00  0.00     0.066 H 
ATOM     56  H   LIG d   1       8.862  -4.770  -8.020  0.00  0.00     0.066 H 
ENDBRANCH  52  53
ENDBRANCH   7  52
BRANCH   5  57
ATOM     57  O   LIG d   1       9.323  -4.611  -3.118  0.00  0.00    -0.491 OA
BRANCH  57  58
ATOM     58  C   LIG d   1      10.654  -4.104  -3.015  0.00  0.00     0.079 C 
ATOM     59  H   LIG d   1      11.162  -4.578  -2.162  0.00  0.00     0.066 H 
ATOM     60  H   LIG d   1      10.621  -3.015  -2.862  0.00  0.00     0.066 H 
ATOM     61  H   LIG d   1      11.205  -4.328  -3.940  0.00  0.00     0.066 H 
ENDBRANCH  57  58
ENDBRANCH   5  57
BRANCH   6  62
ATOM     62  O   LIG d   1       8.594  -5.917  -5.425  0.00  0.00    -0.488 OA
BRANCH  62  63
ATOM     63  C   LIG d   1       7.779  -7.004  -4.985  0.00  0.00     0.079 C 
ATOM     64  H   LIG d   1       6.746  -6.853  -5.333  0.00  0.00     0.066 H 
ATOM     65  H   LIG d   1       7.792  -7.051  -3.886  0.00  0.00     0.066 H 
ATOM     66  H   LIG d   1       8.171  -7.946  -5.397  0.00  0.00     0.066 H 
ENDBRANCH  62  63
ENDBRANCH   6  62
BRANCH  14  67
ATOM     67  O   LIG d   1       4.344  -3.771  -6.723  0.00  0.00    -0.491 OA
BRANCH  67  68
ATOM     68  C   LIG d   1       3.842  -4.749  -7.636  0.00  0.00     0.079 C 
ATOM     69  H   LIG d   1       3.988  -4.395  -8.668  0.00  0.00     0.066 H 
ATOM     70  H   LIG d   1       2.770  -4.909  -7.451  0.00  0.00     0.066 H 
ATOM     71  H   LIG d   1       4.383  -5.696  -7.494  0.00  0.00     0.066 H 
ENDBRANCH  67  68
ENDBRANCH  14  67
TORSDOF 16
ENDMDL
MODEL 3
REMARK VINA RESULT:      -5.7      2.167      4.699
REMARK  16 active torsions:
REMARK  status: ('A' for Active; 'I' for Inactive)
REMARK    1  A    between atoms: C_1  and  C_2 
REMARK    2  A    between atoms: C_3  and  C_4 
REMARK    3  A    between atoms: C_3  and  C_5 
REMARK    4  A    between atoms: C_5  and  O_7 
REMARK    5  A    between atoms: O_7  and  C_8 
REMARK    6  A    between atoms: C_12  and  O_38 
REMARK    7  A    between atoms: C_13  and  O_36 
REMARK    8  A    between atoms: C_14  and  O_34 
REMARK    9  A    between atoms: C_21  and  O_22 
REMARK   10  A    between atoms: O_22  and  C_23 
REMARK   11  A    between atoms: C_28  and  C_33 
REMARK   12  A    between atoms: C_30  and  C_31 
REMARK   13  A    between atoms: C_30  and  O_32 
REMARK   14  A    between atoms: O_34  and  C_35 
REMARK   15  A    between atoms: O_36  and  C_37 
REMARK   16  A    between atoms: O_38  and  C_39 
ROOT
ATOM      1  C   LIG d   1       4.293  -0.897  -5.891  0.00  0.00     0.158 C 
ATOM      2  H   LIG d   1       3.589  -1.035  -6.725  0.00  0.00     0.082 H 
ATOM      3  C   LIG d   1       5.050  -2.182  -5.623  0.00  0.00     0.011 A 
ATOM      4  C   LIG d   1       4.391  -3.387  -5.564  0.00  0.00    -0.009 A 
ATOM      5  C   LIG d   1       5.109  -4.560  -5.365  0.00  0.00     0.166 A 
ATOM      6  C   LIG d   1       6.492  -4.511  -5.224  0.00  0.00     0.204 A 
ATOM      7  C   LIG d   1       7.157  -3.295  -5.269  0.00  0.00     0.173 A 
ATOM      8  C   LIG d   1       6.432  -2.110  -5.457  0.00  0.00     0.038 A 
ATOM      9  C   LIG d   1       7.127  -0.810  -5.421  0.00  0.00     0.035 A 
ATOM     10  C   LIG d   1       6.800   0.150  -4.467  0.00  0.00    -0.032 A 
ATOM     11  C   LIG d   1       7.415   1.380  -4.461  0.00  0.00    -0.012 A 
ATOM     12  C   LIG d   1       8.396   1.669  -5.402  0.00  0.00     0.170 A 
ATOM     13  C   LIG d   1       8.755   0.713  -6.346  0.00  0.00     0.208 A 
ATOM     14  C   LIG d   1       8.125  -0.523  -6.361  0.00  0.00     0.173 A 
ATOM     15  O   LIG d   1       9.741   1.231  -7.139  0.00  0.00    -0.449 OA
ATOM     16  C   LIG d   1      10.259   2.364  -6.418  0.00  0.00     0.233 C 
ATOM     17  O   LIG d   1       9.149   2.790  -5.606  0.00  0.00    -0.453 OA
ATOM     18  C   LIG d   1       5.753  -0.194  -3.427  0.00  0.00    -0.022 C 
ATOM     19  C   LIG d   1       4.430   0.477  -3.788  0.00  0.00    -0.007 C 
ATOM     20  H   LIG d   1       4.642   1.380  -4.378  0.00  0.00     0.033 H 
ATOM     21  C   LIG d   1       3.560  -0.460  -4.623  0.00  0.00     0.107 C 
ATOM     22  H   LIG d   1       3.318  -3.423  -5.674  0.00  0.00     0.066 H 
ATOM     23  H   LIG d   1       7.137   2.120  -3.725  0.00  0.00     0.066 H 
ATOM     24  H   LIG d   1      11.122   2.051  -5.812  0.00  0.00     0.117 H 
ATOM     25  H   LIG d   1      10.574   3.140  -7.132  0.00  0.00     0.117 H 
ATOM     26  H   LIG d   1       5.613  -1.284  -3.394  0.00  0.00     0.032 H 
ATOM     27  H   LIG d   1       6.086   0.162  -2.440  0.00  0.00     0.032 H 
ENDROOT
BRANCH   1  28
ATOM     28  O   LIG d   1       5.227   0.140  -6.291  0.00  0.00    -0.450 OA
BRANCH  28  29
ATOM     29  C   LIG d   1       5.113   0.614  -7.548  0.00  0.00     0.335 C 
ATOM     30  O   LIG d   1       5.860   1.490  -7.937  0.00  0.00    -0.245 OA
BRANCH  29  31
ATOM     31  C   LIG d   1       4.086   0.071  -8.447  0.00  0.00     0.029 C 
ATOM     32  C   LIG d   1       2.986   0.775  -8.703  0.00  0.00    -0.077 C 
ATOM     33  H   LIG d   1       2.216   0.368  -9.377  0.00  0.00     0.057 H 
BRANCH  32  34
ATOM     34  C   LIG d   1       2.793   2.129  -8.070  0.00  0.00    -0.046 C 
ATOM     35  H   LIG d   1       3.472   2.233  -7.212  0.00  0.00     0.027 H 
ATOM     36  H   LIG d   1       1.752   2.228  -7.730  0.00  0.00     0.027 H 
ATOM     37  H   LIG d   1       3.014   2.914  -8.809  0.00  0.00     0.027 H 
ENDBRANCH  32  34
BRANCH  31  38
ATOM     38  C   LIG d   1       4.278  -1.283  -9.081  0.00  0.00    -0.033 C 
ATOM     39  H   LIG d   1       5.229  -1.717  -8.737  0.00  0.00     0.028 H 
ATOM     40  H   LIG d   1       4.299  -1.176 -10.175  0.00  0.00     0.028 H 
ATOM     41  H   LIG d   1       3.448  -1.944  -8.792  0.00  0.00     0.028 H 
ENDBRANCH  31  38
ENDBRANCH  29  31
ENDBRANCH  28  29
ENDBRANCH   1  28
BRANCH  21  42
ATOM     42  C   LIG d   1       2.269   0.263  -5.012  0.00  0.00    -0.032 C 
ATOM     43  H   LIG d   1       1.868  -0.176  -5.936  0.00  0.00     0.026 H 
ATOM     44  H   LIG d   1       2.482   1.331  -5.174  0.00  0.00     0.026 H 
ATOM     45  H   LIG d   1       1.532   0.155  -4.203  0.00  0.00     0.026 H 
ENDBRANCH  21  42
BRANCH  21  46
ATOM     46  O   LIG d   1       3.235  -1.616  -3.848  0.00  0.00    -0.385 OA
ATOM     47  H   LIG d   1       2.780  -2.493  -4.332  0.00  0.00     0.210 HD
ENDBRANCH  21  46
BRANCH  19  48
ATOM     48  C   LIG d   1       3.685   0.845  -2.504  0.00  0.00    -0.059 C 
ATOM     49  H   LIG d   1       4.362   1.389  -1.829  0.00  0.00     0.023 H 
ATOM     50  H   LIG d   1       3.331  -0.071  -2.009  0.00  0.00     0.023 H 
ATOM     51  H   LIG d   1       2.823   1.485  -2.751  0.00  0.00     0.023 H 
ENDBRANCH  19  48
BRANCH   7  52
ATOM     52  O   LIG d   1       8.509  -3.251  -5.132  0.00  0.00    -0.491 OA
BRANCH  52  53
ATOM     53  C   LIG d   1       9.032  -3.409  -3.812  0.00  0.00     0.079 C 
ATOM     54  H   LIG d   1       8.253  -3.827  -3.156  0.00  0.00     0.066 H 
ATOM     55  H   LIG d   1       9.351  -2.431  -3.425  0.00  0.00     0.066 H 
ATOM     56  H   LIG d   1       9.894  -4.093  -3.838  0.00  0.00     0.066 H 
ENDBRANCH  52  53
ENDBRANCH   7  52
BRANCH   5  57
ATOM     57  O   LIG d   1       4.461  -5.755  -5.312  0.00  0.00    -0.491 OA
BRANCH  57  58
ATOM     58  C   LIG d   1       4.293  -6.455  -6.546  0.00  0.00     0.079 C 
ATOM     59  H   LIG d   1       4.701  -5.851  -7.370  0.00  0.00     0.066 H 
ATOM     60  H   LIG d   1       3.223  -6.637  -6.721  0.00  0.00     0.066 H 
ATOM     61  H   LIG d   1       4.826  -7.416  -6.498  0.00  0.00     0.066 H 
ENDBRANCH  57  58
ENDBRANCH   5  57
BRANCH   6  62
ATOM     62  O   LIG d   1       7.196  -5.661  -5.042  0.00  0.00    -0.488 OA
BRANCH  62  63
ATOM     63  C   LIG d   1       7.828  -6.224  -6.193  0.00  0.00     0.079 C 
ATOM     64  H   LIG d   1       8.823  -5.771  -6.324  0.00  0.00     0.066 H 
ATOM     65  H   LIG d   1       7.214  -6.024  -7.084  0.00  0.00     0.066 H 
ATOM     66  H   LIG d   1       7.935  -7.311  -6.058  0.00  0.00     0.066 H 
ENDBRANCH  62  63
ENDBRANCH   6  62
BRANCH  14  67
ATOM     67  O   LIG d   1       8.476  -1.456  -7.286  0.00  0.00    -0.491 OA
BRANCH  67  68
ATOM     68  C   LIG d   1       8.004  -1.255  -8.620  0.00  0.00     0.079 C 
ATOM     69  H   LIG d   1       8.863  -1.152  -9.300  0.00  0.00     0.066 H 
ATOM     70  H   LIG d   1       7.394  -0.341  -8.660  0.00  0.00     0.066 H 
ATOM     71  H   LIG d   1       7.394  -2.117  -8.927  0.00  0.00     0.066 H 
ENDBRANCH  67  68
ENDBRANCH  14  67
TORSDOF 16
ENDMDL
MODEL 4
REMARK VINA RESULT:      -5.5      9.155     11.265
REMARK  16 active torsions:
REMARK  status: ('A' for Active; 'I' for Inactive)
REMARK    1  A    between atoms: C_1  and  C_2 
REMARK    2  A    between atoms: C_3  and  C_4 
REMARK    3  A    between atoms: C_3  and  C_5 
REMARK    4  A    between atoms: C_5  and  O_7 
REMARK    5  A    between atoms: O_7  and  C_8 
REMARK    6  A    between atoms: C_12  and  O_38 
REMARK    7  A    between atoms: C_13  and  O_36 
REMARK    8  A    between atoms: C_14  and  O_34 
REMARK    9  A    between atoms: C_21  and  O_22 
REMARK   10  A    between atoms: O_22  and  C_23 
REMARK   11  A    between atoms: C_28  and  C_33 
REMARK   12  A    between atoms: C_30  and  C_31 
REMARK   13  A    between atoms: C_30  and  O_32 
REMARK   14  A    between atoms: O_34  and  C_35 
REMARK   15  A    between atoms: O_36  and  C_37 
REMARK   16  A    between atoms: O_38  and  C_39 
ROOT
ATOM      1  C   LIG d   1      10.144   6.039  -1.698  0.00  0.00     0.158 C 
ATOM      2  H   LIG d   1       9.226   5.899  -1.109  0.00  0.00     0.082 H 
ATOM      3  C   LIG d   1      10.065   5.252  -2.991  0.00  0.00     0.011 A 
ATOM      4  C   LIG d   1       9.628   3.949  -2.996  0.00  0.00    -0.009 A 
ATOM      5  C   LIG d   1       9.518   3.259  -4.197  0.00  0.00     0.166 A 
ATOM      6  C   LIG d   1       9.851   3.890  -5.391  0.00  0.00     0.204 A 
ATOM      7  C   LIG d   1      10.306   5.200  -5.387  0.00  0.00     0.173 A 
ATOM      8  C   LIG d   1      10.430   5.892  -4.175  0.00  0.00     0.038 A 
ATOM      9  C   LIG d   1      10.992   7.255  -4.160  0.00  0.00     0.035 A 
ATOM     10  C   LIG d   1      12.159   7.540  -3.456  0.00  0.00    -0.032 A 
ATOM     11  C   LIG d   1      12.660   8.820  -3.405  0.00  0.00    -0.012 A 
ATOM     12  C   LIG d   1      12.011   9.846  -4.082  0.00  0.00     0.170 A 
ATOM     13  C   LIG d   1      10.858   9.575  -4.812  0.00  0.00     0.208 A 
ATOM     14  C   LIG d   1      10.346   8.286  -4.853  0.00  0.00     0.173 A 
ATOM     15  O   LIG d   1      10.425  10.735  -5.390  0.00  0.00    -0.449 OA
ATOM     16  C   LIG d   1      11.547  11.636  -5.332  0.00  0.00     0.233 C 
ATOM     17  O   LIG d   1      12.298  11.176  -4.193  0.00  0.00    -0.453 OA
ATOM     18  C   LIG d   1      12.874   6.403  -2.753  0.00  0.00    -0.022 C 
ATOM     19  C   LIG d   1      12.584   6.463  -1.256  0.00  0.00    -0.007 C 
ATOM     20  H   LIG d   1      12.365   7.505  -0.980  0.00  0.00     0.033 H 
ATOM     21  C   LIG d   1      11.375   5.599  -0.906  0.00  0.00     0.107 C 
ATOM     22  H   LIG d   1       9.369   3.461  -2.068  0.00  0.00     0.066 H 
ATOM     23  H   LIG d   1      13.557   9.027  -2.840  0.00  0.00     0.066 H 
ATOM     24  H   LIG d   1      12.123  11.565  -6.266  0.00  0.00     0.117 H 
ATOM     25  H   LIG d   1      11.183  12.667  -5.202  0.00  0.00     0.117 H 
ATOM     26  H   LIG d   1      12.520   5.443  -3.156  0.00  0.00     0.032 H 
ATOM     27  H   LIG d   1      13.958   6.493  -2.920  0.00  0.00     0.032 H 
ENDROOT
BRANCH   1  28
ATOM     28  O   LIG d   1      10.244   7.456  -1.999  0.00  0.00    -0.450 OA
BRANCH  28  29
ATOM     29  C   LIG d   1       9.420   8.284  -1.326  0.00  0.00     0.335 C 
ATOM     30  O   LIG d   1       8.409   7.849  -0.813  0.00  0.00    -0.245 OA
BRANCH  29  31
ATOM     31  C   LIG d   1       9.746   9.712  -1.214  0.00  0.00     0.029 C 
ATOM     32  C   LIG d   1      10.619  10.126  -0.299  0.00  0.00    -0.077 C 
ATOM     33  H   LIG d   1      10.863  11.196  -0.214  0.00  0.00     0.057 H 
BRANCH  32  34
ATOM     34  C   LIG d   1      11.272   9.129   0.624  0.00  0.00    -0.046 C 
ATOM     35  H   LIG d   1      11.907   9.661   1.348  0.00  0.00     0.027 H 
ATOM     36  H   LIG d   1      11.888   8.435   0.035  0.00  0.00     0.027 H 
ATOM     37  H   LIG d   1      10.497   8.565   1.163  0.00  0.00     0.027 H 
ENDBRANCH  32  34
BRANCH  31  38
ATOM     38  C   LIG d   1       9.094  10.709  -2.137  0.00  0.00    -0.033 C 
ATOM     39  H   LIG d   1       8.509  10.174  -2.900  0.00  0.00     0.028 H 
ATOM     40  H   LIG d   1       9.868  11.317  -2.627  0.00  0.00     0.028 H 
ATOM     41  H   LIG d   1       8.426  11.363  -1.557  0.00  0.00     0.028 H 
ENDBRANCH  31  38
ENDBRANCH  29  31
ENDBRANCH  28  29
ENDBRANCH   1  28
BRANCH  21  42
ATOM     42  C   LIG d   1      11.081   5.726   0.591  0.00  0.00    -0.032 C 
ATOM     43  H   LIG d   1      11.840   5.172   1.161  0.00  0.00     0.026 H 
ATOM     44  H   LIG d   1      10.085   5.311   0.805  0.00  0.00     0.026 H 
ATOM     45  H   LIG d   1      11.107   6.787   0.880  0.00  0.00     0.026 H 
ENDBRANCH  21  42
BRANCH  21  46
ATOM     46  O   LIG d   1      11.667   4.235  -1.212  0.00  0.00    -0.385 OA
ATOM     47  H   LIG d   1      12.678   3.949  -1.539  0.00  0.00     0.210 HD
ENDBRANCH  21  46
BRANCH  19  48
ATOM     48  C   LIG d   1      13.805   5.957  -0.485  0.00  0.00    -0.059 C 
ATOM     49  H   LIG d   1      14.603   6.712  -0.524  0.00  0.00     0.023 H 
ATOM     50  H   LIG d   1      14.163   5.021  -0.939  0.00  0.00     0.023 H 
ATOM     51  H   LIG d   1      13.525   5.772   0.563  0.00  0.00     0.023 H 
ENDBRANCH  19  48
BRANCH   7  52
ATOM     52  O   LIG d   1      10.629   5.813  -6.557  0.00  0.00    -0.491 OA
BRANCH  52  53
ATOM     53  C   LIG d   1      11.993   5.730  -6.976  0.00  0.00     0.079 C 
ATOM     54  H   LIG d   1      12.144   6.364  -7.863  0.00  0.00     0.066 H 
ATOM     55  H   LIG d   1      12.237   4.687  -7.225  0.00  0.00     0.066 H 
ATOM     56  H   LIG d   1      12.649   6.076  -6.163  0.00  0.00     0.066 H 
ENDBRANCH  52  53
ENDBRANCH   7  52
BRANCH   5  57
ATOM     57  O   LIG d   1       9.080   1.972  -4.206  0.00  0.00    -0.491 OA
BRANCH  57  58
ATOM     58  C   LIG d   1       7.708   1.752  -3.871  0.00  0.00     0.079 C 
ATOM     59  H   LIG d   1       7.326   2.615  -3.305  0.00  0.00     0.066 H 
ATOM     60  H   LIG d   1       7.622   0.844  -3.256  0.00  0.00     0.066 H 
ATOM     61  H   LIG d   1       7.121   1.628  -4.792  0.00  0.00     0.066 H 
ENDBRANCH  57  58
ENDBRANCH   5  57
BRANCH   6  62
ATOM     62  O   LIG d   1       9.730   3.219  -6.569  0.00  0.00    -0.488 OA
BRANCH  62  63
ATOM     63  C   LIG d   1      10.793   2.332  -6.922  0.00  0.00     0.079 C 
ATOM     64  H   LIG d   1      10.424   1.586  -7.642  0.00  0.00     0.066 H 
ATOM     65  H   LIG d   1      11.160   1.821  -6.020  0.00  0.00     0.066 H 
ATOM     66  H   LIG d   1      11.614   2.907  -7.378  0.00  0.00     0.066 H 
ENDBRANCH  62  63
ENDBRANCH   6  62
BRANCH  14  67
ATOM     67  O   LIG d   1       9.218   8.024  -5.566  0.00  0.00    -0.491 OA
BRANCH  67  68
ATOM     68  C   LIG d   1       9.170   8.514  -6.908  0.00  0.00     0.079 C 
ATOM     69  H   LIG d   1       8.221   9.047  -7.069  0.00  0.00     0.066 H 
ATOM     70  H   LIG d   1       9.240   7.670  -7.610  0.00  0.00     0.066 H 
ATOM     71  H   LIG d   1      10.011   9.202  -7.077  0.00  0.00     0.066 H 
ENDBRANCH  67  68
ENDBRANCH  14  67
TORSDOF 16
ENDMDL
MODEL 5
REMARK VINA RESULT:      -5.3      2.106      5.421
REMARK  16 active torsions:
REMARK  status: ('A' for Active; 'I' for Inactive)
REMARK    1  A    between atoms: C_1  and  C_2 
REMARK    2  A    between atoms: C_3  and  C_4 
REMARK    3  A    between atoms: C_3  and  C_5 
REMARK    4  A    between atoms: C_5  and  O_7 
REMARK    5  A    between atoms: O_7  and  C_8 
REMARK    6  A    between atoms: C_12  and  O_38 
REMARK    7  A    between atoms: C_13  and  O_36 
REMARK    8  A    between atoms: C_14  and  O_34 
REMARK    9  A    between atoms: C_21  and  O_22 
REMARK   10  A    between atoms: O_22  and  C_23 
REMARK   11  A    between atoms: C_28  and  C_33 
REMARK   12  A    between atoms: C_30  and  C_31 
REMARK   13  A    between atoms: C_30  and  O_32 
REMARK   14  A    between atoms: O_34  and  C_35 
REMARK   15  A    between atoms: O_36  and  C_37 
REMARK   16  A    between atoms: O_38  and  C_39 
ROOT
ATOM      1  C   LIG d   1       5.838  -0.153  -5.306  0.00  0.00     0.158 C 
ATOM      2  H   LIG d   1       6.060   0.890  -5.578  0.00  0.00     0.082 H 
ATOM      3  C   LIG d   1       5.026  -0.820  -6.397  0.00  0.00     0.011 A 
ATOM      4  C   LIG d   1       3.948  -0.181  -6.963  0.00  0.00    -0.009 A 
ATOM      5  C   LIG d   1       3.244  -0.790  -7.994  0.00  0.00     0.166 A 
ATOM      6  C   LIG d   1       3.633  -2.045  -8.452  0.00  0.00     0.204 A 
ATOM      7  C   LIG d   1       4.711  -2.697  -7.874  0.00  0.00     0.173 A 
ATOM      8  C   LIG d   1       5.413  -2.090  -6.824  0.00  0.00     0.038 A 
ATOM      9  C   LIG d   1       6.506  -2.817  -6.153  0.00  0.00     0.035 A 
ATOM     10  C   LIG d   1       6.438  -3.117  -4.795  0.00  0.00    -0.032 A 
ATOM     11  C   LIG d   1       7.477  -3.755  -4.158  0.00  0.00    -0.012 A 
ATOM     12  C   LIG d   1       8.605  -4.131  -4.877  0.00  0.00     0.170 A 
ATOM     13  C   LIG d   1       8.679  -3.862  -6.240  0.00  0.00     0.208 A 
ATOM     14  C   LIG d   1       7.637  -3.207  -6.880  0.00  0.00     0.173 A 
ATOM     15  O   LIG d   1       9.870  -4.340  -6.714  0.00  0.00    -0.449 OA
ATOM     16  C   LIG d   1      10.345  -5.255  -5.709  0.00  0.00     0.233 C 
ATOM     17  O   LIG d   1       9.749  -4.767  -4.492  0.00  0.00    -0.453 OA
ATOM     18  C   LIG d   1       5.186  -2.732  -4.033  0.00  0.00    -0.022 C 
ATOM     19  C   LIG d   1       5.454  -1.479  -3.203  0.00  0.00    -0.007 C 
ATOM     20  H   LIG d   1       6.528  -1.436  -2.966  0.00  0.00     0.033 H 
ATOM     21  C   LIG d   1       5.075  -0.223  -3.984  0.00  0.00     0.107 C 
ATOM     22  H   LIG d   1       3.648   0.793  -6.606  0.00  0.00     0.066 H 
ATOM     23  H   LIG d   1       7.415  -3.965  -3.100  0.00  0.00     0.066 H 
ATOM     24  H   LIG d   1      10.013  -6.275  -5.955  0.00  0.00     0.117 H 
ATOM     25  H   LIG d   1      11.444  -5.225  -5.676  0.00  0.00     0.117 H 
ATOM     26  H   LIG d   1       4.371  -2.531  -4.744  0.00  0.00     0.032 H 
ATOM     27  H   LIG d   1       4.895  -3.557  -3.366  0.00  0.00     0.032 H 
ENDROOT
BRANCH   1  28
ATOM     28  O   LIG d   1       7.112  -0.835  -5.165  0.00  0.00    -0.450 OA
BRANCH  28  29
ATOM     29  C   LIG d   1       8.225  -0.104  -5.378  0.00  0.00     0.335 C 
ATOM     30  O   LIG d   1       9.318  -0.574  -5.133  0.00  0.00    -0.245 OA
BRANCH  29  31
ATOM     31  C   LIG d   1       8.115   1.263  -5.907  0.00  0.00     0.029 C 
ATOM     32  C   LIG d   1       8.354   2.304  -5.115  0.00  0.00    -0.077 C 
ATOM     33  H   LIG d   1       8.272   3.328  -5.510  0.00  0.00     0.057 H 
BRANCH  32  34
ATOM     34  C   LIG d   1       8.737   2.083  -3.674  0.00  0.00    -0.046 C 
ATOM     35  H   LIG d   1       8.599   3.017  -3.110  0.00  0.00     0.027 H 
ATOM     36  H   LIG d   1       9.790   1.773  -3.619  0.00  0.00     0.027 H 
ATOM     37  H   LIG d   1       8.100   1.297  -3.242  0.00  0.00     0.027 H 
ENDBRANCH  32  34
BRANCH  31  38
ATOM     38  C   LIG d   1       7.732   1.485  -7.348  0.00  0.00    -0.033 C 
ATOM     39  H   LIG d   1       6.689   1.832  -7.401  0.00  0.00     0.028 H 
ATOM     40  H   LIG d   1       7.834   0.542  -7.905  0.00  0.00     0.028 H 
ATOM     41  H   LIG d   1       8.393   2.245  -7.790  0.00  0.00     0.028 H 
ENDBRANCH  31  38
ENDBRANCH  29  31
ENDBRANCH  28  29
ENDBRANCH   1  28
BRANCH  21  42
ATOM     42  C   LIG d   1       5.408   1.012  -3.145  0.00  0.00    -0.032 C 
ATOM     43  H   LIG d   1       6.373   0.861  -2.638  0.00  0.00     0.026 H 
ATOM     44  H   LIG d   1       4.620   1.169  -2.394  0.00  0.00     0.026 H 
ATOM     45  H   LIG d   1       5.472   1.893  -3.800  0.00  0.00     0.026 H 
ENDBRANCH  21  42
BRANCH  21  46
ATOM     46  O   LIG d   1       3.672  -0.243  -4.253  0.00  0.00    -0.385 OA
ATOM     47  H   LIG d   1       3.099  -1.173  -4.120  0.00  0.00     0.210 HD
ENDBRANCH  21  46
BRANCH  19  48
ATOM     48  C   LIG d   1       4.630  -1.540  -1.916  0.00  0.00    -0.059 C 
ATOM     49  H   LIG d   1       3.566  -1.398  -2.154  0.00  0.00     0.023 H 
ATOM     50  H   LIG d   1       4.961  -0.746  -1.230  0.00  0.00     0.023 H 
ATOM     51  H   LIG d   1       4.770  -2.521  -1.437  0.00  0.00     0.023 H 
ENDBRANCH  19  48
BRANCH   7  52
ATOM     52  O   LIG d   1       5.088  -3.923  -8.325  0.00  0.00    -0.491 OA
BRANCH  52  53
ATOM     53  C   LIG d   1       4.399  -5.052  -7.785  0.00  0.00     0.079 C 
ATOM     54  H   LIG d   1       4.058  -5.702  -8.606  0.00  0.00     0.066 H 
ATOM     55  H   LIG d   1       3.529  -4.709  -7.206  0.00  0.00     0.066 H 
ATOM     56  H   LIG d   1       5.077  -5.617  -7.129  0.00  0.00     0.066 H 
ENDBRANCH  52  53
ENDBRANCH   7  52
BRANCH   5  57
ATOM     57  O   LIG d   1       2.181  -0.158  -8.560  0.00  0.00    -0.491 OA
BRANCH  57  58
ATOM     58  C   LIG d   1       2.438   1.089  -9.207  0.00  0.00     0.079 C 
ATOM     59  H   LIG d   1       2.223   0.996 -10.283  0.00  0.00     0.066 H 
ATOM     60  H   LIG d   1       3.494   1.364  -9.069  0.00  0.00     0.066 H 
ATOM     61  H   LIG d   1       1.796   1.868  -8.771  0.00  0.00     0.066 H 
ENDBRANCH  57  58
ENDBRANCH   5  57
BRANCH   6  62
ATOM     62  O   LIG d   1       2.952  -2.635  -9.472  0.00  0.00    -0.488 OA
BRANCH  62  63
ATOM     63  C   LIG d   1       3.409  -2.366 -10.799  0.00  0.00     0.079 C 
ATOM     64  H   LIG d   1       2.735  -1.641 -11.279  0.00  0.00     0.066 H 
ATOM     65  H   LIG d   1       3.418  -3.299 -11.380  0.00  0.00     0.066 H 
ATOM     66  H   LIG d   1       4.427  -1.949 -10.758  0.00  0.00     0.066 H 
ENDBRANCH  62  63
ENDBRANCH   6  62
BRANCH  14  67
ATOM     67  O   LIG d   1       7.713  -2.945  -8.213  0.00  0.00    -0.491 OA
BRANCH  67  68
ATOM     68  C   LIG d   1       8.575  -1.878  -8.615  0.00  0.00     0.079 C 
ATOM     69  H   LIG d   1       8.845  -2.005  -9.674  0.00  0.00     0.066 H 
ATOM     70  H   LIG d   1       9.487  -1.892  -8.000  0.00  0.00     0.066 H 
ATOM     71  H   LIG d   1       8.057  -0.917  -8.481  0.00  0.00     0.066 H 
ENDBRANCH  67  68
ENDBRANCH  14  67
TORSDOF 16
ENDMDL
MODEL 6
REMARK VINA RESULT:      -5.3      2.013      6.097
REMARK  16 active torsions:
REMARK  status: ('A' for Active; 'I' for Inactive)
REMARK    1  A    between atoms: C_1  and  C_2 
REMARK    2  A    between atoms: C_3  and  C_4 
REMARK    3  A    between atoms: C_3  and  C_5 
REMARK    4  A    between atoms: C_5  and  O_7 
REMARK    5  A    between atoms: O_7  and  C_8 
REMARK    6  A    between atoms: C_12  and  O_38 
REMARK    7  A    between atoms: C_13  and  O_36 
REMARK    8  A    between atoms: C_14  and  O_34 
REMARK    9  A    between atoms: C_21  and  O_22 
REMARK   10  A    between atoms: O_22  and  C_23 
REMARK   11  A    between atoms: C_28  and  C_33 
REMARK   12  A    between atoms: C_30  and  C_31 
REMARK   13  A    between atoms: C_30  and  O_32 
REMARK   14  A    between atoms: O_34  and  C_35 
REMARK   15  A    between atoms: O_36  and  C_37 
REMARK   16  A    between atoms: O_38  and  C_39 
ROOT
ATOM      1  C   LIG d   1       5.064  -0.648  -6.041  0.00  0.00     0.158 C 
ATOM      2  H   LIG d   1       5.155  -0.073  -5.108  0.00  0.00     0.082 H 
ATOM      3  C   LIG d   1       6.384  -0.656  -6.785  0.00  0.00     0.011 A 
ATOM      4  C   LIG d   1       7.108   0.502  -6.947  0.00  0.00    -0.009 A 
ATOM      5  C   LIG d   1       8.338   0.466  -7.590  0.00  0.00     0.166 A 
ATOM      6  C   LIG d   1       8.835  -0.742  -8.070  0.00  0.00     0.204 A 
ATOM      7  C   LIG d   1       8.100  -1.908  -7.921  0.00  0.00     0.173 A 
ATOM      8  C   LIG d   1       6.853  -1.871  -7.284  0.00  0.00     0.038 A 
ATOM      9  C   LIG d   1       6.033  -3.093  -7.198  0.00  0.00     0.035 A 
ATOM     10  C   LIG d   1       4.773  -3.153  -7.787  0.00  0.00    -0.032 A 
ATOM     11  C   LIG d   1       3.989  -4.278  -7.669  0.00  0.00    -0.012 A 
ATOM     12  C   LIG d   1       4.464  -5.384  -6.976  0.00  0.00     0.170 A 
ATOM     13  C   LIG d   1       5.731  -5.352  -6.404  0.00  0.00     0.208 A 
ATOM     14  C   LIG d   1       6.517  -4.214  -6.511  0.00  0.00     0.173 A 
ATOM     15  O   LIG d   1       5.966  -6.555  -5.797  0.00  0.00    -0.449 OA
ATOM     16  C   LIG d   1       4.991  -7.460  -6.347  0.00  0.00     0.233 C 
ATOM     17  O   LIG d   1       3.899  -6.601  -6.722  0.00  0.00    -0.453 OA
ATOM     18  C   LIG d   1       4.284  -1.951  -8.570  0.00  0.00    -0.022 C 
ATOM     19  C   LIG d   1       3.276  -1.168  -7.733  0.00  0.00    -0.007 C 
ATOM     20  H   LIG d   1       2.792  -1.858  -7.026  0.00  0.00     0.033 H 
ATOM     21  C   LIG d   1       3.974  -0.066  -6.939  0.00  0.00     0.107 C 
ATOM     22  H   LIG d   1       6.721   1.438  -6.573  0.00  0.00     0.066 H 
ATOM     23  H   LIG d   1       3.006  -4.301  -8.117  0.00  0.00     0.066 H 
ATOM     24  H   LIG d   1       5.423  -7.985  -7.212  0.00  0.00     0.117 H 
ATOM     25  H   LIG d   1       4.699  -8.194  -5.581  0.00  0.00     0.117 H 
ATOM     26  H   LIG d   1       5.138  -1.302  -8.815  0.00  0.00     0.032 H 
ATOM     27  H   LIG d   1       3.804  -2.290  -9.499  0.00  0.00     0.032 H 
ENDROOT
BRANCH   1  28
ATOM     28  O   LIG d   1       4.710  -2.007  -5.670  0.00  0.00    -0.450 OA
BRANCH  28  29
ATOM     29  C   LIG d   1       4.600  -2.272  -4.353  0.00  0.00     0.335 C 
ATOM     30  O   LIG d   1       4.155  -3.340  -3.983  0.00  0.00    -0.245 OA
BRANCH  29  31
ATOM     31  C   LIG d   1       5.021  -1.269  -3.365  0.00  0.00     0.029 C 
ATOM     32  C   LIG d   1       4.107  -0.587  -2.679  0.00  0.00    -0.077 C 
ATOM     33  H   LIG d   1       4.421   0.165  -1.939  0.00  0.00     0.057 H 
BRANCH  32  34
ATOM     34  C   LIG d   1       2.640  -0.841  -2.917  0.00  0.00    -0.046 C 
ATOM     35  H   LIG d   1       2.268  -0.148  -3.685  0.00  0.00     0.027 H 
ATOM     36  H   LIG d   1       2.086  -0.685  -1.981  0.00  0.00     0.027 H 
ATOM     37  H   LIG d   1       2.499  -1.877  -3.259  0.00  0.00     0.027 H 
ENDBRANCH  32  34
BRANCH  31  38
ATOM     38  C   LIG d   1       6.487  -1.014  -3.126  0.00  0.00    -0.033 C 
ATOM     39  H   LIG d   1       6.908  -0.463  -3.981  0.00  0.00     0.028 H 
ATOM     40  H   LIG d   1       7.013  -1.973  -3.013  0.00  0.00     0.028 H 
ATOM     41  H   LIG d   1       6.611  -0.418  -2.210  0.00  0.00     0.028 H 
ENDBRANCH  31  38
ENDBRANCH  29  31
ENDBRANCH  28  29
ENDBRANCH   1  28
BRANCH  21  42
ATOM     42  C   LIG d   1       2.943   0.661  -6.073  0.00  0.00    -0.032 C 
ATOM     43  H   LIG d   1       2.745   1.656  -6.497  0.00  0.00     0.026 H 
ATOM     44  H   LIG d   1       3.335   0.769  -5.050  0.00  0.00     0.026 H 
ATOM     45  H   LIG d   1       2.010   0.079  -6.048  0.00  0.00     0.026 H 
ENDBRANCH  21  42
BRANCH  21  46
ATOM     46  O   LIG d   1       4.563   0.867  -7.848  0.00  0.00    -0.385 OA
ATOM     47  H   LIG d   1       5.075   1.761  -7.463  0.00  0.00     0.210 HD
ENDBRANCH  21  46
BRANCH  19  48
ATOM     48  C   LIG d   1       2.233  -0.540  -8.658  0.00  0.00    -0.059 C 
ATOM     49  H   LIG d   1       1.337  -0.276  -8.076  0.00  0.00     0.023 H 
ATOM     50  H   LIG d   1       1.960  -1.257  -9.445  0.00  0.00     0.023 H 
ATOM     51  H   LIG d   1       2.651   0.369  -9.118  0.00  0.00     0.023 H 
ENDBRANCH  19  48
BRANCH   7  52
ATOM     52  O   LIG d   1       8.589  -3.087  -8.391  0.00  0.00    -0.491 OA
BRANCH  52  53
ATOM     53  C   LIG d   1       8.335  -3.393  -9.763  0.00  0.00     0.079 C 
ATOM     54  H   LIG d   1       9.264  -3.739 -10.240  0.00  0.00     0.066 H 
ATOM     55  H   LIG d   1       7.972  -2.492 -10.279  0.00  0.00     0.066 H 
ATOM     56  H   LIG d   1       7.573  -4.184  -9.827  0.00  0.00     0.066 H 
ENDBRANCH  52  53
ENDBRANCH   7  52
BRANCH   5  57
ATOM     57  O   LIG d   1       9.059   1.608  -7.746  0.00  0.00    -0.491 OA
BRANCH  57  58
ATOM     58  C   LIG d   1       9.344   2.361  -6.566  0.00  0.00     0.079 C 
ATOM     59  H   LIG d   1       8.412   2.534  -6.007  0.00  0.00     0.066 H 
ATOM     60  H   LIG d   1       9.787   3.328  -6.846  0.00  0.00     0.066 H 
ATOM     61  H   LIG d   1      10.051   1.803  -5.936  0.00  0.00     0.066 H 
ENDBRANCH  57  58
ENDBRANCH   5  57
BRANCH   6  62
ATOM     62  O   LIG d   1      10.046  -0.779  -8.689  0.00  0.00    -0.488 OA
BRANCH  62  63
ATOM     63  C   LIG d   1      11.190  -1.000  -7.862  0.00  0.00     0.079 C 
ATOM     64  H   LIG d   1      11.161  -2.025  -7.462  0.00  0.00     0.066 H 
ATOM     65  H   LIG d   1      11.186  -0.281  -7.030  0.00  0.00     0.066 H 
ATOM     66  H   LIG d   1      12.105  -0.866  -8.459  0.00  0.00     0.066 H 
ENDBRANCH  62  63
ENDBRANCH   6  62
BRANCH  14  67
ATOM     67  O   LIG d   1       7.756  -4.185  -5.949  0.00  0.00    -0.491 OA
BRANCH  67  68
ATOM     68  C   LIG d   1       7.819  -4.052  -4.528  0.00  0.00     0.079 C 
ATOM     69  H   LIG d   1       8.310  -4.939  -4.099  0.00  0.00     0.066 H 
ATOM     70  H   LIG d   1       6.801  -3.964  -4.121  0.00  0.00     0.066 H 
ATOM     71  H   LIG d   1       8.396  -3.152  -4.269  0.00  0.00     0.066 H 
ENDBRANCH  67  68
ENDBRANCH  14  67
TORSDOF 16
ENDMDL
MODEL 7
REMARK VINA RESULT:      -5.3      2.245      5.094
REMARK  16 active torsions:
REMARK  status: ('A' for Active; 'I' for Inactive)
REMARK    1  A    between atoms: C_1  and  C_2 
REMARK    2  A    between atoms: C_3  and  C_4 
REMARK    3  A    between atoms: C_3  and  C_5 
REMARK    4  A    between atoms: C_5  and  O_7 
REMARK    5  A    between atoms: O_7  and  C_8 
REMARK    6  A    between atoms: C_12  and  O_38 
REMARK    7  A    between atoms: C_13  and  O_36 
REMARK    8  A    between atoms: C_14  and  O_34 
REMARK    9  A    between atoms: C_21  and  O_22 
REMARK   10  A    between atoms: O_22  and  C_23 
REMARK   11  A    between atoms: C_28  and  C_33 
REMARK   12  A    between atoms: C_30  and  C_31 
REMARK   13  A    between atoms: C_30  and  O_32 
REMARK   14  A    between atoms: O_34  and  C_35 
REMARK   15  A    between atoms: O_36  and  C_37 
REMARK   16  A    between atoms: O_38  and  C_39 
ROOT
ATOM      1  C   LIG d   1       5.127  -1.323  -5.437  0.00  0.00     0.158 C 
ATOM      2  H   LIG d   1       4.432  -0.904  -4.694  0.00  0.00     0.082 H 
ATOM      3  C   LIG d   1       4.910  -0.669  -6.787  0.00  0.00     0.011 A 
ATOM      4  C   LIG d   1       3.643  -0.496  -7.290  0.00  0.00    -0.009 A 
ATOM      5  C   LIG d   1       3.462   0.148  -8.507  0.00  0.00     0.166 A 
ATOM      6  C   LIG d   1       4.565   0.614  -9.216  0.00  0.00     0.204 A 
ATOM      7  C   LIG d   1       5.845   0.428  -8.717  0.00  0.00     0.173 A 
ATOM      8  C   LIG d   1       6.029  -0.233  -7.496  0.00  0.00     0.038 A 
ATOM      9  C   LIG d   1       7.393  -0.507  -7.005  0.00  0.00     0.035 A 
ATOM     10  C   LIG d   1       7.831  -1.812  -6.799  0.00  0.00    -0.032 A 
ATOM     11  C   LIG d   1       9.087  -2.066  -6.300  0.00  0.00    -0.012 A 
ATOM     12  C   LIG d   1       9.947  -1.012  -6.016  0.00  0.00     0.170 A 
ATOM     13  C   LIG d   1       9.536   0.298  -6.240  0.00  0.00     0.208 A 
ATOM     14  C   LIG d   1       8.264   0.555  -6.732  0.00  0.00     0.173 A 
ATOM     15  O   LIG d   1      10.557   1.140  -5.899  0.00  0.00    -0.449 OA
ATOM     16  C   LIG d   1      11.735   0.313  -5.842  0.00  0.00     0.233 C 
ATOM     17  O   LIG d   1      11.221  -0.994  -5.526  0.00  0.00    -0.453 OA
ATOM     18  C   LIG d   1       6.894  -2.951  -7.148  0.00  0.00    -0.022 C 
ATOM     19  C   LIG d   1       6.278  -3.517  -5.871  0.00  0.00    -0.007 C 
ATOM     20  H   LIG d   1       6.968  -3.334  -5.034  0.00  0.00     0.033 H 
ATOM     21  C   LIG d   1       4.947  -2.835  -5.565  0.00  0.00     0.107 C 
ATOM     22  H   LIG d   1       2.788  -0.858  -6.738  0.00  0.00     0.066 H 
ATOM     23  H   LIG d   1       9.405  -3.085  -6.129  0.00  0.00     0.066 H 
ATOM     24  H   LIG d   1      12.246   0.335  -6.816  0.00  0.00     0.117 H 
ATOM     25  H   LIG d   1      12.413   0.694  -5.063  0.00  0.00     0.117 H 
ATOM     26  H   LIG d   1       6.095  -2.580  -7.805  0.00  0.00     0.032 H 
ATOM     27  H   LIG d   1       7.456  -3.743  -7.665  0.00  0.00     0.032 H 
ENDROOT
BRANCH   1  28
ATOM     28  O   LIG d   1       6.471  -1.035  -4.971  0.00  0.00    -0.450 OA
BRANCH  28  29
ATOM     29  C   LIG d   1       6.610  -0.710  -3.669  0.00  0.00     0.335 C 
ATOM     30  O   LIG d   1       6.977  -1.549  -2.870  0.00  0.00    -0.245 OA
BRANCH  29  31
ATOM     31  C   LIG d   1       6.319   0.657  -3.218  0.00  0.00     0.029 C 
ATOM     32  C   LIG d   1       5.257   0.893  -2.451  0.00  0.00    -0.077 C 
ATOM     33  H   LIG d   1       5.038   1.917  -2.113  0.00  0.00     0.057 H 
BRANCH  32  34
ATOM     34  C   LIG d   1       4.352  -0.243  -2.046  0.00  0.00    -0.046 C 
ATOM     35  H   LIG d   1       4.952  -1.048  -1.598  0.00  0.00     0.027 H 
ATOM     36  H   LIG d   1       3.827  -0.625  -2.933  0.00  0.00     0.027 H 
ATOM     37  H   LIG d   1       3.617   0.118  -1.312  0.00  0.00     0.027 H 
ENDBRANCH  32  34
BRANCH  31  38
ATOM     38  C   LIG d   1       7.223   1.793  -3.622  0.00  0.00    -0.033 C 
ATOM     39  H   LIG d   1       7.693   2.225  -2.725  0.00  0.00     0.028 H 
ATOM     40  H   LIG d   1       6.632   2.568  -4.134  0.00  0.00     0.028 H 
ATOM     41  H   LIG d   1       8.003   1.418  -4.300  0.00  0.00     0.028 H 
ENDBRANCH  31  38
ENDBRANCH  29  31
ENDBRANCH  28  29
ENDBRANCH   1  28
BRANCH  21  42
ATOM     42  C   LIG d   1       4.386  -3.387  -4.253  0.00  0.00    -0.032 C 
ATOM     43  H   LIG d   1       3.736  -2.633  -3.787  0.00  0.00     0.026 H 
ATOM     44  H   LIG d   1       5.217  -3.628  -3.573  0.00  0.00     0.026 H 
ATOM     45  H   LIG d   1       3.804  -4.297  -4.459  0.00  0.00     0.026 H 
ENDBRANCH  21  42
BRANCH  21  46
ATOM     46  O   LIG d   1       4.024  -3.109  -6.622  0.00  0.00    -0.385 OA
ATOM     47  H   LIG d   1       3.610  -2.283  -7.219  0.00  0.00     0.210 HD
ENDBRANCH  21  46
BRANCH  19  48
ATOM     48  C   LIG d   1       6.045  -5.019  -6.046  0.00  0.00    -0.059 C 
ATOM     49  H   LIG d   1       6.683  -5.397  -6.858  0.00  0.00     0.023 H 
ATOM     50  H   LIG d   1       4.989  -5.200  -6.295  0.00  0.00     0.023 H 
ATOM     51  H   LIG d   1       6.296  -5.540  -5.110  0.00  0.00     0.023 H 
ENDBRANCH  19  48
BRANCH   7  52
ATOM     52  O   LIG d   1       6.920   0.886  -9.412  0.00  0.00    -0.491 OA
BRANCH  52  53
ATOM     53  C   LIG d   1       7.533  -0.021 -10.330  0.00  0.00     0.079 C 
ATOM     54  H   LIG d   1       7.736   0.499 -11.279  0.00  0.00     0.066 H 
ATOM     55  H   LIG d   1       6.857  -0.869 -10.515  0.00  0.00     0.066 H 
ATOM     56  H   LIG d   1       8.478  -0.391  -9.906  0.00  0.00     0.066 H 
ENDBRANCH  52  53
ENDBRANCH   7  52
BRANCH   5  57
ATOM     57  O   LIG d   1       2.209   0.327  -9.004  0.00  0.00    -0.491 OA
BRANCH  57  58
ATOM     58  C   LIG d   1       1.551  -0.825  -9.535  0.00  0.00     0.079 C 
ATOM     59  H   LIG d   1       1.653  -0.835 -10.630  0.00  0.00     0.066 H 
ATOM     60  H   LIG d   1       0.485  -0.795  -9.267  0.00  0.00     0.066 H 
ATOM     61  H   LIG d   1       2.008  -1.734  -9.116  0.00  0.00     0.066 H 
ENDBRANCH  57  58
ENDBRANCH   5  57
BRANCH   6  62
ATOM     62  O   LIG d   1       4.387   1.257 -10.402  0.00  0.00    -0.488 OA
BRANCH  62  63
ATOM     63  C   LIG d   1       4.215   0.441 -11.562  0.00  0.00     0.079 C 
ATOM     64  H   LIG d   1       3.148   0.398 -11.826  0.00  0.00     0.066 H 
ATOM     65  H   LIG d   1       4.582  -0.575 -11.354  0.00  0.00     0.066 H 
ATOM     66  H   LIG d   1       4.783   0.872 -12.400  0.00  0.00     0.066 H 
ENDBRANCH  62  63
ENDBRANCH   6  62
BRANCH  14  67
ATOM     67  O   LIG d   1       7.864   1.837  -6.949  0.00  0.00    -0.491 OA
BRANCH  67  68
ATOM     68  C   LIG d   1       8.772   2.689  -7.650  0.00  0.00     0.079 C 
ATOM     69  H   LIG d   1       8.218   3.277  -8.398  0.00  0.00     0.066 H 
ATOM     70  H   LIG d   1       9.532   2.077  -8.157  0.00  0.00     0.066 H 
ATOM     71  H   LIG d   1       9.262   3.368  -6.939  0.00  0.00     0.066 H 
ENDBRANCH  67  68
ENDBRANCH  14  67
TORSDOF 16
ENDMDL
MODEL 8
REMARK VINA RESULT:      -5.2     10.810     13.791
REMARK  16 active torsions:
REMARK  status: ('A' for Active; 'I' for Inactive)
REMARK    1  A    between atoms: C_1  and  C_2 
REMARK    2  A    between atoms: C_3  and  C_4 
REMARK    3  A    between atoms: C_3  and  C_5 
REMARK    4  A    between atoms: C_5  and  O_7 
REMARK    5  A    between atoms: O_7  and  C_8 
REMARK    6  A    between atoms: C_12  and  O_38 
REMARK    7  A    between atoms: C_13  and  O_36 
REMARK    8  A    between atoms: C_14  and  O_34 
REMARK    9  A    between atoms: C_21  and  O_22 
REMARK   10  A    between atoms: O_22  and  C_23 
REMARK   11  A    between atoms: C_28  and  C_33 
REMARK   12  A    between atoms: C_30  and  C_31 
REMARK   13  A    between atoms: C_30  and  O_32 
REMARK   14  A    between atoms: O_34  and  C_35 
REMARK   15  A    between atoms: O_36  and  C_37 
REMARK   16  A    between atoms: O_38  and  C_39 
ROOT
ATOM      1  C   LIG d   1       9.948   7.404  -3.426  0.00  0.00     0.158 C 
ATOM      2  H   LIG d   1       8.885   7.258  -3.182  0.00  0.00     0.082 H 
ATOM      3  C   LIG d   1      10.090   8.200  -4.707  0.00  0.00     0.011 A 
ATOM      4  C   LIG d   1       9.332   7.895  -5.812  0.00  0.00    -0.009 A 
ATOM      5  C   LIG d   1       9.443   8.666  -6.963  0.00  0.00     0.166 A 
ATOM      6  C   LIG d   1      10.322   9.744  -6.992  0.00  0.00     0.204 A 
ATOM      7  C   LIG d   1      11.097  10.045  -5.883  0.00  0.00     0.173 A 
ATOM      8  C   LIG d   1      10.996   9.259  -4.727  0.00  0.00     0.038 A 
ATOM      9  C   LIG d   1      11.880   9.525  -3.578  0.00  0.00     0.035 A 
ATOM     10  C   LIG d   1      12.773   8.559  -3.122  0.00  0.00    -0.032 A 
ATOM     11  C   LIG d   1      13.566   8.790  -2.022  0.00  0.00    -0.012 A 
ATOM     12  C   LIG d   1      13.499  10.011  -1.364  0.00  0.00     0.170 A 
ATOM     13  C   LIG d   1      12.632  10.999  -1.820  0.00  0.00     0.208 A 
ATOM     14  C   LIG d   1      11.823  10.761  -2.922  0.00  0.00     0.173 A 
ATOM     15  O   LIG d   1      12.763  12.099  -1.019  0.00  0.00    -0.449 OA
ATOM     16  C   LIG d   1      14.006  11.916  -0.315  0.00  0.00     0.233 C 
ATOM     17  O   LIG d   1      14.168  10.486  -0.273  0.00  0.00    -0.453 OA
ATOM     18  C   LIG d   1      12.859   7.245  -3.873  0.00  0.00    -0.022 C 
ATOM     19  C   LIG d   1      12.111   6.162  -3.100  0.00  0.00    -0.007 C 
ATOM     20  H   LIG d   1      12.115   6.425  -2.031  0.00  0.00     0.033 H 
ATOM     21  C   LIG d   1      10.663   6.062  -3.574  0.00  0.00     0.107 C 
ATOM     22  H   LIG d   1       8.650   7.058  -5.787  0.00  0.00     0.066 H 
ATOM     23  H   LIG d   1      14.241   8.022  -1.672  0.00  0.00     0.066 H 
ATOM     24  H   LIG d   1      14.818  12.410  -0.868  0.00  0.00     0.117 H 
ATOM     25  H   LIG d   1      13.926  12.356   0.691  0.00  0.00     0.117 H 
ATOM     26  H   LIG d   1      12.406   7.362  -4.868  0.00  0.00     0.032 H 
ATOM     27  H   LIG d   1      13.914   6.954  -3.983  0.00  0.00     0.032 H 
ENDROOT
BRANCH   1  28
ATOM     28  O   LIG d   1      10.538   8.146  -2.326  0.00  0.00    -0.450 OA
BRANCH  28  29
ATOM     29  C   LIG d   1       9.857   8.161  -1.163  0.00  0.00     0.335 C 
ATOM     30  O   LIG d   1       8.717   7.743  -1.120  0.00  0.00    -0.245 OA
BRANCH  29  31
ATOM     31  C   LIG d   1      10.495   8.681   0.055  0.00  0.00     0.029 C 
ATOM     32  C   LIG d   1      11.264   7.886   0.795  0.00  0.00    -0.077 C 
ATOM     33  H   LIG d   1      11.742   8.275   1.707  0.00  0.00     0.057 H 
BRANCH  32  34
ATOM     34  C   LIG d   1      11.480   6.451   0.386  0.00  0.00    -0.046 C 
ATOM     35  H   LIG d   1      10.619   6.105  -0.205  0.00  0.00     0.027 H 
ATOM     36  H   LIG d   1      11.584   5.827   1.284  0.00  0.00     0.027 H 
ATOM     37  H   LIG d   1      12.394   6.377  -0.221  0.00  0.00     0.027 H 
ENDBRANCH  32  34
BRANCH  31  38
ATOM     38  C   LIG d   1      10.281  10.115   0.465  0.00  0.00    -0.033 C 
ATOM     39  H   LIG d   1      10.889  10.774  -0.173  0.00  0.00     0.028 H 
ATOM     40  H   LIG d   1      10.579  10.245   1.516  0.00  0.00     0.028 H 
ATOM     41  H   LIG d   1       9.218  10.374   0.350  0.00  0.00     0.028 H 
ENDBRANCH  31  38
ENDBRANCH  29  31
ENDBRANCH  28  29
ENDBRANCH   1  28
BRANCH  21  42
ATOM     42  C   LIG d   1       9.932   5.007  -2.741  0.00  0.00    -0.032 C 
ATOM     43  H   LIG d   1      10.422   4.031  -2.875  0.00  0.00     0.026 H 
ATOM     44  H   LIG d   1       8.885   4.940  -3.072  0.00  0.00     0.026 H 
ATOM     45  H   LIG d   1       9.965   5.292  -1.680  0.00  0.00     0.026 H 
ENDBRANCH  21  42
BRANCH  21  46
ATOM     46  O   LIG d   1      10.645   5.670  -4.948  0.00  0.00    -0.385 OA
ATOM     47  H   LIG d   1      11.396   4.960  -5.328  0.00  0.00     0.210 HD
ENDBRANCH  21  46
BRANCH  19  48
ATOM     48  C   LIG d   1      12.807   4.817  -3.316  0.00  0.00    -0.059 C 
ATOM     49  H   LIG d   1      12.434   4.356  -4.243  0.00  0.00     0.023 H 
ATOM     50  H   LIG d   1      12.594   4.153  -2.466  0.00  0.00     0.023 H 
ATOM     51  H   LIG d   1      13.893   4.974  -3.396  0.00  0.00     0.023 H 
ENDBRANCH  19  48
BRANCH   7  52
ATOM     52  O   LIG d   1      11.954  11.100  -5.916  0.00  0.00    -0.491 OA
BRANCH  52  53
ATOM     53  C   LIG d   1      13.309  10.823  -6.278  0.00  0.00     0.079 C 
ATOM     54  H   LIG d   1      13.384  10.725  -7.371  0.00  0.00     0.066 H 
ATOM     55  H   LIG d   1      13.632   9.886  -5.802  0.00  0.00     0.066 H 
ATOM     56  H   LIG d   1      13.954  11.648  -5.939  0.00  0.00     0.066 H 
ENDBRANCH  52  53
ENDBRANCH   7  52
BRANCH   5  57
ATOM     57  O   LIG d   1       8.690   8.371  -8.056  0.00  0.00    -0.491 OA
BRANCH  57  58
ATOM     58  C   LIG d   1       9.077   7.228  -8.820  0.00  0.00     0.079 C 
ATOM     59  H   LIG d   1       9.716   7.546  -9.658  0.00  0.00     0.066 H 
ATOM     60  H   LIG d   1       8.179   6.729  -9.214  0.00  0.00     0.066 H 
ATOM     61  H   LIG d   1       9.634   6.529  -8.179  0.00  0.00     0.066 H 
ENDBRANCH  57  58
ENDBRANCH   5  57
BRANCH   6  62
ATOM     62  O   LIG d   1      10.420  10.508  -8.115  0.00  0.00    -0.488 OA
BRANCH  62  63
ATOM     63  C   LIG d   1      11.376  10.100  -9.095  0.00  0.00     0.079 C 
ATOM     64  H   LIG d   1      10.948   9.298  -9.715  0.00  0.00     0.066 H 
ATOM     65  H   LIG d   1      12.282   9.730  -8.592  0.00  0.00     0.066 H 
ATOM     66  H   LIG d   1      11.635  10.958  -9.733  0.00  0.00     0.066 H 
ENDBRANCH  62  63
ENDBRANCH   6  62
BRANCH  14  67
ATOM     67  O   LIG d   1      10.975  11.728  -3.365  0.00  0.00    -0.491 OA
BRANCH  67  68
ATOM     68  C   LIG d   1       9.700  11.815  -2.725  0.00  0.00     0.079 C 
ATOM     69  H   LIG d   1       8.988  12.322  -3.394  0.00  0.00     0.066 H 
ATOM     70  H   LIG d   1       9.797  12.389  -1.791  0.00  0.00     0.066 H 
ATOM     71  H   LIG d   1       9.334  10.804  -2.497  0.00  0.00     0.066 H 
ENDBRANCH  67  68
ENDBRANCH  14  67
TORSDOF 16
ENDMDL
MODEL 9
REMARK VINA RESULT:      -5.0      2.422      5.999
REMARK  16 active torsions:
REMARK  status: ('A' for Active; 'I' for Inactive)
REMARK    1  A    between atoms: C_1  and  C_2 
REMARK    2  A    between atoms: C_3  and  C_4 
REMARK    3  A    between atoms: C_3  and  C_5 
REMARK    4  A    between atoms: C_5  and  O_7 
REMARK    5  A    between atoms: O_7  and  C_8 
REMARK    6  A    between atoms: C_12  and  O_38 
REMARK    7  A    between atoms: C_13  and  O_36 
REMARK    8  A    between atoms: C_14  and  O_34 
REMARK    9  A    between atoms: C_21  and  O_22 
REMARK   10  A    between atoms: O_22  and  C_23 
REMARK   11  A    between atoms: C_28  and  C_33 
REMARK   12  A    between atoms: C_30  and  C_31 
REMARK   13  A    between atoms: C_30  and  O_32 
REMARK   14  A    between atoms: O_34  and  C_35 
REMARK   15  A    between atoms: O_36  and  C_37 
REMARK   16  A    between atoms: O_38  and  C_39 
ROOT
ATOM      1  C   LIG d   1       7.654   0.232  -7.955  0.00  0.00     0.158 C 
ATOM      2  H   LIG d   1       7.823   1.273  -8.268  0.00  0.00     0.082 H 
ATOM      3  C   LIG d   1       7.143   0.187  -6.530  0.00  0.00     0.011 A 
ATOM      4  C   LIG d   1       7.734   0.945  -5.546  0.00  0.00    -0.009 A 
ATOM      5  C   LIG d   1       7.221   0.926  -4.255  0.00  0.00     0.166 A 
ATOM      6  C   LIG d   1       6.111   0.140  -3.961  0.00  0.00     0.204 A 
ATOM      7  C   LIG d   1       5.522  -0.635  -4.949  0.00  0.00     0.173 A 
ATOM      8  C   LIG d   1       6.047  -0.627  -6.248  0.00  0.00     0.038 A 
ATOM      9  C   LIG d   1       5.475  -1.514  -7.278  0.00  0.00     0.035 A 
ATOM     10  C   LIG d   1       6.251  -2.494  -7.890  0.00  0.00    -0.032 A 
ATOM     11  C   LIG d   1       5.730  -3.292  -8.882  0.00  0.00    -0.012 A 
ATOM     12  C   LIG d   1       4.405  -3.141  -9.269  0.00  0.00     0.170 A 
ATOM     13  C   LIG d   1       3.606  -2.184  -8.651  0.00  0.00     0.208 A 
ATOM     14  C   LIG d   1       4.135  -1.371  -7.658  0.00  0.00     0.173 A 
ATOM     15  O   LIG d   1       2.353  -2.244  -9.194  0.00  0.00    -0.449 OA
ATOM     16  C   LIG d   1       2.287  -3.514  -9.869  0.00  0.00     0.233 C 
ATOM     17  O   LIG d   1       3.658  -3.795 -10.206  0.00  0.00    -0.453 OA
ATOM     18  C   LIG d   1       7.685  -2.670  -7.431  0.00  0.00    -0.022 C 
ATOM     19  C   LIG d   1       8.630  -2.034  -8.447  0.00  0.00    -0.007 C 
ATOM     20  H   LIG d   1       8.145  -2.041  -9.434  0.00  0.00     0.033 H 
ATOM     21  C   LIG d   1       8.939  -0.588  -8.065  0.00  0.00     0.107 C 
ATOM     22  H   LIG d   1       8.595   1.554  -5.777  0.00  0.00     0.066 H 
ATOM     23  H   LIG d   1       6.352  -4.036  -9.359  0.00  0.00     0.066 H 
ATOM     24  H   LIG d   1       1.863  -4.269  -9.191  0.00  0.00     0.117 H 
ATOM     25  H   LIG d   1       1.649  -3.422 -10.761  0.00  0.00     0.117 H 
ATOM     26  H   LIG d   1       7.818  -2.185  -6.453  0.00  0.00     0.032 H 
ATOM     27  H   LIG d   1       7.912  -3.743  -7.342  0.00  0.00     0.032 H 
ENDROOT
BRANCH   1  28
ATOM     28  O   LIG d   1       6.650  -0.321  -8.847  0.00  0.00    -0.450 OA
BRANCH  28  29
ATOM     29  C   LIG d   1       6.395   0.363  -9.980  0.00  0.00     0.335 C 
ATOM     30  O   LIG d   1       6.286   1.573  -9.948  0.00  0.00    -0.245 OA
BRANCH  29  31
ATOM     31  C   LIG d   1       6.247  -0.354 -11.254  0.00  0.00     0.029 C 
ATOM     32  C   LIG d   1       5.072  -0.369 -11.877  0.00  0.00    -0.077 C 
ATOM     33  H   LIG d   1       4.961  -0.907 -12.831  0.00  0.00     0.057 H 
BRANCH  32  34
ATOM     34  C   LIG d   1       3.890   0.349 -11.276  0.00  0.00    -0.046 C 
ATOM     35  H   LIG d   1       3.676   1.255 -11.860  0.00  0.00     0.027 H 
ATOM     36  H   LIG d   1       4.121   0.626 -10.237  0.00  0.00     0.027 H 
ATOM     37  H   LIG d   1       3.012  -0.314 -11.292  0.00  0.00     0.027 H 
ENDBRANCH  32  34
BRANCH  31  38
ATOM     38  C   LIG d   1       7.428  -1.072 -11.856  0.00  0.00    -0.033 C 
ATOM     39  H   LIG d   1       8.358  -0.568 -11.551  0.00  0.00     0.028 H 
ATOM     40  H   LIG d   1       7.346  -1.057 -12.953  0.00  0.00     0.028 H 
ATOM     41  H   LIG d   1       7.443  -2.113 -11.503  0.00  0.00     0.028 H 
ENDBRANCH  31  38
ENDBRANCH  29  31
ENDBRANCH  28  29
ENDBRANCH   1  28
BRANCH  21  42
ATOM     42  C   LIG d   1       9.843   0.033  -9.131  0.00  0.00    -0.032 C 
ATOM     43  H   LIG d   1       9.734   1.127  -9.111  0.00  0.00     0.026 H 
ATOM     44  H   LIG d   1       9.554  -0.346 -10.123  0.00  0.00     0.026 H 
ATOM     45  H   LIG d   1      10.889  -0.235  -8.926  0.00  0.00     0.026 H 
ENDBRANCH  21  42
BRANCH  21  46
ATOM     46  O   LIG d   1       9.616  -0.568  -6.806  0.00  0.00    -0.385 OA
ATOM     47  H   LIG d   1       9.113  -0.950  -5.905  0.00  0.00     0.210 HD
ENDBRANCH  21  46
BRANCH  19  48
ATOM     48  C   LIG d   1       9.934  -2.832  -8.491  0.00  0.00    -0.059 C 
ATOM     49  H   LIG d   1      10.256  -3.068  -7.466  0.00  0.00     0.023 H 
ATOM     50  H   LIG d   1      10.712  -2.237  -8.992  0.00  0.00     0.023 H 
ATOM     51  H   LIG d   1       9.772  -3.768  -9.048  0.00  0.00     0.023 H 
ENDBRANCH  19  48
BRANCH   7  52
ATOM     52  O   LIG d   1       4.437  -1.401  -4.658  0.00  0.00    -0.491 OA
BRANCH  52  53
ATOM     53  C   LIG d   1       4.687  -2.699  -4.116  0.00  0.00     0.079 C 
ATOM     54  H   LIG d   1       5.668  -2.707  -3.619  0.00  0.00     0.066 H 
ATOM     55  H   LIG d   1       4.681  -3.442  -4.927  0.00  0.00     0.066 H 
ATOM     56  H   LIG d   1       3.903  -2.949  -3.385  0.00  0.00     0.066 H 
ENDBRANCH  52  53
ENDBRANCH   7  52
BRANCH   5  57
ATOM     57  O   LIG d   1       7.799   1.678  -3.281  0.00  0.00    -0.491 OA
BRANCH  57  58
ATOM     58  C   LIG d   1       8.979   2.402  -3.636  0.00  0.00     0.079 C 
ATOM     59  H   LIG d   1       9.309   3.008  -2.779  0.00  0.00     0.066 H 
ATOM     60  H   LIG d   1       8.763   3.061  -4.489  0.00  0.00     0.066 H 
ATOM     61  H   LIG d   1       9.774   1.694  -3.911  0.00  0.00     0.066 H 
ENDBRANCH  57  58
ENDBRANCH   5  57
BRANCH   6  62
ATOM     62  O   LIG d   1       5.600   0.133  -2.700  0.00  0.00    -0.488 OA
BRANCH  62  63
ATOM     63  C   LIG d   1       4.605   1.111  -2.397  0.00  0.00     0.079 C 
ATOM     64  H   LIG d   1       4.967   2.107  -2.694  0.00  0.00     0.066 H 
ATOM     65  H   LIG d   1       4.400   1.104  -1.316  0.00  0.00     0.066 H 
ATOM     66  H   LIG d   1       3.682   0.878  -2.948  0.00  0.00     0.066 H 
ENDBRANCH  62  63
ENDBRANCH   6  62
BRANCH  14  67
ATOM     67  O   LIG d   1       3.352  -0.435  -7.056  0.00  0.00    -0.491 OA
BRANCH  67  68
ATOM     68  C   LIG d   1       3.137   0.785  -7.768  0.00  0.00     0.079 C 
ATOM     69  H   LIG d   1       3.497   0.674  -8.802  0.00  0.00     0.066 H 
ATOM     70  H   LIG d   1       3.686   1.600  -7.275  0.00  0.00     0.066 H 
ATOM     71  H   LIG d   1       2.063   1.020  -7.778  0.00  0.00     0.066 H 
ENDBRANCH  67  68
ENDBRANCH  14  67
TORSDOF 16
ENDMDL
MODEL 10
REMARK VINA RESULT:      -4.9      2.307      6.043
REMARK  16 active torsions:
REMARK  status: ('A' for Active; 'I' for Inactive)
REMARK    1  A    between atoms: C_1  and  C_2 
REMARK    2  A    between atoms: C_3  and  C_4 
REMARK    3  A    between atoms: C_3  and  C_5 
REMARK    4  A    between atoms: C_5  and  O_7 
REMARK    5  A    between atoms: O_7  and  C_8 
REMARK    6  A    between atoms: C_12  and  O_38 
REMARK    7  A    between atoms: C_13  and  O_36 
REMARK    8  A    between atoms: C_14  and  O_34 
REMARK    9  A    between atoms: C_21  and  O_22 
REMARK   10  A    between atoms: O_22  and  C_23 
REMARK   11  A    between atoms: C_28  and  C_33 
REMARK   12  A    between atoms: C_30  and  C_31 
REMARK   13  A    between atoms: C_30  and  O_32 
REMARK   14  A    between atoms: O_34  and  C_35 
REMARK   15  A    between atoms: O_36  and  C_37 
REMARK   16  A    between atoms: O_38  and  C_39 
ROOT
ATOM      1  C   LIG d   1       5.102   0.371  -7.877  0.00  0.00     0.158 C 
ATOM      2  H   LIG d   1       5.355   1.248  -7.263  0.00  0.00     0.082 H 
ATOM      3  C   LIG d   1       6.291  -0.042  -8.720  0.00  0.00     0.011 A 
ATOM      4  C   LIG d   1       7.022   0.895  -9.412  0.00  0.00    -0.009 A 
ATOM      5  C   LIG d   1       8.138   0.502 -10.141  0.00  0.00     0.166 A 
ATOM      6  C   LIG d   1       8.511  -0.838 -10.169  0.00  0.00     0.204 A 
ATOM      7  C   LIG d   1       7.767  -1.786  -9.484  0.00  0.00     0.173 A 
ATOM      8  C   LIG d   1       6.634  -1.393  -8.759  0.00  0.00     0.038 A 
ATOM      9  C   LIG d   1       5.794  -2.409  -8.099  0.00  0.00     0.035 A 
ATOM     10  C   LIG d   1       4.457  -2.572  -8.452  0.00  0.00    -0.032 A 
ATOM     11  C   LIG d   1       3.661  -3.489  -7.805  0.00  0.00    -0.012 A 
ATOM     12  C   LIG d   1       4.197  -4.286  -6.801  0.00  0.00     0.170 A 
ATOM     13  C   LIG d   1       5.537  -4.155  -6.453  0.00  0.00     0.208 A 
ATOM     14  C   LIG d   1       6.337  -3.221  -7.096  0.00  0.00     0.173 A 
ATOM     15  O   LIG d   1       5.819  -5.051  -5.459  0.00  0.00    -0.449 OA
ATOM     16  C   LIG d   1       4.739  -6.004  -5.483  0.00  0.00     0.233 C 
ATOM     17  O   LIG d   1       3.634  -5.255  -6.022  0.00  0.00    -0.453 OA
ATOM     18  C   LIG d   1       3.898  -1.720  -9.574  0.00  0.00    -0.022 C 
ATOM     19  C   LIG d   1       3.058  -0.588  -8.989  0.00  0.00    -0.007 C 
ATOM     20  H   LIG d   1       2.664  -0.908  -8.013  0.00  0.00     0.033 H 
ATOM     21  C   LIG d   1       3.908   0.665  -8.785  0.00  0.00     0.107 C 
ATOM     22  H   LIG d   1       6.731   1.934  -9.388  0.00  0.00     0.066 H 
ATOM     23  H   LIG d   1       2.621  -3.590  -8.080  0.00  0.00     0.066 H 
ATOM     24  H   LIG d   1       5.015  -6.856  -6.121  0.00  0.00     0.117 H 
ATOM     25  H   LIG d   1       4.542  -6.359  -4.460  0.00  0.00     0.117 H 
ATOM     26  H   LIG d   1       4.727  -1.296 -10.159  0.00  0.00     0.032 H 
ATOM     27  H   LIG d   1       3.269  -2.342 -10.227  0.00  0.00     0.032 H 
ENDROOT
BRANCH   1  28
ATOM     28  O   LIG d   1       4.760  -0.704  -6.963  0.00  0.00    -0.450 OA
BRANCH  28  29
ATOM     29  C   LIG d   1       4.766  -0.412  -5.646  0.00  0.00     0.335 C 
ATOM     30  O   LIG d   1       5.781  -0.004  -5.119  0.00  0.00    -0.245 OA
BRANCH  29  31
ATOM     31  C   LIG d   1       3.543  -0.588  -4.850  0.00  0.00     0.029 C 
ATOM     32  C   LIG d   1       3.503  -1.503  -3.885  0.00  0.00    -0.077 C 
ATOM     33  H   LIG d   1       2.588  -1.635  -3.289  0.00  0.00     0.057 H 
BRANCH  32  34
ATOM     34  C   LIG d   1       4.711  -2.362  -3.610  0.00  0.00    -0.046 C 
ATOM     35  H   LIG d   1       4.998  -2.896  -4.527  0.00  0.00     0.027 H 
ATOM     36  H   LIG d   1       4.471  -3.088  -2.820  0.00  0.00     0.027 H 
ATOM     37  H   LIG d   1       5.546  -1.725  -3.281  0.00  0.00     0.027 H 
ENDBRANCH  32  34
BRANCH  31  38
ATOM     38  C   LIG d   1       2.335   0.270  -5.124  0.00  0.00    -0.033 C 
ATOM     39  H   LIG d   1       2.640   1.327  -5.180  0.00  0.00     0.028 H 
ATOM     40  H   LIG d   1       1.602   0.142  -4.314  0.00  0.00     0.028 H 
ATOM     41  H   LIG d   1       1.881  -0.030  -6.080  0.00  0.00     0.028 H 
ENDBRANCH  31  38
ENDBRANCH  29  31
ENDBRANCH  28  29
ENDBRANCH   1  28
BRANCH  21  42
ATOM     42  C   LIG d   1       3.049   1.759  -8.148  0.00  0.00    -0.032 C 
ATOM     43  H   LIG d   1       2.026   1.382  -8.003  0.00  0.00     0.026 H 
ATOM     44  H   LIG d   1       3.026   2.638  -8.809  0.00  0.00     0.026 H 
ATOM     45  H   LIG d   1       3.478   2.042  -7.176  0.00  0.00     0.026 H 
ENDBRANCH  21  42
BRANCH  21  46
ATOM     46  O   LIG d   1       4.384   1.121 -10.053  0.00  0.00    -0.385 OA
ATOM     47  H   LIG d   1       4.636   0.394 -10.840  0.00  0.00     0.210 HD
ENDBRANCH  21  46
BRANCH  19  48
ATOM     48  C   LIG d   1       1.909  -0.266  -9.945  0.00  0.00    -0.059 C 
ATOM     49  H   LIG d   1       1.065   0.153  -9.378  0.00  0.00     0.023 H 
ATOM     50  H   LIG d   1       1.587  -1.186 -10.455  0.00  0.00     0.023 H 
ATOM     51  H   LIG d   1       2.248   0.468 -10.692  0.00  0.00     0.023 H 
ENDBRANCH  19  48
BRANCH   7  52
ATOM     52  O   LIG d   1       8.136  -3.094  -9.513  0.00  0.00    -0.491 OA
BRANCH  52  53
ATOM     53  C   LIG d   1       7.554  -3.908 -10.533  0.00  0.00     0.079 C 
ATOM     54  H   LIG d   1       8.294  -4.645 -10.881  0.00  0.00     0.066 H 
ATOM     55  H   LIG d   1       7.243  -3.275 -11.376  0.00  0.00     0.066 H 
ATOM     56  H   LIG d   1       6.677  -4.434 -10.126  0.00  0.00     0.066 H 
ENDBRANCH  52  53
ENDBRANCH   7  52
BRANCH   5  57
ATOM     57  O   LIG d   1       8.867   1.427 -10.822  0.00  0.00    -0.491 OA
BRANCH  57  58
ATOM     58  C   LIG d   1       9.686   2.304 -10.047  0.00  0.00     0.079 C 
ATOM     59  H   LIG d   1      10.718   2.274 -10.428  0.00  0.00     0.066 H 
ATOM     60  H   LIG d   1       9.676   1.982  -8.995  0.00  0.00     0.066 H 
ATOM     61  H   LIG d   1       9.298   3.330 -10.121  0.00  0.00     0.066 H 
ENDBRANCH  57  58
ENDBRANCH   5  57
BRANCH   6  62
ATOM     62  O   LIG d   1       9.612  -1.220 -10.873  0.00  0.00    -0.488 OA
BRANCH  62  63
ATOM     63  C   LIG d   1       9.451  -1.402 -12.280  0.00  0.00     0.079 C 
ATOM     64  H   LIG d   1      10.287  -2.002 -12.671  0.00  0.00     0.066 H 
ATOM     65  H   LIG d   1       9.439  -0.422 -12.779  0.00  0.00     0.066 H 
ATOM     66  H   LIG d   1       8.502  -1.925 -12.476  0.00  0.00     0.066 H 
ENDBRANCH  62  63
ENDBRANCH   6  62
BRANCH  14  67
ATOM     67  O   LIG d   1       7.647  -3.095  -6.752  0.00  0.00    -0.491 OA
BRANCH  67  68
ATOM     68  C   LIG d   1       7.930  -2.501  -5.484  0.00  0.00     0.079 C 
ATOM     69  H   LIG d   1       8.265  -1.463  -5.632  0.00  0.00     0.066 H 
ATOM     70  H   LIG d   1       8.723  -3.072  -4.979  0.00  0.00     0.066 H 
ATOM     71  H   LIG d   1       7.022  -2.508  -4.864  0.00  0.00     0.066 H 
ENDBRANCH  67  68
ENDBRANCH  14  67
TORSDOF 16
ENDMDL
