MODEL 1
REMARK VINA RESULT:      -6.8      0.000      0.000
REMARK  5 active torsions:
REMARK  status: ('A' for Active; 'I' for Inactive)
REMARK    1  A    between atoms: C_1  and  C_2 
REMARK    2  A    between atoms: C_3  and  C_24 
REMARK    3  A    between atoms: N_14  and  C_17 
REMARK    4  A    between atoms: C_17  and  C_18 
REMARK    5  A    between atoms: C_18  and  C_19 
ROOT
ATOM      1  C   LIG d   1       4.359  -1.982  -6.112  0.00  0.00     0.114 A 
ATOM      2  C   LIG d   1       3.974  -0.717  -5.802  0.00  0.00     0.067 A 
ATOM      3  C   LIG d   1       3.298   0.089  -6.834  0.00  0.00     0.200 A 
ATOM      4  O   LIG d   1       2.931   1.230  -6.613  0.00  0.00    -0.286 OA
ATOM      5  C   LIG d   1       3.088  -0.552  -8.144  0.00  0.00     0.065 A 
ATOM      6  C   LIG d   1       2.458   0.126  -9.189  0.00  0.00    -0.044 A 
ATOM      7  C   LIG d   1       2.282  -0.499 -10.390  0.00  0.00    -0.019 A 
ATOM      8  C   LIG d   1       2.725  -1.808 -10.580  0.00  0.00     0.130 A 
ATOM      9  C   LIG d   1       3.351  -2.491  -9.553  0.00  0.00     0.051 A 
ATOM     10  C   LIG d   1       3.540  -1.870  -8.323  0.00  0.00     0.147 A 
ATOM     11  O   LIG d   1       4.147  -2.524  -7.313  0.00  0.00    -0.459 OA
ATOM     12  C   LIG d   1       3.838  -3.905  -9.747  0.00  0.00     0.034 C 
ATOM     13  N   LIG d   1       3.190  -4.491 -10.929  0.00  0.00    -0.266 N 
ATOM     14  C   LIG d   1       3.295  -3.571 -12.073  0.00  0.00     0.144 C 
ATOM     15  O   LIG d   1       2.528  -2.400 -11.787  0.00  0.00    -0.476 OA
ATOM     16  H   LIG d   1       2.114   1.139  -9.049  0.00  0.00     0.063 H 
ATOM     17  H   LIG d   1       1.794   0.025 -11.199  0.00  0.00     0.065 H 
ATOM     18  H   LIG d   1       4.928  -3.900  -9.893  0.00  0.00     0.048 H 
ATOM     19  H   LIG d   1       3.589  -4.503  -8.859  0.00  0.00     0.048 H 
ATOM     20  H   LIG d   1       4.349  -3.301 -12.230  0.00  0.00     0.087 H 
ATOM     21  H   LIG d   1       2.905  -4.063 -12.977  0.00  0.00     0.087 H 
ENDROOT
BRANCH  13  22
ATOM     22  C   LIG d   1       3.770  -5.802 -11.251  0.00  0.00     0.007 C 
ATOM     23  H   LIG d   1       4.764  -5.662 -11.700  0.00  0.00     0.043 H 
ATOM     24  H   LIG d   1       3.864  -6.398 -10.331  0.00  0.00     0.043 H 
BRANCH  22  25
ATOM     25  C   LIG d   1       2.861  -6.533 -12.242  0.00  0.00    -0.009 C 
ATOM     26  H   LIG d   1       2.711  -5.905 -13.133  0.00  0.00     0.033 H 
ATOM     27  H   LIG d   1       3.330  -7.483 -12.537  0.00  0.00     0.033 H 
BRANCH  25  28
ATOM     28  C   LIG d   1       1.530  -6.809 -11.591  0.00  0.00    -0.009 A 
ATOM     29  S   LIG d   1      -0.059  -6.063 -11.918  0.00  0.00    -0.102 SA
ATOM     30  C   LIG d   1      -1.017  -6.975 -10.719  0.00  0.00    -0.024 A 
ATOM     31  C   LIG d   1      -0.075  -7.771 -10.155  0.00  0.00    -0.054 A 
ATOM     32  H   LIG d   1      -2.072  -6.908 -10.500  0.00  0.00     0.069 H 
ATOM     33  C   LIG d   1       1.230  -7.686 -10.602  0.00  0.00    -0.051 A 
ATOM     34  H   LIG d   1      -0.342  -8.460  -9.368  0.00  0.00     0.062 H 
ATOM     35  H   LIG d   1       1.999  -8.309 -10.169  0.00  0.00     0.063 H 
ENDBRANCH  25  28
ENDBRANCH  22  25
ENDBRANCH  13  22
BRANCH   1  36
ATOM     36  C   LIG d   1       5.056  -2.805  -5.059  0.00  0.00    -0.006 C 
ATOM     37  H   LIG d   1       6.115  -2.926  -5.330  0.00  0.00     0.031 H 
ATOM     38  H   LIG d   1       4.579  -3.793  -4.990  0.00  0.00     0.031 H 
ATOM     39  H   LIG d   1       4.983  -2.295  -4.086  0.00  0.00     0.031 H 
ENDBRANCH   1  36
BRANCH   2  40
ATOM     40  C   LIG d   1       4.230  -0.158  -4.453  0.00  0.00    -0.011 A 
ATOM     41  C   LIG d   1       3.197  -0.072  -3.522  0.00  0.00    -0.054 A 
ATOM     42  C   LIG d   1       3.442   0.450  -2.268  0.00  0.00    -0.061 A 
ATOM     43  H   LIG d   1       2.206  -0.413  -3.783  0.00  0.00     0.062 H 
ATOM     44  C   LIG d   1       4.710   0.886  -1.934  0.00  0.00    -0.062 A 
ATOM     45  H   LIG d   1       2.641   0.515  -1.546  0.00  0.00     0.062 H 
ATOM     46  C   LIG d   1       5.740   0.804  -2.853  0.00  0.00    -0.061 A 
ATOM     47  H   LIG d   1       4.897   1.295  -0.952  0.00  0.00     0.062 H 
ATOM     48  C   LIG d   1       5.509   0.279  -4.108  0.00  0.00    -0.054 A 
ATOM     49  H   LIG d   1       6.730   1.147  -2.586  0.00  0.00     0.062 H 
ATOM     50  H   LIG d   1       6.315   0.211  -4.824  0.00  0.00     0.062 H 
ENDBRANCH   2  40
TORSDOF 5
ENDMDL
MODEL 2
REMARK VINA RESULT:      -6.8      8.173     11.709
REMARK  5 active torsions:
REMARK  status: ('A' for Active; 'I' for Inactive)
REMARK    1  A    between atoms: C_1  and  C_2 
REMARK    2  A    between atoms: C_3  and  C_24 
REMARK    3  A    between atoms: N_14  and  C_17 
REMARK    4  A    between atoms: C_17  and  C_18 
REMARK    5  A    between atoms: C_18  and  C_19 
ROOT
ATOM      1  C   LIG d   1      10.594   6.496  -1.048  0.00  0.00     0.114 A 
ATOM      2  C   LIG d   1      10.905   7.756  -1.449  0.00  0.00     0.067 A 
ATOM      3  C   LIG d   1      10.814   8.084  -2.883  0.00  0.00     0.200 A 
ATOM      4  O   LIG d   1      11.080   9.197  -3.301  0.00  0.00    -0.286 OA
ATOM      5  C   LIG d   1      10.385   7.001  -3.785  0.00  0.00     0.065 A 
ATOM      6  C   LIG d   1      10.267   7.208  -5.161  0.00  0.00    -0.044 A 
ATOM      7  C   LIG d   1       9.868   6.182  -5.967  0.00  0.00    -0.019 A 
ATOM      8  C   LIG d   1       9.577   4.928  -5.426  0.00  0.00     0.130 A 
ATOM      9  C   LIG d   1       9.690   4.709  -4.066  0.00  0.00     0.051 A 
ATOM     10  C   LIG d   1      10.095   5.743  -3.229  0.00  0.00     0.147 A 
ATOM     11  O   LIG d   1      10.209   5.544  -1.902  0.00  0.00    -0.459 OA
ATOM     12  C   LIG d   1       9.381   3.358  -3.470  0.00  0.00     0.034 C 
ATOM     13  N   LIG d   1       8.599   2.565  -4.429  0.00  0.00    -0.266 N 
ATOM     14  C   LIG d   1       9.240   2.595  -5.754  0.00  0.00     0.144 C 
ATOM     15  O   LIG d   1       9.178   3.930  -6.259  0.00  0.00    -0.476 OA
ATOM     16  H   LIG d   1      10.492   8.175  -5.584  0.00  0.00     0.063 H 
ATOM     17  H   LIG d   1       9.777   6.341  -7.031  0.00  0.00     0.065 H 
ATOM     18  H   LIG d   1      10.321   2.835  -3.244  0.00  0.00     0.048 H 
ATOM     19  H   LIG d   1       8.802   3.489  -2.546  0.00  0.00     0.048 H 
ATOM     20  H   LIG d   1      10.288   2.277  -5.661  0.00  0.00     0.087 H 
ATOM     21  H   LIG d   1       8.709   1.912  -6.434  0.00  0.00     0.087 H 
ENDROOT
BRANCH  13  22
ATOM     22  C   LIG d   1       8.432   1.184  -3.956  0.00  0.00     0.007 C 
ATOM     23  H   LIG d   1       9.323   0.596  -4.220  0.00  0.00     0.043 H 
ATOM     24  H   LIG d   1       8.302   1.183  -2.864  0.00  0.00     0.043 H 
BRANCH  22  25
ATOM     25  C   LIG d   1       7.198   0.564  -4.617  0.00  0.00    -0.009 C 
ATOM     26  H   LIG d   1       6.798   1.259  -5.370  0.00  0.00     0.033 H 
ATOM     27  H   LIG d   1       7.479  -0.382  -5.103  0.00  0.00     0.033 H 
BRANCH  25  28
ATOM     28  C   LIG d   1       6.148   0.298  -3.569  0.00  0.00    -0.009 A 
ATOM     29  S   LIG d   1       5.370  -1.245  -3.122  0.00  0.00    -0.102 SA
ATOM     30  C   LIG d   1       4.299  -0.624  -1.835  0.00  0.00    -0.024 A 
ATOM     31  C   LIG d   1       4.598   0.698  -1.837  0.00  0.00    -0.054 A 
ATOM     32  H   LIG d   1       3.596  -1.162  -1.219  0.00  0.00     0.069 H 
ATOM     33  C   LIG d   1       5.545   1.171  -2.725  0.00  0.00    -0.051 A 
ATOM     34  H   LIG d   1       4.102   1.372  -1.154  0.00  0.00     0.062 H 
ATOM     35  H   LIG d   1       5.801   2.220  -2.747  0.00  0.00     0.063 H 
ENDBRANCH  25  28
ENDBRANCH  22  25
ENDBRANCH  13  22
BRANCH   1  36
ATOM     36  C   LIG d   1      10.693   6.157   0.417  0.00  0.00    -0.006 C 
ATOM     37  H   LIG d   1      11.649   6.529   0.815  0.00  0.00     0.031 H 
ATOM     38  H   LIG d   1      10.640   5.067   0.546  0.00  0.00     0.031 H 
ATOM     39  H   LIG d   1       9.862   6.632   0.960  0.00  0.00     0.031 H 
ENDBRANCH   1  36
BRANCH   2  40
ATOM     40  C   LIG d   1      11.329   8.779  -0.464  0.00  0.00    -0.011 A 
ATOM     41  C   LIG d   1      12.655   8.837  -0.040  0.00  0.00    -0.054 A 
ATOM     42  C   LIG d   1      13.043   9.792   0.877  0.00  0.00    -0.061 A 
ATOM     43  H   LIG d   1      13.377   8.134  -0.428  0.00  0.00     0.062 H 
ATOM     44  C   LIG d   1      12.119  10.693   1.375  0.00  0.00    -0.062 A 
ATOM     45  H   LIG d   1      14.071   9.837   1.206  0.00  0.00     0.062 H 
ATOM     46  C   LIG d   1      10.802  10.641   0.957  0.00  0.00    -0.061 A 
ATOM     47  H   LIG d   1      12.427  11.438   2.093  0.00  0.00     0.062 H 
ATOM     48  C   LIG d   1      10.403   9.694   0.036  0.00  0.00    -0.054 A 
ATOM     49  H   LIG d   1      10.084  11.347   1.350  0.00  0.00     0.062 H 
ATOM     50  H   LIG d   1       9.374   9.657  -0.292  0.00  0.00     0.062 H 
ENDBRANCH   2  40
TORSDOF 5
ENDMDL
MODEL 3
REMARK VINA RESULT:      -6.6      1.796      2.098
REMARK  5 active torsions:
REMARK  status: ('A' for Active; 'I' for Inactive)
REMARK    1  A    between atoms: C_1  and  C_2 
REMARK    2  A    between atoms: C_3  and  C_24 
REMARK    3  A    between atoms: N_14  and  C_17 
REMARK    4  A    between atoms: C_17  and  C_18 
REMARK    5  A    between atoms: C_18  and  C_19 
ROOT
ATOM      1  C   LIG d   1       4.389  -2.001  -6.050  0.00  0.00     0.114 A 
ATOM      2  C   LIG d   1       3.994  -0.733  -5.767  0.00  0.00     0.067 A 
ATOM      3  C   LIG d   1       3.320   0.050  -6.818  0.00  0.00     0.200 A 
ATOM      4  O   LIG d   1       2.943   1.192  -6.621  0.00  0.00    -0.286 OA
ATOM      5  C   LIG d   1       3.125  -0.616  -8.118  0.00  0.00     0.065 A 
ATOM      6  C   LIG d   1       2.499   0.038  -9.180  0.00  0.00    -0.044 A 
ATOM      7  C   LIG d   1       2.335  -0.610 -10.370  0.00  0.00    -0.019 A 
ATOM      8  C   LIG d   1       2.789  -1.919 -10.533  0.00  0.00     0.130 A 
ATOM      9  C   LIG d   1       3.412  -2.579  -9.490  0.00  0.00     0.051 A 
ATOM     10  C   LIG d   1       3.587  -1.935  -8.270  0.00  0.00     0.147 A 
ATOM     11  O   LIG d   1       4.191  -2.566  -7.244  0.00  0.00    -0.459 OA
ATOM     12  C   LIG d   1       3.910  -3.993  -9.654  0.00  0.00     0.034 C 
ATOM     13  N   LIG d   1       3.275  -4.605 -10.830  0.00  0.00    -0.266 N 
ATOM     14  C   LIG d   1       3.383  -3.705 -11.990  0.00  0.00     0.144 C 
ATOM     15  O   LIG d   1       2.606  -2.535 -11.731  0.00  0.00    -0.476 OA
ATOM     16  H   LIG d   1       2.146   1.051  -9.061  0.00  0.00     0.063 H 
ATOM     17  H   LIG d   1       1.851  -0.104 -11.192  0.00  0.00     0.065 H 
ATOM     18  H   LIG d   1       5.001  -3.983  -9.791  0.00  0.00     0.048 H 
ATOM     19  H   LIG d   1       3.658  -4.576  -8.757  0.00  0.00     0.048 H 
ATOM     20  H   LIG d   1       4.436  -3.431 -12.143  0.00  0.00     0.087 H 
ATOM     21  H   LIG d   1       3.003  -4.216 -12.887  0.00  0.00     0.087 H 
ENDROOT
BRANCH  13  22
ATOM     22  C   LIG d   1       3.866  -5.918 -11.123  0.00  0.00     0.007 C 
ATOM     23  H   LIG d   1       4.090  -5.986 -12.198  0.00  0.00     0.043 H 
ATOM     24  H   LIG d   1       4.795  -6.039 -10.547  0.00  0.00     0.043 H 
BRANCH  22  25
ATOM     25  C   LIG d   1       2.878  -7.020 -10.737  0.00  0.00    -0.009 C 
ATOM     26  H   LIG d   1       1.958  -6.565 -10.341  0.00  0.00     0.033 H 
ATOM     27  H   LIG d   1       2.636  -7.622 -11.626  0.00  0.00     0.033 H 
BRANCH  25  28
ATOM     28  C   LIG d   1       3.497  -7.903  -9.685  0.00  0.00    -0.009 A 
ATOM     29  S   LIG d   1       4.238  -7.446  -8.126  0.00  0.00    -0.102 SA
ATOM     30  C   LIG d   1       4.682  -9.082  -7.568  0.00  0.00    -0.024 A 
ATOM     31  C   LIG d   1       4.248  -9.855  -8.594  0.00  0.00    -0.054 A 
ATOM     32  H   LIG d   1       5.171  -9.378  -6.653  0.00  0.00     0.069 H 
ATOM     33  C   LIG d   1       3.641  -9.251  -9.679  0.00  0.00    -0.051 A 
ATOM     34  H   LIG d   1       4.376 -10.927  -8.564  0.00  0.00     0.062 H 
ATOM     35  H   LIG d   1       3.286  -9.844 -10.509  0.00  0.00     0.063 H 
ENDBRANCH  25  28
ENDBRANCH  22  25
ENDBRANCH  13  22
BRANCH   1  36
ATOM     36  C   LIG d   1       5.084  -2.799  -4.977  0.00  0.00    -0.006 C 
ATOM     37  H   LIG d   1       5.936  -3.340  -5.416  0.00  0.00     0.031 H 
ATOM     38  H   LIG d   1       4.377  -3.520  -4.541  0.00  0.00     0.031 H 
ATOM     39  H   LIG d   1       5.447  -2.120  -4.191  0.00  0.00     0.031 H 
ENDBRANCH   1  36
BRANCH   2  40
ATOM     40  C   LIG d   1       4.236  -0.148  -4.426  0.00  0.00    -0.011 A 
ATOM     41  C   LIG d   1       3.192  -0.042  -3.509  0.00  0.00    -0.054 A 
ATOM     42  C   LIG d   1       3.424   0.504  -2.263  0.00  0.00    -0.061 A 
ATOM     43  H   LIG d   1       2.203  -0.387  -3.773  0.00  0.00     0.062 H 
ATOM     44  C   LIG d   1       4.689   0.946  -1.923  0.00  0.00    -0.062 A 
ATOM     45  H   LIG d   1       2.615   0.585  -1.551  0.00  0.00     0.062 H 
ATOM     46  C   LIG d   1       5.729   0.844  -2.829  0.00  0.00    -0.061 A 
ATOM     47  H   LIG d   1       4.866   1.373  -0.947  0.00  0.00     0.062 H 
ATOM     48  C   LIG d   1       5.511   0.294  -4.076  0.00  0.00    -0.054 A 
ATOM     49  H   LIG d   1       6.716   1.191  -2.558  0.00  0.00     0.062 H 
ATOM     50  H   LIG d   1       6.325   0.211  -4.781  0.00  0.00     0.062 H 
ENDBRANCH   2  40
TORSDOF 5
ENDMDL
MODEL 4
REMARK VINA RESULT:      -6.5      5.333      6.599
REMARK  5 active torsions:
REMARK  status: ('A' for Active; 'I' for Inactive)
REMARK    1  A    between atoms: C_1  and  C_2 
REMARK    2  A    between atoms: C_3  and  C_24 
REMARK    3  A    between atoms: N_14  and  C_17 
REMARK    4  A    between atoms: C_17  and  C_18 
REMARK    5  A    between atoms: C_18  and  C_19 
ROOT
ATOM      1  C   LIG d   1       8.628  -0.023  -4.998  0.00  0.00     0.114 A 
ATOM      2  C   LIG d   1       8.110   1.015  -4.291  0.00  0.00     0.067 A 
ATOM      3  C   LIG d   1       6.788   0.851  -3.660  0.00  0.00     0.200 A 
ATOM      4  O   LIG d   1       6.274   1.748  -3.015  0.00  0.00    -0.286 OA
ATOM      5  C   LIG d   1       6.121  -0.449  -3.848  0.00  0.00     0.065 A 
ATOM      6  C   LIG d   1       4.866  -0.706  -3.292  0.00  0.00    -0.044 A 
ATOM      7  C   LIG d   1       4.277  -1.921  -3.486  0.00  0.00    -0.019 A 
ATOM      8  C   LIG d   1       4.919  -2.908  -4.236  0.00  0.00     0.130 A 
ATOM      9  C   LIG d   1       6.161  -2.667  -4.793  0.00  0.00     0.051 A 
ATOM     10  C   LIG d   1       6.776  -1.434  -4.606  0.00  0.00     0.147 A 
ATOM     11  O   LIG d   1       7.987  -1.186  -5.142  0.00  0.00    -0.459 OA
ATOM     12  C   LIG d   1       6.863  -3.723  -5.609  0.00  0.00     0.034 C 
ATOM     13  N   LIG d   1       6.256  -5.036  -5.340  0.00  0.00    -0.266 N 
ATOM     14  C   LIG d   1       4.791  -4.950  -5.453  0.00  0.00     0.144 C 
ATOM     15  O   LIG d   1       4.304  -4.109  -4.406  0.00  0.00    -0.476 OA
ATOM     16  H   LIG d   1       4.365   0.054  -2.711  0.00  0.00     0.063 H 
ATOM     17  H   LIG d   1       3.307  -2.121  -3.056  0.00  0.00     0.065 H 
ATOM     18  H   LIG d   1       6.763  -3.487  -6.678  0.00  0.00     0.048 H 
ATOM     19  H   LIG d   1       7.927  -3.750  -5.336  0.00  0.00     0.048 H 
ATOM     20  H   LIG d   1       4.523  -4.526  -6.431  0.00  0.00     0.087 H 
ATOM     21  H   LIG d   1       4.356  -5.956  -5.358  0.00  0.00     0.087 H 
ENDROOT
BRANCH  13  22
ATOM     22  C   LIG d   1       6.796  -6.059  -6.246  0.00  0.00     0.007 C 
ATOM     23  H   LIG d   1       5.968  -6.547  -6.782  0.00  0.00     0.043 H 
ATOM     24  H   LIG d   1       7.474  -5.586  -6.972  0.00  0.00     0.043 H 
BRANCH  22  25
ATOM     25  C   LIG d   1       7.565  -7.105  -5.435  0.00  0.00    -0.009 C 
ATOM     26  H   LIG d   1       8.350  -7.551  -6.063  0.00  0.00     0.033 H 
ATOM     27  H   LIG d   1       8.025  -6.622  -4.560  0.00  0.00     0.033 H 
BRANCH  25  28
ATOM     28  C   LIG d   1       6.615  -8.181  -4.975  0.00  0.00    -0.009 A 
ATOM     29  S   LIG d   1       5.014  -8.623  -5.629  0.00  0.00    -0.102 SA
ATOM     30  C   LIG d   1       4.641  -9.955  -4.501  0.00  0.00    -0.024 A 
ATOM     31  C   LIG d   1       5.741  -9.969  -3.710  0.00  0.00    -0.054 A 
ATOM     32  H   LIG d   1       3.765 -10.584  -4.459  0.00  0.00     0.069 H 
ATOM     33  C   LIG d   1       6.753  -9.060  -3.953  0.00  0.00    -0.051 A 
ATOM     34  H   LIG d   1       5.825 -10.680  -2.902  0.00  0.00     0.062 H 
ATOM     35  H   LIG d   1       7.641  -9.050  -3.336  0.00  0.00     0.063 H 
ENDBRANCH  25  28
ENDBRANCH  22  25
ENDBRANCH  13  22
BRANCH   1  36
ATOM     36  C   LIG d   1       9.977   0.146  -5.649  0.00  0.00    -0.006 C 
ATOM     37  H   LIG d   1      10.334   1.174  -5.489  0.00  0.00     0.031 H 
ATOM     38  H   LIG d   1       9.890  -0.049  -6.728  0.00  0.00     0.031 H 
ATOM     39  H   LIG d   1      10.690  -0.564  -5.204  0.00  0.00     0.031 H 
ENDBRANCH   1  36
BRANCH   2  40
ATOM     40  C   LIG d   1       8.858   2.288  -4.159  0.00  0.00    -0.011 A 
ATOM     41  C   LIG d   1       8.662   3.315  -5.081  0.00  0.00    -0.054 A 
ATOM     42  C   LIG d   1       9.362   4.497  -4.953  0.00  0.00    -0.061 A 
ATOM     43  H   LIG d   1       7.964   3.184  -5.894  0.00  0.00     0.062 H 
ATOM     44  C   LIG d   1      10.257   4.665  -3.912  0.00  0.00    -0.062 A 
ATOM     45  H   LIG d   1       9.210   5.294  -5.667  0.00  0.00     0.062 H 
ATOM     46  C   LIG d   1      10.456   3.649  -2.994  0.00  0.00    -0.061 A 
ATOM     47  H   LIG d   1      10.803   5.591  -3.816  0.00  0.00     0.062 H 
ATOM     48  C   LIG d   1       9.757   2.465  -3.108  0.00  0.00    -0.054 A 
ATOM     49  H   LIG d   1      11.156   3.786  -2.182  0.00  0.00     0.062 H 
ATOM     50  H   LIG d   1       9.910   1.674  -2.388  0.00  0.00     0.062 H 
ENDBRANCH   2  40
TORSDOF 5
ENDMDL
MODEL 5
REMARK VINA RESULT:      -6.4      7.684     10.818
REMARK  5 active torsions:
REMARK  status: ('A' for Active; 'I' for Inactive)
REMARK    1  A    between atoms: C_1  and  C_2 
REMARK    2  A    between atoms: C_3  and  C_24 
REMARK    3  A    between atoms: N_14  and  C_17 
REMARK    4  A    between atoms: C_17  and  C_18 
REMARK    5  A    between atoms: C_18  and  C_19 
ROOT
ATOM      1  C   LIG d   1       9.927   6.661  -2.679  0.00  0.00     0.114 A 
ATOM      2  C   LIG d   1      10.426   7.668  -3.442  0.00  0.00     0.067 A 
ATOM      3  C   LIG d   1      10.573   7.451  -4.892  0.00  0.00     0.200 A 
ATOM      4  O   LIG d   1      11.014   8.317  -5.626  0.00  0.00    -0.286 OA
ATOM      5  C   LIG d   1      10.160   6.134  -5.410  0.00  0.00     0.065 A 
ATOM      6  C   LIG d   1      10.259   5.826  -6.768  0.00  0.00    -0.044 A 
ATOM      7  C   LIG d   1       9.869   4.597  -7.213  0.00  0.00    -0.019 A 
ATOM      8  C   LIG d   1       9.371   3.646  -6.320  0.00  0.00     0.130 A 
ATOM      9  C   LIG d   1       9.267   3.937  -4.973  0.00  0.00     0.051 A 
ATOM     10  C   LIG d   1       9.661   5.185  -4.502  0.00  0.00     0.147 A 
ATOM     11  O   LIG d   1       9.565   5.482  -3.191  0.00  0.00    -0.459 OA
ATOM     12  C   LIG d   1       8.734   2.917  -3.998  0.00  0.00     0.034 C 
ATOM     13  N   LIG d   1       8.013   1.866  -4.731  0.00  0.00    -0.266 N 
ATOM     14  C   LIG d   1       8.833   1.375  -5.851  0.00  0.00     0.144 C 
ATOM     15  O   LIG d   1       8.987   2.433  -6.799  0.00  0.00    -0.476 OA
ATOM     16  H   LIG d   1      10.645   6.557  -7.462  0.00  0.00     0.063 H 
ATOM     17  H   LIG d   1       9.945   4.358  -8.263  0.00  0.00     0.065 H 
ATOM     18  H   LIG d   1       9.571   2.467  -3.444  0.00  0.00     0.048 H 
ATOM     19  H   LIG d   1       8.048   3.407  -3.293  0.00  0.00     0.048 H 
ATOM     20  H   LIG d   1       9.817   1.062  -5.474  0.00  0.00     0.087 H 
ATOM     21  H   LIG d   1       8.332   0.518  -6.324  0.00  0.00     0.087 H 
ENDROOT
BRANCH  13  22
ATOM     22  C   LIG d   1       7.633   0.766  -3.834  0.00  0.00     0.007 C 
ATOM     23  H   LIG d   1       7.570  -0.170  -4.409  0.00  0.00     0.043 H 
ATOM     24  H   LIG d   1       8.389   0.660  -3.043  0.00  0.00     0.043 H 
BRANCH  22  25
ATOM     25  C   LIG d   1       6.272   1.069  -3.204  0.00  0.00    -0.009 C 
ATOM     26  H   LIG d   1       6.420   1.503  -2.204  0.00  0.00     0.033 H 
ATOM     27  H   LIG d   1       5.726   1.785  -3.837  0.00  0.00     0.033 H 
BRANCH  25  28
ATOM     28  C   LIG d   1       5.477  -0.206  -3.087  0.00  0.00    -0.009 A 
ATOM     29  S   LIG d   1       5.490  -1.641  -4.149  0.00  0.00    -0.102 SA
ATOM     30  C   LIG d   1       4.282  -2.617  -3.269  0.00  0.00    -0.024 A 
ATOM     31  C   LIG d   1       3.950  -1.794  -2.244  0.00  0.00    -0.054 A 
ATOM     32  H   LIG d   1       3.911  -3.604  -3.496  0.00  0.00     0.069 H 
ATOM     33  C   LIG d   1       4.563  -0.558  -2.151  0.00  0.00    -0.051 A 
ATOM     34  H   LIG d   1       3.217  -2.099  -1.512  0.00  0.00     0.062 H 
ATOM     35  H   LIG d   1       4.315   0.117  -1.344  0.00  0.00     0.063 H 
ENDBRANCH  25  28
ENDBRANCH  22  25
ENDBRANCH  13  22
BRANCH   1  36
ATOM     36  C   LIG d   1       9.783   6.881  -1.195  0.00  0.00    -0.006 C 
ATOM     37  H   LIG d   1       8.773   6.584  -0.877  0.00  0.00     0.031 H 
ATOM     38  H   LIG d   1       9.943   7.944  -0.964  0.00  0.00     0.031 H 
ATOM     39  H   LIG d   1      10.529   6.274  -0.659  0.00  0.00     0.031 H 
ENDBRANCH   1  36
BRANCH   2  40
ATOM     40  C   LIG d   1      10.815   8.960  -2.828  0.00  0.00    -0.011 A 
ATOM     41  C   LIG d   1       9.887   9.994  -2.724  0.00  0.00    -0.054 A 
ATOM     42  C   LIG d   1      10.256  11.195  -2.152  0.00  0.00    -0.061 A 
ATOM     43  H   LIG d   1       8.881   9.856  -3.092  0.00  0.00     0.062 H 
ATOM     44  C   LIG d   1      11.544  11.373  -1.680  0.00  0.00    -0.062 A 
ATOM     45  H   LIG d   1       9.536  11.997  -2.071  0.00  0.00     0.062 H 
ATOM     46  C   LIG d   1      12.469  10.350  -1.780  0.00  0.00    -0.061 A 
ATOM     47  H   LIG d   1      11.828  12.314  -1.234  0.00  0.00     0.062 H 
ATOM     48  C   LIG d   1      12.111   9.143  -2.345  0.00  0.00    -0.054 A 
ATOM     49  H   LIG d   1      13.474  10.494  -1.411  0.00  0.00     0.062 H 
ATOM     50  H   LIG d   1      12.833   8.343  -2.419  0.00  0.00     0.062 H 
ENDBRANCH   2  40
TORSDOF 5
ENDMDL
MODEL 6
REMARK VINA RESULT:      -6.3      4.678      6.521
REMARK  5 active torsions:
REMARK  status: ('A' for Active; 'I' for Inactive)
REMARK    1  A    between atoms: C_1  and  C_2 
REMARK    2  A    between atoms: C_3  and  C_24 
REMARK    3  A    between atoms: N_14  and  C_17 
REMARK    4  A    between atoms: C_17  and  C_18 
REMARK    5  A    between atoms: C_18  and  C_19 
ROOT
ATOM      1  C   LIG d   1       4.473  -2.122  -7.573  0.00  0.00     0.114 A 
ATOM      2  C   LIG d   1       3.772  -1.561  -8.592  0.00  0.00     0.067 A 
ATOM      3  C   LIG d   1       3.047  -2.444  -9.523  0.00  0.00     0.200 A 
ATOM      4  O   LIG d   1       2.402  -1.997 -10.455  0.00  0.00    -0.286 OA
ATOM      5  C   LIG d   1       3.141  -3.893  -9.270  0.00  0.00     0.065 A 
ATOM      6  C   LIG d   1       2.492  -4.815 -10.093  0.00  0.00    -0.044 A 
ATOM      7  C   LIG d   1       2.601  -6.150  -9.830  0.00  0.00    -0.019 A 
ATOM      8  C   LIG d   1       3.356  -6.599  -8.745  0.00  0.00     0.130 A 
ATOM      9  C   LIG d   1       4.004  -5.696  -7.922  0.00  0.00     0.051 A 
ATOM     10  C   LIG d   1       3.904  -4.333  -8.175  0.00  0.00     0.147 A 
ATOM     11  O   LIG d   1       4.530  -3.442  -7.381  0.00  0.00    -0.459 OA
ATOM     12  C   LIG d   1       4.826  -6.169  -6.749  0.00  0.00     0.034 C 
ATOM     13  N   LIG d   1       4.468  -7.558  -6.425  0.00  0.00    -0.266 N 
ATOM     14  C   LIG d   1       4.484  -8.382  -7.645  0.00  0.00     0.144 C 
ATOM     15  O   LIG d   1       3.439  -7.935  -8.510  0.00  0.00    -0.476 OA
ATOM     16  H   LIG d   1       1.908  -4.474 -10.934  0.00  0.00     0.063 H 
ATOM     17  H   LIG d   1       2.099  -6.863 -10.465  0.00  0.00     0.065 H 
ATOM     18  H   LIG d   1       5.894  -6.117  -7.005  0.00  0.00     0.048 H 
ATOM     19  H   LIG d   1       4.625  -5.528  -5.879  0.00  0.00     0.048 H 
ATOM     20  H   LIG d   1       5.457  -8.276  -8.146  0.00  0.00     0.087 H 
ATOM     21  H   LIG d   1       4.323  -9.437  -7.377  0.00  0.00     0.087 H 
ENDROOT
BRANCH  13  22
ATOM     22  C   LIG d   1       5.370  -8.109  -5.404  0.00  0.00     0.007 C 
ATOM     23  H   LIG d   1       6.331  -8.375  -5.869  0.00  0.00     0.043 H 
ATOM     24  H   LIG d   1       5.538  -7.357  -4.619  0.00  0.00     0.043 H 
BRANCH  22  25
ATOM     25  C   LIG d   1       4.739  -9.359  -4.788  0.00  0.00    -0.009 C 
ATOM     26  H   LIG d   1       3.704  -9.137  -4.488  0.00  0.00     0.033 H 
ATOM     27  H   LIG d   1       4.740 -10.173  -5.528  0.00  0.00     0.033 H 
BRANCH  25  28
ATOM     28  C   LIG d   1       5.535  -9.779  -3.579  0.00  0.00    -0.009 A 
ATOM     29  S   LIG d   1       7.241  -9.437  -3.181  0.00  0.00    -0.102 SA
ATOM     30  C   LIG d   1       7.313 -10.296  -1.618  0.00  0.00    -0.024 A 
ATOM     31  C   LIG d   1       6.053 -10.784  -1.509  0.00  0.00    -0.054 A 
ATOM     32  H   LIG d   1       8.145 -10.402  -0.939  0.00  0.00     0.069 H 
ATOM     33  C   LIG d   1       5.142 -10.519  -2.513  0.00  0.00    -0.051 A 
ATOM     34  H   LIG d   1       5.766 -11.372  -0.650  0.00  0.00     0.062 H 
ATOM     35  H   LIG d   1       4.131 -10.896  -2.451  0.00  0.00     0.063 H 
ENDBRANCH  25  28
ENDBRANCH  22  25
ENDBRANCH  13  22
BRANCH   1  36
ATOM     36  C   LIG d   1       5.220  -1.219  -6.625  0.00  0.00    -0.006 C 
ATOM     37  H   LIG d   1       5.832  -0.509  -7.201  0.00  0.00     0.031 H 
ATOM     38  H   LIG d   1       5.871  -1.825  -5.978  0.00  0.00     0.031 H 
ATOM     39  H   LIG d   1       4.501  -0.663  -6.005  0.00  0.00     0.031 H 
ENDBRANCH   1  36
BRANCH   2  40
ATOM     40  C   LIG d   1       3.738  -0.089  -8.766  0.00  0.00    -0.011 A 
ATOM     41  C   LIG d   1       2.747   0.668  -8.143  0.00  0.00    -0.054 A 
ATOM     42  C   LIG d   1       2.721   2.037  -8.309  0.00  0.00    -0.061 A 
ATOM     43  H   LIG d   1       2.000   0.182  -7.532  0.00  0.00     0.062 H 
ATOM     44  C   LIG d   1       3.676   2.661  -9.091  0.00  0.00    -0.062 A 
ATOM     45  H   LIG d   1       1.953   2.624  -7.826  0.00  0.00     0.062 H 
ATOM     46  C   LIG d   1       4.662   1.915  -9.711  0.00  0.00    -0.061 A 
ATOM     47  H   LIG d   1       3.651   3.733  -9.218  0.00  0.00     0.062 H 
ATOM     48  C   LIG d   1       4.703   0.546  -9.548  0.00  0.00    -0.054 A 
ATOM     49  H   LIG d   1       5.406   2.408 -10.321  0.00  0.00     0.062 H 
ATOM     50  H   LIG d   1       5.476  -0.035 -10.030  0.00  0.00     0.062 H 
ENDBRANCH   2  40
TORSDOF 5
ENDMDL
MODEL 7
REMARK VINA RESULT:      -6.2      5.602      7.409
REMARK  5 active torsions:
REMARK  status: ('A' for Active; 'I' for Inactive)
REMARK    1  A    between atoms: C_1  and  C_2 
REMARK    2  A    between atoms: C_3  and  C_24 
REMARK    3  A    between atoms: N_14  and  C_17 
REMARK    4  A    between atoms: C_17  and  C_18 
REMARK    5  A    between atoms: C_18  and  C_19 
ROOT
ATOM      1  C   LIG d   1       8.653  -0.013  -4.986  0.00  0.00     0.114 A 
ATOM      2  C   LIG d   1       8.115   1.023  -4.293  0.00  0.00     0.067 A 
ATOM      3  C   LIG d   1       6.789   0.848  -3.675  0.00  0.00     0.200 A 
ATOM      4  O   LIG d   1       6.257   1.743  -3.041  0.00  0.00    -0.286 OA
ATOM      5  C   LIG d   1       6.139  -0.462  -3.859  0.00  0.00     0.065 A 
ATOM      6  C   LIG d   1       4.882  -0.730  -3.315  0.00  0.00    -0.044 A 
ATOM      7  C   LIG d   1       4.309  -1.954  -3.507  0.00  0.00    -0.019 A 
ATOM      8  C   LIG d   1       4.971  -2.938  -4.242  0.00  0.00     0.130 A 
ATOM      9  C   LIG d   1       6.216  -2.686  -4.788  0.00  0.00     0.051 A 
ATOM     10  C   LIG d   1       6.815  -1.444  -4.603  0.00  0.00     0.147 A 
ATOM     11  O   LIG d   1       8.028  -1.185  -5.128  0.00  0.00    -0.459 OA
ATOM     12  C   LIG d   1       6.940  -3.739  -5.588  0.00  0.00     0.034 C 
ATOM     13  N   LIG d   1       6.347  -5.057  -5.316  0.00  0.00    -0.266 N 
ATOM     14  C   LIG d   1       4.882  -4.990  -5.445  0.00  0.00     0.144 C 
ATOM     15  O   LIG d   1       4.373  -4.147  -4.410  0.00  0.00    -0.476 OA
ATOM     16  H   LIG d   1       4.365   0.028  -2.746  0.00  0.00     0.063 H 
ATOM     17  H   LIG d   1       3.337  -2.162  -3.085  0.00  0.00     0.065 H 
ATOM     18  H   LIG d   1       6.849  -3.512  -6.660  0.00  0.00     0.048 H 
ATOM     19  H   LIG d   1       8.002  -3.751  -5.304  0.00  0.00     0.048 H 
ATOM     20  H   LIG d   1       4.619  -4.576  -6.429  0.00  0.00     0.087 H 
ATOM     21  H   LIG d   1       4.458  -6.001  -5.347  0.00  0.00     0.087 H 
ENDROOT
BRANCH  13  22
ATOM     22  C   LIG d   1       6.908  -6.081  -6.208  0.00  0.00     0.007 C 
ATOM     23  H   LIG d   1       6.167  -6.342  -6.978  0.00  0.00     0.043 H 
ATOM     24  H   LIG d   1       7.816  -5.689  -6.691  0.00  0.00     0.043 H 
BRANCH  22  25
ATOM     25  C   LIG d   1       7.260  -7.329  -5.395  0.00  0.00    -0.009 C 
ATOM     26  H   LIG d   1       6.438  -7.558  -4.702  0.00  0.00     0.033 H 
ATOM     27  H   LIG d   1       7.413  -8.178  -6.077  0.00  0.00     0.033 H 
BRANCH  25  28
ATOM     28  C   LIG d   1       8.524  -7.078  -4.613  0.00  0.00    -0.009 A 
ATOM     29  S   LIG d   1       9.953  -6.108  -5.066  0.00  0.00    -0.102 SA
ATOM     30  C   LIG d   1      10.915  -6.371  -3.585  0.00  0.00    -0.024 A 
ATOM     31  C   LIG d   1      10.097  -7.173  -2.859  0.00  0.00    -0.054 A 
ATOM     32  H   LIG d   1      11.894  -5.992  -3.334  0.00  0.00     0.069 H 
ATOM     33  C   LIG d   1       8.872  -7.535  -3.386  0.00  0.00    -0.051 A 
ATOM     34  H   LIG d   1      10.400  -7.523  -1.883  0.00  0.00     0.062 H 
ATOM     35  H   LIG d   1       8.202  -8.173  -2.828  0.00  0.00     0.063 H 
ENDBRANCH  25  28
ENDBRANCH  22  25
ENDBRANCH  13  22
BRANCH   1  36
ATOM     36  C   LIG d   1      10.006   0.168  -5.624  0.00  0.00    -0.006 C 
ATOM     37  H   LIG d   1      10.230  -0.701  -6.261  0.00  0.00     0.031 H 
ATOM     38  H   LIG d   1      10.772   0.255  -4.841  0.00  0.00     0.031 H 
ATOM     39  H   LIG d   1      10.004   1.081  -6.238  0.00  0.00     0.031 H 
ENDBRANCH   1  36
BRANCH   2  40
ATOM     40  C   LIG d   1       8.846   2.306  -4.163  0.00  0.00    -0.011 A 
ATOM     41  C   LIG d   1       8.680   3.308  -5.117  0.00  0.00    -0.054 A 
ATOM     42  C   LIG d   1       9.364   4.500  -4.991  0.00  0.00    -0.061 A 
ATOM     43  H   LIG d   1       8.017   3.151  -5.955  0.00  0.00     0.062 H 
ATOM     44  C   LIG d   1      10.213   4.702  -3.918  0.00  0.00    -0.062 A 
ATOM     45  H   LIG d   1       9.234   5.277  -5.730  0.00  0.00     0.062 H 
ATOM     46  C   LIG d   1      10.382   3.712  -2.967  0.00  0.00    -0.061 A 
ATOM     47  H   LIG d   1      10.747   5.636  -3.823  0.00  0.00     0.062 H 
ATOM     48  C   LIG d   1       9.699   2.518  -3.080  0.00  0.00    -0.054 A 
ATOM     49  H   LIG d   1      11.047   3.876  -2.131  0.00  0.00     0.062 H 
ATOM     50  H   LIG d   1       9.829   1.747  -2.335  0.00  0.00     0.062 H 
ENDBRANCH   2  40
TORSDOF 5
ENDMDL
MODEL 8
REMARK VINA RESULT:      -6.1      3.288      5.105
REMARK  5 active torsions:
REMARK  status: ('A' for Active; 'I' for Inactive)
REMARK    1  A    between atoms: C_1  and  C_2 
REMARK    2  A    between atoms: C_3  and  C_24 
REMARK    3  A    between atoms: N_14  and  C_17 
REMARK    4  A    between atoms: C_17  and  C_18 
REMARK    5  A    between atoms: C_18  and  C_19 
ROOT
ATOM      1  C   LIG d   1       1.724  -1.914 -10.409  0.00  0.00     0.114 A 
ATOM      2  C   LIG d   1       2.785  -1.507  -9.665  0.00  0.00     0.067 A 
ATOM      3  C   LIG d   1       3.617  -2.527  -9.003  0.00  0.00     0.200 A 
ATOM      4  O   LIG d   1       4.582  -2.222  -8.324  0.00  0.00    -0.286 OA
ATOM      5  C   LIG d   1       3.225  -3.934  -9.203  0.00  0.00     0.065 A 
ATOM      6  C   LIG d   1       3.946  -4.977  -8.619  0.00  0.00    -0.044 A 
ATOM      7  C   LIG d   1       3.554  -6.268  -8.825  0.00  0.00    -0.019 A 
ATOM      8  C   LIG d   1       2.440  -6.553  -9.615  0.00  0.00     0.130 A 
ATOM      9  C   LIG d   1       1.716  -5.529 -10.199  0.00  0.00     0.051 A 
ATOM     10  C   LIG d   1       2.101  -4.208 -10.000  0.00  0.00     0.147 A 
ATOM     11  O   LIG d   1       1.406  -3.201 -10.564  0.00  0.00    -0.459 OA
ATOM     12  C   LIG d   1       0.507  -5.824 -11.051  0.00  0.00     0.034 C 
ATOM     13  N   LIG d   1       0.526  -7.236 -11.461  0.00  0.00    -0.266 N 
ATOM     14  C   LIG d   1       0.762  -8.099 -10.292  0.00  0.00     0.144 C 
ATOM     15  O   LIG d   1       2.081  -7.850  -9.802  0.00  0.00    -0.476 OA
ATOM     16  H   LIG d   1       4.809  -4.763  -8.006  0.00  0.00     0.063 H 
ATOM     17  H   LIG d   1       4.112  -7.075  -8.373  0.00  0.00     0.065 H 
ATOM     18  H   LIG d   1      -0.406  -5.623 -10.473  0.00  0.00     0.048 H 
ATOM     19  H   LIG d   1       0.525  -5.184 -11.945  0.00  0.00     0.048 H 
ATOM     20  H   LIG d   1       0.022  -7.869  -9.512  0.00  0.00     0.087 H 
ATOM     21  H   LIG d   1       0.665  -9.154 -10.589  0.00  0.00     0.087 H 
ENDROOT
BRANCH  13  22
ATOM     22  C   LIG d   1      -0.723  -7.602 -12.143  0.00  0.00     0.007 C 
ATOM     23  H   LIG d   1      -1.081  -6.747 -12.735  0.00  0.00     0.043 H 
ATOM     24  H   LIG d   1      -0.540  -8.458 -12.809  0.00  0.00     0.043 H 
BRANCH  22  25
ATOM     25  C   LIG d   1      -1.780  -7.981 -11.103  0.00  0.00    -0.009 C 
ATOM     26  H   LIG d   1      -2.411  -8.789 -11.500  0.00  0.00     0.033 H 
ATOM     27  H   LIG d   1      -1.282  -8.322 -10.183  0.00  0.00     0.033 H 
BRANCH  25  28
ATOM     28  C   LIG d   1      -2.635  -6.778 -10.796  0.00  0.00    -0.009 A 
ATOM     29  S   LIG d   1      -3.470  -5.674 -11.923  0.00  0.00    -0.102 SA
ATOM     30  C   LIG d   1      -4.209  -4.590 -10.713  0.00  0.00    -0.024 A 
ATOM     31  C   LIG d   1      -3.771  -5.130  -9.549  0.00  0.00    -0.054 A 
ATOM     32  H   LIG d   1      -4.838  -3.727 -10.868  0.00  0.00     0.069 H 
ATOM     33  C   LIG d   1      -2.965  -6.251  -9.592  0.00  0.00    -0.051 A 
ATOM     34  H   LIG d   1      -4.049  -4.689  -8.603  0.00  0.00     0.062 H 
ATOM     35  H   LIG d   1      -2.603  -6.701  -8.678  0.00  0.00     0.063 H 
ENDBRANCH  25  28
ENDBRANCH  22  25
ENDBRANCH  13  22
BRANCH   1  36
ATOM     36  C   LIG d   1       0.869  -0.870 -11.081  0.00  0.00    -0.006 C 
ATOM     37  H   LIG d   1       1.282  -0.644 -12.075  0.00  0.00     0.031 H 
ATOM     38  H   LIG d   1       0.859   0.044 -10.471  0.00  0.00     0.031 H 
ATOM     39  H   LIG d   1      -0.158  -1.250 -11.188  0.00  0.00     0.031 H 
ENDBRANCH   1  36
BRANCH   2  40
ATOM     40  C   LIG d   1       3.100  -0.066  -9.522  0.00  0.00    -0.011 A 
ATOM     41  C   LIG d   1       2.618   0.651  -8.428  0.00  0.00    -0.054 A 
ATOM     42  C   LIG d   1       2.914   1.993  -8.300  0.00  0.00    -0.061 A 
ATOM     43  H   LIG d   1       2.013   0.157  -7.682  0.00  0.00     0.062 H 
ATOM     44  C   LIG d   1       3.689   2.627  -9.254  0.00  0.00    -0.062 A 
ATOM     45  H   LIG d   1       2.541   2.549  -7.452  0.00  0.00     0.062 H 
ATOM     46  C   LIG d   1       4.171   1.921 -10.341  0.00  0.00    -0.061 A 
ATOM     47  H   LIG d   1       3.917   3.677  -9.150  0.00  0.00     0.062 H 
ATOM     48  C   LIG d   1       3.886   0.578 -10.477  0.00  0.00    -0.054 A 
ATOM     49  H   LIG d   1       4.775   2.422 -11.084  0.00  0.00     0.062 H 
ATOM     50  H   LIG d   1       4.266   0.026 -11.325  0.00  0.00     0.062 H 
ENDBRANCH   2  40
TORSDOF 5
ENDMDL
MODEL 9
REMARK VINA RESULT:      -6.0     11.615     15.641
REMARK  5 active torsions:
REMARK  status: ('A' for Active; 'I' for Inactive)
REMARK    1  A    between atoms: C_1  and  C_2 
REMARK    2  A    between atoms: C_3  and  C_24 
REMARK    3  A    between atoms: N_14  and  C_17 
REMARK    4  A    between atoms: C_17  and  C_18 
REMARK    5  A    between atoms: C_18  and  C_19 
ROOT
ATOM      1  C   LIG d   1       9.898   7.724  -6.595  0.00  0.00     0.114 A 
ATOM      2  C   LIG d   1       9.908   6.474  -7.126  0.00  0.00     0.067 A 
ATOM      3  C   LIG d   1       9.928   5.318  -6.213  0.00  0.00     0.200 A 
ATOM      4  O   LIG d   1       9.938   4.174  -6.633  0.00  0.00    -0.286 OA
ATOM      5  C   LIG d   1       9.937   5.614  -4.769  0.00  0.00     0.065 A 
ATOM      6  C   LIG d   1       9.958   4.590  -3.821  0.00  0.00    -0.044 A 
ATOM      7  C   LIG d   1       9.966   4.900  -2.492  0.00  0.00    -0.019 A 
ATOM      8  C   LIG d   1       9.954   6.233  -2.075  0.00  0.00     0.130 A 
ATOM      9  C   LIG d   1       9.935   7.256  -3.004  0.00  0.00     0.051 A 
ATOM     10  C   LIG d   1       9.926   6.959  -4.362  0.00  0.00     0.147 A 
ATOM     11  O   LIG d   1       9.906   7.946  -5.279  0.00  0.00    -0.459 OA
ATOM     12  C   LIG d   1       9.925   8.699  -2.567  0.00  0.00     0.034 C 
ATOM     13  N   LIG d   1       9.527   8.783  -1.154  0.00  0.00    -0.266 N 
ATOM     14  C   LIG d   1      10.311   7.832  -0.349  0.00  0.00     0.144 C 
ATOM     15  O   LIG d   1       9.959   6.504  -0.743  0.00  0.00    -0.476 OA
ATOM     16  H   LIG d   1       9.968   3.558  -4.137  0.00  0.00     0.063 H 
ATOM     17  H   LIG d   1       9.982   4.109  -1.758  0.00  0.00     0.065 H 
ATOM     18  H   LIG d   1      10.932   9.125  -2.688  0.00  0.00     0.048 H 
ATOM     19  H   LIG d   1       9.211   9.264  -3.182  0.00  0.00     0.048 H 
ATOM     20  H   LIG d   1      11.383   8.003  -0.522  0.00  0.00     0.087 H 
ATOM     21  H   LIG d   1      10.083   7.979   0.717  0.00  0.00     0.087 H 
ENDROOT
BRANCH  13  22
ATOM     22  C   LIG d   1       9.677  10.153  -0.645  0.00  0.00     0.007 C 
ATOM     23  H   LIG d   1       8.693  10.644  -0.618  0.00  0.00     0.043 H 
ATOM     24  H   LIG d   1      10.100  10.124   0.369  0.00  0.00     0.043 H 
BRANCH  22  25
ATOM     25  C   LIG d   1      10.612  10.940  -1.567  0.00  0.00    -0.009 C 
ATOM     26  H   LIG d   1      11.551  11.157  -1.037  0.00  0.00     0.033 H 
ATOM     27  H   LIG d   1      10.828  10.342  -2.465  0.00  0.00     0.033 H 
BRANCH  25  28
ATOM     28  C   LIG d   1       9.950  12.232  -1.969  0.00  0.00    -0.009 A 
ATOM     29  S   LIG d   1      10.195  13.874  -1.312  0.00  0.00    -0.102 SA
ATOM     30  C   LIG d   1       9.033  14.739  -2.355  0.00  0.00    -0.024 A 
ATOM     31  C   LIG d   1       8.540  13.733  -3.119  0.00  0.00    -0.054 A 
ATOM     32  H   LIG d   1       8.787  15.790  -2.372  0.00  0.00     0.069 H 
ATOM     33  C   LIG d   1       9.010  12.449  -2.921  0.00  0.00    -0.051 A 
ATOM     34  H   LIG d   1       7.790  13.933  -3.870  0.00  0.00     0.062 H 
ATOM     35  H   LIG d   1       8.633  11.629  -3.516  0.00  0.00     0.063 H 
ENDBRANCH  25  28
ENDBRANCH  22  25
ENDBRANCH  13  22
BRANCH   1  36
ATOM     36  C   LIG d   1       9.883   8.908  -7.529  0.00  0.00    -0.006 C 
ATOM     37  H   LIG d   1       9.124   8.748  -8.309  0.00  0.00     0.031 H 
ATOM     38  H   LIG d   1      10.872   9.018  -7.996  0.00  0.00     0.031 H 
ATOM     39  H   LIG d   1       9.641   9.819  -6.962  0.00  0.00     0.031 H 
ENDBRANCH   1  36
BRANCH   2  40
ATOM     40  C   LIG d   1       9.899   6.277  -8.596  0.00  0.00    -0.011 A 
ATOM     41  C   LIG d   1       8.690   6.202  -9.285  0.00  0.00    -0.054 A 
ATOM     42  C   LIG d   1       8.688   6.018 -10.653  0.00  0.00    -0.061 A 
ATOM     43  H   LIG d   1       7.756   6.287  -8.749  0.00  0.00     0.062 H 
ATOM     44  C   LIG d   1       9.882   5.909 -11.341  0.00  0.00    -0.062 A 
ATOM     45  H   LIG d   1       7.751   5.961 -11.188  0.00  0.00     0.062 H 
ATOM     46  C   LIG d   1      11.085   5.983 -10.662  0.00  0.00    -0.061 A 
ATOM     47  H   LIG d   1       9.876   5.765 -12.411  0.00  0.00     0.062 H 
ATOM     48  C   LIG d   1      11.101   6.173  -9.295  0.00  0.00    -0.054 A 
ATOM     49  H   LIG d   1      12.016   5.897 -11.204  0.00  0.00     0.062 H 
ATOM     50  H   LIG d   1      12.041   6.235  -8.767  0.00  0.00     0.062 H 
ENDBRANCH   2  40
TORSDOF 5
ENDMDL
