MODEL 1
REMARK VINA RESULT:      -8.5      0.000      0.000
REMARK  5 active torsions:
REMARK  status: ('A' for Active; 'I' for Inactive)
REMARK    1  A    between atoms: C_5  and  C_7 
REMARK    2  A    between atoms: C_7  and  N_8 
REMARK    3  A    between atoms: C_13  and  C_30 
REMARK    4  A    between atoms: C_30  and  C_31 
REMARK    5  A    between atoms: C_31  and  C_32 
ROOT
ATOM      1  N   LIG d   1       6.710  -1.724  -5.450  0.00  0.00    -0.237 N 
ATOM      2  C   LIG d   1       6.365  -2.991  -5.706  0.00  0.00     0.232 A 
ATOM      3  O   LIG d   1       6.491  -3.921  -4.938  0.00  0.00    -0.275 OA
ATOM      4  C   LIG d   1       5.791  -3.083  -7.102  0.00  0.00     0.096 A 
ATOM      5  H   LIG d   1       6.332  -3.787  -7.734  0.00  0.00     0.046 H 
ATOM      6  C   LIG d   1       4.284  -3.402  -7.010  0.00  0.00    -0.009 C 
ATOM      7  H   LIG d   1       3.920  -3.228  -5.998  0.00  0.00     0.086 H 
ATOM      8  N   LIG d   1       3.635  -2.462  -7.962  0.00  0.00     0.245 N 
ATOM      9  C   LIG d   1       4.392  -1.206  -7.801  0.00  0.00     0.106 A 
ATOM     10  C   LIG d   1       5.873  -1.620  -7.620  0.00  0.00     0.111 A 
ATOM     11  H   LIG d   1       6.458  -1.529  -8.535  0.00  0.00     0.047 H 
ATOM     12  C   LIG d   1       6.471  -0.870  -6.452  0.00  0.00     0.233 A 
ATOM     13  O   LIG d   1       6.703   0.320  -6.428  0.00  0.00    -0.275 OA
ATOM     14  C   LIG d   1       4.218  -0.304  -8.990  0.00  0.00     0.034 A 
ATOM     15  C   LIG d   1       4.485  -0.444 -10.333  0.00  0.00    -0.051 A 
ATOM     16  C   LIG d   1       4.207   0.593 -11.206  0.00  0.00    -0.061 A 
ATOM     17  C   LIG d   1       3.661   1.770 -10.726  0.00  0.00    -0.060 A 
ATOM     18  C   LIG d   1       3.392   1.915  -9.380  0.00  0.00    -0.040 A 
ATOM     19  C   LIG d   1       3.669   0.875  -8.494  0.00  0.00     0.043 A 
ATOM     20  N   LIG d   1       3.490   0.782  -7.112  0.00  0.00    -0.280 N 
ATOM     21  C   LIG d   1       3.890  -0.410  -6.628  0.00  0.00     0.274 A 
ATOM     22  O   LIG d   1       3.850  -0.770  -5.471  0.00  0.00    -0.269 OA
ATOM     23  H   LIG d   1       3.719  -2.805  -8.908  0.00  0.00     0.203 HD
ATOM     24  H   LIG d   1       4.912  -1.363 -10.705  0.00  0.00     0.062 H 
ATOM     25  H   LIG d   1       4.416   0.484 -12.259  0.00  0.00     0.062 H 
ATOM     26  H   LIG d   1       3.444   2.579 -11.407  0.00  0.00     0.062 H 
ATOM     27  H   LIG d   1       2.967   2.836  -9.012  0.00  0.00     0.064 H 
ATOM     28  H   LIG d   1       3.121   1.493  -6.565  0.00  0.00     0.155 HD
ATOM     29  H   LIG d   1       2.667  -2.325  -7.718  0.00  0.00     0.203 HD
ENDROOT
BRANCH   1  30
ATOM     30  C   LIG d   1       7.295  -1.306  -4.174  0.00  0.00     0.049 C 
ATOM     31  H   LIG d   1       8.053  -0.544  -4.355  0.00  0.00     0.052 H 
ATOM     32  H   LIG d   1       7.754  -2.165  -3.685  0.00  0.00     0.052 H 
BRANCH  30  33
ATOM     33  C   LIG d   1       6.217  -0.740  -3.287  0.00  0.00    -0.011 A 
ATOM     34  C   LIG d   1       6.174   0.619  -3.029  0.00  0.00     0.046 A 
ATOM     35  C   LIG d   1       5.182   1.137  -2.214  0.00  0.00    -0.043 A 
ATOM     36 CL   LIG d   1       7.362   1.673  -3.729  0.00  0.00    -0.083 Cl
ATOM     37  C   LIG d   1       4.237   0.297  -1.658  0.00  0.00    -0.060 A 
ATOM     38  H   LIG d   1       5.148   2.197  -2.013  0.00  0.00     0.063 H 
ATOM     39  C   LIG d   1       4.280  -1.061  -1.917  0.00  0.00    -0.061 A 
ATOM     40  H   LIG d   1       3.463   0.701  -1.022  0.00  0.00     0.062 H 
ATOM     41  C   LIG d   1       5.269  -1.579  -2.730  0.00  0.00    -0.056 A 
ATOM     42  H   LIG d   1       3.543  -1.717  -1.479  0.00  0.00     0.062 H 
ATOM     43  H   LIG d   1       5.302  -2.640  -2.932  0.00  0.00     0.062 H 
ENDBRANCH  30  33
ENDBRANCH   1  30
BRANCH   6  44
ATOM     44  C   LIG d   1       4.021  -4.851  -7.426  0.00  0.00    -0.004 C 
ATOM     45  H   LIG d   1       4.774  -5.501  -6.982  0.00  0.00     0.032 H 
ATOM     46  H   LIG d   1       3.032  -5.154  -7.083  0.00  0.00     0.032 H 
BRANCH  44  47
ATOM     47  C   LIG d   1       4.087  -4.964  -8.951  0.00  0.00    -0.008 C 
ATOM     48  H   LIG d   1       4.421  -4.015  -9.371  0.00  0.00     0.033 H 
ATOM     49  H   LIG d   1       4.791  -5.750  -9.227  0.00  0.00     0.033 H 
BRANCH  47  50
ATOM     50  C   LIG d   1       2.721  -5.300  -9.490  0.00  0.00     0.042 C 
ATOM     51  O   LIG d   1       2.049  -4.439 -10.030  0.00  0.00    -0.550 OA
ATOM     52  O   LIG d   1       2.288  -6.436  -9.387  0.00  0.00    -0.550 OA
ENDBRANCH  47  50
ENDBRANCH  44  47
ENDBRANCH   6  44
TORSDOF 5
ENDMDL
MODEL 2
REMARK VINA RESULT:      -7.8      2.676      7.004
REMARK  5 active torsions:
REMARK  status: ('A' for Active; 'I' for Inactive)
REMARK    1  A    between atoms: C_5  and  C_7 
REMARK    2  A    between atoms: C_7  and  N_8 
REMARK    3  A    between atoms: C_13  and  C_30 
REMARK    4  A    between atoms: C_30  and  C_31 
REMARK    5  A    between atoms: C_31  and  C_32 
ROOT
ATOM      1  N   LIG d   1       4.790  -1.250  -7.139  0.00  0.00    -0.237 N 
ATOM      2  C   LIG d   1       4.101  -0.758  -6.104  0.00  0.00     0.232 A 
ATOM      3  O   LIG d   1       3.024  -0.205  -6.179  0.00  0.00    -0.275 OA
ATOM      4  C   LIG d   1       4.872  -1.000  -4.826  0.00  0.00     0.096 A 
ATOM      5  H   LIG d   1       5.086  -0.079  -4.284  0.00  0.00     0.046 H 
ATOM      6  C   LIG d   1       4.115  -2.035  -3.967  0.00  0.00    -0.009 C 
ATOM      7  H   LIG d   1       3.364  -2.548  -4.566  0.00  0.00     0.086 H 
ATOM      8  N   LIG d   1       5.160  -2.991  -3.514  0.00  0.00     0.245 N 
ATOM      9  C   LIG d   1       6.048  -3.136  -4.683  0.00  0.00     0.106 A 
ATOM     10  C   LIG d   1       6.156  -1.726  -5.315  0.00  0.00     0.111 A 
ATOM     11  H   LIG d   1       7.069  -1.201  -5.036  0.00  0.00     0.047 H 
ATOM     12  C   LIG d   1       5.954  -1.822  -6.809  0.00  0.00     0.233 A 
ATOM     13  O   LIG d   1       6.730  -2.333  -7.590  0.00  0.00    -0.275 OA
ATOM     14  C   LIG d   1       7.398  -3.661  -4.286  0.00  0.00     0.034 A 
ATOM     15  C   LIG d   1       8.379  -3.205  -3.433  0.00  0.00    -0.051 A 
ATOM     16  C   LIG d   1       9.546  -3.931  -3.271  0.00  0.00    -0.061 A 
ATOM     17  C   LIG d   1       9.725  -5.113  -3.966  0.00  0.00    -0.060 A 
ATOM     18  C   LIG d   1       8.745  -5.573  -4.822  0.00  0.00    -0.040 A 
ATOM     19  C   LIG d   1       7.566  -4.849  -4.991  0.00  0.00     0.043 A 
ATOM     20  N   LIG d   1       6.446  -5.103  -5.785  0.00  0.00    -0.280 N 
ATOM     21  C   LIG d   1       5.508  -4.143  -5.661  0.00  0.00     0.274 A 
ATOM     22  O   LIG d   1       4.436  -4.102  -6.227  0.00  0.00    -0.269 OA
ATOM     23  H   LIG d   1       5.669  -2.612  -2.729  0.00  0.00     0.203 HD
ATOM     24  H   LIG d   1       8.238  -2.282  -2.893  0.00  0.00     0.062 H 
ATOM     25  H   LIG d   1      10.316  -3.575  -2.603  0.00  0.00     0.062 H 
ATOM     26  H   LIG d   1      10.635  -5.679  -3.840  0.00  0.00     0.062 H 
ATOM     27  H   LIG d   1       8.891  -6.497  -5.361  0.00  0.00     0.064 H 
ATOM     28  H   LIG d   1       6.354  -5.879  -6.360  0.00  0.00     0.155 HD
ATOM     29  H   LIG d   1       4.745  -3.878  -3.274  0.00  0.00     0.203 HD
ENDROOT
BRANCH   1  30
ATOM     30  C   LIG d   1       4.307  -1.176  -8.520  0.00  0.00     0.049 C 
ATOM     31  H   LIG d   1       3.348  -1.688  -8.597  0.00  0.00     0.052 H 
ATOM     32  H   LIG d   1       5.028  -1.654  -9.184  0.00  0.00     0.052 H 
BRANCH  30  33
ATOM     33  C   LIG d   1       4.140   0.268  -8.918  0.00  0.00    -0.011 A 
ATOM     34  C   LIG d   1       2.915   0.722  -9.375  0.00  0.00     0.046 A 
ATOM     35  C   LIG d   1       2.763   2.049  -9.740  0.00  0.00    -0.043 A 
ATOM     36 CL   LIG d   1       1.572  -0.370  -9.491  0.00  0.00    -0.083 Cl
ATOM     37  C   LIG d   1       3.833   2.917  -9.647  0.00  0.00    -0.060 A 
ATOM     38  H   LIG d   1       1.808   2.404 -10.097  0.00  0.00     0.063 H 
ATOM     39  C   LIG d   1       5.056   2.462  -9.189  0.00  0.00    -0.061 A 
ATOM     40  H   LIG d   1       3.715   3.953  -9.932  0.00  0.00     0.062 H 
ATOM     41  C   LIG d   1       5.209   1.139  -8.825  0.00  0.00    -0.056 A 
ATOM     42  H   LIG d   1       5.893   3.141  -9.121  0.00  0.00     0.062 H 
ATOM     43  H   LIG d   1       6.164   0.784  -8.467  0.00  0.00     0.062 H 
ENDBRANCH  30  33
ENDBRANCH   1  30
BRANCH   6  44
ATOM     44  C   LIG d   1       3.459  -1.351  -2.765  0.00  0.00    -0.004 C 
ATOM     45  H   LIG d   1       2.778  -0.575  -3.114  0.00  0.00     0.032 H 
ATOM     46  H   LIG d   1       2.905  -2.088  -2.186  0.00  0.00     0.032 H 
BRANCH  44  47
ATOM     47  C   LIG d   1       4.541  -0.720  -1.884  0.00  0.00    -0.008 C 
ATOM     48  H   LIG d   1       4.370  -0.997  -0.845  0.00  0.00     0.033 H 
ATOM     49  H   LIG d   1       5.521  -1.080  -2.200  0.00  0.00     0.033 H 
BRANCH  47  50
ATOM     50  C   LIG d   1       4.489   0.779  -2.022  0.00  0.00     0.042 C 
ATOM     51  O   LIG d   1       3.420   1.361  -1.953  0.00  0.00    -0.550 OA
ATOM     52  O   LIG d   1       5.516   1.411  -2.201  0.00  0.00    -0.550 OA
ENDBRANCH  47  50
ENDBRANCH  44  47
ENDBRANCH   6  44
TORSDOF 5
ENDMDL
MODEL 3
REMARK VINA RESULT:      -7.8      2.593      6.191
REMARK  5 active torsions:
REMARK  status: ('A' for Active; 'I' for Inactive)
REMARK    1  A    between atoms: C_5  and  C_7 
REMARK    2  A    between atoms: C_7  and  N_8 
REMARK    3  A    between atoms: C_13  and  C_30 
REMARK    4  A    between atoms: C_30  and  C_31 
REMARK    5  A    between atoms: C_31  and  C_32 
ROOT
ATOM      1  N   LIG d   1       4.594  -1.004  -8.521  0.00  0.00    -0.237 N 
ATOM      2  C   LIG d   1       4.993  -2.278  -8.588  0.00  0.00     0.232 A 
ATOM      3  O   LIG d   1       5.333  -2.854  -9.601  0.00  0.00    -0.275 OA
ATOM      4  C   LIG d   1       4.957  -2.891  -7.206  0.00  0.00     0.096 A 
ATOM      5  H   LIG d   1       4.320  -3.773  -7.154  0.00  0.00     0.046 H 
ATOM      6  C   LIG d   1       6.401  -3.170  -6.739  0.00  0.00    -0.009 C 
ATOM      7  H   LIG d   1       7.113  -2.636  -7.366  0.00  0.00     0.086 H 
ATOM      8  N   LIG d   1       6.456  -2.661  -5.343  0.00  0.00     0.245 N 
ATOM      9  C   LIG d   1       5.650  -1.426  -5.377  0.00  0.00     0.106 A 
ATOM     10  C   LIG d   1       4.451  -1.725  -6.311  0.00  0.00     0.111 A 
ATOM     11  H   LIG d   1       3.538  -1.975  -5.770  0.00  0.00     0.047 H 
ATOM     12  C   LIG d   1       4.272  -0.587  -7.290  0.00  0.00     0.233 A 
ATOM     13  O   LIG d   1       3.893   0.529  -7.005  0.00  0.00    -0.275 OA
ATOM     14  C   LIG d   1       5.186  -1.034  -4.003  0.00  0.00     0.034 A 
ATOM     15  C   LIG d   1       4.421  -1.661  -3.046  0.00  0.00    -0.051 A 
ATOM     16  C   LIG d   1       4.160  -1.028  -1.844  0.00  0.00    -0.061 A 
ATOM     17  C   LIG d   1       4.668   0.237  -1.607  0.00  0.00    -0.060 A 
ATOM     18  C   LIG d   1       5.435   0.870  -2.564  0.00  0.00    -0.040 A 
ATOM     19  C   LIG d   1       5.703   0.238  -3.777  0.00  0.00     0.043 A 
ATOM     20  N   LIG d   1       6.440   0.665  -4.884  0.00  0.00    -0.280 N 
ATOM     21  C   LIG d   1       6.457  -0.256  -5.868  0.00  0.00     0.274 A 
ATOM     22  O   LIG d   1       7.018  -0.160  -6.939  0.00  0.00    -0.269 OA
ATOM     23  H   LIG d   1       6.049  -3.330  -4.707  0.00  0.00     0.203 HD
ATOM     24  H   LIG d   1       4.025  -2.647  -3.233  0.00  0.00     0.062 H 
ATOM     25  H   LIG d   1       3.560  -1.519  -1.092  0.00  0.00     0.062 H 
ATOM     26  H   LIG d   1       4.465   0.732  -0.669  0.00  0.00     0.062 H 
ATOM     27  H   LIG d   1       5.828   1.857  -2.372  0.00  0.00     0.064 H 
ATOM     28  H   LIG d   1       6.887   1.524  -4.939  0.00  0.00     0.155 HD
ATOM     29  H   LIG d   1       7.407  -2.454  -5.080  0.00  0.00     0.203 HD
ENDROOT
BRANCH   1  30
ATOM     30  C   LIG d   1       4.521  -0.132  -9.696  0.00  0.00     0.049 C 
ATOM     31  H   LIG d   1       5.429  -0.246 -10.288  0.00  0.00     0.052 H 
ATOM     32  H   LIG d   1       4.425   0.905  -9.375  0.00  0.00     0.052 H 
BRANCH  30  33
ATOM     33  C   LIG d   1       3.326  -0.513 -10.531  0.00  0.00    -0.011 A 
ATOM     34  C   LIG d   1       3.495  -0.889 -11.852  0.00  0.00     0.046 A 
ATOM     35  C   LIG d   1       2.396  -1.238 -12.617  0.00  0.00    -0.043 A 
ATOM     36 CL   LIG d   1       5.085  -0.923 -12.548  0.00  0.00    -0.083 Cl
ATOM     37  C   LIG d   1       1.131  -1.210 -12.062  0.00  0.00    -0.060 A 
ATOM     38  H   LIG d   1       2.528  -1.532 -13.648  0.00  0.00     0.063 H 
ATOM     39  C   LIG d   1       0.964  -0.835 -10.742  0.00  0.00    -0.061 A 
ATOM     40  H   LIG d   1       0.273  -1.483 -12.659  0.00  0.00     0.062 H 
ATOM     41  C   LIG d   1       2.059  -0.486  -9.977  0.00  0.00    -0.056 A 
ATOM     42  H   LIG d   1      -0.026  -0.810 -10.310  0.00  0.00     0.062 H 
ATOM     43  H   LIG d   1       1.928  -0.194  -8.946  0.00  0.00     0.062 H 
ENDBRANCH  30  33
ENDBRANCH   1  30
BRANCH   6  44
ATOM     44  C   LIG d   1       6.689  -4.673  -6.771  0.00  0.00    -0.004 C 
ATOM     45  H   LIG d   1       6.150  -5.130  -7.601  0.00  0.00     0.032 H 
ATOM     46  H   LIG d   1       7.759  -4.835  -6.898  0.00  0.00     0.032 H 
BRANCH  44  47
ATOM     47  C   LIG d   1       6.231  -5.308  -5.455  0.00  0.00    -0.008 C 
ATOM     48  H   LIG d   1       7.004  -5.982  -5.089  0.00  0.00     0.033 H 
ATOM     49  H   LIG d   1       6.052  -4.525  -4.718  0.00  0.00     0.033 H 
BRANCH  47  50
ATOM     50  C   LIG d   1       4.958  -6.080  -5.687  0.00  0.00     0.042 C 
ATOM     51  O   LIG d   1       3.918  -5.710  -5.171  0.00  0.00    -0.550 OA
ATOM     52  O   LIG d   1       4.968  -7.074  -6.393  0.00  0.00    -0.550 OA
ENDBRANCH  47  50
ENDBRANCH  44  47
ENDBRANCH   6  44
TORSDOF 5
ENDMDL
MODEL 4
REMARK VINA RESULT:      -7.6      2.612      5.164
REMARK  5 active torsions:
REMARK  status: ('A' for Active; 'I' for Inactive)
REMARK    1  A    between atoms: C_5  and  C_7 
REMARK    2  A    between atoms: C_7  and  N_8 
REMARK    3  A    between atoms: C_13  and  C_30 
REMARK    4  A    between atoms: C_30  and  C_31 
REMARK    5  A    between atoms: C_31  and  C_32 
ROOT
ATOM      1  N   LIG d   1       6.634  -2.553  -5.547  0.00  0.00    -0.237 N 
ATOM      2  C   LIG d   1       5.783  -2.425  -4.522  0.00  0.00     0.232 A 
ATOM      3  O   LIG d   1       6.061  -2.602  -3.355  0.00  0.00    -0.275 OA
ATOM      4  C   LIG d   1       4.422  -2.023  -5.045  0.00  0.00     0.096 A 
ATOM      5  H   LIG d   1       3.639  -2.725  -4.762  0.00  0.00     0.046 H 
ATOM      6  C   LIG d   1       4.117  -0.577  -4.600  0.00  0.00    -0.009 C 
ATOM      7  H   LIG d   1       5.025  -0.086  -4.254  0.00  0.00     0.086 H 
ATOM      8  N   LIG d   1       3.597   0.096  -5.820  0.00  0.00     0.245 N 
ATOM      9  C   LIG d   1       4.426  -0.448  -6.913  0.00  0.00     0.106 A 
ATOM     10  C   LIG d   1       4.639  -1.946  -6.582  0.00  0.00     0.111 A 
ATOM     11  H   LIG d   1       3.970  -2.606  -7.135  0.00  0.00     0.047 H 
ATOM     12  C   LIG d   1       6.098  -2.301  -6.747  0.00  0.00     0.233 A 
ATOM     13  O   LIG d   1       6.692  -2.353  -7.804  0.00  0.00    -0.275 OA
ATOM     14  C   LIG d   1       3.759  -0.273  -8.248  0.00  0.00     0.034 A 
ATOM     15  C   LIG d   1       2.558  -0.699  -8.771  0.00  0.00    -0.051 A 
ATOM     16  C   LIG d   1       2.212  -0.368 -10.069  0.00  0.00    -0.061 A 
ATOM     17  C   LIG d   1       3.075   0.391 -10.839  0.00  0.00    -0.060 A 
ATOM     18  C   LIG d   1       4.279   0.820 -10.319  0.00  0.00    -0.040 A 
ATOM     19  C   LIG d   1       4.635   0.491  -9.013  0.00  0.00     0.043 A 
ATOM     20  N   LIG d   1       5.778   0.801  -8.273  0.00  0.00    -0.280 N 
ATOM     21  C   LIG d   1       5.733   0.287  -7.028  0.00  0.00     0.274 A 
ATOM     22  O   LIG d   1       6.581   0.396  -6.169  0.00  0.00    -0.269 OA
ATOM     23  H   LIG d   1       2.626  -0.137  -5.965  0.00  0.00     0.203 HD
ATOM     24  H   LIG d   1       1.888  -1.292  -8.168  0.00  0.00     0.062 H 
ATOM     25  H   LIG d   1       1.272  -0.702 -10.480  0.00  0.00     0.062 H 
ATOM     26  H   LIG d   1       2.805   0.650 -11.852  0.00  0.00     0.062 H 
ATOM     27  H   LIG d   1       4.947   1.412 -10.926  0.00  0.00     0.064 H 
ATOM     28  H   LIG d   1       6.519   1.326  -8.616  0.00  0.00     0.155 HD
ATOM     29  H   LIG d   1       3.717   1.094  -5.750  0.00  0.00     0.203 HD
ENDROOT
BRANCH   1  30
ATOM     30  C   LIG d   1       8.038  -2.931  -5.369  0.00  0.00     0.049 C 
ATOM     31  H   LIG d   1       8.453  -2.396  -4.516  0.00  0.00     0.052 H 
ATOM     32  H   LIG d   1       8.599  -2.675  -6.267  0.00  0.00     0.052 H 
BRANCH  30  33
ATOM     33  C   LIG d   1       8.131  -4.415  -5.125  0.00  0.00    -0.011 A 
ATOM     34  C   LIG d   1       8.887  -4.897  -4.070  0.00  0.00     0.046 A 
ATOM     35  C   LIG d   1       8.971  -6.260  -3.847  0.00  0.00    -0.043 A 
ATOM     36 CL   LIG d   1       9.726  -3.792  -3.028  0.00  0.00    -0.083 Cl
ATOM     37  C   LIG d   1       8.303  -7.139  -4.677  0.00  0.00    -0.060 A 
ATOM     38  H   LIG d   1       9.561  -6.636  -3.023  0.00  0.00     0.063 H 
ATOM     39  C   LIG d   1       7.548  -6.657  -5.730  0.00  0.00    -0.061 A 
ATOM     40  H   LIG d   1       8.369  -8.203  -4.503  0.00  0.00     0.062 H 
ATOM     41  C   LIG d   1       7.462  -5.296  -5.954  0.00  0.00    -0.056 A 
ATOM     42  H   LIG d   1       7.028  -7.344  -6.380  0.00  0.00     0.062 H 
ATOM     43  H   LIG d   1       6.872  -4.920  -6.777  0.00  0.00     0.062 H 
ENDBRANCH  30  33
ENDBRANCH   1  30
BRANCH   6  44
ATOM     44  C   LIG d   1       3.057  -0.573  -3.496  0.00  0.00    -0.004 C 
ATOM     45  H   LIG d   1       2.180  -0.021  -3.834  0.00  0.00     0.032 H 
ATOM     46  H   LIG d   1       2.774  -1.598  -3.261  0.00  0.00     0.032 H 
BRANCH  44  47
ATOM     47  C   LIG d   1       3.628   0.097  -2.244  0.00  0.00    -0.008 C 
ATOM     48  H   LIG d   1       2.815   0.349  -1.564  0.00  0.00     0.033 H 
ATOM     49  H   LIG d   1       4.317  -0.588  -1.748  0.00  0.00     0.033 H 
BRANCH  47  50
ATOM     50  C   LIG d   1       4.363   1.352  -2.636  0.00  0.00     0.042 C 
ATOM     51  O   LIG d   1       5.528   1.503  -2.313  0.00  0.00    -0.550 OA
ATOM     52  O   LIG d   1       3.792   2.217  -3.280  0.00  0.00    -0.550 OA
ENDBRANCH  47  50
ENDBRANCH  44  47
ENDBRANCH   6  44
TORSDOF 5
ENDMDL
MODEL 5
REMARK VINA RESULT:      -7.5      3.218      6.929
REMARK  5 active torsions:
REMARK  status: ('A' for Active; 'I' for Inactive)
REMARK    1  A    between atoms: C_5  and  C_7 
REMARK    2  A    between atoms: C_7  and  N_8 
REMARK    3  A    between atoms: C_13  and  C_30 
REMARK    4  A    between atoms: C_30  and  C_31 
REMARK    5  A    between atoms: C_31  and  C_32 
ROOT
ATOM      1  N   LIG d   1       7.151  -0.259  -8.018  0.00  0.00    -0.237 N 
ATOM      2  C   LIG d   1       8.055  -1.241  -7.930  0.00  0.00     0.232 A 
ATOM      3  O   LIG d   1       8.933  -1.459  -8.737  0.00  0.00    -0.275 OA
ATOM      4  C   LIG d   1       7.813  -2.036  -6.666  0.00  0.00     0.096 A 
ATOM      5  H   LIG d   1       7.641  -3.094  -6.862  0.00  0.00     0.046 H 
ATOM      6  C   LIG d   1       8.979  -1.792  -5.685  0.00  0.00    -0.009 C 
ATOM      7  H   LIG d   1       9.560  -0.924  -5.993  0.00  0.00     0.086 H 
ATOM      8  N   LIG d   1       8.326  -1.540  -4.372  0.00  0.00     0.245 N 
ATOM      9  C   LIG d   1       7.134  -0.739  -4.710  0.00  0.00     0.106 A 
ATOM     10  C   LIG d   1       6.582  -1.331  -6.031  0.00  0.00     0.111 A 
ATOM     11  H   LIG d   1       5.741  -2.007  -5.878  0.00  0.00     0.047 H 
ATOM     12  C   LIG d   1       6.281  -0.213  -7.002  0.00  0.00     0.233 A 
ATOM     13  O   LIG d   1       5.387   0.598  -6.882  0.00  0.00    -0.275 OA
ATOM     14  C   LIG d   1       6.107  -0.795  -3.615  0.00  0.00     0.034 A 
ATOM     15  C   LIG d   1       5.408  -1.822  -3.022  0.00  0.00    -0.051 A 
ATOM     16  C   LIG d   1       4.506  -1.551  -2.009  0.00  0.00    -0.061 A 
ATOM     17  C   LIG d   1       4.306  -0.247  -1.595  0.00  0.00    -0.060 A 
ATOM     18  C   LIG d   1       5.004   0.787  -2.187  0.00  0.00    -0.040 A 
ATOM     19  C   LIG d   1       5.915   0.522  -3.208  0.00  0.00     0.043 A 
ATOM     20  N   LIG d   1       6.727   1.382  -3.951  0.00  0.00    -0.280 N 
ATOM     21  C   LIG d   1       7.476   0.719  -4.854  0.00  0.00     0.274 A 
ATOM     22  O   LIG d   1       8.270   1.204  -5.631  0.00  0.00    -0.269 OA
ATOM     23  H   LIG d   1       8.055  -2.410  -3.940  0.00  0.00     0.203 HD
ATOM     24  H   LIG d   1       5.565  -2.839  -3.347  0.00  0.00     0.062 H 
ATOM     25  H   LIG d   1       3.958  -2.356  -1.543  0.00  0.00     0.062 H 
ATOM     26  H   LIG d   1       3.602  -0.035  -0.805  0.00  0.00     0.062 H 
ATOM     27  H   LIG d   1       4.842   1.803  -1.859  0.00  0.00     0.064 H 
ATOM     28  H   LIG d   1       6.751   2.344  -3.829  0.00  0.00     0.155 HD
ATOM     29  H   LIG d   1       8.942  -1.019  -3.767  0.00  0.00     0.203 HD
ENDROOT
BRANCH   1  30
ATOM     30  C   LIG d   1       7.120   0.692  -9.132  0.00  0.00     0.049 C 
ATOM     31  H   LIG d   1       8.065   0.649  -9.672  0.00  0.00     0.052 H 
ATOM     32  H   LIG d   1       6.969   1.700  -8.744  0.00  0.00     0.052 H 
BRANCH  30  33
ATOM     33  C   LIG d   1       5.991   0.338 -10.064  0.00  0.00    -0.011 A 
ATOM     34  C   LIG d   1       4.901   1.183 -10.183  0.00  0.00     0.046 A 
ATOM     35  C   LIG d   1       3.864   0.856 -11.040  0.00  0.00    -0.043 A 
ATOM     36 CL   LIG d   1       4.835   2.651  -9.260  0.00  0.00    -0.083 Cl
ATOM     37  C   LIG d   1       3.918  -0.313 -11.775  0.00  0.00    -0.060 A 
ATOM     38  H   LIG d   1       3.014   1.515 -11.134  0.00  0.00     0.063 H 
ATOM     39  C   LIG d   1       5.007  -1.156 -11.655  0.00  0.00    -0.061 A 
ATOM     40  H   LIG d   1       3.109  -0.568 -12.444  0.00  0.00     0.062 H 
ATOM     41  C   LIG d   1       6.042  -0.831 -10.800  0.00  0.00    -0.056 A 
ATOM     42  H   LIG d   1       5.047  -2.071 -12.227  0.00  0.00     0.062 H 
ATOM     43  H   LIG d   1       6.894  -1.490 -10.707  0.00  0.00     0.062 H 
ENDBRANCH  30  33
ENDBRANCH   1  30
BRANCH   6  44
ATOM     44  C   LIG d   1       9.875  -3.030  -5.606  0.00  0.00    -0.004 C 
ATOM     45  H   LIG d   1       9.302  -3.871  -5.216  0.00  0.00     0.032 H 
ATOM     46  H   LIG d   1      10.246  -3.273  -6.601  0.00  0.00     0.032 H 
BRANCH  44  47
ATOM     47  C   LIG d   1      11.058  -2.745  -4.678  0.00  0.00    -0.008 C 
ATOM     48  H   LIG d   1      11.990  -2.858  -5.231  0.00  0.00     0.033 H 
ATOM     49  H   LIG d   1      10.983  -1.726  -4.297  0.00  0.00     0.033 H 
BRANCH  47  50
ATOM     50  C   LIG d   1      11.037  -3.715  -3.525  0.00  0.00     0.042 C 
ATOM     51  O   LIG d   1      10.014  -3.875  -2.882  0.00  0.00    -0.550 OA
ATOM     52  O   LIG d   1      12.043  -4.341  -3.236  0.00  0.00    -0.550 OA
ENDBRANCH  47  50
ENDBRANCH  44  47
ENDBRANCH   6  44
TORSDOF 5
ENDMDL
MODEL 6
REMARK VINA RESULT:      -7.3      2.436      6.283
REMARK  5 active torsions:
REMARK  status: ('A' for Active; 'I' for Inactive)
REMARK    1  A    between atoms: C_5  and  C_7 
REMARK    2  A    between atoms: C_7  and  N_8 
REMARK    3  A    between atoms: C_13  and  C_30 
REMARK    4  A    between atoms: C_30  and  C_31 
REMARK    5  A    between atoms: C_31  and  C_32 
ROOT
ATOM      1  N   LIG d   1       6.623  -0.885  -7.024  0.00  0.00    -0.237 N 
ATOM      2  C   LIG d   1       6.286  -0.561  -5.771  0.00  0.00     0.232 A 
ATOM      3  O   LIG d   1       6.269   0.565  -5.320  0.00  0.00    -0.275 OA
ATOM      4  C   LIG d   1       5.927  -1.814  -5.006  0.00  0.00     0.096 A 
ATOM      5  H   LIG d   1       6.539  -1.951  -4.114  0.00  0.00     0.046 H 
ATOM      6  C   LIG d   1       4.416  -1.803  -4.697  0.00  0.00    -0.009 C 
ATOM      7  H   LIG d   1       3.908  -1.059  -5.309  0.00  0.00     0.086 H 
ATOM      8  N   LIG d   1       3.945  -3.170  -5.046  0.00  0.00     0.245 N 
ATOM      9  C   LIG d   1       4.702  -3.513  -6.264  0.00  0.00     0.106 A 
ATOM     10  C   LIG d   1       6.127  -2.943  -6.055  0.00  0.00     0.111 A 
ATOM     11  H   LIG d   1       6.846  -3.696  -5.733  0.00  0.00     0.047 H 
ATOM     12  C   LIG d   1       6.562  -2.195  -7.294  0.00  0.00     0.233 A 
ATOM     13  O   LIG d   1       6.821  -2.702  -8.365  0.00  0.00    -0.275 OA
ATOM     14  C   LIG d   1       4.736  -4.997  -6.491  0.00  0.00     0.034 A 
ATOM     15  C   LIG d   1       5.199  -6.060  -5.748  0.00  0.00    -0.051 A 
ATOM     16  C   LIG d   1       5.084  -7.349  -6.238  0.00  0.00    -0.061 A 
ATOM     17  C   LIG d   1       4.505  -7.567  -7.474  0.00  0.00    -0.060 A 
ATOM     18  C   LIG d   1       4.040  -6.505  -8.223  0.00  0.00    -0.040 A 
ATOM     19  C   LIG d   1       4.151  -5.204  -7.737  0.00  0.00     0.043 A 
ATOM     20  N   LIG d   1       3.762  -3.985  -8.298  0.00  0.00    -0.280 N 
ATOM     21  C   LIG d   1       4.051  -2.942  -7.494  0.00  0.00     0.274 A 
ATOM     22  O   LIG d   1       3.827  -1.772  -7.719  0.00  0.00    -0.269 OA
ATOM     23  H   LIG d   1       4.160  -3.818  -4.303  0.00  0.00     0.203 HD
ATOM     24  H   LIG d   1       5.651  -5.887  -4.784  0.00  0.00     0.062 H 
ATOM     25  H   LIG d   1       5.447  -8.183  -5.656  0.00  0.00     0.062 H 
ATOM     26  H   LIG d   1       4.415  -8.573  -7.857  0.00  0.00     0.062 H 
ATOM     27  H   LIG d   1       3.589  -6.683  -9.188  0.00  0.00     0.064 H 
ATOM     28  H   LIG d   1       3.334  -3.899  -9.164  0.00  0.00     0.155 HD
ATOM     29  H   LIG d   1       2.955  -3.164  -5.236  0.00  0.00     0.203 HD
ENDROOT
BRANCH   1  30
ATOM     30  C   LIG d   1       7.020   0.112  -8.022  0.00  0.00     0.049 C 
ATOM     31  H   LIG d   1       7.786  -0.311  -8.672  0.00  0.00     0.052 H 
ATOM     32  H   LIG d   1       7.418   0.992  -7.517  0.00  0.00     0.052 H 
BRANCH  30  33
ATOM     33  C   LIG d   1       5.821   0.504  -8.846  0.00  0.00    -0.011 A 
ATOM     34  C   LIG d   1       5.758   0.157 -10.184  0.00  0.00     0.046 A 
ATOM     35  C   LIG d   1       4.656   0.518 -10.940  0.00  0.00    -0.043 A 
ATOM     36 CL   LIG d   1       7.058  -0.731 -10.914  0.00  0.00    -0.083 Cl
ATOM     37  C   LIG d   1       3.621   1.225 -10.358  0.00  0.00    -0.060 A 
ATOM     38  H   LIG d   1       4.605   0.247 -11.984  0.00  0.00     0.063 H 
ATOM     39  C   LIG d   1       3.685   1.570  -9.021  0.00  0.00    -0.061 A 
ATOM     40  H   LIG d   1       2.761   1.507 -10.948  0.00  0.00     0.062 H 
ATOM     41  C   LIG d   1       4.785   1.211  -8.266  0.00  0.00    -0.056 A 
ATOM     42  H   LIG d   1       2.877   2.126  -8.568  0.00  0.00     0.062 H 
ATOM     43  H   LIG d   1       4.834   1.481  -7.221  0.00  0.00     0.062 H 
ENDBRANCH  30  33
ENDBRANCH   1  30
BRANCH   6  44
ATOM     44  C   LIG d   1       4.178  -1.519  -3.212  0.00  0.00    -0.004 C 
ATOM     45  H   LIG d   1       4.036  -2.460  -2.679  0.00  0.00     0.032 H 
ATOM     46  H   LIG d   1       5.040  -0.995  -2.800  0.00  0.00     0.032 H 
BRANCH  44  47
ATOM     47  C   LIG d   1       2.929  -0.650  -3.052  0.00  0.00    -0.008 C 
ATOM     48  H   LIG d   1       2.270  -0.801  -3.906  0.00  0.00     0.033 H 
ATOM     49  H   LIG d   1       2.407  -0.929  -2.136  0.00  0.00     0.033 H 
BRANCH  47  50
ATOM     50  C   LIG d   1       3.332   0.800  -2.977  0.00  0.00     0.042 C 
ATOM     51  O   LIG d   1       3.648   1.290  -1.907  0.00  0.00    -0.550 OA
ATOM     52  O   LIG d   1       3.344   1.482  -3.988  0.00  0.00    -0.550 OA
ENDBRANCH  47  50
ENDBRANCH  44  47
ENDBRANCH   6  44
TORSDOF 5
ENDMDL
MODEL 7
REMARK VINA RESULT:      -7.2      2.629      5.943
REMARK  5 active torsions:
REMARK  status: ('A' for Active; 'I' for Inactive)
REMARK    1  A    between atoms: C_5  and  C_7 
REMARK    2  A    between atoms: C_7  and  N_8 
REMARK    3  A    between atoms: C_13  and  C_30 
REMARK    4  A    between atoms: C_30  and  C_31 
REMARK    5  A    between atoms: C_31  and  C_32 
ROOT
ATOM      1  N   LIG d   1       6.823  -3.259  -7.138  0.00  0.00    -0.237 N 
ATOM      2  C   LIG d   1       6.184  -2.647  -8.141  0.00  0.00     0.232 A 
ATOM      3  O   LIG d   1       6.099  -3.066  -9.276  0.00  0.00    -0.275 OA
ATOM      4  C   LIG d   1       5.583  -1.353  -7.641  0.00  0.00     0.096 A 
ATOM      5  H   LIG d   1       5.933  -0.484  -8.197  0.00  0.00     0.046 H 
ATOM      6  C   LIG d   1       4.045  -1.478  -7.636  0.00  0.00    -0.009 C 
ATOM      7  H   LIG d   1       3.749  -2.522  -7.730  0.00  0.00     0.086 H 
ATOM      8  N   LIG d   1       3.622  -0.936  -6.317  0.00  0.00     0.245 N 
ATOM      9  C   LIG d   1       4.656  -1.417  -5.381  0.00  0.00     0.106 A 
ATOM     10  C   LIG d   1       6.001  -1.320  -6.144  0.00  0.00     0.111 A 
ATOM     11  H   LIG d   1       6.576  -0.431  -5.886  0.00  0.00     0.047 H 
ATOM     12  C   LIG d   1       6.777  -2.605  -5.970  0.00  0.00     0.233 A 
ATOM     13  O   LIG d   1       7.284  -2.984  -4.936  0.00  0.00    -0.275 OA
ATOM     14  C   LIG d   1       4.682  -0.597  -4.123  0.00  0.00     0.034 A 
ATOM     15  C   LIG d   1       4.888   0.741  -3.867  0.00  0.00    -0.051 A 
ATOM     16  C   LIG d   1       4.849   1.210  -2.566  0.00  0.00    -0.061 A 
ATOM     17  C   LIG d   1       4.604   0.334  -1.524  0.00  0.00    -0.060 A 
ATOM     18  C   LIG d   1       4.398  -1.007  -1.776  0.00  0.00    -0.040 A 
ATOM     19  C   LIG d   1       4.435  -1.488  -3.083  0.00  0.00     0.043 A 
ATOM     20  N   LIG d   1       4.261  -2.780  -3.585  0.00  0.00    -0.280 N 
ATOM     21  C   LIG d   1       4.375  -2.823  -4.927  0.00  0.00     0.274 A 
ATOM     22  O   LIG d   1       4.269  -3.804  -5.631  0.00  0.00    -0.269 OA
ATOM     23  H   LIG d   1       3.607   0.073  -6.338  0.00  0.00     0.203 HD
ATOM     24  H   LIG d   1       5.080   1.422  -4.681  0.00  0.00     0.062 H 
ATOM     25  H   LIG d   1       5.010   2.259  -2.364  0.00  0.00     0.062 H 
ATOM     26  H   LIG d   1       4.573   0.700  -0.509  0.00  0.00     0.062 H 
ATOM     27  H   LIG d   1       4.207  -1.685  -0.958  0.00  0.00     0.064 H 
ATOM     28  H   LIG d   1       4.078  -3.556  -3.032  0.00  0.00     0.155 HD
ATOM     29  H   LIG d   1       2.718  -1.299  -6.061  0.00  0.00     0.203 HD
ENDROOT
BRANCH   1  30
ATOM     30  C   LIG d   1       7.510  -4.542  -7.301  0.00  0.00     0.049 C 
ATOM     31  H   LIG d   1       8.401  -4.559  -6.673  0.00  0.00     0.052 H 
ATOM     32  H   LIG d   1       7.799  -4.669  -8.344  0.00  0.00     0.052 H 
BRANCH  30  33
ATOM     33  C   LIG d   1       6.588  -5.662  -6.895  0.00  0.00    -0.011 A 
ATOM     34  C   LIG d   1       6.853  -6.398  -5.754  0.00  0.00     0.046 A 
ATOM     35  C   LIG d   1       6.004  -7.427  -5.383  0.00  0.00    -0.043 A 
ATOM     36 CL   LIG d   1       8.247  -6.030  -4.788  0.00  0.00    -0.083 Cl
ATOM     37  C   LIG d   1       4.895  -7.718  -6.152  0.00  0.00    -0.060 A 
ATOM     38  H   LIG d   1       6.210  -8.001  -4.491  0.00  0.00     0.063 H 
ATOM     39  C   LIG d   1       4.631  -6.982  -7.292  0.00  0.00    -0.061 A 
ATOM     40  H   LIG d   1       4.232  -8.521  -5.862  0.00  0.00     0.062 H 
ATOM     41  C   LIG d   1       5.476  -5.955  -7.664  0.00  0.00    -0.056 A 
ATOM     42  H   LIG d   1       3.765  -7.213  -7.895  0.00  0.00     0.062 H 
ATOM     43  H   LIG d   1       5.269  -5.380  -8.554  0.00  0.00     0.062 H 
ENDBRANCH  30  33
ENDBRANCH   1  30
BRANCH   6  44
ATOM     44  C   LIG d   1       3.441  -0.650  -8.772  0.00  0.00    -0.004 C 
ATOM     45  H   LIG d   1       4.100  -0.685  -9.639  0.00  0.00     0.032 H 
ATOM     46  H   LIG d   1       2.467  -1.057  -9.040  0.00  0.00     0.032 H 
BRANCH  44  47
ATOM     47  C   LIG d   1       3.278   0.802  -8.315  0.00  0.00    -0.008 C 
ATOM     48  H   LIG d   1       2.229   1.088  -8.383  0.00  0.00     0.033 H 
ATOM     49  H   LIG d   1       3.615   0.896  -7.282  0.00  0.00     0.033 H 
BRANCH  47  50
ATOM     50  C   LIG d   1       4.104   1.702  -9.197  0.00  0.00     0.042 C 
ATOM     51  O   LIG d   1       3.727   1.963 -10.325  0.00  0.00    -0.550 OA
ATOM     52  O   LIG d   1       5.150   2.171  -8.780  0.00  0.00    -0.550 OA
ENDBRANCH  47  50
ENDBRANCH  44  47
ENDBRANCH   6  44
TORSDOF 5
ENDMDL
MODEL 8
REMARK VINA RESULT:      -7.0      1.922      4.817
REMARK  5 active torsions:
REMARK  status: ('A' for Active; 'I' for Inactive)
REMARK    1  A    between atoms: C_5  and  C_7 
REMARK    2  A    between atoms: C_7  and  N_8 
REMARK    3  A    between atoms: C_13  and  C_30 
REMARK    4  A    between atoms: C_30  and  C_31 
REMARK    5  A    between atoms: C_31  and  C_32 
ROOT
ATOM      1  N   LIG d   1       5.297  -1.661  -6.002  0.00  0.00    -0.237 N 
ATOM      2  C   LIG d   1       5.430  -0.653  -6.872  0.00  0.00     0.232 A 
ATOM      3  O   LIG d   1       6.077   0.355  -6.681  0.00  0.00    -0.275 OA
ATOM      4  C   LIG d   1       4.652  -0.967  -8.130  0.00  0.00     0.096 A 
ATOM      5  H   LIG d   1       3.905  -0.209  -8.363  0.00  0.00     0.046 H 
ATOM      6  C   LIG d   1       5.641  -1.206  -9.290  0.00  0.00    -0.009 C 
ATOM      7  H   LIG d   1       6.648  -1.360  -8.905  0.00  0.00     0.086 H 
ATOM      8  N   LIG d   1       5.150  -2.438  -9.963  0.00  0.00     0.245 N 
ATOM      9  C   LIG d   1       4.701  -3.301  -8.853  0.00  0.00     0.106 A 
ATOM     10  C   LIG d   1       4.027  -2.358  -7.826  0.00  0.00     0.111 A 
ATOM     11  H   LIG d   1       2.940  -2.356  -7.896  0.00  0.00     0.047 H 
ATOM     12  C   LIG d   1       4.536  -2.672  -6.437  0.00  0.00     0.233 A 
ATOM     13  O   LIG d   1       4.289  -3.682  -5.813  0.00  0.00    -0.275 OA
ATOM     14  C   LIG d   1       3.747  -4.358  -9.331  0.00  0.00     0.034 A 
ATOM     15  C   LIG d   1       2.526  -4.317  -9.965  0.00  0.00    -0.051 A 
ATOM     16  C   LIG d   1       1.873  -5.493 -10.287  0.00  0.00    -0.061 A 
ATOM     17  C   LIG d   1       2.448  -6.710  -9.969  0.00  0.00    -0.060 A 
ATOM     18  C   LIG d   1       3.672  -6.756  -9.333  0.00  0.00    -0.040 A 
ATOM     19  C   LIG d   1       4.337  -5.576  -9.006  0.00  0.00     0.043 A 
ATOM     20  N   LIG d   1       5.564  -5.366  -8.372  0.00  0.00    -0.280 N 
ATOM     21  C   LIG d   1       5.851  -4.055  -8.244  0.00  0.00     0.274 A 
ATOM     22  O   LIG d   1       6.844  -3.579  -7.738  0.00  0.00    -0.269 OA
ATOM     23  H   LIG d   1       4.379  -2.222 -10.576  0.00  0.00     0.203 HD
ATOM     24  H   LIG d   1       2.078  -3.366 -10.211  0.00  0.00     0.062 H 
ATOM     25  H   LIG d   1       0.915  -5.462 -10.784  0.00  0.00     0.062 H 
ATOM     26  H   LIG d   1       1.939  -7.628 -10.220  0.00  0.00     0.062 H 
ATOM     27  H   LIG d   1       4.115  -7.710  -9.088  0.00  0.00     0.064 H 
ATOM     28  H   LIG d   1       6.141  -6.080  -8.060  0.00  0.00     0.155 HD
ATOM     29  H   LIG d   1       5.897  -2.882 -10.474  0.00  0.00     0.203 HD
ENDROOT
BRANCH   1  30
ATOM     30  C   LIG d   1       5.935  -1.660  -4.684  0.00  0.00     0.049 C 
ATOM     31  H   LIG d   1       6.969  -1.331  -4.782  0.00  0.00     0.052 H 
ATOM     32  H   LIG d   1       5.913  -2.668  -4.269  0.00  0.00     0.052 H 
BRANCH  30  33
ATOM     33  C   LIG d   1       5.194  -0.723  -3.766  0.00  0.00    -0.011 A 
ATOM     34  C   LIG d   1       5.837   0.384  -3.240  0.00  0.00     0.046 A 
ATOM     35  C   LIG d   1       5.155   1.244  -2.397  0.00  0.00    -0.043 A 
ATOM     36 CL   LIG d   1       7.498   0.693  -3.638  0.00  0.00    -0.083 Cl
ATOM     37  C   LIG d   1       3.833   0.997  -2.082  0.00  0.00    -0.060 A 
ATOM     38  H   LIG d   1       5.657   2.108  -1.987  0.00  0.00     0.063 H 
ATOM     39  C   LIG d   1       3.191  -0.108  -2.608  0.00  0.00    -0.061 A 
ATOM     40  H   LIG d   1       3.301   1.669  -1.424  0.00  0.00     0.062 H 
ATOM     41  C   LIG d   1       3.871  -0.967  -3.449  0.00  0.00    -0.056 A 
ATOM     42  H   LIG d   1       2.159  -0.302  -2.358  0.00  0.00     0.062 H 
ATOM     43  H   LIG d   1       3.369  -1.831  -3.861  0.00  0.00     0.062 H 
ENDBRANCH  30  33
ENDBRANCH   1  30
BRANCH   6  44
ATOM     44  C   LIG d   1       5.619  -0.023 -10.260  0.00  0.00    -0.004 C 
ATOM     45  H   LIG d   1       6.509   0.588 -10.111  0.00  0.00     0.032 H 
ATOM     46  H   LIG d   1       5.600  -0.393 -11.284  0.00  0.00     0.032 H 
BRANCH  44  47
ATOM     47  C   LIG d   1       4.371   0.825 -10.002  0.00  0.00    -0.008 C 
ATOM     48  H   LIG d   1       3.867   1.027 -10.946  0.00  0.00     0.033 H 
ATOM     49  H   LIG d   1       3.695   0.283  -9.338  0.00  0.00     0.033 H 
BRANCH  47  50
ATOM     50  C   LIG d   1       4.772   2.125  -9.356  0.00  0.00     0.042 C 
ATOM     51  O   LIG d   1       5.943   2.463  -9.340  0.00  0.00    -0.550 OA
ATOM     52  O   LIG d   1       3.924   2.842  -8.850  0.00  0.00    -0.550 OA
ENDBRANCH  47  50
ENDBRANCH  44  47
ENDBRANCH   6  44
TORSDOF 5
ENDMDL
MODEL 9
REMARK VINA RESULT:      -7.0      2.709      5.536
REMARK  5 active torsions:
REMARK  status: ('A' for Active; 'I' for Inactive)
REMARK    1  A    between atoms: C_5  and  C_7 
REMARK    2  A    between atoms: C_7  and  N_8 
REMARK    3  A    between atoms: C_13  and  C_30 
REMARK    4  A    between atoms: C_30  and  C_31 
REMARK    5  A    between atoms: C_31  and  C_32 
ROOT
ATOM      1  N   LIG d   1       6.406  -3.586  -6.446  0.00  0.00    -0.237 N 
ATOM      2  C   LIG d   1       6.352  -3.128  -5.190  0.00  0.00     0.232 A 
ATOM      3  O   LIG d   1       6.947  -3.603  -4.245  0.00  0.00    -0.275 OA
ATOM      4  C   LIG d   1       5.438  -1.926  -5.131  0.00  0.00     0.096 A 
ATOM      5  H   LIG d   1       4.616  -2.057  -4.428  0.00  0.00     0.046 H 
ATOM      6  C   LIG d   1       6.278  -0.665  -4.838  0.00  0.00    -0.009 C 
ATOM      7  H   LIG d   1       7.335  -0.867  -5.002  0.00  0.00     0.086 H 
ATOM      8  N   LIG d   1       5.788   0.354  -5.805  0.00  0.00     0.245 N 
ATOM      9  C   LIG d   1       5.551  -0.410  -7.044  0.00  0.00     0.106 A 
ATOM     10  C   LIG d   1       4.957  -1.770  -6.601  0.00  0.00     0.111 A 
ATOM     11  H   LIG d   1       3.872  -1.814  -6.696  0.00  0.00     0.047 H 
ATOM     12  C   LIG d   1       5.666  -2.894  -7.320  0.00  0.00     0.233 A 
ATOM     13  O   LIG d   1       5.575  -3.135  -8.506  0.00  0.00    -0.275 OA
ATOM     14  C   LIG d   1       4.618   0.318  -7.968  0.00  0.00     0.034 A 
ATOM     15  C   LIG d   1       3.323   0.770  -7.845  0.00  0.00    -0.051 A 
ATOM     16  C   LIG d   1       2.716   1.426  -8.901  0.00  0.00    -0.061 A 
ATOM     17  C   LIG d   1       3.411   1.627 -10.080  0.00  0.00    -0.060 A 
ATOM     18  C   LIG d   1       4.709   1.175 -10.208  0.00  0.00    -0.040 A 
ATOM     19  C   LIG d   1       5.328   0.514  -9.149  0.00  0.00     0.043 A 
ATOM     20  N   LIG d   1       6.611  -0.028  -9.037  0.00  0.00    -0.280 N 
ATOM     21  C   LIG d   1       6.821  -0.589  -7.830  0.00  0.00     0.274 A 
ATOM     22  O   LIG d   1       7.837  -1.131  -7.451  0.00  0.00    -0.269 OA
ATOM     23  H   LIG d   1       4.929   0.768  -5.476  0.00  0.00     0.203 HD
ATOM     24  H   LIG d   1       2.781   0.612  -6.925  0.00  0.00     0.062 H 
ATOM     25  H   LIG d   1       1.700   1.781  -8.806  0.00  0.00     0.062 H 
ATOM     26  H   LIG d   1       2.937   2.139 -10.904  0.00  0.00     0.062 H 
ATOM     27  H   LIG d   1       5.246   1.334 -11.131  0.00  0.00     0.064 H 
ATOM     28  H   LIG d   1       7.273  -0.003  -9.746  0.00  0.00     0.155 HD
ATOM     29  H   LIG d   1       6.489   1.062  -5.955  0.00  0.00     0.203 HD
ENDROOT
BRANCH   1  30
ATOM     30  C   LIG d   1       7.213  -4.746  -6.833  0.00  0.00     0.049 C 
ATOM     31  H   LIG d   1       8.184  -4.692  -6.342  0.00  0.00     0.052 H 
ATOM     32  H   LIG d   1       7.351  -4.747  -7.914  0.00  0.00     0.052 H 
BRANCH  30  33
ATOM     33  C   LIG d   1       6.508  -6.010  -6.416  0.00  0.00    -0.011 A 
ATOM     34  C   LIG d   1       7.093  -6.855  -5.488  0.00  0.00     0.046 A 
ATOM     35  C   LIG d   1       6.444  -8.016  -5.106  0.00  0.00    -0.043 A 
ATOM     36 CL   LIG d   1       8.637  -6.456  -4.803  0.00  0.00    -0.083 Cl
ATOM     37  C   LIG d   1       5.215  -8.332  -5.651  0.00  0.00    -0.060 A 
ATOM     38  H   LIG d   1       6.900  -8.675  -4.381  0.00  0.00     0.063 H 
ATOM     39  C   LIG d   1       4.632  -7.488  -6.578  0.00  0.00    -0.061 A 
ATOM     40  H   LIG d   1       4.709  -9.239  -5.353  0.00  0.00     0.062 H 
ATOM     41  C   LIG d   1       5.278  -6.329  -6.960  0.00  0.00    -0.056 A 
ATOM     42  H   LIG d   1       3.673  -7.738  -7.006  0.00  0.00     0.062 H 
ATOM     43  H   LIG d   1       4.822  -5.669  -7.684  0.00  0.00     0.062 H 
ENDBRANCH  30  33
ENDBRANCH   1  30
BRANCH   6  44
ATOM     44  C   LIG d   1       6.044  -0.193  -3.401  0.00  0.00    -0.004 C 
ATOM     45  H   LIG d   1       6.744  -0.696  -2.734  0.00  0.00     0.032 H 
ATOM     46  H   LIG d   1       6.198   0.884  -3.343  0.00  0.00     0.032 H 
BRANCH  44  47
ATOM     47  C   LIG d   1       4.611  -0.526  -2.981  0.00  0.00    -0.008 C 
ATOM     48  H   LIG d   1       4.191  -1.258  -3.670  0.00  0.00     0.033 H 
ATOM     49  H   LIG d   1       4.615  -0.939  -1.971  0.00  0.00     0.033 H 
BRANCH  47  50
ATOM     50  C   LIG d   1       3.776   0.727  -3.006  0.00  0.00     0.042 C 
ATOM     51  O   LIG d   1       3.343   1.150  -4.064  0.00  0.00    -0.550 OA
ATOM     52  O   LIG d   1       3.531   1.319  -1.968  0.00  0.00    -0.550 OA
ENDBRANCH  47  50
ENDBRANCH  44  47
ENDBRANCH   6  44
TORSDOF 5
ENDMDL
