MODEL 1
REMARK VINA RESULT:      -5.5      0.000      0.000
REMARK  2 active torsions:
REMARK  status: ('A' for Active; 'I' for Inactive)
REMARK    1  A    between atoms: C_1  and  N_2 
REMARK    2  A    between atoms: C_11  and  C_12 
ROOT
ATOM      1  N   LIG d   1       4.420  -0.706  -6.159  0.00  0.00    -0.192 N 
ATOM      2  C   LIG d   1       4.265  -1.102  -4.896  0.00  0.00     0.215 A 
ATOM      3  C   LIG d   1       5.173  -1.999  -4.302  0.00  0.00     0.010 A 
ATOM      4  C   LIG d   1       4.989  -2.391  -3.012  0.00  0.00    -0.056 A 
ATOM      5  C   LIG d   1       3.911  -1.917  -2.264  0.00  0.00    -0.061 A 
ATOM      6  C   LIG d   1       3.013  -1.049  -2.803  0.00  0.00    -0.048 A 
ATOM      7  C   LIG d   1       3.170  -0.622  -4.132  0.00  0.00     0.046 A 
ATOM      8  C   LIG d   1       2.261   0.276  -4.724  0.00  0.00    -0.042 A 
ATOM      9  C   LIG d   1       2.474   0.649  -6.019  0.00  0.00     0.012 A 
ATOM     10  C   LIG d   1       3.576   0.138  -6.720  0.00  0.00     0.231 A 
ATOM     11  H   LIG d   1       6.012  -2.376  -4.868  0.00  0.00     0.068 H 
ATOM     12  H   LIG d   1       5.687  -3.080  -2.561  0.00  0.00     0.062 H 
ATOM     13  H   LIG d   1       3.788  -2.245  -1.242  0.00  0.00     0.062 H 
ATOM     14  H   LIG d   1       2.182  -0.690  -2.213  0.00  0.00     0.063 H 
ATOM     15  H   LIG d   1       1.418   0.658  -4.168  0.00  0.00     0.063 H 
ATOM     16  H   LIG d   1       1.795   1.336  -6.503  0.00  0.00     0.068 H 
ENDROOT
BRANCH   1  17
ATOM     17  C   LIG d   1       5.552  -1.214  -6.938  0.00  0.00     0.142 C 
ATOM     18  H   LIG d   1       6.179  -1.840  -6.303  0.00  0.00     0.099 H 
ATOM     19  H   LIG d   1       5.181  -1.804  -7.777  0.00  0.00     0.099 H 
ATOM     20  H   LIG d   1       6.139  -0.376  -7.315  0.00  0.00     0.099 H 
ENDBRANCH   1  17
BRANCH  10  21
ATOM     21  C   LIG d   1       3.794   0.552  -8.127  0.00  0.00     0.138 C 
ATOM     22  O   LIG d   1       4.441   1.550  -8.373  0.00  0.00    -0.540 OA
ATOM     23  O   LIG d   1       3.276  -0.179  -9.132  0.00  0.00    -0.540 OA
ENDBRANCH  10  21
TORSDOF 2
ENDMDL
MODEL 2
REMARK VINA RESULT:      -5.3      3.718      4.627
REMARK  2 active torsions:
REMARK  status: ('A' for Active; 'I' for Inactive)
REMARK    1  A    between atoms: C_1  and  N_2 
REMARK    2  A    between atoms: C_11  and  C_12 
ROOT
ATOM      1  N   LIG d   1       7.424   0.427  -4.072  0.00  0.00    -0.192 N 
ATOM      2  C   LIG d   1       6.361   0.088  -3.342  0.00  0.00     0.215 A 
ATOM      3  C   LIG d   1       5.598   1.067  -2.677  0.00  0.00     0.010 A 
ATOM      4  C   LIG d   1       4.520   0.693  -1.935  0.00  0.00    -0.056 A 
ATOM      5  C   LIG d   1       4.157  -0.649  -1.821  0.00  0.00    -0.061 A 
ATOM      6  C   LIG d   1       4.870  -1.623  -2.449  0.00  0.00    -0.048 A 
ATOM      7  C   LIG d   1       5.988  -1.276  -3.224  0.00  0.00     0.046 A 
ATOM      8  C   LIG d   1       6.750  -2.256  -3.888  0.00  0.00    -0.042 A 
ATOM      9  C   LIG d   1       7.824  -1.848  -4.624  0.00  0.00     0.012 A 
ATOM     10  C   LIG d   1       8.141  -0.484  -4.701  0.00  0.00     0.231 A 
ATOM     11  H   LIG d   1       5.866   2.110  -2.754  0.00  0.00     0.068 H 
ATOM     12  H   LIG d   1       3.938   1.446  -1.426  0.00  0.00     0.062 H 
ATOM     13  H   LIG d   1       3.297  -0.918  -1.225  0.00  0.00     0.062 H 
ATOM     14  H   LIG d   1       4.577  -2.659  -2.352  0.00  0.00     0.063 H 
ATOM     15  H   LIG d   1       6.491  -3.302  -3.816  0.00  0.00     0.063 H 
ATOM     16  H   LIG d   1       8.431  -2.575  -5.146  0.00  0.00     0.068 H 
ENDROOT
BRANCH   1  17
ATOM     17  C   LIG d   1       7.800   1.838  -4.181  0.00  0.00     0.142 C 
ATOM     18  H   LIG d   1       7.466   2.374  -3.292  0.00  0.00     0.099 H 
ATOM     19  H   LIG d   1       8.884   1.920  -4.268  0.00  0.00     0.099 H 
ATOM     20  H   LIG d   1       7.331   2.272  -5.064  0.00  0.00     0.099 H 
ENDBRANCH   1  17
BRANCH  10  21
ATOM     21  C   LIG d   1       9.311  -0.056  -5.504  0.00  0.00     0.138 C 
ATOM     22  O   LIG d   1      10.416  -0.028  -4.999  0.00  0.00    -0.540 OA
ATOM     23  O   LIG d   1       9.150   0.301  -6.791  0.00  0.00    -0.540 OA
ENDBRANCH  10  21
TORSDOF 2
ENDMDL
MODEL 3
REMARK VINA RESULT:      -5.2      3.747      4.535
REMARK  2 active torsions:
REMARK  status: ('A' for Active; 'I' for Inactive)
REMARK    1  A    between atoms: C_1  and  N_2 
REMARK    2  A    between atoms: C_11  and  C_12 
ROOT
ATOM      1  N   LIG d   1       7.149  -1.408  -4.130  0.00  0.00    -0.192 N 
ATOM      2  C   LIG d   1       6.213  -0.841  -3.369  0.00  0.00     0.215 A 
ATOM      3  C   LIG d   1       5.219  -1.617  -2.743  0.00  0.00     0.010 A 
ATOM      4  C   LIG d   1       4.273  -1.012  -1.976  0.00  0.00    -0.056 A 
ATOM      5  C   LIG d   1       4.270   0.372  -1.798  0.00  0.00    -0.061 A 
ATOM      6  C   LIG d   1       5.214   1.156  -2.386  0.00  0.00    -0.048 A 
ATOM      7  C   LIG d   1       6.207   0.566  -3.185  0.00  0.00     0.046 A 
ATOM      8  C   LIG d   1       7.199   1.345  -3.810  0.00  0.00    -0.042 A 
ATOM      9  C   LIG d   1       8.134   0.708  -4.573  0.00  0.00     0.012 A 
ATOM     10  C   LIG d   1       8.085  -0.687  -4.715  0.00  0.00     0.231 A 
ATOM     11  H   LIG d   1       5.207  -2.689  -2.872  0.00  0.00     0.068 H 
ATOM     12  H   LIG d   1       3.512  -1.611  -1.499  0.00  0.00     0.062 H 
ATOM     13  H   LIG d   1       3.506   0.827  -1.184  0.00  0.00     0.062 H 
ATOM     14  H   LIG d   1       5.199   2.226  -2.239  0.00  0.00     0.063 H 
ATOM     15  H   LIG d   1       7.220   2.418  -3.689  0.00  0.00     0.063 H 
ATOM     16  H   LIG d   1       8.909   1.276  -5.067  0.00  0.00     0.068 H 
ENDROOT
BRANCH   1  17
ATOM     17  C   LIG d   1       7.140  -2.861  -4.316  0.00  0.00     0.142 C 
ATOM     18  H   LIG d   1       6.503  -3.320  -3.560  0.00  0.00     0.099 H 
ATOM     19  H   LIG d   1       6.756  -3.099  -5.308  0.00  0.00     0.099 H 
ATOM     20  H   LIG d   1       8.155  -3.246  -4.218  0.00  0.00     0.099 H 
ENDBRANCH   1  17
BRANCH  10  21
ATOM     21  C   LIG d   1       9.106  -1.366  -5.548  0.00  0.00     0.138 C 
ATOM     22  O   LIG d   1       8.928  -1.495  -6.742  0.00  0.00    -0.540 OA
ATOM     23  O   LIG d   1      10.231  -1.840  -4.980  0.00  0.00    -0.540 OA
ENDBRANCH  10  21
TORSDOF 2
ENDMDL
MODEL 4
REMARK VINA RESULT:      -5.2      3.333      4.064
REMARK  2 active torsions:
REMARK  status: ('A' for Active; 'I' for Inactive)
REMARK    1  A    between atoms: C_1  and  N_2 
REMARK    2  A    between atoms: C_11  and  C_12 
ROOT
ATOM      1  N   LIG d   1       6.315  -1.615  -4.485  0.00  0.00    -0.192 N 
ATOM      2  C   LIG d   1       5.712  -0.772  -3.648  0.00  0.00     0.215 A 
ATOM      3  C   LIG d   1       6.199   0.536  -3.461  0.00  0.00     0.010 A 
ATOM      4  C   LIG d   1       5.566   1.374  -2.596  0.00  0.00    -0.056 A 
ATOM      5  C   LIG d   1       4.438   0.959  -1.887  0.00  0.00    -0.061 A 
ATOM      6  C   LIG d   1       3.938  -0.297  -2.042  0.00  0.00    -0.048 A 
ATOM      7  C   LIG d   1       4.564  -1.190  -2.926  0.00  0.00     0.046 A 
ATOM      8  C   LIG d   1       4.075  -2.497  -3.112  0.00  0.00    -0.042 A 
ATOM      9  C   LIG d   1       4.731  -3.314  -3.986  0.00  0.00     0.012 A 
ATOM     10  C   LIG d   1       5.861  -2.840  -4.669  0.00  0.00     0.231 A 
ATOM     11  H   LIG d   1       7.072   0.872  -4.000  0.00  0.00     0.068 H 
ATOM     12  H   LIG d   1       5.944   2.376  -2.455  0.00  0.00     0.062 H 
ATOM     13  H   LIG d   1       3.956   1.645  -1.207  0.00  0.00     0.062 H 
ATOM     14  H   LIG d   1       3.064  -0.605  -1.487  0.00  0.00     0.063 H 
ATOM     15  H   LIG d   1       3.204  -2.844  -2.575  0.00  0.00     0.063 H 
ATOM     16  H   LIG d   1       4.383  -4.323  -4.151  0.00  0.00     0.068 H 
ENDROOT
BRANCH   1  17
ATOM     17  C   LIG d   1       7.502  -1.171  -5.219  0.00  0.00     0.142 C 
ATOM     18  H   LIG d   1       7.831  -0.207  -4.832  0.00  0.00     0.099 H 
ATOM     19  H   LIG d   1       8.301  -1.904  -5.097  0.00  0.00     0.099 H 
ATOM     20  H   LIG d   1       7.259  -1.074  -6.278  0.00  0.00     0.099 H 
ENDBRANCH   1  17
BRANCH  10  21
ATOM     21  C   LIG d   1       6.565  -3.738  -5.615  0.00  0.00     0.138 C 
ATOM     22  O   LIG d   1       6.233  -3.769  -6.783  0.00  0.00    -0.540 OA
ATOM     23  O   LIG d   1       7.572  -4.518  -5.179  0.00  0.00    -0.540 OA
ENDBRANCH  10  21
TORSDOF 2
ENDMDL
MODEL 5
REMARK VINA RESULT:      -5.1      2.857      4.492
REMARK  2 active torsions:
REMARK  status: ('A' for Active; 'I' for Inactive)
REMARK    1  A    between atoms: C_1  and  N_2 
REMARK    2  A    between atoms: C_11  and  C_12 
ROOT
ATOM      1  N   LIG d   1       4.468  -1.157  -4.847  0.00  0.00    -0.192 N 
ATOM      2  C   LIG d   1       4.262  -0.650  -6.063  0.00  0.00     0.215 A 
ATOM      3  C   LIG d   1       5.140  -0.938  -7.126  0.00  0.00     0.010 A 
ATOM      4  C   LIG d   1       4.909  -0.403  -8.355  0.00  0.00    -0.056 A 
ATOM      5  C   LIG d   1       3.814   0.431  -8.582  0.00  0.00    -0.061 A 
ATOM      6  C   LIG d   1       2.943   0.732  -7.580  0.00  0.00    -0.048 A 
ATOM      7  C   LIG d   1       3.149   0.198  -6.298  0.00  0.00     0.046 A 
ATOM      8  C   LIG d   1       2.270   0.487  -5.237  0.00  0.00    -0.042 A 
ATOM      9  C   LIG d   1       2.529  -0.065  -4.016  0.00  0.00     0.012 A 
ATOM     10  C   LIG d   1       3.648  -0.895  -3.848  0.00  0.00     0.231 A 
ATOM     11  H   LIG d   1       5.993  -1.580  -6.966  0.00  0.00     0.068 H 
ATOM     12  H   LIG d   1       5.585  -0.626  -9.167  0.00  0.00     0.062 H 
ATOM     13  H   LIG d   1       3.655   0.843  -9.568  0.00  0.00     0.062 H 
ATOM     14  H   LIG d   1       2.100   1.378  -7.770  0.00  0.00     0.063 H 
ATOM     15  H   LIG d   1       1.415   1.129  -5.385  0.00  0.00     0.063 H 
ATOM     16  H   LIG d   1       1.875   0.137  -3.180  0.00  0.00     0.068 H 
ENDROOT
BRANCH   1  17
ATOM     17  C   LIG d   1       5.624  -2.026  -4.618  0.00  0.00     0.142 C 
ATOM     18  H   LIG d   1       5.358  -2.806  -3.905  0.00  0.00     0.099 H 
ATOM     19  H   LIG d   1       5.928  -2.483  -5.560  0.00  0.00     0.099 H 
ATOM     20  H   LIG d   1       6.450  -1.435  -4.218  0.00  0.00     0.099 H 
ENDBRANCH   1  17
BRANCH  10  21
ATOM     21  C   LIG d   1       3.917  -1.488  -2.517  0.00  0.00     0.138 C 
ATOM     22  O   LIG d   1       4.432  -0.815  -1.646  0.00  0.00    -0.540 OA
ATOM     23  O   LIG d   1       3.591  -2.771  -2.272  0.00  0.00    -0.540 OA
ENDBRANCH  10  21
TORSDOF 2
ENDMDL
MODEL 6
REMARK VINA RESULT:      -5.0      3.385      4.454
REMARK  2 active torsions:
REMARK  status: ('A' for Active; 'I' for Inactive)
REMARK    1  A    between atoms: C_1  and  N_2 
REMARK    2  A    between atoms: C_11  and  C_12 
ROOT
ATOM      1  N   LIG d   1       6.034  -0.335  -3.632  0.00  0.00    -0.192 N 
ATOM      2  C   LIG d   1       6.411  -1.491  -4.178  0.00  0.00     0.215 A 
ATOM      3  C   LIG d   1       7.674  -1.629  -4.783  0.00  0.00     0.010 A 
ATOM      4  C   LIG d   1       8.031  -2.819  -5.338  0.00  0.00    -0.056 A 
ATOM      5  C   LIG d   1       7.162  -3.911  -5.317  0.00  0.00    -0.061 A 
ATOM      6  C   LIG d   1       5.933  -3.816  -4.741  0.00  0.00    -0.048 A 
ATOM      7  C   LIG d   1       5.530  -2.604  -4.159  0.00  0.00     0.046 A 
ATOM      8  C   LIG d   1       4.266  -2.468  -3.554  0.00  0.00    -0.042 A 
ATOM      9  C   LIG d   1       3.938  -1.262  -3.007  0.00  0.00     0.012 A 
ATOM     10  C   LIG d   1       4.854  -0.200  -3.059  0.00  0.00     0.231 A 
ATOM     11  H   LIG d   1       8.357  -0.793  -4.809  0.00  0.00     0.068 H 
ATOM     12  H   LIG d   1       9.000  -2.920  -5.802  0.00  0.00     0.062 H 
ATOM     13  H   LIG d   1       7.470  -4.844  -5.766  0.00  0.00     0.062 H 
ATOM     14  H   LIG d   1       5.270  -4.669  -4.733  0.00  0.00     0.063 H 
ATOM     15  H   LIG d   1       3.574  -3.297  -3.524  0.00  0.00     0.063 H 
ATOM     16  H   LIG d   1       2.976  -1.124  -2.535  0.00  0.00     0.068 H 
ENDROOT
BRANCH   1  17
ATOM     17  C   LIG d   1       6.952   0.807  -3.664  0.00  0.00     0.142 C 
ATOM     18  H   LIG d   1       6.381   1.734  -3.615  0.00  0.00     0.099 H 
ATOM     19  H   LIG d   1       7.630   0.752  -2.812  0.00  0.00     0.099 H 
ATOM     20  H   LIG d   1       7.529   0.783  -4.589  0.00  0.00     0.099 H 
ENDBRANCH   1  17
BRANCH  10  21
ATOM     21  C   LIG d   1       4.484   1.105  -2.461  0.00  0.00     0.138 C 
ATOM     22  O   LIG d   1       3.891   1.930  -3.126  0.00  0.00    -0.540 OA
ATOM     23  O   LIG d   1       4.806   1.375  -1.182  0.00  0.00    -0.540 OA
ENDBRANCH  10  21
TORSDOF 2
ENDMDL
MODEL 7
REMARK VINA RESULT:      -4.7      2.416      3.645
REMARK  2 active torsions:
REMARK  status: ('A' for Active; 'I' for Inactive)
REMARK    1  A    between atoms: C_1  and  N_2 
REMARK    2  A    between atoms: C_11  and  C_12 
ROOT
ATOM      1  N   LIG d   1       5.788  -0.784  -5.557  0.00  0.00    -0.192 N 
ATOM      2  C   LIG d   1       4.799  -0.763  -4.663  0.00  0.00     0.215 A 
ATOM      3  C   LIG d   1       3.544  -0.211  -4.984  0.00  0.00     0.010 A 
ATOM      4  C   LIG d   1       2.555  -0.197  -4.050  0.00  0.00    -0.056 A 
ATOM      5  C   LIG d   1       2.762  -0.724  -2.775  0.00  0.00    -0.061 A 
ATOM      6  C   LIG d   1       3.961  -1.267  -2.428  0.00  0.00    -0.048 A 
ATOM      7  C   LIG d   1       5.006  -1.298  -3.366  0.00  0.00     0.046 A 
ATOM      8  C   LIG d   1       6.260  -1.851  -3.043  0.00  0.00    -0.042 A 
ATOM      9  C   LIG d   1       7.232  -1.849  -4.001  0.00  0.00     0.012 A 
ATOM     10  C   LIG d   1       6.964  -1.304  -5.266  0.00  0.00     0.231 A 
ATOM     11  H   LIG d   1       3.368   0.202  -5.966  0.00  0.00     0.068 H 
ATOM     12  H   LIG d   1       1.595   0.228  -4.300  0.00  0.00     0.062 H 
ATOM     13  H   LIG d   1       1.959  -0.700  -2.053  0.00  0.00     0.062 H 
ATOM     14  H   LIG d   1       4.108  -1.670  -1.438  0.00  0.00     0.063 H 
ATOM     15  H   LIG d   1       6.448  -2.265  -2.063  0.00  0.00     0.063 H 
ATOM     16  H   LIG d   1       8.206  -2.265  -3.786  0.00  0.00     0.068 H 
ENDROOT
BRANCH   1  17
ATOM     17  C   LIG d   1       5.561  -0.224  -6.892  0.00  0.00     0.142 C 
ATOM     18  H   LIG d   1       6.099   0.719  -6.986  0.00  0.00     0.099 H 
ATOM     19  H   LIG d   1       5.920  -0.925  -7.646  0.00  0.00     0.099 H 
ATOM     20  H   LIG d   1       4.494  -0.050  -7.037  0.00  0.00     0.099 H 
ENDBRANCH   1  17
BRANCH  10  21
ATOM     21  C   LIG d   1       8.029  -1.308  -6.296  0.00  0.00     0.138 C 
ATOM     22  O   LIG d   1       8.818  -0.387  -6.358  0.00  0.00    -0.540 OA
ATOM     23  O   LIG d   1       8.123  -2.334  -7.164  0.00  0.00    -0.540 OA
ENDBRANCH  10  21
TORSDOF 2
ENDMDL
MODEL 8
REMARK VINA RESULT:      -4.5      4.158      6.659
REMARK  2 active torsions:
REMARK  status: ('A' for Active; 'I' for Inactive)
REMARK    1  A    between atoms: C_1  and  N_2 
REMARK    2  A    between atoms: C_11  and  C_12 
ROOT
ATOM      1  N   LIG d   1       3.700   0.447 -10.275  0.00  0.00    -0.192 N 
ATOM      2  C   LIG d   1       3.485  -0.219 -11.410  0.00  0.00     0.215 A 
ATOM      3  C   LIG d   1       4.424  -0.187 -12.458  0.00  0.00     0.010 A 
ATOM      4  C   LIG d   1       4.176  -0.870 -13.607  0.00  0.00    -0.056 A 
ATOM      5  C   LIG d   1       3.001  -1.606 -13.767  0.00  0.00    -0.061 A 
ATOM      6  C   LIG d   1       2.070  -1.661 -12.777  0.00  0.00    -0.048 A 
ATOM      7  C   LIG d   1       2.291  -0.968 -11.575  0.00  0.00     0.046 A 
ATOM      8  C   LIG d   1       1.350  -1.002 -10.529  0.00  0.00    -0.042 A 
ATOM      9  C   LIG d   1       1.629  -0.305  -9.389  0.00  0.00     0.012 A 
ATOM     10  C   LIG d   1       2.827   0.417  -9.287  0.00  0.00     0.231 A 
ATOM     11  H   LIG d   1       5.337   0.379 -12.351  0.00  0.00     0.068 H 
ATOM     12  H   LIG d   1       4.899  -0.842 -14.409  0.00  0.00     0.062 H 
ATOM     13  H   LIG d   1       2.830  -2.139 -14.691  0.00  0.00     0.062 H 
ATOM     14  H   LIG d   1       1.165  -2.235 -12.914  0.00  0.00     0.063 H 
ATOM     15  H   LIG d   1       0.433  -1.563 -10.626  0.00  0.00     0.063 H 
ATOM     16  H   LIG d   1       0.927  -0.309  -8.567  0.00  0.00     0.068 H 
ENDROOT
BRANCH   1  17
ATOM     17  C   LIG d   1       4.934   1.221 -10.120  0.00  0.00     0.142 C 
ATOM     18  H   LIG d   1       5.417   1.334 -11.090  0.00  0.00     0.099 H 
ATOM     19  H   LIG d   1       4.697   2.205  -9.714  0.00  0.00     0.099 H 
ATOM     20  H   LIG d   1       5.607   0.699  -9.437  0.00  0.00     0.099 H 
ENDBRANCH   1  17
BRANCH  10  21
ATOM     21  C   LIG d   1       3.115   1.169  -8.043  0.00  0.00     0.138 C 
ATOM     22  O   LIG d   1       2.796   2.338  -7.953  0.00  0.00    -0.540 OA
ATOM     23  O   LIG d   1       3.731   0.558  -7.014  0.00  0.00    -0.540 OA
ENDBRANCH  10  21
TORSDOF 2
ENDMDL
MODEL 9
REMARK VINA RESULT:      -4.4      3.643      4.951
REMARK  2 active torsions:
REMARK  status: ('A' for Active; 'I' for Inactive)
REMARK    1  A    between atoms: C_1  and  N_2 
REMARK    2  A    between atoms: C_11  and  C_12 
ROOT
ATOM      1  N   LIG d   1       5.358  -0.042  -3.450  0.00  0.00    -0.192 N 
ATOM      2  C   LIG d   1       6.384   0.439  -4.151  0.00  0.00     0.215 A 
ATOM      3  C   LIG d   1       7.180   1.485  -3.645  0.00  0.00     0.010 A 
ATOM      4  C   LIG d   1       8.218   1.961  -4.385  0.00  0.00    -0.056 A 
ATOM      5  C   LIG d   1       8.511   1.427  -5.640  0.00  0.00    -0.061 A 
ATOM      6  C   LIG d   1       7.765   0.415  -6.162  0.00  0.00    -0.048 A 
ATOM      7  C   LIG d   1       6.685  -0.101  -5.428  0.00  0.00     0.046 A 
ATOM      8  C   LIG d   1       5.891  -1.148  -5.935  0.00  0.00    -0.042 A 
ATOM      9  C   LIG d   1       4.857  -1.603  -5.169  0.00  0.00     0.012 A 
ATOM     10  C   LIG d   1       4.612  -1.025  -3.914  0.00  0.00     0.231 A 
ATOM     11  H   LIG d   1       6.965   1.910  -2.676  0.00  0.00     0.068 H 
ATOM     12  H   LIG d   1       8.824   2.764  -3.994  0.00  0.00     0.062 H 
ATOM     13  H   LIG d   1       9.341   1.824  -6.206  0.00  0.00     0.062 H 
ATOM     14  H   LIG d   1       8.003   0.012  -7.135  0.00  0.00     0.063 H 
ATOM     15  H   LIG d   1       6.096  -1.579  -6.904  0.00  0.00     0.063 H 
ATOM     16  H   LIG d   1       4.228  -2.404  -5.529  0.00  0.00     0.068 H 
ENDROOT
BRANCH   1  17
ATOM     17  C   LIG d   1       5.056   0.529  -2.135  0.00  0.00     0.142 C 
ATOM     18  H   LIG d   1       4.109   0.129  -1.773  0.00  0.00     0.099 H 
ATOM     19  H   LIG d   1       5.851   0.270  -1.435  0.00  0.00     0.099 H 
ATOM     20  H   LIG d   1       4.985   1.614  -2.217  0.00  0.00     0.099 H 
ENDBRANCH   1  17
BRANCH  10  21
ATOM     21  C   LIG d   1       3.485  -1.529  -3.094  0.00  0.00     0.138 C 
ATOM     22  O   LIG d   1       3.623  -2.532  -2.424  0.00  0.00    -0.540 OA
ATOM     23  O   LIG d   1       2.309  -0.874  -3.092  0.00  0.00    -0.540 OA
ENDBRANCH  10  21
TORSDOF 2
ENDMDL
MODEL 10
REMARK VINA RESULT:      -4.3     10.720     11.570
REMARK  2 active torsions:
REMARK  status: ('A' for Active; 'I' for Inactive)
REMARK    1  A    between atoms: C_1  and  N_2 
REMARK    2  A    between atoms: C_11  and  C_12 
ROOT
ATOM      1  N   LIG d   1      10.766   7.519  -1.871  0.00  0.00    -0.192 N 
ATOM      2  C   LIG d   1      10.292   7.652  -3.110  0.00  0.00     0.215 A 
ATOM      3  C   LIG d   1      10.248   8.912  -3.737  0.00  0.00     0.010 A 
ATOM      4  C   LIG d   1       9.754   9.020  -5.000  0.00  0.00    -0.056 A 
ATOM      5  C   LIG d   1       9.289   7.900  -5.689  0.00  0.00    -0.061 A 
ATOM      6  C   LIG d   1       9.317   6.665  -5.116  0.00  0.00    -0.048 A 
ATOM      7  C   LIG d   1       9.819   6.515  -3.814  0.00  0.00     0.046 A 
ATOM      8  C   LIG d   1       9.864   5.254  -3.189  0.00  0.00    -0.042 A 
ATOM      9  C   LIG d   1      10.364   5.179  -1.922  0.00  0.00     0.012 A 
ATOM     10  C   LIG d   1      10.816   6.341  -1.280  0.00  0.00     0.231 A 
ATOM     11  H   LIG d   1      10.602   9.790  -3.217  0.00  0.00     0.068 H 
ATOM     12  H   LIG d   1       9.720   9.989  -5.476  0.00  0.00     0.062 H 
ATOM     13  H   LIG d   1       8.902   8.014  -6.690  0.00  0.00     0.062 H 
ATOM     14  H   LIG d   1       8.954   5.806  -5.661  0.00  0.00     0.063 H 
ATOM     15  H   LIG d   1       9.510   4.370  -3.699  0.00  0.00     0.063 H 
ATOM     16  H   LIG d   1      10.411   4.227  -1.413  0.00  0.00     0.068 H 
ENDROOT
BRANCH   1  17
ATOM     17  C   LIG d   1      11.246   8.703  -1.155  0.00  0.00     0.142 C 
ATOM     18  H   LIG d   1      11.719   8.397  -0.222  0.00  0.00     0.099 H 
ATOM     19  H   LIG d   1      11.972   9.233  -1.773  0.00  0.00     0.099 H 
ATOM     20  H   LIG d   1      10.405   9.363  -0.937  0.00  0.00     0.099 H 
ENDBRANCH   1  17
BRANCH  10  21
ATOM     21  C   LIG d   1      11.356   6.245   0.097  0.00  0.00     0.138 C 
ATOM     22  O   LIG d   1      10.599   6.220   1.046  0.00  0.00    -0.540 OA
ATOM     23  O   LIG d   1      12.686   6.186   0.295  0.00  0.00    -0.540 OA
ENDBRANCH  10  21
TORSDOF 2
ENDMDL
