MODEL 1
REMARK VINA RESULT:      -7.0      0.000      0.000
REMARK  6 active torsions:
REMARK  status: ('A' for Active; 'I' for Inactive)
REMARK    1  A    between atoms: C_1  and  O_2 
REMARK    2  A    between atoms: O_2  and  C_3 
REMARK    3  A    between atoms: C_7  and  N_9 
REMARK       I    between atoms: N_9  and  C_10 
REMARK       I    between atoms: C_10  and  N_12 
REMARK    4  A    between atoms: C_23  and  O_30 
REMARK    5  A    between atoms: O_30  and  C_31 
REMARK    6  A    between atoms: C_31  and  C_32 
ROOT
ATOM      1  N   LIG d   1       9.916  11.152  -7.920  0.00  0.00    -0.269 N 
ATOM      2  C   LIG d   1       9.939  10.548  -6.716  0.00  0.00     0.307 C 
ATOM      3  O   LIG d   1      10.370  11.141  -5.746  0.00  0.00    -0.252 OA
ATOM      4  N   LIG d   1       9.482   9.287  -6.586  0.00  0.00    -0.282 N 
ATOM      5  C   LIG d   1       8.851   8.586  -7.714  0.00  0.00     0.032 C 
ATOM      6  C   LIG d   1       9.682   7.340  -8.009  0.00  0.00     0.031 C 
ATOM      7  N   LIG d   1       9.942   6.577  -6.784  0.00  0.00    -0.285 N 
ATOM      8  CA  LIG d   1      10.246   7.204  -5.510  0.00  0.00     0.118 C 
ATOM      9  HA  LIG d   1      11.327   7.334  -5.450  0.00  0.00     0.061 H 
ATOM     10  C   LIG d   1       9.598   8.568  -5.318  0.00  0.00     0.043 C 
ATOM     11  C   LIG d   1       9.839   6.321  -4.350  0.00  0.00     0.238 C 
ATOM     12  O   LIG d   1       9.525   6.807  -3.283  0.00  0.00    -0.274 OA
ATOM     13  N   LIG d   1       9.848   4.980  -4.516  0.00  0.00    -0.286 N 
ATOM     14  C   LIG d   1       9.362   3.929  -3.621  0.00  0.00     0.042 C 
ATOM     15  C   LIG d   1       8.794   2.838  -4.555  0.00  0.00     0.077 C 
ATOM     16  H   LIG d   1       7.737   3.021  -4.755  0.00  0.00     0.061 H 
ATOM     17  C   LIG d   1       9.619   2.974  -5.851  0.00  0.00     0.002 C 
ATOM     18  CA  LIG d   1      10.305   4.342  -5.761  0.00  0.00     0.105 C 
ATOM     19  HA  LIG d   1      11.388   4.214  -5.739  0.00  0.00     0.060 H 
ATOM     20  C   LIG d   1       9.917   5.224  -6.914  0.00  0.00     0.237 C 
ATOM     21  O   LIG d   1       9.578   4.725  -7.967  0.00  0.00    -0.274 OA
ATOM     22  H   LIG d   1       9.476  10.722  -8.670  0.00  0.00     0.156 HD
ATOM     23  H   LIG d   1       8.833   9.235  -8.591  0.00  0.00     0.048 H 
ATOM     24  H   LIG d   1       7.834   8.297  -7.449  0.00  0.00     0.048 H 
ATOM     25  H   LIG d   1      10.633   7.642  -8.452  0.00  0.00     0.048 H 
ATOM     26  H   LIG d   1       9.144   6.710  -8.716  0.00  0.00     0.048 H 
ATOM     27  H   LIG d   1      10.205   9.155  -4.628  0.00  0.00     0.049 H 
ATOM     28  H   LIG d   1       8.604   8.433  -4.891  0.00  0.00     0.049 H 
ATOM     29  H   LIG d   1       8.577   4.318  -2.972  0.00  0.00     0.049 H 
ATOM     30  H   LIG d   1      10.183   3.529  -3.026  0.00  0.00     0.049 H 
ATOM     31  H   LIG d   1      10.365   2.181  -5.908  0.00  0.00     0.031 H 
ATOM     32  H   LIG d   1       8.963   2.938  -6.721  0.00  0.00     0.031 H 
ENDROOT
BRANCH   1  33
ATOM     33  C   LIG d   1      10.529  12.399  -8.090  0.00  0.00     0.038 A 
ATOM     34  C   LIG d   1       9.782  13.563  -7.965  0.00  0.00    -0.040 A 
ATOM     35  C   LIG d   1      10.386  14.794  -8.133  0.00  0.00    -0.057 A 
ATOM     36  H   LIG d   1       8.728  13.506  -7.737  0.00  0.00     0.064 H 
ATOM     37  C   LIG d   1      11.735  14.871  -8.426  0.00  0.00    -0.020 A 
ATOM     38  H   LIG d   1       9.804  15.698  -8.036  0.00  0.00     0.062 H 
ATOM     39  C   LIG d   1      12.486  13.710  -8.550  0.00  0.00     0.122 A 
ATOM     40  H   LIG d   1      12.205  15.834  -8.556  0.00  0.00     0.065 H 
ATOM     41  C   LIG d   1      11.884  12.474  -8.377  0.00  0.00     0.001 A 
ATOM     42  H   LIG d   1      12.469  11.571  -8.470  0.00  0.00     0.067 H 
BRANCH  39  43
ATOM     43  O   LIG d   1      13.813  13.787  -8.838  0.00  0.00    -0.495 OA
BRANCH  43  44
ATOM     44  C   LIG d   1      14.495  12.557  -9.088  0.00  0.00     0.079 C 
ATOM     45  H   LIG d   1      14.313  11.866  -8.266  0.00  0.00     0.066 H 
ATOM     46  H   LIG d   1      14.127  12.121 -10.017  0.00  0.00     0.066 H 
ATOM     47  H   LIG d   1      15.565  12.745  -9.174  0.00  0.00     0.066 H 
ENDBRANCH  43  44
ENDBRANCH  39  43
ENDBRANCH   1  33
BRANCH  15  48
ATOM     48  O   LIG d   1       8.978   1.544  -3.979  0.00  0.00    -0.370 OA
BRANCH  48  49
ATOM     49  C   LIG d   1       8.309   0.494  -4.683  0.00  0.00     0.073 C 
ATOM     50  H   LIG d   1       7.965   0.865  -5.647  0.00  0.00     0.061 H 
ATOM     51  H   LIG d   1       9.000  -0.335  -4.838  0.00  0.00     0.061 H 
BRANCH  49  52
ATOM     52  C   LIG d   1       7.129   0.020  -3.875  0.00  0.00    -0.022 A 
ATOM     53  C   LIG d   1       6.864  -1.333  -3.767  0.00  0.00    -0.054 A 
ATOM     54  C   LIG d   1       5.782  -1.769  -3.027  0.00  0.00    -0.026 A 
ATOM     55  H   LIG d   1       7.504  -2.049  -4.262  0.00  0.00     0.062 H 
ATOM     56  C   LIG d   1       4.962  -0.851  -2.394  0.00  0.00     0.123 A 
ATOM     57  H   LIG d   1       5.576  -2.825  -2.942  0.00  0.00     0.065 H 
ATOM     58  C   LIG d   1       5.227   0.504  -2.503  0.00  0.00    -0.026 A 
ATOM     59  F   LIG d   1       3.903  -1.276  -1.670  0.00  0.00    -0.205 F 
ATOM     60  C   LIG d   1       6.314   0.937  -3.240  0.00  0.00    -0.054 A 
ATOM     61  H   LIG d   1       4.588   1.221  -2.009  0.00  0.00     0.065 H 
ATOM     62  H   LIG d   1       6.523   1.994  -3.321  0.00  0.00     0.062 H 
ENDBRANCH  49  52
ENDBRANCH  48  49
ENDBRANCH  15  48
TORSDOF 6
ENDMDL
MODEL 2
REMARK VINA RESULT:      -7.0      9.915     15.641
REMARK  6 active torsions:
REMARK  status: ('A' for Active; 'I' for Inactive)
REMARK    1  A    between atoms: C_1  and  O_2 
REMARK    2  A    between atoms: O_2  and  C_3 
REMARK    3  A    between atoms: C_7  and  N_9 
REMARK       I    between atoms: N_9  and  C_10 
REMARK       I    between atoms: C_10  and  N_12 
REMARK    4  A    between atoms: C_23  and  O_30 
REMARK    5  A    between atoms: O_30  and  C_31 
REMARK    6  A    between atoms: C_31  and  C_32 
ROOT
ATOM      1  N   LIG d   1       1.053  -6.271 -11.324  0.00  0.00    -0.269 N 
ATOM      2  C   LIG d   1       1.832  -6.574 -10.268  0.00  0.00     0.307 C 
ATOM      3  O   LIG d   1       1.660  -7.616  -9.664  0.00  0.00    -0.252 OA
ATOM      4  N   LIG d   1       2.803  -5.724  -9.881  0.00  0.00    -0.282 N 
ATOM      5  C   LIG d   1       3.109  -4.514 -10.659  0.00  0.00     0.032 C 
ATOM      6  C   LIG d   1       2.879  -3.309  -9.750  0.00  0.00     0.031 C 
ATOM      7  N   LIG d   1       3.553  -3.485  -8.460  0.00  0.00    -0.285 N 
ATOM      8  CA  LIG d   1       3.600  -4.756  -7.757  0.00  0.00     0.118 C 
ATOM      9  HA  LIG d   1       2.724  -4.814  -7.111  0.00  0.00     0.061 H 
ATOM     10  C   LIG d   1       3.589  -5.972  -8.672  0.00  0.00     0.043 C 
ATOM     11  C   LIG d   1       4.819  -4.849  -6.865  0.00  0.00     0.238 C 
ATOM     12  O   LIG d   1       5.320  -5.924  -6.611  0.00  0.00    -0.274 OA
ATOM     13  N   LIG d   1       5.330  -3.713  -6.341  0.00  0.00    -0.286 N 
ATOM     14  C   LIG d   1       6.569  -3.514  -5.586  0.00  0.00     0.042 C 
ATOM     15  C   LIG d   1       7.083  -2.124  -6.020  0.00  0.00     0.077 C 
ATOM     16  H   LIG d   1       7.740  -2.215  -6.886  0.00  0.00     0.061 H 
ATOM     17  C   LIG d   1       5.807  -1.341  -6.392  0.00  0.00     0.002 C 
ATOM     18  CA  LIG d   1       4.706  -2.397  -6.547  0.00  0.00     0.105 C 
ATOM     19  HA  LIG d   1       3.927  -2.233  -5.803  0.00  0.00     0.060 H 
ATOM     20  C   LIG d   1       4.113  -2.367  -7.927  0.00  0.00     0.237 C 
ATOM     21  O   LIG d   1       4.135  -1.338  -8.571  0.00  0.00    -0.274 OA
ATOM     22  H   LIG d   1       1.256  -5.496 -11.871  0.00  0.00     0.156 HD
ATOM     23  H   LIG d   1       2.451  -4.454 -11.526  0.00  0.00     0.048 H 
ATOM     24  H   LIG d   1       4.149  -4.537 -10.986  0.00  0.00     0.048 H 
ATOM     25  H   LIG d   1       1.808  -3.188  -9.582  0.00  0.00     0.048 H 
ATOM     26  H   LIG d   1       3.268  -2.415 -10.237  0.00  0.00     0.048 H 
ATOM     27  H   LIG d   1       3.159  -6.817  -8.135  0.00  0.00     0.049 H 
ATOM     28  H   LIG d   1       4.613  -6.215  -8.956  0.00  0.00     0.049 H 
ATOM     29  H   LIG d   1       7.297  -4.284  -5.843  0.00  0.00     0.049 H 
ATOM     30  H   LIG d   1       6.366  -3.526  -4.515  0.00  0.00     0.049 H 
ATOM     31  H   LIG d   1       5.549  -0.641  -5.597  0.00  0.00     0.031 H 
ATOM     32  H   LIG d   1       5.953  -0.807  -7.331  0.00  0.00     0.031 H 
ENDROOT
BRANCH   1  33
ATOM     33  C   LIG d   1      -0.051  -7.075 -11.633  0.00  0.00     0.038 A 
ATOM     34  C   LIG d   1       0.070  -8.094 -12.568  0.00  0.00    -0.040 A 
ATOM     35  C   LIG d   1      -1.020  -8.886 -12.874  0.00  0.00    -0.057 A 
ATOM     36  H   LIG d   1       1.017  -8.267 -13.058  0.00  0.00     0.064 H 
ATOM     37  C   LIG d   1      -2.234  -8.667 -12.250  0.00  0.00    -0.020 A 
ATOM     38  H   LIG d   1      -0.924  -9.678 -13.601  0.00  0.00     0.062 H 
ATOM     39  C   LIG d   1      -2.360  -7.649 -11.313  0.00  0.00     0.122 A 
ATOM     40  H   LIG d   1      -3.083  -9.288 -12.490  0.00  0.00     0.065 H 
ATOM     41  C   LIG d   1      -1.267  -6.856 -11.001  0.00  0.00     0.001 A 
ATOM     42  H   LIG d   1      -1.364  -6.067 -10.270  0.00  0.00     0.067 H 
BRANCH  39  43
ATOM     43  O   LIG d   1      -3.554  -7.435 -10.700  0.00  0.00    -0.495 OA
BRANCH  43  44
ATOM     44  C   LIG d   1      -3.841  -6.097 -10.287  0.00  0.00     0.079 C 
ATOM     45  H   LIG d   1      -3.380  -5.909  -9.318  0.00  0.00     0.066 H 
ATOM     46  H   LIG d   1      -3.442  -5.398 -11.021  0.00  0.00     0.066 H 
ATOM     47  H   LIG d   1      -4.920  -5.965 -10.208  0.00  0.00     0.066 H 
ENDBRANCH  43  44
ENDBRANCH  39  43
ENDBRANCH   1  33
BRANCH  15  48
ATOM     48  O   LIG d   1       7.765  -1.485  -4.940  0.00  0.00    -0.370 OA
BRANCH  48  49
ATOM     49  C   LIG d   1       7.322  -1.901  -3.646  0.00  0.00     0.073 C 
ATOM     50  H   LIG d   1       6.922  -2.912  -3.707  0.00  0.00     0.061 H 
ATOM     51  H   LIG d   1       8.163  -1.885  -2.952  0.00  0.00     0.061 H 
BRANCH  49  52
ATOM     52  C   LIG d   1       6.249  -0.965  -3.156  0.00  0.00    -0.022 A 
ATOM     53  C   LIG d   1       5.083  -1.473  -2.611  0.00  0.00    -0.054 A 
ATOM     54  C   LIG d   1       4.098  -0.615  -2.162  0.00  0.00    -0.026 A 
ATOM     55  H   LIG d   1       4.944  -2.543  -2.538  0.00  0.00     0.062 H 
ATOM     56  C   LIG d   1       4.277   0.754  -2.257  0.00  0.00     0.123 A 
ATOM     57  H   LIG d   1       3.189  -1.013  -1.737  0.00  0.00     0.065 H 
ATOM     58  C   LIG d   1       5.444   1.262  -2.802  0.00  0.00    -0.026 A 
ATOM     59  F   LIG d   1       3.314   1.594  -1.817  0.00  0.00    -0.205 F 
ATOM     60  C   LIG d   1       6.430   0.402  -3.246  0.00  0.00    -0.054 A 
ATOM     61  H   LIG d   1       5.585   2.331  -2.876  0.00  0.00     0.065 H 
ATOM     62  H   LIG d   1       7.342   0.799  -3.668  0.00  0.00     0.062 H 
ENDBRANCH  49  52
ENDBRANCH  48  49
ENDBRANCH  15  48
TORSDOF 6
ENDMDL
MODEL 3
REMARK VINA RESULT:      -6.9      9.619     15.068
REMARK  6 active torsions:
REMARK  status: ('A' for Active; 'I' for Inactive)
REMARK    1  A    between atoms: C_1  and  O_2 
REMARK    2  A    between atoms: O_2  and  C_3 
REMARK    3  A    between atoms: C_7  and  N_9 
REMARK       I    between atoms: N_9  and  C_10 
REMARK       I    between atoms: C_10  and  N_12 
REMARK    4  A    between atoms: C_23  and  O_30 
REMARK    5  A    between atoms: O_30  and  C_31 
REMARK    6  A    between atoms: C_31  and  C_32 
ROOT
ATOM      1  N   LIG d   1       6.141  -2.857  -4.378  0.00  0.00    -0.269 N 
ATOM      2  C   LIG d   1       5.329  -3.330  -5.342  0.00  0.00     0.307 C 
ATOM      3  O   LIG d   1       4.316  -2.724  -5.637  0.00  0.00    -0.252 OA
ATOM      4  N   LIG d   1       5.637  -4.476  -5.981  0.00  0.00    -0.282 N 
ATOM      5  C   LIG d   1       6.909  -5.170  -5.727  0.00  0.00     0.032 C 
ATOM      6  C   LIG d   1       6.579  -6.562  -5.195  0.00  0.00     0.031 C 
ATOM      7  N   LIG d   1       5.589  -7.231  -6.046  0.00  0.00    -0.285 N 
ATOM      8  CA  LIG d   1       4.457  -6.539  -6.638  0.00  0.00     0.118 C 
ATOM      9  HA  LIG d   1       3.628  -6.589  -5.933  0.00  0.00     0.061 H 
ATOM     10  C   LIG d   1       4.719  -5.072  -6.950  0.00  0.00     0.043 C 
ATOM     11  C   LIG d   1       4.000  -7.217  -7.912  0.00  0.00     0.238 C 
ATOM     12  O   LIG d   1       3.466  -6.581  -8.795  0.00  0.00    -0.274 OA
ATOM     13  N   LIG d   1       4.181  -8.550  -8.041  0.00  0.00    -0.286 N 
ATOM     14  C   LIG d   1       3.973  -9.408  -9.209  0.00  0.00     0.042 C 
ATOM     15  C   LIG d   1       5.087 -10.475  -9.126  0.00  0.00     0.077 C 
ATOM     16  H   LIG d   1       5.978 -10.136  -9.656  0.00  0.00     0.061 H 
ATOM     17  C   LIG d   1       5.375 -10.613  -7.617  0.00  0.00     0.002 C 
ATOM     18  CA  LIG d   1       4.743  -9.379  -6.962  0.00  0.00     0.105 C 
ATOM     19  HA  LIG d   1       3.952  -9.687  -6.278  0.00  0.00     0.060 H 
ATOM     20  C   LIG d   1       5.770  -8.566  -6.227  0.00  0.00     0.237 C 
ATOM     21  O   LIG d   1       6.767  -9.103  -5.794  0.00  0.00    -0.274 OA
ATOM     22  H   LIG d   1       6.999  -3.279  -4.216  0.00  0.00     0.156 HD
ATOM     23  H   LIG d   1       7.490  -4.619  -4.987  0.00  0.00     0.048 H 
ATOM     24  H   LIG d   1       7.477  -5.254  -6.654  0.00  0.00     0.048 H 
ATOM     25  H   LIG d   1       6.180  -6.472  -4.184  0.00  0.00     0.048 H 
ATOM     26  H   LIG d   1       7.489  -7.160  -5.169  0.00  0.00     0.048 H 
ATOM     27  H   LIG d   1       3.774  -4.530  -6.928  0.00  0.00     0.049 H 
ATOM     28  H   LIG d   1       5.151  -4.992  -7.948  0.00  0.00     0.049 H 
ATOM     29  H   LIG d   1       4.072  -8.827 -10.127  0.00  0.00     0.049 H 
ATOM     30  H   LIG d   1       2.991  -9.879  -9.162  0.00  0.00     0.049 H 
ATOM     31  H   LIG d   1       4.918 -11.523  -7.228  0.00  0.00     0.031 H 
ATOM     32  H   LIG d   1       6.450 -10.625  -7.439  0.00  0.00     0.031 H 
ENDROOT
BRANCH   1  33
ATOM     33  C   LIG d   1       5.747  -1.755  -3.609  0.00  0.00     0.038 A 
ATOM     34  C   LIG d   1       4.778  -1.905  -2.625  0.00  0.00    -0.040 A 
ATOM     35  C   LIG d   1       4.389  -0.819  -1.867  0.00  0.00    -0.057 A 
ATOM     36  H   LIG d   1       4.328  -2.872  -2.454  0.00  0.00     0.064 H 
ATOM     37  C   LIG d   1       4.962   0.421  -2.084  0.00  0.00    -0.020 A 
ATOM     38  H   LIG d   1       3.635  -0.937  -1.103  0.00  0.00     0.062 H 
ATOM     39  C   LIG d   1       5.932   0.575  -3.065  0.00  0.00     0.122 A 
ATOM     40  H   LIG d   1       4.656   1.268  -1.489  0.00  0.00     0.065 H 
ATOM     41  C   LIG d   1       6.329  -0.514  -3.824  0.00  0.00     0.001 A 
ATOM     42  H   LIG d   1       7.086  -0.395  -4.585  0.00  0.00     0.067 H 
BRANCH  39  43
ATOM     43  O   LIG d   1       6.495   1.795  -3.277  0.00  0.00    -0.495 OA
BRANCH  43  44
ATOM     44  C   LIG d   1       7.805   1.813  -3.849  0.00  0.00     0.079 C 
ATOM     45  H   LIG d   1       8.212   0.803  -3.858  0.00  0.00     0.066 H 
ATOM     46  H   LIG d   1       7.750   2.193  -4.869  0.00  0.00     0.066 H 
ATOM     47  H   LIG d   1       8.451   2.459  -3.255  0.00  0.00     0.066 H 
ENDBRANCH  43  44
ENDBRANCH  39  43
ENDBRANCH   1  33
BRANCH  15  48
ATOM     48  O   LIG d   1       4.627 -11.717  -9.663  0.00  0.00    -0.370 OA
BRANCH  48  49
ATOM     49  C   LIG d   1       4.303 -12.694  -8.671  0.00  0.00     0.073 C 
ATOM     50  H   LIG d   1       4.880 -13.600  -8.852  0.00  0.00     0.061 H 
ATOM     51  H   LIG d   1       4.543 -12.302  -7.683  0.00  0.00     0.061 H 
BRANCH  49  52
ATOM     52  C   LIG d   1       2.832 -13.013  -8.742  0.00  0.00    -0.022 A 
ATOM     53  C   LIG d   1       2.233 -13.742  -7.731  0.00  0.00    -0.054 A 
ATOM     54  C   LIG d   1       0.884 -14.035  -7.794  0.00  0.00    -0.026 A 
ATOM     55  H   LIG d   1       2.822 -14.083  -6.890  0.00  0.00     0.062 H 
ATOM     56  C   LIG d   1       0.132 -13.599  -8.871  0.00  0.00     0.123 A 
ATOM     57  H   LIG d   1       0.418 -14.604  -7.004  0.00  0.00     0.065 H 
ATOM     58  C   LIG d   1       0.732 -12.870  -9.884  0.00  0.00    -0.026 A 
ATOM     59  F   LIG d   1      -1.187 -13.885  -8.934  0.00  0.00    -0.205 F 
ATOM     60  C   LIG d   1       2.081 -12.573  -9.815  0.00  0.00    -0.054 A 
ATOM     61  H   LIG d   1       0.145 -12.528 -10.724  0.00  0.00     0.065 H 
ATOM     62  H   LIG d   1       2.547 -12.001 -10.603  0.00  0.00     0.062 H 
ENDBRANCH  49  52
ENDBRANCH  48  49
ENDBRANCH  15  48
TORSDOF 6
ENDMDL
MODEL 4
REMARK VINA RESULT:      -6.8     10.202     12.678
REMARK  6 active torsions:
REMARK  status: ('A' for Active; 'I' for Inactive)
REMARK    1  A    between atoms: C_1  and  O_2 
REMARK    2  A    between atoms: O_2  and  C_3 
REMARK    3  A    between atoms: C_7  and  N_9 
REMARK       I    between atoms: N_9  and  C_10 
REMARK       I    between atoms: C_10  and  N_12 
REMARK    4  A    between atoms: C_23  and  O_30 
REMARK    5  A    between atoms: O_30  and  C_31 
REMARK    6  A    between atoms: C_31  and  C_32 
ROOT
ATOM      1  N   LIG d   1       4.188  -1.661  -6.856  0.00  0.00    -0.269 N 
ATOM      2  C   LIG d   1       5.261  -1.630  -6.043  0.00  0.00     0.307 C 
ATOM      3  O   LIG d   1       5.900  -0.602  -5.919  0.00  0.00    -0.252 OA
ATOM      4  N   LIG d   1       5.627  -2.736  -5.367  0.00  0.00    -0.282 N 
ATOM      5  C   LIG d   1       4.810  -3.958  -5.408  0.00  0.00     0.032 C 
ATOM      6  C   LIG d   1       5.673  -5.073  -5.994  0.00  0.00     0.031 C 
ATOM      7  N   LIG d   1       6.975  -5.139  -5.323  0.00  0.00    -0.285 N 
ATOM      8  CA  LIG d   1       7.722  -3.959  -4.925  0.00  0.00     0.118 C 
ATOM      9  HA  LIG d   1       8.362  -3.670  -5.759  0.00  0.00     0.061 H 
ATOM     10  C   LIG d   1       6.851  -2.763  -4.567  0.00  0.00     0.043 C 
ATOM     11  C   LIG d   1       8.629  -4.250  -3.748  0.00  0.00     0.238 C 
ATOM     12  O   LIG d   1       8.926  -3.374  -2.963  0.00  0.00    -0.274 OA
ATOM     13  N   LIG d   1       9.118  -5.501  -3.597  0.00  0.00    -0.286 N 
ATOM     14  C   LIG d   1       9.877  -6.073  -2.483  0.00  0.00     0.042 C 
ATOM     15  C   LIG d   1       9.398  -7.539  -2.384  0.00  0.00     0.077 C 
ATOM     16  H   LIG d   1       8.543  -7.615  -1.712  0.00  0.00     0.061 H 
ATOM     17  C   LIG d   1       8.987  -7.907  -3.824  0.00  0.00     0.002 C 
ATOM     18  CA  LIG d   1       8.859  -6.574  -4.570  0.00  0.00     0.105 C 
ATOM     19  HA  LIG d   1       9.589  -6.528  -5.378  0.00  0.00     0.060 H 
ATOM     20  C   LIG d   1       7.473  -6.388  -5.120  0.00  0.00     0.237 C 
ATOM     21  O   LIG d   1       6.794  -7.358  -5.384  0.00  0.00    -0.274 OA
ATOM     22  H   LIG d   1       3.616  -2.444  -6.875  0.00  0.00     0.156 HD
ATOM     23  H   LIG d   1       3.935  -3.798  -6.039  0.00  0.00     0.048 H 
ATOM     24  H   LIG d   1       4.494  -4.227  -4.400  0.00  0.00     0.048 H 
ATOM     25  H   LIG d   1       5.826  -4.884  -7.057  0.00  0.00     0.048 H 
ATOM     26  H   LIG d   1       5.158  -6.025  -5.871  0.00  0.00     0.048 H 
ATOM     27  H   LIG d   1       7.414  -1.847  -4.744  0.00  0.00     0.049 H 
ATOM     28  H   LIG d   1       6.586  -2.819  -3.511  0.00  0.00     0.049 H 
ATOM     29  H   LIG d   1       9.654  -5.539  -1.559  0.00  0.00     0.049 H 
ATOM     30  H   LIG d   1      10.945  -6.037  -2.695  0.00  0.00     0.049 H 
ATOM     31  H   LIG d   1       9.755  -8.527  -4.289  0.00  0.00     0.031 H 
ATOM     32  H   LIG d   1       8.031  -8.431  -3.821  0.00  0.00     0.031 H 
ENDROOT
BRANCH   1  33
ATOM     33  C   LIG d   1       3.897  -0.564  -7.675  0.00  0.00     0.038 A 
ATOM     34  C   LIG d   1       3.036   0.430  -7.228  0.00  0.00    -0.040 A 
ATOM     35  C   LIG d   1       2.749   1.512  -8.036  0.00  0.00    -0.057 A 
ATOM     36  H   LIG d   1       2.591   0.355  -6.246  0.00  0.00     0.064 H 
ATOM     37  C   LIG d   1       3.316   1.610  -9.292  0.00  0.00    -0.020 A 
ATOM     38  H   LIG d   1       2.079   2.284  -7.686  0.00  0.00     0.062 H 
ATOM     39  C   LIG d   1       4.178   0.620  -9.744  0.00  0.00     0.122 A 
ATOM     40  H   LIG d   1       3.091   2.458  -9.922  0.00  0.00     0.065 H 
ATOM     41  C   LIG d   1       4.473  -0.465  -8.934  0.00  0.00     0.001 A 
ATOM     42  H   LIG d   1       5.146  -1.233  -9.283  0.00  0.00     0.067 H 
BRANCH  39  43
ATOM     43  O   LIG d   1       4.736   0.718 -10.980  0.00  0.00    -0.495 OA
BRANCH  43  44
ATOM     44  C   LIG d   1       4.473  -0.346 -11.897  0.00  0.00     0.079 C 
ATOM     45  H   LIG d   1       5.399  -0.877 -12.114  0.00  0.00     0.066 H 
ATOM     46  H   LIG d   1       3.753  -1.035 -11.456  0.00  0.00     0.066 H 
ATOM     47  H   LIG d   1       4.064   0.064 -12.821  0.00  0.00     0.066 H 
ENDBRANCH  43  44
ENDBRANCH  39  43
ENDBRANCH   1  33
BRANCH  15  48
ATOM     48  O   LIG d   1      10.462  -8.381  -1.937  0.00  0.00    -0.370 OA
BRANCH  48  49
ATOM     49  C   LIG d   1      11.203  -7.848  -0.837  0.00  0.00     0.073 C 
ATOM     50  H   LIG d   1      12.256  -7.783  -1.106  0.00  0.00     0.061 H 
ATOM     51  H   LIG d   1      10.828  -6.854  -0.595  0.00  0.00     0.061 H 
BRANCH  49  52
ATOM     52  C   LIG d   1      11.044  -8.750   0.360  0.00  0.00    -0.022 A 
ATOM     53  C   LIG d   1      11.167  -8.232   1.636  0.00  0.00    -0.054 A 
ATOM     54  C   LIG d   1      11.022  -9.058   2.735  0.00  0.00    -0.026 A 
ATOM     55  H   LIG d   1      11.377  -7.181   1.774  0.00  0.00     0.062 H 
ATOM     56  C   LIG d   1      10.754 -10.404   2.557  0.00  0.00     0.123 A 
ATOM     57  H   LIG d   1      11.118  -8.653   3.731  0.00  0.00     0.065 H 
ATOM     58  C   LIG d   1      10.632 -10.922   1.278  0.00  0.00    -0.026 A 
ATOM     59  F   LIG d   1      10.612 -11.212   3.630  0.00  0.00    -0.205 F 
ATOM     60  C   LIG d   1      10.772 -10.092   0.182  0.00  0.00    -0.054 A 
ATOM     61  H   LIG d   1      10.422 -11.973   1.139  0.00  0.00     0.065 H 
ATOM     62  H   LIG d   1      10.673 -10.496  -0.815  0.00  0.00     0.062 H 
ENDBRANCH  49  52
ENDBRANCH  48  49
ENDBRANCH  15  48
TORSDOF 6
ENDMDL
MODEL 5
REMARK VINA RESULT:      -6.8      9.990     13.890
REMARK  6 active torsions:
REMARK  status: ('A' for Active; 'I' for Inactive)
REMARK    1  A    between atoms: C_1  and  O_2 
REMARK    2  A    between atoms: O_2  and  C_3 
REMARK    3  A    between atoms: C_7  and  N_9 
REMARK       I    between atoms: N_9  and  C_10 
REMARK       I    between atoms: C_10  and  N_12 
REMARK    4  A    between atoms: C_23  and  O_30 
REMARK    5  A    between atoms: O_30  and  C_31 
REMARK    6  A    between atoms: C_31  and  C_32 
ROOT
ATOM      1  N   LIG d   1       0.541  -2.010 -13.400  0.00  0.00    -0.269 N 
ATOM      2  C   LIG d   1       0.865  -2.825 -12.377  0.00  0.00     0.307 C 
ATOM      3  O   LIG d   1       0.117  -3.730 -12.059  0.00  0.00    -0.252 OA
ATOM      4  N   LIG d   1       2.018  -2.638 -11.706  0.00  0.00    -0.282 N 
ATOM      5  C   LIG d   1       2.995  -1.626 -12.138  0.00  0.00     0.032 C 
ATOM      6  C   LIG d   1       3.167  -0.630 -10.994  0.00  0.00     0.031 C 
ATOM      7  N   LIG d   1       3.411  -1.323  -9.725  0.00  0.00    -0.285 N 
ATOM      8  CA  LIG d   1       2.728  -2.548  -9.346  0.00  0.00     0.118 C 
ATOM      9  HA  LIG d   1       1.815  -2.272  -8.820  0.00  0.00     0.061 H 
ATOM     10  C   LIG d   1       2.343  -3.433 -10.523  0.00  0.00     0.043 C 
ATOM     11  C   LIG d   1       3.562  -3.372  -8.389  0.00  0.00     0.238 C 
ATOM     12  O   LIG d   1       3.451  -4.579  -8.353  0.00  0.00    -0.274 OA
ATOM     13  N   LIG d   1       4.422  -2.737  -7.562  0.00  0.00    -0.286 N 
ATOM     14  C   LIG d   1       5.434  -3.299  -6.666  0.00  0.00     0.042 C 
ATOM     15  C   LIG d   1       6.605  -2.291  -6.703  0.00  0.00     0.077 C 
ATOM     16  H   LIG d   1       7.305  -2.551  -7.498  0.00  0.00     0.061 H 
ATOM     17  C   LIG d   1       5.934  -0.934  -6.997  0.00  0.00     0.002 C 
ATOM     18  CA  LIG d   1       4.527  -1.271  -7.506  0.00  0.00     0.105 C 
ATOM     19  HA  LIG d   1       3.779  -0.868  -6.822  0.00  0.00     0.060 H 
ATOM     20  C   LIG d   1       4.303  -0.728  -8.889  0.00  0.00     0.237 C 
ATOM     21  O   LIG d   1       4.923   0.246  -9.262  0.00  0.00    -0.274 OA
ATOM     22  H   LIG d   1       1.182  -1.358 -13.723  0.00  0.00     0.156 HD
ATOM     23  H   LIG d   1       2.625  -1.110 -13.025  0.00  0.00     0.048 H 
ATOM     24  H   LIG d   1       3.949  -2.103 -12.360  0.00  0.00     0.048 H 
ATOM     25  H   LIG d   1       2.262  -0.028 -10.906  0.00  0.00     0.048 H 
ATOM     26  H   LIG d   1       4.011   0.023 -11.213  0.00  0.00     0.048 H 
ATOM     27  H   LIG d   1       1.475  -4.033 -10.247  0.00  0.00     0.049 H 
ATOM     28  H   LIG d   1       3.175  -4.098 -10.756  0.00  0.00     0.049 H 
ATOM     29  H   LIG d   1       5.762  -4.274  -7.029  0.00  0.00     0.049 H 
ATOM     30  H   LIG d   1       5.039  -3.384  -5.653  0.00  0.00     0.049 H 
ATOM     31  H   LIG d   1       5.873  -0.338  -6.086  0.00  0.00     0.031 H 
ATOM     32  H   LIG d   1       6.493  -0.396  -7.763  0.00  0.00     0.031 H 
ENDROOT
BRANCH   1  33
ATOM     33  C   LIG d   1      -0.722  -2.104 -13.996  0.00  0.00     0.038 A 
ATOM     34  C   LIG d   1      -0.901  -2.892 -15.126  0.00  0.00    -0.040 A 
ATOM     35  C   LIG d   1      -2.147  -2.985 -15.715  0.00  0.00    -0.057 A 
ATOM     36  H   LIG d   1      -0.065  -3.433 -15.544  0.00  0.00     0.064 H 
ATOM     37  C   LIG d   1      -3.219  -2.293 -15.183  0.00  0.00    -0.020 A 
ATOM     38  H   LIG d   1      -2.284  -3.597 -16.593  0.00  0.00     0.062 H 
ATOM     39  C   LIG d   1      -3.046  -1.504 -14.054  0.00  0.00     0.122 A 
ATOM     40  H   LIG d   1      -4.192  -2.368 -15.645  0.00  0.00     0.065 H 
ATOM     41  C   LIG d   1      -1.798  -1.414 -13.457  0.00  0.00     0.001 A 
ATOM     42  H   LIG d   1      -1.664  -0.804 -12.576  0.00  0.00     0.067 H 
BRANCH  39  43
ATOM     43  O   LIG d   1      -4.102  -0.825 -13.531  0.00  0.00    -0.495 OA
BRANCH  43  44
ATOM     44  C   LIG d   1      -5.295  -1.571 -13.283  0.00  0.00     0.079 C 
ATOM     45  H   LIG d   1      -6.044  -0.920 -12.836  0.00  0.00     0.066 H 
ATOM     46  H   LIG d   1      -5.675  -1.971 -14.223  0.00  0.00     0.066 H 
ATOM     47  H   LIG d   1      -5.074  -2.393 -12.602  0.00  0.00     0.066 H 
ENDBRANCH  43  44
ENDBRANCH  39  43
ENDBRANCH   1  33
BRANCH  15  48
ATOM     48  O   LIG d   1       7.272  -2.256  -5.441  0.00  0.00    -0.370 OA
BRANCH  48  49
ATOM     49  C   LIG d   1       6.519  -2.828  -4.369  0.00  0.00     0.073 C 
ATOM     50  H   LIG d   1       5.729  -3.458  -4.776  0.00  0.00     0.061 H 
ATOM     51  H   LIG d   1       7.178  -3.430  -3.743  0.00  0.00     0.061 H 
BRANCH  49  52
ATOM     52  C   LIG d   1       5.907  -1.728  -3.541  0.00  0.00    -0.022 A 
ATOM     53  C   LIG d   1       4.769  -1.975  -2.795  0.00  0.00    -0.054 A 
ATOM     54  C   LIG d   1       4.207  -0.967  -2.036  0.00  0.00    -0.026 A 
ATOM     55  H   LIG d   1       4.319  -2.958  -2.808  0.00  0.00     0.062 H 
ATOM     56  C   LIG d   1       4.783   0.291  -2.021  0.00  0.00     0.123 A 
ATOM     57  H   LIG d   1       3.318  -1.161  -1.454  0.00  0.00     0.065 H 
ATOM     58  C   LIG d   1       5.923   0.538  -2.769  0.00  0.00    -0.026 A 
ATOM     59  F   LIG d   1       4.234   1.278  -1.278  0.00  0.00    -0.205 F 
ATOM     60  C   LIG d   1       6.486  -0.473  -3.523  0.00  0.00    -0.054 A 
ATOM     61  H   LIG d   1       6.374   1.520  -2.757  0.00  0.00     0.065 H 
ATOM     62  H   LIG d   1       7.377  -0.281  -4.102  0.00  0.00     0.062 H 
ENDBRANCH  49  52
ENDBRANCH  48  49
ENDBRANCH  15  48
TORSDOF 6
ENDMDL
MODEL 6
REMARK VINA RESULT:      -6.8      9.996     11.735
REMARK  6 active torsions:
REMARK  status: ('A' for Active; 'I' for Inactive)
REMARK    1  A    between atoms: C_1  and  O_2 
REMARK    2  A    between atoms: O_2  and  C_3 
REMARK    3  A    between atoms: C_7  and  N_9 
REMARK       I    between atoms: N_9  and  C_10 
REMARK       I    between atoms: C_10  and  N_12 
REMARK    4  A    between atoms: C_23  and  O_30 
REMARK    5  A    between atoms: O_30  and  C_31 
REMARK    6  A    between atoms: C_31  and  C_32 
ROOT
ATOM      1  N   LIG d   1       4.297  -0.084 -14.288  0.00  0.00    -0.269 N 
ATOM      2  C   LIG d   1       5.227  -0.811 -13.638  0.00  0.00     0.307 C 
ATOM      3  O   LIG d   1       5.975  -1.539 -14.262  0.00  0.00    -0.252 OA
ATOM      4  N   LIG d   1       5.329  -0.730 -12.298  0.00  0.00    -0.282 N 
ATOM      5  C   LIG d   1       4.517   0.225 -11.528  0.00  0.00     0.032 C 
ATOM      6  C   LIG d   1       3.656  -0.576 -10.555  0.00  0.00     0.031 C 
ATOM      7  N   LIG d   1       4.466  -1.546  -9.810  0.00  0.00    -0.285 N 
ATOM      8  CA  LIG d   1       5.544  -2.309 -10.415  0.00  0.00     0.118 C 
ATOM      9  HA  LIG d   1       5.119  -3.231 -10.812  0.00  0.00     0.061 H 
ATOM     10  C   LIG d   1       6.251  -1.590 -11.556  0.00  0.00     0.043 C 
ATOM     11  C   LIG d   1       6.585  -2.703  -9.390  0.00  0.00     0.238 C 
ATOM     12  O   LIG d   1       7.743  -2.866  -9.714  0.00  0.00    -0.274 OA
ATOM     13  N   LIG d   1       6.200  -2.887  -8.108  0.00  0.00    -0.286 N 
ATOM     14  C   LIG d   1       7.018  -3.117  -6.915  0.00  0.00     0.042 C 
ATOM     15  C   LIG d   1       6.276  -2.385  -5.774  0.00  0.00     0.077 C 
ATOM     16  H   LIG d   1       6.623  -1.354  -5.695  0.00  0.00     0.061 H 
ATOM     17  C   LIG d   1       4.792  -2.424  -6.194  0.00  0.00     0.002 C 
ATOM     18  CA  LIG d   1       4.794  -2.787  -7.683  0.00  0.00     0.105 C 
ATOM     19  HA  LIG d   1       4.291  -3.743  -7.833  0.00  0.00     0.060 H 
ATOM     20  C   LIG d   1       4.127  -1.721  -8.506  0.00  0.00     0.237 C 
ATOM     21  O   LIG d   1       3.282  -1.012  -8.002  0.00  0.00    -0.274 OA
ATOM     22  H   LIG d   1       3.773   0.575 -13.807  0.00  0.00     0.156 HD
ATOM     23  H   LIG d   1       3.878   0.796 -12.203  0.00  0.00     0.048 H 
ATOM     24  H   LIG d   1       5.167   0.903 -10.975  0.00  0.00     0.048 H 
ATOM     25  H   LIG d   1       2.886  -1.108 -11.115  0.00  0.00     0.048 H 
ATOM     26  H   LIG d   1       3.180   0.107  -9.853  0.00  0.00     0.048 H 
ATOM     27  H   LIG d   1       6.673  -2.330 -12.235  0.00  0.00     0.049 H 
ATOM     28  H   LIG d   1       7.057  -0.981 -11.148  0.00  0.00     0.049 H 
ATOM     29  H   LIG d   1       8.013  -2.693  -7.052  0.00  0.00     0.049 H 
ATOM     30  H   LIG d   1       7.085  -4.183  -6.702  0.00  0.00     0.049 H 
ATOM     31  H   LIG d   1       4.259  -3.182  -5.621  0.00  0.00     0.031 H 
ATOM     32  H   LIG d   1       4.334  -1.446  -6.045  0.00  0.00     0.031 H 
ENDROOT
BRANCH   1  33
ATOM     33  C   LIG d   1       4.086  -0.281 -15.658  0.00  0.00     0.038 A 
ATOM     34  C   LIG d   1       3.237  -1.290 -16.093  0.00  0.00    -0.040 A 
ATOM     35  C   LIG d   1       3.029  -1.485 -17.444  0.00  0.00    -0.057 A 
ATOM     36  H   LIG d   1       2.739  -1.923 -15.374  0.00  0.00     0.064 H 
ATOM     37  C   LIG d   1       3.665  -0.677 -18.368  0.00  0.00    -0.020 A 
ATOM     38  H   LIG d   1       2.368  -2.270 -17.781  0.00  0.00     0.062 H 
ATOM     39  C   LIG d   1       4.515   0.334 -17.939  0.00  0.00     0.122 A 
ATOM     40  H   LIG d   1       3.500  -0.831 -19.424  0.00  0.00     0.065 H 
ATOM     41  C   LIG d   1       4.721   0.535 -16.583  0.00  0.00     0.001 A 
ATOM     42  H   LIG d   1       5.379   1.324 -16.249  0.00  0.00     0.067 H 
BRANCH  39  43
ATOM     43  O   LIG d   1       5.140   1.128 -18.848  0.00  0.00    -0.495 OA
BRANCH  43  44
ATOM     44  C   LIG d   1       4.995   2.540 -18.684  0.00  0.00     0.079 C 
ATOM     45  H   LIG d   1       4.216   2.906 -19.352  0.00  0.00     0.066 H 
ATOM     46  H   LIG d   1       4.722   2.759 -17.652  0.00  0.00     0.066 H 
ATOM     47  H   LIG d   1       5.938   3.032 -18.922  0.00  0.00     0.066 H 
ENDBRANCH  43  44
ENDBRANCH  39  43
ENDBRANCH   1  33
BRANCH  15  48
ATOM     48  O   LIG d   1       6.464  -3.074  -4.537  0.00  0.00    -0.370 OA
BRANCH  48  49
ATOM     49  C   LIG d   1       7.051  -2.273  -3.509  0.00  0.00     0.073 C 
ATOM     50  H   LIG d   1       7.315  -2.905  -2.662  0.00  0.00     0.061 H 
ATOM     51  H   LIG d   1       7.948  -1.789  -3.894  0.00  0.00     0.061 H 
BRANCH  49  52
ATOM     52  C   LIG d   1       6.065  -1.223  -3.064  0.00  0.00    -0.022 A 
ATOM     53  C   LIG d   1       4.857  -1.601  -2.509  0.00  0.00    -0.054 A 
ATOM     54  C   LIG d   1       3.952  -0.640  -2.102  0.00  0.00    -0.026 A 
ATOM     55  H   LIG d   1       4.620  -2.650  -2.395  0.00  0.00     0.062 H 
ATOM     56  C   LIG d   1       4.256   0.703  -2.249  0.00  0.00     0.123 A 
ATOM     57  H   LIG d   1       3.008  -0.936  -1.668  0.00  0.00     0.065 H 
ATOM     58  C   LIG d   1       5.466   1.080  -2.806  0.00  0.00    -0.026 A 
ATOM     59  F   LIG d   1       3.372   1.643  -1.850  0.00  0.00    -0.205 F 
ATOM     60  C   LIG d   1       6.372   0.116  -3.208  0.00  0.00    -0.054 A 
ATOM     61  H   LIG d   1       5.705   2.128  -2.920  0.00  0.00     0.065 H 
ATOM     62  H   LIG d   1       7.318   0.412  -3.638  0.00  0.00     0.062 H 
ENDBRANCH  49  52
ENDBRANCH  48  49
ENDBRANCH  15  48
TORSDOF 6
ENDMDL
MODEL 7
REMARK VINA RESULT:      -6.7      6.620     12.265
REMARK  6 active torsions:
REMARK  status: ('A' for Active; 'I' for Inactive)
REMARK    1  A    between atoms: C_1  and  O_2 
REMARK    2  A    between atoms: O_2  and  C_3 
REMARK    3  A    between atoms: C_7  and  N_9 
REMARK       I    between atoms: N_9  and  C_10 
REMARK       I    between atoms: C_10  and  N_12 
REMARK    4  A    between atoms: C_23  and  O_30 
REMARK    5  A    between atoms: O_30  and  C_31 
REMARK    6  A    between atoms: C_31  and  C_32 
ROOT
ATOM      1  N   LIG d   1       2.004  -1.085  -9.488  0.00  0.00    -0.269 N 
ATOM      2  C   LIG d   1       3.220  -0.518  -9.611  0.00  0.00     0.307 C 
ATOM      3  O   LIG d   1       3.802  -0.552 -10.679  0.00  0.00    -0.252 OA
ATOM      4  N   LIG d   1       3.792   0.086  -8.552  0.00  0.00    -0.282 N 
ATOM      5  C   LIG d   1       3.067   0.242  -7.281  0.00  0.00     0.032 C 
ATOM      6  C   LIG d   1       3.859  -0.492  -6.202  0.00  0.00     0.031 C 
ATOM      7  N   LIG d   1       5.275  -0.111  -6.237  0.00  0.00    -0.285 N 
ATOM      8  CA  LIG d   1       6.009   0.097  -7.472  0.00  0.00     0.118 C 
ATOM      9  HA  LIG d   1       6.439  -0.858  -7.772  0.00  0.00     0.061 H 
ATOM     10  C   LIG d   1       5.156   0.609  -8.624  0.00  0.00     0.043 C 
ATOM     11  C   LIG d   1       7.160   1.060  -7.275  0.00  0.00     0.238 C 
ATOM     12  O   LIG d   1       7.557   1.748  -8.192  0.00  0.00    -0.274 OA
ATOM     13  N   LIG d   1       7.751   1.129  -6.061  0.00  0.00    -0.286 N 
ATOM     14  C   LIG d   1       8.763   2.067  -5.572  0.00  0.00     0.042 C 
ATOM     15  C   LIG d   1       8.414   2.293  -4.084  0.00  0.00     0.077 C 
ATOM     16  H   LIG d   1       7.725   3.133  -3.979  0.00  0.00     0.061 H 
ATOM     17  C   LIG d   1       7.734   0.980  -3.645  0.00  0.00     0.002 C 
ATOM     18  CA  LIG d   1       7.365   0.253  -4.943  0.00  0.00     0.105 C 
ATOM     19  HA  LIG d   1       7.904  -0.692  -5.007  0.00  0.00     0.060 H 
ATOM     20  C   LIG d   1       5.885   0.006  -5.028  0.00  0.00     0.237 C 
ATOM     21  O   LIG d   1       5.231  -0.089  -4.010  0.00  0.00    -0.274 OA
ATOM     22  H   LIG d   1       1.494  -0.967  -8.672  0.00  0.00     0.156 HD
ATOM     23  H   LIG d   1       2.070  -0.192  -7.368  0.00  0.00     0.048 H 
ATOM     24  H   LIG d   1       2.988   1.299  -7.027  0.00  0.00     0.048 H 
ATOM     25  H   LIG d   1       3.772  -1.567  -6.366  0.00  0.00     0.048 H 
ATOM     26  H   LIG d   1       3.445  -0.244  -5.225  0.00  0.00     0.048 H 
ATOM     27  H   LIG d   1       5.607   0.299  -9.566  0.00  0.00     0.049 H 
ATOM     28  H   LIG d   1       5.123   1.698  -8.587  0.00  0.00     0.049 H 
ATOM     29  H   LIG d   1       8.705   3.007  -6.122  0.00  0.00     0.049 H 
ATOM     30  H   LIG d   1       9.759   1.633  -5.666  0.00  0.00     0.049 H 
ATOM     31  H   LIG d   1       8.426   0.376  -3.058  0.00  0.00     0.031 H 
ATOM     32  H   LIG d   1       6.837   1.196  -3.065  0.00  0.00     0.031 H 
ENDROOT
BRANCH   1  33
ATOM     33  C   LIG d   1       1.476  -1.845 -10.539  0.00  0.00     0.038 A 
ATOM     34  C   LIG d   1       0.902  -1.213 -11.634  0.00  0.00    -0.040 A 
ATOM     35  C   LIG d   1       0.380  -1.962 -12.671  0.00  0.00    -0.057 A 
ATOM     36  H   LIG d   1       0.863  -0.134 -11.675  0.00  0.00     0.064 H 
ATOM     37  C   LIG d   1       0.428  -3.343 -12.621  0.00  0.00    -0.020 A 
ATOM     38  H   LIG d   1      -0.066  -1.469 -13.521  0.00  0.00     0.062 H 
ATOM     39  C   LIG d   1       1.002  -3.980 -11.529  0.00  0.00     0.122 A 
ATOM     40  H   LIG d   1       0.020  -3.926 -13.433  0.00  0.00     0.065 H 
ATOM     41  C   LIG d   1       1.531  -3.230 -10.490  0.00  0.00     0.001 A 
ATOM     42  H   LIG d   1       1.981  -3.725  -9.642  0.00  0.00     0.067 H 
BRANCH  39  43
ATOM     43  O   LIG d   1       1.049  -5.337 -11.482  0.00  0.00    -0.495 OA
BRANCH  43  44
ATOM     44  C   LIG d   1       1.423  -5.931 -10.237  0.00  0.00     0.079 C 
ATOM     45  H   LIG d   1       1.130  -5.274  -9.418  0.00  0.00     0.066 H 
ATOM     46  H   LIG d   1       0.922  -6.892 -10.128  0.00  0.00     0.066 H 
ATOM     47  H   LIG d   1       2.502  -6.079 -10.215  0.00  0.00     0.066 H 
ENDBRANCH  43  44
ENDBRANCH  39  43
ENDBRANCH   1  33
BRANCH  15  48
ATOM     48  O   LIG d   1       9.601   2.521  -3.323  0.00  0.00    -0.370 OA
BRANCH  48  49
ATOM     49  C   LIG d   1      10.386   3.622  -3.786  0.00  0.00     0.073 C 
ATOM     50  H   LIG d   1      11.421   3.303  -3.909  0.00  0.00     0.061 H 
ATOM     51  H   LIG d   1       9.997   3.969  -4.742  0.00  0.00     0.061 H 
BRANCH  49  52
ATOM     52  C   LIG d   1      10.322   4.743  -2.781  0.00  0.00    -0.022 A 
ATOM     53  C   LIG d   1      11.060   4.667  -1.614  0.00  0.00    -0.054 A 
ATOM     54  C   LIG d   1      11.003   5.695  -0.691  0.00  0.00    -0.026 A 
ATOM     55  H   LIG d   1      11.682   3.804  -1.423  0.00  0.00     0.062 H 
ATOM     56  C   LIG d   1      10.205   6.799  -0.935  0.00  0.00     0.123 A 
ATOM     57  H   LIG d   1      11.579   5.635   0.220  0.00  0.00     0.065 H 
ATOM     58  C   LIG d   1       9.466   6.873  -2.104  0.00  0.00    -0.026 A 
ATOM     59  F   LIG d   1      10.148   7.804  -0.034  0.00  0.00    -0.205 F 
ATOM     60  C   LIG d   1       9.530   5.847  -3.028  0.00  0.00    -0.054 A 
ATOM     61  H   LIG d   1       8.843   7.736  -2.296  0.00  0.00     0.065 H 
ATOM     62  H   LIG d   1       8.956   5.907  -3.941  0.00  0.00     0.062 H 
ENDBRANCH  49  52
ENDBRANCH  48  49
ENDBRANCH  15  48
TORSDOF 6
ENDMDL
MODEL 8
REMARK VINA RESULT:      -6.7      5.810      9.624
REMARK  6 active torsions:
REMARK  status: ('A' for Active; 'I' for Inactive)
REMARK    1  A    between atoms: C_1  and  O_2 
REMARK    2  A    between atoms: O_2  and  C_3 
REMARK    3  A    between atoms: C_7  and  N_9 
REMARK       I    between atoms: N_9  and  C_10 
REMARK       I    between atoms: C_10  and  N_12 
REMARK    4  A    between atoms: C_23  and  O_30 
REMARK    5  A    between atoms: O_30  and  C_31 
REMARK    6  A    between atoms: C_31  and  C_32 
ROOT
ATOM      1  N   LIG d   1       9.212   2.457  -5.016  0.00  0.00    -0.269 N 
ATOM      2  C   LIG d   1       8.061   1.794  -4.789  0.00  0.00     0.307 C 
ATOM      3  O   LIG d   1       7.191   2.302  -4.108  0.00  0.00    -0.252 OA
ATOM      4  N   LIG d   1       7.873   0.569  -5.317  0.00  0.00    -0.282 N 
ATOM      5  C   LIG d   1       8.858  -0.023  -6.236  0.00  0.00     0.032 C 
ATOM      6  C   LIG d   1       9.366  -1.315  -5.601  0.00  0.00     0.031 C 
ATOM      7  N   LIG d   1       8.252  -2.156  -5.153  0.00  0.00    -0.285 N 
ATOM      8  CA  LIG d   1       7.056  -1.620  -4.527  0.00  0.00     0.118 C 
ATOM      9  HA  LIG d   1       7.230  -1.579  -3.452  0.00  0.00     0.061 H 
ATOM     10  C   LIG d   1       6.685  -0.220  -4.995  0.00  0.00     0.043 C 
ATOM     11  C   LIG d   1       5.863  -2.524  -4.752  0.00  0.00     0.238 C 
ATOM     12  O   LIG d   1       4.739  -2.068  -4.785  0.00  0.00    -0.274 OA
ATOM     13  N   LIG d   1       6.069  -3.851  -4.898  0.00  0.00    -0.286 N 
ATOM     14  C   LIG d   1       5.122  -4.903  -5.272  0.00  0.00     0.042 C 
ATOM     15  C   LIG d   1       5.944  -5.898  -6.122  0.00  0.00     0.077 C 
ATOM     16  H   LIG d   1       5.902  -5.621  -7.176  0.00  0.00     0.061 H 
ATOM     17  C   LIG d   1       7.384  -5.764  -5.586  0.00  0.00     0.002 C 
ATOM     18  CA  LIG d   1       7.403  -4.461  -4.778  0.00  0.00     0.105 C 
ATOM     19  HA  LIG d   1       7.622  -4.676  -3.732  0.00  0.00     0.060 H 
ATOM     20  C   LIG d   1       8.415  -3.495  -5.326  0.00  0.00     0.237 C 
ATOM     21  O   LIG d   1       9.383  -3.912  -5.927  0.00  0.00    -0.274 OA
ATOM     22  H   LIG d   1       9.861   2.101  -5.644  0.00  0.00     0.156 HD
ATOM     23  H   LIG d   1       9.688   0.668  -6.384  0.00  0.00     0.048 H 
ATOM     24  H   LIG d   1       8.385  -0.243  -7.193  0.00  0.00     0.048 H 
ATOM     25  H   LIG d   1       9.996  -1.068  -4.746  0.00  0.00     0.048 H 
ATOM     26  H   LIG d   1       9.957  -1.864  -6.333  0.00  0.00     0.048 H 
ATOM     27  H   LIG d   1       6.127   0.282  -4.205  0.00  0.00     0.049 H 
ATOM     28  H   LIG d   1       6.056  -0.295  -5.882  0.00  0.00     0.049 H 
ATOM     29  H   LIG d   1       4.305  -4.486  -5.861  0.00  0.00     0.049 H 
ATOM     30  H   LIG d   1       4.734  -5.397  -4.381  0.00  0.00     0.049 H 
ATOM     31  H   LIG d   1       7.627  -6.610  -4.943  0.00  0.00     0.031 H 
ATOM     32  H   LIG d   1       8.089  -5.704  -6.415  0.00  0.00     0.031 H 
ENDROOT
BRANCH   1  33
ATOM     33  C   LIG d   1       9.472   3.658  -4.346  0.00  0.00     0.038 A 
ATOM     34  C   LIG d   1       9.159   4.871  -4.946  0.00  0.00    -0.040 A 
ATOM     35  C   LIG d   1       9.416   6.056  -4.285  0.00  0.00    -0.057 A 
ATOM     36  H   LIG d   1       8.714   4.887  -5.930  0.00  0.00     0.064 H 
ATOM     37  C   LIG d   1       9.987   6.039  -3.026  0.00  0.00    -0.020 A 
ATOM     38  H   LIG d   1       9.172   6.998  -4.753  0.00  0.00     0.062 H 
ATOM     39  C   LIG d   1      10.302   4.829  -2.422  0.00  0.00     0.122 A 
ATOM     40  H   LIG d   1      10.186   6.967  -2.512  0.00  0.00     0.065 H 
ATOM     41  C   LIG d   1      10.040   3.638  -3.080  0.00  0.00     0.001 A 
ATOM     42  H   LIG d   1      10.280   2.697  -2.609  0.00  0.00     0.067 H 
BRANCH  39  43
ATOM     43  O   LIG d   1      10.862   4.814  -1.184  0.00  0.00    -0.495 OA
BRANCH  43  44
ATOM     44  C   LIG d   1      10.732   6.001  -0.398  0.00  0.00     0.079 C 
ATOM     45  H   LIG d   1      11.708   6.289  -0.011  0.00  0.00     0.066 H 
ATOM     46  H   LIG d   1      10.334   6.804  -1.017  0.00  0.00     0.066 H 
ATOM     47  H   LIG d   1      10.053   5.813   0.434  0.00  0.00     0.066 H 
ENDBRANCH  43  44
ENDBRANCH  39  43
ENDBRANCH   1  33
BRANCH  15  48
ATOM     48  O   LIG d   1       5.462  -7.229  -5.934  0.00  0.00    -0.370 OA
BRANCH  48  49
ATOM     49  C   LIG d   1       6.496  -8.205  -5.779  0.00  0.00     0.073 C 
ATOM     50  H   LIG d   1       6.457  -8.909  -6.609  0.00  0.00     0.061 H 
ATOM     51  H   LIG d   1       7.465  -7.707  -5.769  0.00  0.00     0.061 H 
BRANCH  49  52
ATOM     52  C   LIG d   1       6.298  -8.945  -4.481  0.00  0.00    -0.022 A 
ATOM     53  C   LIG d   1       5.077  -9.530  -4.199  0.00  0.00    -0.054 A 
ATOM     54  C   LIG d   1       4.894 -10.209  -3.009  0.00  0.00    -0.026 A 
ATOM     55  H   LIG d   1       4.265  -9.455  -4.909  0.00  0.00     0.062 H 
ATOM     56  C   LIG d   1       5.934 -10.303  -2.100  0.00  0.00     0.123 A 
ATOM     57  H   LIG d   1       3.941 -10.664  -2.789  0.00  0.00     0.065 H 
ATOM     58  C   LIG d   1       7.156  -9.717  -2.384  0.00  0.00    -0.026 A 
ATOM     59  F   LIG d   1       5.756 -10.967  -0.937  0.00  0.00    -0.205 F 
ATOM     60  C   LIG d   1       7.338  -9.043  -3.577  0.00  0.00    -0.054 A 
ATOM     61  H   LIG d   1       7.968  -9.791  -1.675  0.00  0.00     0.065 H 
ATOM     62  H   LIG d   1       8.292  -8.590  -3.800  0.00  0.00     0.062 H 
ENDBRANCH  49  52
ENDBRANCH  48  49
ENDBRANCH  15  48
TORSDOF 6
ENDMDL
MODEL 9
REMARK VINA RESULT:      -6.6      5.740      9.989
REMARK  6 active torsions:
REMARK  status: ('A' for Active; 'I' for Inactive)
REMARK    1  A    between atoms: C_1  and  O_2 
REMARK    2  A    between atoms: O_2  and  C_3 
REMARK    3  A    between atoms: C_7  and  N_9 
REMARK       I    between atoms: N_9  and  C_10 
REMARK       I    between atoms: C_10  and  N_12 
REMARK    4  A    between atoms: C_23  and  O_30 
REMARK    5  A    between atoms: O_30  and  C_31 
REMARK    6  A    between atoms: C_31  and  C_32 
ROOT
ATOM      1  N   LIG d   1       7.253   1.779  -8.954  0.00  0.00    -0.269 N 
ATOM      2  C   LIG d   1       7.396   1.644  -7.621  0.00  0.00     0.307 C 
ATOM      3  O   LIG d   1       6.567   1.026  -6.980  0.00  0.00    -0.252 OA
ATOM      4  N   LIG d   1       8.456   2.192  -6.997  0.00  0.00    -0.282 N 
ATOM      5  C   LIG d   1       9.532   2.847  -7.758  0.00  0.00     0.032 C 
ATOM      6  C   LIG d   1       9.600   4.303  -7.306  0.00  0.00     0.031 C 
ATOM      7  N   LIG d   1       9.635   4.400  -5.843  0.00  0.00    -0.285 N 
ATOM      8  CA  LIG d   1       8.846   3.545  -4.973  0.00  0.00     0.118 C 
ATOM      9  HA  LIG d   1       7.885   4.032  -4.808  0.00  0.00     0.061 H 
ATOM     10  C   LIG d   1       8.578   2.159  -5.540  0.00  0.00     0.043 C 
ATOM     11  C   LIG d   1       9.501   3.382  -3.619  0.00  0.00     0.238 C 
ATOM     12  O   LIG d   1       9.326   2.376  -2.963  0.00  0.00    -0.274 OA
ATOM     13  N   LIG d   1      10.273   4.384  -3.142  0.00  0.00    -0.286 N 
ATOM     14  C   LIG d   1      11.126   4.415  -1.953  0.00  0.00     0.042 C 
ATOM     15  C   LIG d   1      12.341   5.281  -2.355  0.00  0.00     0.077 C 
ATOM     16  H   LIG d   1      13.127   4.659  -2.783  0.00  0.00     0.061 H 
ATOM     17  C   LIG d   1      11.785   6.254  -3.415  0.00  0.00     0.002 C 
ATOM     18  CA  LIG d   1      10.444   5.658  -3.859  0.00  0.00     0.105 C 
ATOM     19  HA  LIG d   1       9.632   6.340  -3.607  0.00  0.00     0.060 H 
ATOM     20  C   LIG d   1      10.436   5.374  -5.335  0.00  0.00     0.237 C 
ATOM     21  O   LIG d   1      11.149   6.017  -6.076  0.00  0.00    -0.274 OA
ATOM     22  H   LIG d   1       7.964   2.177  -9.480  0.00  0.00     0.156 HD
ATOM     23  H   LIG d   1       9.312   2.800  -8.825  0.00  0.00     0.048 H 
ATOM     24  H   LIG d   1      10.482   2.352  -7.556  0.00  0.00     0.048 H 
ATOM     25  H   LIG d   1       8.722   4.833  -7.679  0.00  0.00     0.048 H 
ATOM     26  H   LIG d   1      10.497   4.763  -7.717  0.00  0.00     0.048 H 
ATOM     27  H   LIG d   1       7.652   1.773  -5.114  0.00  0.00     0.049 H 
ATOM     28  H   LIG d   1       9.399   1.496  -5.266  0.00  0.00     0.049 H 
ATOM     29  H   LIG d   1      11.450   3.407  -1.693  0.00  0.00     0.049 H 
ATOM     30  H   LIG d   1      10.595   4.871  -1.118  0.00  0.00     0.049 H 
ATOM     31  H   LIG d   1      11.633   7.241  -2.978  0.00  0.00     0.031 H 
ATOM     32  H   LIG d   1      12.469   6.318  -4.262  0.00  0.00     0.031 H 
ENDROOT
BRANCH   1  33
ATOM     33  C   LIG d   1       6.079   1.345  -9.580  0.00  0.00     0.038 A 
ATOM     34  C   LIG d   1       4.930   2.123  -9.519  0.00  0.00    -0.040 A 
ATOM     35  C   LIG d   1       3.771   1.696 -10.136  0.00  0.00    -0.057 A 
ATOM     36  H   LIG d   1       4.943   3.063  -8.987  0.00  0.00     0.064 H 
ATOM     37  C   LIG d   1       3.750   0.493 -10.816  0.00  0.00    -0.020 A 
ATOM     38  H   LIG d   1       2.878   2.302 -10.087  0.00  0.00     0.062 H 
ATOM     39  C   LIG d   1       4.896  -0.289 -10.882  0.00  0.00     0.122 A 
ATOM     40  H   LIG d   1       2.843   0.161 -11.299  0.00  0.00     0.065 H 
ATOM     41  C   LIG d   1       6.062   0.140 -10.268  0.00  0.00     0.001 A 
ATOM     42  H   LIG d   1       6.955  -0.465 -10.321  0.00  0.00     0.067 H 
BRANCH  39  43
ATOM     43  O   LIG d   1       4.875  -1.471 -11.552  0.00  0.00    -0.495 OA
BRANCH  43  44
ATOM     44  C   LIG d   1       3.716  -2.290 -11.385  0.00  0.00     0.079 C 
ATOM     45  H   LIG d   1       2.826  -1.662 -11.367  0.00  0.00     0.066 H 
ATOM     46  H   LIG d   1       3.646  -2.994 -12.214  0.00  0.00     0.066 H 
ATOM     47  H   LIG d   1       3.791  -2.840 -10.447  0.00  0.00     0.066 H 
ENDBRANCH  43  44
ENDBRANCH  39  43
ENDBRANCH   1  33
BRANCH  15  48
ATOM     48  O   LIG d   1      12.833   6.003  -1.224  0.00  0.00    -0.370 OA
BRANCH  48  49
ATOM     49  C   LIG d   1      11.935   6.026  -0.113  0.00  0.00     0.073 C 
ATOM     50  H   LIG d   1      11.125   5.318  -0.286  0.00  0.00     0.061 H 
ATOM     51  H   LIG d   1      12.472   5.749   0.794  0.00  0.00     0.061 H 
BRANCH  49  52
ATOM     52  C   LIG d   1      11.365   7.412   0.045  0.00  0.00    -0.022 A 
ATOM     53  C   LIG d   1      12.035   8.352   0.807  0.00  0.00    -0.054 A 
ATOM     54  C   LIG d   1      11.514   9.623   0.952  0.00  0.00    -0.026 A 
ATOM     55  H   LIG d   1      12.966   8.091   1.289  0.00  0.00     0.062 H 
ATOM     56  C   LIG d   1      10.320   9.956   0.335  0.00  0.00     0.123 A 
ATOM     57  H   LIG d   1      12.037  10.356   1.547  0.00  0.00     0.065 H 
ATOM     58  C   LIG d   1       9.650   9.014  -0.428  0.00  0.00    -0.026 A 
ATOM     59  F   LIG d   1       9.810  11.199   0.476  0.00  0.00    -0.205 F 
ATOM     60  C   LIG d   1      10.177   7.745  -0.576  0.00  0.00    -0.054 A 
ATOM     61  H   LIG d   1       8.719   9.274  -0.911  0.00  0.00     0.065 H 
ATOM     62  H   LIG d   1       9.655   7.012  -1.174  0.00  0.00     0.062 H 
ENDBRANCH  49  52
ENDBRANCH  48  49
ENDBRANCH  15  48
TORSDOF 6
ENDMDL
