MODEL 1
REMARK VINA RESULT:      -5.8      0.000      0.000
REMARK  13 active torsions:
REMARK  status: ('A' for Active; 'I' for Inactive)
REMARK    1  A    between atoms: C_1  and  C_2 
REMARK    2  A    between atoms: C_5  and  C_8 
REMARK    3  A    between atoms: C_11  and  C_13 
REMARK    4  A    between atoms: C_13  and  C_14 
REMARK    5  A    between atoms: C_17  and  C_31 
REMARK    6  A    between atoms: C_19  and  C_24 
REMARK    7  A    between atoms: C_22  and  C_23 
REMARK    8  A    between atoms: C_24  and  N_25 
REMARK    9  A    between atoms: N_25  and  C_26 
REMARK   10  A    between atoms: N_25  and  C_27 
REMARK   11  A    between atoms: C_27  and  C_28 
REMARK   12  A    between atoms: C_31  and  C_32 
REMARK   13  A    between atoms: C_31  and  C_33 
ROOT
ATOM      1  C   LIG d   1      11.659   5.556  -0.369  0.00  0.00     0.075 C 
ATOM      2  C   LIG d   1      10.488   6.413  -0.619  0.00  0.00     0.068 C 
ATOM      3  N   LIG d   1       9.586   7.075  -0.813  0.00  0.00    -0.196 NA
ATOM      4  H   LIG d   1      11.701   4.769  -1.124  0.00  0.00     0.047 H 
ATOM      5  H   LIG d   1      11.574   5.105   0.620  0.00  0.00     0.047 H 
ENDROOT
BRANCH   1   6
ATOM      6  C   LIG d   1      12.933   6.399  -0.439  0.00  0.00    -0.019 C 
ATOM      7  H   LIG d   1      13.798   5.744  -0.539  0.00  0.00     0.082 H 
ATOM      8  H   LIG d   1      13.028   6.990   0.473  0.00  0.00     0.082 H 
BRANCH   6   9
ATOM      9  N   LIG d   1      12.861   7.297  -1.599  0.00  0.00     0.234 N 
ATOM     10  H   LIG d   1      11.961   7.202  -2.044  0.00  0.00     0.203 HD
BRANCH   9  11
ATOM     11  C   LIG d   1      13.920   6.946  -2.556  0.00  0.00    -0.025 C 
ATOM     12  H   LIG d   1      14.595   6.221  -2.100  0.00  0.00     0.082 H 
ATOM     13  H   LIG d   1      14.478   7.843  -2.825  0.00  0.00     0.082 H 
BRANCH  11  14
ATOM     14  C   LIG d   1      13.292   6.340  -3.812  0.00  0.00     0.021 C 
ATOM     15  C   LIG d   1      13.277   4.814  -3.686  0.00  0.00    -0.027 C 
ATOM     16  C   LIG d   1      12.415   4.243  -4.818  0.00  0.00    -0.042 C 
ATOM     17  H   LIG d   1      12.852   4.530  -2.723  0.00  0.00     0.031 H 
ATOM     18  C   LIG d   1      10.961   4.654  -4.577  0.00  0.00    -0.011 C 
ATOM     19  H   LIG d   1      12.493   3.156  -4.825  0.00  0.00     0.027 H 
ATOM     20  H   LIG d   1      12.754   4.642  -5.775  0.00  0.00     0.027 H 
ATOM     21  H   LIG d   1      10.368   4.419  -5.460  0.00  0.00     0.035 H 
ATOM     22  C   LIG d   1      10.883   6.127  -4.302  0.00  0.00    -0.072 C 
ATOM     23  C   LIG d   1      11.892   6.859  -3.966  0.00  0.00    -0.076 C 
ATOM     24  H   LIG d   1      11.720   7.910  -3.784  0.00  0.00     0.058 H 
ATOM     25  H   LIG d   1      13.881   6.624  -4.684  0.00  0.00     0.040 H 
BRANCH  15  26
ATOM     26  C   LIG d   1      14.702   4.270  -3.799  0.00  0.00    -0.043 C 
ATOM     27  H   LIG d   1      15.358   4.828  -3.129  0.00  0.00     0.030 H 
BRANCH  26  28
ATOM     28  C   LIG d   1      14.716   2.791  -3.409  0.00  0.00    -0.062 C 
ATOM     29  H   LIG d   1      15.716   2.511  -3.078  0.00  0.00     0.023 H 
ATOM     30  H   LIG d   1      14.005   2.622  -2.600  0.00  0.00     0.023 H 
ATOM     31  H   LIG d   1      14.435   2.186  -4.272  0.00  0.00     0.023 H 
ENDBRANCH  26  28
BRANCH  26  32
ATOM     32  C   LIG d   1      15.194   4.423  -5.239  0.00  0.00    -0.062 C 
ATOM     33  H   LIG d   1      14.928   5.413  -5.611  0.00  0.00     0.023 H 
ATOM     34  H   LIG d   1      16.277   4.304  -5.268  0.00  0.00     0.023 H 
ATOM     35  H   LIG d   1      14.727   3.663  -5.864  0.00  0.00     0.023 H 
ENDBRANCH  26  32
ENDBRANCH  15  26
BRANCH  18  36
ATOM     36  C   LIG d   1      10.410   3.883  -3.375  0.00  0.00     0.032 C 
ATOM     37  H   LIG d   1      10.067   4.588  -2.618  0.00  0.00     0.037 H 
ATOM     38  H   LIG d   1      11.195   3.253  -2.957  0.00  0.00     0.037 H 
BRANCH  36  39
ATOM     39  C   LIG d   1       9.256   3.021  -3.818  0.00  0.00     0.218 A 
ATOM     40  N   LIG d   1       8.762   2.956  -5.023  0.00  0.00    -0.112 NA
ATOM     41  N   LIG d   1       7.785   2.119  -5.043  0.00  0.00    -0.107 NA
ATOM     42  C   LIG d   1       7.621   1.617  -3.841  0.00  0.00     0.248 A 
ATOM     43  O   LIG d   1       8.547   2.183  -3.041  0.00  0.00    -0.420 OA
BRANCH  42  44
ATOM     44  C   LIG d   1       6.606   0.621  -3.438  0.00  0.00     0.038 A 
ATOM     45  C   LIG d   1       6.763  -0.721  -3.786  0.00  0.00    -0.049 A 
ATOM     46  C   LIG d   1       5.811  -1.645  -3.406  0.00  0.00    -0.058 A 
ATOM     47  H   LIG d   1       7.628  -1.036  -4.350  0.00  0.00     0.062 H 
ATOM     48  C   LIG d   1       4.703  -1.244  -2.682  0.00  0.00    -0.050 A 
ATOM     49  H   LIG d   1       5.932  -2.684  -3.674  0.00  0.00     0.062 H 
ATOM     50  C   LIG d   1       4.538   0.086  -2.339  0.00  0.00    -0.058 A 
ATOM     51  C   LIG d   1       5.485   1.020  -2.709  0.00  0.00    -0.049 A 
ATOM     52  H   LIG d   1       3.668   0.395  -1.778  0.00  0.00     0.062 H 
ATOM     53  H   LIG d   1       5.357   2.058  -2.436  0.00  0.00     0.062 H 
BRANCH  48  54
ATOM     54  C   LIG d   1       3.667  -2.259  -2.271  0.00  0.00    -0.040 C 
ATOM     55  H   LIG d   1       2.939  -2.379  -3.072  0.00  0.00     0.028 H 
ATOM     56  H   LIG d   1       4.154  -3.214  -2.075  0.00  0.00     0.028 H 
ATOM     57  H   LIG d   1       3.162  -1.916  -1.368  0.00  0.00     0.028 H 
ENDBRANCH  48  54
ENDBRANCH  42  44
ENDBRANCH  36  39
ENDBRANCH  18  36
BRANCH  22  58
ATOM     58  C   LIG d   1       9.540   6.798  -4.425  0.00  0.00    -0.043 C 
ATOM     59  H   LIG d   1       9.084   6.529  -5.380  0.00  0.00     0.027 H 
ATOM     60  H   LIG d   1       8.893   6.472  -3.611  0.00  0.00     0.027 H 
ATOM     61  H   LIG d   1       9.668   7.879  -4.376  0.00  0.00     0.027 H 
ENDBRANCH  22  58
ENDBRANCH  11  14
ENDBRANCH   9  11
BRANCH   9  62
ATOM     62  C   LIG d   1      13.043   8.686  -1.156  0.00  0.00    -0.043 C 
ATOM     63  H   LIG d   1      14.068   8.826  -0.810  0.00  0.00     0.078 H 
ATOM     64  H   LIG d   1      12.845   9.362  -1.988  0.00  0.00     0.078 H 
ATOM     65  H   LIG d   1      12.352   8.900  -0.341  0.00  0.00     0.078 H 
ENDBRANCH   9  62
ENDBRANCH   6   9
ENDBRANCH   1   6
TORSDOF 13
ENDMDL
MODEL 2
REMARK VINA RESULT:      -5.7      5.304      9.517
REMARK  13 active torsions:
REMARK  status: ('A' for Active; 'I' for Inactive)
REMARK    1  A    between atoms: C_1  and  C_2 
REMARK    2  A    between atoms: C_5  and  C_8 
REMARK    3  A    between atoms: C_11  and  C_13 
REMARK    4  A    between atoms: C_13  and  C_14 
REMARK    5  A    between atoms: C_17  and  C_31 
REMARK    6  A    between atoms: C_19  and  C_24 
REMARK    7  A    between atoms: C_22  and  C_23 
REMARK    8  A    between atoms: C_24  and  N_25 
REMARK    9  A    between atoms: N_25  and  C_26 
REMARK   10  A    between atoms: N_25  and  C_27 
REMARK   11  A    between atoms: C_27  and  C_28 
REMARK   12  A    between atoms: C_31  and  C_32 
REMARK   13  A    between atoms: C_31  and  C_33 
ROOT
ATOM      1  C   LIG d   1       7.591   0.927  -6.879  0.00  0.00     0.075 C 
ATOM      2  C   LIG d   1       7.303   1.671  -8.117  0.00  0.00     0.068 C 
ATOM      3  N   LIG d   1       7.082   2.246  -9.071  0.00  0.00    -0.196 NA
ATOM      4  H   LIG d   1       8.164   0.031  -7.119  0.00  0.00     0.047 H 
ATOM      5  H   LIG d   1       6.654   0.642  -6.401  0.00  0.00     0.047 H 
ENDROOT
BRANCH   1   6
ATOM      6  C   LIG d   1       8.402   1.811  -5.930  0.00  0.00    -0.019 C 
ATOM      7  H   LIG d   1       8.005   2.826  -5.950  0.00  0.00     0.082 H 
ATOM      8  H   LIG d   1       9.445   1.822  -6.244  0.00  0.00     0.082 H 
BRANCH   6   9
ATOM      9  N   LIG d   1       8.307   1.276  -4.564  0.00  0.00     0.234 N 
ATOM     10  H   LIG d   1       8.657   0.330  -4.548  0.00  0.00     0.203 HD
BRANCH   9  11
ATOM     11  C   LIG d   1       6.904   1.285  -4.131  0.00  0.00    -0.025 C 
ATOM     12  H   LIG d   1       6.254   1.378  -5.003  0.00  0.00     0.082 H 
ATOM     13  H   LIG d   1       6.735   2.129  -3.462  0.00  0.00     0.082 H 
BRANCH  11  14
ATOM     14  C   LIG d   1       6.587  -0.019  -3.398  0.00  0.00     0.021 C 
ATOM     15  C   LIG d   1       5.149  -0.441  -3.708  0.00  0.00    -0.027 C 
ATOM     16  C   LIG d   1       4.939  -1.867  -3.187  0.00  0.00    -0.042 C 
ATOM     17  H   LIG d   1       4.985  -0.416  -4.786  0.00  0.00     0.031 H 
ATOM     18  C   LIG d   1       5.798  -2.821  -4.021  0.00  0.00    -0.011 C 
ATOM     19  H   LIG d   1       3.888  -2.141  -3.284  0.00  0.00     0.027 H 
ATOM     20  H   LIG d   1       5.240  -1.924  -2.141  0.00  0.00     0.027 H 
ATOM     21  H   LIG d   1       5.806  -3.804  -3.552  0.00  0.00     0.035 H 
ATOM     22  C   LIG d   1       7.202  -2.300  -4.112  0.00  0.00    -0.072 C 
ATOM     23  C   LIG d   1       7.546  -1.084  -3.846  0.00  0.00    -0.076 C 
ATOM     24  H   LIG d   1       8.587  -0.816  -3.952  0.00  0.00     0.058 H 
ATOM     25  H   LIG d   1       6.694   0.134  -2.324  0.00  0.00     0.040 H 
BRANCH  15  26
ATOM     26  C   LIG d   1       4.169   0.510  -3.017  0.00  0.00    -0.043 C 
ATOM     27  H   LIG d   1       4.132   1.453  -3.563  0.00  0.00     0.030 H 
BRANCH  26  28
ATOM     28  C   LIG d   1       2.776  -0.122  -2.996  0.00  0.00    -0.062 C 
ATOM     29  H   LIG d   1       2.786  -1.003  -2.355  0.00  0.00     0.023 H 
ATOM     30  H   LIG d   1       2.056   0.600  -2.610  0.00  0.00     0.023 H 
ATOM     31  H   LIG d   1       2.493  -0.411  -4.008  0.00  0.00     0.023 H 
ENDBRANCH  26  28
BRANCH  26  32
ATOM     32  C   LIG d   1       4.634   0.768  -1.584  0.00  0.00    -0.062 C 
ATOM     33  H   LIG d   1       5.518   1.407  -1.598  0.00  0.00     0.023 H 
ATOM     34  H   LIG d   1       3.838   1.261  -1.026  0.00  0.00     0.023 H 
ATOM     35  H   LIG d   1       4.880  -0.181  -1.106  0.00  0.00     0.023 H 
ENDBRANCH  26  32
ENDBRANCH  15  26
BRANCH  18  36
ATOM     36  C   LIG d   1       5.206  -2.935  -5.428  0.00  0.00     0.032 C 
ATOM     37  H   LIG d   1       5.935  -2.581  -6.158  0.00  0.00     0.037 H 
ATOM     38  H   LIG d   1       4.303  -2.329  -5.493  0.00  0.00     0.037 H 
BRANCH  36  39
ATOM     39  C   LIG d   1       4.867  -4.375  -5.715  0.00  0.00     0.218 A 
ATOM     40  N   LIG d   1       3.818  -4.806  -6.359  0.00  0.00    -0.112 NA
ATOM     41  N   LIG d   1       3.847  -6.091  -6.418  0.00  0.00    -0.107 NA
ATOM     42  C   LIG d   1       4.924  -6.528  -5.808  0.00  0.00     0.248 A 
ATOM     43  O   LIG d   1       5.588  -5.449  -5.347  0.00  0.00    -0.420 OA
BRANCH  42  44
ATOM     44  C   LIG d   1       5.330  -7.940  -5.652  0.00  0.00     0.038 A 
ATOM     45  C   LIG d   1       4.648  -8.946  -6.337  0.00  0.00    -0.049 A 
ATOM     46  C   LIG d   1       5.033 -10.263  -6.187  0.00  0.00    -0.058 A 
ATOM     47  H   LIG d   1       3.822  -8.695  -6.985  0.00  0.00     0.062 H 
ATOM     48  C   LIG d   1       6.092 -10.586  -5.358  0.00  0.00    -0.050 A 
ATOM     49  H   LIG d   1       4.506 -11.041  -6.717  0.00  0.00     0.062 H 
ATOM     50  C   LIG d   1       6.769  -9.595  -4.671  0.00  0.00    -0.058 A 
ATOM     51  C   LIG d   1       6.398  -8.274  -4.817  0.00  0.00    -0.049 A 
ATOM     52  H   LIG d   1       7.593  -9.854  -4.022  0.00  0.00     0.062 H 
ATOM     53  H   LIG d   1       6.931  -7.500  -4.283  0.00  0.00     0.062 H 
BRANCH  48  54
ATOM     54  C   LIG d   1       6.507 -12.027  -5.199  0.00  0.00    -0.040 C 
ATOM     55  H   LIG d   1       7.429 -12.202  -5.752  0.00  0.00     0.028 H 
ATOM     56  H   LIG d   1       6.668 -12.243  -4.142  0.00  0.00     0.028 H 
ATOM     57  H   LIG d   1       5.721 -12.675  -5.586  0.00  0.00     0.028 H 
ENDBRANCH  48  54
ENDBRANCH  42  44
ENDBRANCH  36  39
ENDBRANCH  18  36
BRANCH  22  58
ATOM     58  C   LIG d   1       8.283  -3.257  -4.542  0.00  0.00    -0.043 C 
ATOM     59  H   LIG d   1       9.145  -2.694  -4.903  0.00  0.00     0.027 H 
ATOM     60  H   LIG d   1       8.582  -3.873  -3.694  0.00  0.00     0.027 H 
ATOM     61  H   LIG d   1       7.907  -3.896  -5.340  0.00  0.00     0.027 H 
ENDBRANCH  22  58
ENDBRANCH  11  14
ENDBRANCH   9  11
BRANCH   9  62
ATOM     62  C   LIG d   1       9.105   2.110  -3.655  0.00  0.00    -0.043 C 
ATOM     63  H   LIG d   1       9.120   1.655  -2.664  0.00  0.00     0.078 H 
ATOM     64  H   LIG d   1      10.125   2.188  -4.035  0.00  0.00     0.078 H 
ATOM     65  H   LIG d   1       8.664   3.104  -3.594  0.00  0.00     0.078 H 
ENDBRANCH   9  62
ENDBRANCH   6   9
ENDBRANCH   1   6
TORSDOF 13
ENDMDL
MODEL 3
REMARK VINA RESULT:      -5.6      1.945      3.753
REMARK  13 active torsions:
REMARK  status: ('A' for Active; 'I' for Inactive)
REMARK    1  A    between atoms: C_1  and  C_2 
REMARK    2  A    between atoms: C_5  and  C_8 
REMARK    3  A    between atoms: C_11  and  C_13 
REMARK    4  A    between atoms: C_13  and  C_14 
REMARK    5  A    between atoms: C_17  and  C_31 
REMARK    6  A    between atoms: C_19  and  C_24 
REMARK    7  A    between atoms: C_22  and  C_23 
REMARK    8  A    between atoms: C_24  and  N_25 
REMARK    9  A    between atoms: N_25  and  C_26 
REMARK   10  A    between atoms: N_25  and  C_27 
REMARK   11  A    between atoms: C_27  and  C_28 
REMARK   12  A    between atoms: C_31  and  C_32 
REMARK   13  A    between atoms: C_31  and  C_33 
ROOT
ATOM      1  C   LIG d   1       9.987  10.177  -5.430  0.00  0.00     0.075 C 
ATOM      2  C   LIG d   1       9.130  10.938  -4.505  0.00  0.00     0.068 C 
ATOM      3  N   LIG d   1       8.470  11.525  -3.791  0.00  0.00    -0.196 NA
ATOM      4  H   LIG d   1      10.982  10.623  -5.454  0.00  0.00     0.047 H 
ATOM      5  H   LIG d   1       9.554  10.203  -6.430  0.00  0.00     0.047 H 
ENDROOT
BRANCH   1   6
ATOM      6  C   LIG d   1      10.089   8.727  -4.954  0.00  0.00    -0.019 C 
ATOM      7  H   LIG d   1       9.516   8.085  -5.621  0.00  0.00     0.082 H 
ATOM      8  H   LIG d   1       9.692   8.648  -3.942  0.00  0.00     0.082 H 
BRANCH   6   9
ATOM      9  N   LIG d   1      11.498   8.309  -4.962  0.00  0.00     0.234 N 
ATOM     10  H   LIG d   1      11.563   7.351  -5.272  0.00  0.00     0.203 HD
BRANCH   9  11
ATOM     11  C   LIG d   1      12.049   8.422  -3.605  0.00  0.00    -0.025 C 
ATOM     12  H   LIG d   1      11.375   9.017  -2.987  0.00  0.00     0.082 H 
ATOM     13  H   LIG d   1      13.025   8.907  -3.648  0.00  0.00     0.082 H 
BRANCH  11  14
ATOM     14  C   LIG d   1      12.199   7.027  -2.996  0.00  0.00     0.021 C 
ATOM     15  C   LIG d   1      10.878   6.611  -2.345  0.00  0.00    -0.027 C 
ATOM     16  C   LIG d   1      10.964   5.125  -1.979  0.00  0.00    -0.042 C 
ATOM     17  H   LIG d   1      10.058   6.770  -3.046  0.00  0.00     0.031 H 
ATOM     18  C   LIG d   1      11.017   4.309  -3.272  0.00  0.00    -0.011 C 
ATOM     19  H   LIG d   1      10.085   4.839  -1.400  0.00  0.00     0.027 H 
ATOM     20  H   LIG d   1      11.866   4.943  -1.394  0.00  0.00     0.027 H 
ATOM     21  H   LIG d   1      11.264   3.274  -3.037  0.00  0.00     0.035 H 
ATOM     22  C   LIG d   1      12.059   4.873  -4.193  0.00  0.00    -0.072 C 
ATOM     23  C   LIG d   1      12.571   6.054  -4.077  0.00  0.00    -0.076 C 
ATOM     24  H   LIG d   1      13.311   6.360  -4.802  0.00  0.00     0.058 H 
ATOM     25  H   LIG d   1      12.985   7.044  -2.241  0.00  0.00     0.040 H 
BRANCH  15  26
ATOM     26  C   LIG d   1      10.640   7.440  -1.081  0.00  0.00    -0.043 C 
ATOM     27  H   LIG d   1      11.375   8.244  -1.030  0.00  0.00     0.030 H 
BRANCH  26  28
ATOM     28  C   LIG d   1       9.232   8.038  -1.121  0.00  0.00    -0.062 C 
ATOM     29  H   LIG d   1       8.917   8.155  -2.158  0.00  0.00     0.023 H 
ATOM     30  H   LIG d   1       8.541   7.373  -0.604  0.00  0.00     0.023 H 
ATOM     31  H   LIG d   1       9.237   9.011  -0.629  0.00  0.00     0.023 H 
ENDBRANCH  26  28
BRANCH  26  32
ATOM     32  C   LIG d   1      10.779   6.544   0.151  0.00  0.00    -0.062 C 
ATOM     33  H   LIG d   1       9.957   5.828   0.174  0.00  0.00     0.023 H 
ATOM     34  H   LIG d   1      11.727   6.008   0.106  0.00  0.00     0.023 H 
ATOM     35  H   LIG d   1      10.751   7.158   1.051  0.00  0.00     0.023 H 
ENDBRANCH  26  32
ENDBRANCH  15  26
BRANCH  18  36
ATOM     36  C   LIG d   1       9.651   4.361  -3.960  0.00  0.00     0.032 C 
ATOM     37  H   LIG d   1       9.764   4.781  -4.960  0.00  0.00     0.037 H 
ATOM     38  H   LIG d   1       8.974   4.985  -3.378  0.00  0.00     0.037 H 
BRANCH  36  39
ATOM     39  C   LIG d   1       9.087   2.967  -4.061  0.00  0.00     0.218 A 
ATOM     40  N   LIG d   1       9.599   1.976  -4.738  0.00  0.00    -0.112 NA
ATOM     41  N   LIG d   1       8.858   0.934  -4.602  0.00  0.00    -0.107 NA
ATOM     42  C   LIG d   1       7.838   1.226  -3.827  0.00  0.00     0.248 A 
ATOM     43  O   LIG d   1       7.962   2.521  -3.475  0.00  0.00    -0.420 OA
BRANCH  42  44
ATOM     44  C   LIG d   1       6.754   0.307  -3.423  0.00  0.00     0.038 A 
ATOM     45  C   LIG d   1       5.666   0.786  -2.691  0.00  0.00    -0.049 A 
ATOM     46  C   LIG d   1       4.656  -0.078  -2.318  0.00  0.00    -0.058 A 
ATOM     47  H   LIG d   1       5.613   1.829  -2.419  0.00  0.00     0.062 H 
ATOM     48  C   LIG d   1       4.721  -1.415  -2.667  0.00  0.00    -0.050 A 
ATOM     49  H   LIG d   1       3.814   0.291  -1.752  0.00  0.00     0.062 H 
ATOM     50  C   LIG d   1       5.799  -1.897  -3.387  0.00  0.00    -0.058 A 
ATOM     51  C   LIG d   1       6.813  -1.043  -3.771  0.00  0.00    -0.049 A 
ATOM     52  H   LIG d   1       5.846  -2.943  -3.653  0.00  0.00     0.062 H 
ATOM     53  H   LIG d   1       7.652  -1.420  -4.338  0.00  0.00     0.062 H 
BRANCH  48  54
ATOM     54  C   LIG d   1       3.614  -2.352  -2.255  0.00  0.00    -0.040 C 
ATOM     55  H   LIG d   1       2.760  -2.218  -2.918  0.00  0.00     0.028 H 
ATOM     56  H   LIG d   1       3.968  -3.382  -2.320  0.00  0.00     0.028 H 
ATOM     57  H   LIG d   1       3.317  -2.134  -1.229  0.00  0.00     0.028 H 
ENDBRANCH  48  54
ENDBRANCH  42  44
ENDBRANCH  36  39
ENDBRANCH  18  36
BRANCH  22  58
ATOM     58  C   LIG d   1      12.543   4.007  -5.327  0.00  0.00    -0.043 C 
ATOM     59  H   LIG d   1      11.905   4.159  -6.198  0.00  0.00     0.027 H 
ATOM     60  H   LIG d   1      13.569   4.276  -5.578  0.00  0.00     0.027 H 
ATOM     61  H   LIG d   1      12.505   2.961  -5.027  0.00  0.00     0.027 H 
ENDBRANCH  22  58
ENDBRANCH  11  14
ENDBRANCH   9  11
BRANCH   9  62
ATOM     62  C   LIG d   1      12.260   9.172  -5.873  0.00  0.00    -0.043 C 
ATOM     63  H   LIG d   1      12.868   9.867  -5.293  0.00  0.00     0.078 H 
ATOM     64  H   LIG d   1      12.908   8.558  -6.499  0.00  0.00     0.078 H 
ATOM     65  H   LIG d   1      11.570   9.731  -6.505  0.00  0.00     0.078 H 
ENDBRANCH   9  62
ENDBRANCH   6   9
ENDBRANCH   1   6
TORSDOF 13
ENDMDL
MODEL 4
REMARK VINA RESULT:      -5.6      1.692      3.576
REMARK  13 active torsions:
REMARK  status: ('A' for Active; 'I' for Inactive)
REMARK    1  A    between atoms: C_1  and  C_2 
REMARK    2  A    between atoms: C_5  and  C_8 
REMARK    3  A    between atoms: C_11  and  C_13 
REMARK    4  A    between atoms: C_13  and  C_14 
REMARK    5  A    between atoms: C_17  and  C_31 
REMARK    6  A    between atoms: C_19  and  C_24 
REMARK    7  A    between atoms: C_22  and  C_23 
REMARK    8  A    between atoms: C_24  and  N_25 
REMARK    9  A    between atoms: N_25  and  C_26 
REMARK   10  A    between atoms: N_25  and  C_27 
REMARK   11  A    between atoms: C_27  and  C_28 
REMARK   12  A    between atoms: C_31  and  C_32 
REMARK   13  A    between atoms: C_31  and  C_33 
ROOT
ATOM      1  C   LIG d   1      11.528   7.381  -5.589  0.00  0.00     0.075 C 
ATOM      2  C   LIG d   1      12.093   6.167  -6.202  0.00  0.00     0.068 C 
ATOM      3  N   LIG d   1      12.530   5.231  -6.674  0.00  0.00    -0.196 NA
ATOM      4  H   LIG d   1      10.779   7.098  -4.849  0.00  0.00     0.047 H 
ATOM      5  H   LIG d   1      11.063   7.995  -6.360  0.00  0.00     0.047 H 
ENDROOT
BRANCH   1   6
ATOM      6  C   LIG d   1      12.644   8.175  -4.907  0.00  0.00    -0.019 C 
ATOM      7  H   LIG d   1      12.206   8.930  -4.255  0.00  0.00     0.082 H 
ATOM      8  H   LIG d   1      13.259   8.661  -5.665  0.00  0.00     0.082 H 
BRANCH   6   9
ATOM      9  N   LIG d   1      13.477   7.263  -4.112  0.00  0.00     0.234 N 
ATOM     10  H   LIG d   1      13.214   6.309  -4.308  0.00  0.00     0.203 HD
BRANCH   9  11
ATOM     11  C   LIG d   1      13.278   7.540  -2.683  0.00  0.00    -0.025 C 
ATOM     12  H   LIG d   1      12.633   8.413  -2.568  0.00  0.00     0.082 H 
ATOM     13  H   LIG d   1      14.242   7.737  -2.213  0.00  0.00     0.082 H 
BRANCH  11  14
ATOM     14  C   LIG d   1      12.622   6.331  -2.014  0.00  0.00     0.021 C 
ATOM     15  C   LIG d   1      11.102   6.505  -2.027  0.00  0.00    -0.027 C 
ATOM     16  C   LIG d   1      10.458   5.181  -1.599  0.00  0.00    -0.042 C 
ATOM     17  H   LIG d   1      10.772   6.765  -3.033  0.00  0.00     0.031 H 
ATOM     18  C   LIG d   1      10.726   4.138  -2.686  0.00  0.00    -0.011 C 
ATOM     19  H   LIG d   1       9.383   5.319  -1.479  0.00  0.00     0.027 H 
ATOM     20  H   LIG d   1      10.895   4.849  -0.657  0.00  0.00     0.027 H 
ATOM     21  H   LIG d   1      10.441   3.152  -2.318  0.00  0.00     0.035 H 
ATOM     22  C   LIG d   1      12.182   4.133  -3.046  0.00  0.00    -0.072 C 
ATOM     23  C   LIG d   1      13.006   5.086  -2.759  0.00  0.00    -0.076 C 
ATOM     24  H   LIG d   1      14.034   4.980  -3.073  0.00  0.00     0.058 H 
ATOM     25  H   LIG d   1      12.968   6.256  -0.983  0.00  0.00     0.040 H 
BRANCH  15  26
ATOM     26  C   LIG d   1      10.699   7.613  -1.052  0.00  0.00    -0.043 C 
ATOM     27  H   LIG d   1      11.242   8.527  -1.295  0.00  0.00     0.030 H 
BRANCH  26  28
ATOM     28  C   LIG d   1       9.194   7.869  -1.165  0.00  0.00    -0.062 C 
ATOM     29  H   LIG d   1       8.654   6.933  -1.023  0.00  0.00     0.023 H 
ATOM     30  H   LIG d   1       8.889   8.584  -0.401  0.00  0.00     0.023 H 
ATOM     31  H   LIG d   1       8.968   8.273  -2.152  0.00  0.00     0.023 H 
ENDBRANCH  26  28
BRANCH  26  32
ATOM     32  C   LIG d   1      11.036   7.183   0.377  0.00  0.00    -0.062 C 
ATOM     33  H   LIG d   1      10.398   6.348   0.666  0.00  0.00     0.023 H 
ATOM     34  H   LIG d   1      12.081   6.876   0.427  0.00  0.00     0.023 H 
ATOM     35  H   LIG d   1      10.870   8.020   1.056  0.00  0.00     0.023 H 
ENDBRANCH  26  32
ENDBRANCH  15  26
BRANCH  18  36
ATOM     36  C   LIG d   1       9.897   4.476  -3.927  0.00  0.00     0.032 C 
ATOM     37  H   LIG d   1      10.564   4.662  -4.769  0.00  0.00     0.037 H 
ATOM     38  H   LIG d   1       9.299   5.366  -3.733  0.00  0.00     0.037 H 
BRANCH  36  39
ATOM     39  C   LIG d   1       8.986   3.320  -4.253  0.00  0.00     0.218 A 
ATOM     40  N   LIG d   1       8.796   2.798  -5.433  0.00  0.00    -0.112 NA
ATOM     41  N   LIG d   1       7.955   1.829  -5.344  0.00  0.00    -0.107 NA
ATOM     42  C   LIG d   1       7.577   1.697  -4.093  0.00  0.00     0.248 A 
ATOM     43  O   LIG d   1       8.220   2.643  -3.379  0.00  0.00    -0.420 OA
BRANCH  42  44
ATOM     44  C   LIG d   1       6.619   0.702  -3.567  0.00  0.00     0.038 A 
ATOM     45  C   LIG d   1       6.805  -0.656  -3.830  0.00  0.00    -0.049 A 
ATOM     46  C   LIG d   1       5.907  -1.580  -3.335  0.00  0.00    -0.058 A 
ATOM     47  H   LIG d   1       7.648  -0.984  -4.418  0.00  0.00     0.062 H 
ATOM     48  C   LIG d   1       4.825  -1.163  -2.580  0.00  0.00    -0.050 A 
ATOM     49  H   LIG d   1       6.049  -2.631  -3.538  0.00  0.00     0.062 H 
ATOM     50  C   LIG d   1       4.633   0.182  -2.321  0.00  0.00    -0.058 A 
ATOM     51  C   LIG d   1       5.526   1.116  -2.805  0.00  0.00    -0.049 A 
ATOM     52  H   LIG d   1       3.784   0.502  -1.734  0.00  0.00     0.062 H 
ATOM     53  H   LIG d   1       5.377   2.166  -2.598  0.00  0.00     0.062 H 
BRANCH  48  54
ATOM     54  C   LIG d   1       3.849  -2.178  -2.044  0.00  0.00    -0.040 C 
ATOM     55  H   LIG d   1       4.012  -3.135  -2.538  0.00  0.00     0.028 H 
ATOM     56  H   LIG d   1       3.998  -2.293  -0.970  0.00  0.00     0.028 H 
ATOM     57  H   LIG d   1       2.831  -1.838  -2.234  0.00  0.00     0.028 H 
ENDBRANCH  48  54
ENDBRANCH  42  44
ENDBRANCH  36  39
ENDBRANCH  18  36
BRANCH  22  58
ATOM     58  C   LIG d   1      12.722   2.940  -3.791  0.00  0.00    -0.043 C 
ATOM     59  H   LIG d   1      13.329   2.334  -3.117  0.00  0.00     0.027 H 
ATOM     60  H   LIG d   1      11.894   2.342  -4.170  0.00  0.00     0.027 H 
ATOM     61  H   LIG d   1      13.336   3.280  -4.625  0.00  0.00     0.027 H 
ENDBRANCH  22  58
ENDBRANCH  11  14
ENDBRANCH   9  11
BRANCH   9  62
ATOM     62  C   LIG d   1      14.891   7.463  -4.457  0.00  0.00    -0.043 C 
ATOM     63  H   LIG d   1      15.177   8.491  -4.233  0.00  0.00     0.078 H 
ATOM     64  H   LIG d   1      15.507   6.778  -3.874  0.00  0.00     0.078 H 
ATOM     65  H   LIG d   1      15.035   7.267  -5.519  0.00  0.00     0.078 H 
ENDBRANCH   9  62
ENDBRANCH   6   9
ENDBRANCH   1   6
TORSDOF 13
ENDMDL
MODEL 5
REMARK VINA RESULT:      -5.4      2.518      4.094
REMARK  13 active torsions:
REMARK  status: ('A' for Active; 'I' for Inactive)
REMARK    1  A    between atoms: C_1  and  C_2 
REMARK    2  A    between atoms: C_5  and  C_8 
REMARK    3  A    between atoms: C_11  and  C_13 
REMARK    4  A    between atoms: C_13  and  C_14 
REMARK    5  A    between atoms: C_17  and  C_31 
REMARK    6  A    between atoms: C_19  and  C_24 
REMARK    7  A    between atoms: C_22  and  C_23 
REMARK    8  A    between atoms: C_24  and  N_25 
REMARK    9  A    between atoms: N_25  and  C_26 
REMARK   10  A    between atoms: N_25  and  C_27 
REMARK   11  A    between atoms: C_27  and  C_28 
REMARK   12  A    between atoms: C_31  and  C_32 
REMARK   13  A    between atoms: C_31  and  C_33 
ROOT
ATOM      1  C   LIG d   1      13.171   9.500  -6.818  0.00  0.00     0.075 C 
ATOM      2  C   LIG d   1      12.487  10.359  -7.799  0.00  0.00     0.068 C 
ATOM      3  N   LIG d   1      11.960  11.023  -8.556  0.00  0.00    -0.196 NA
ATOM      4  H   LIG d   1      14.107   9.137  -7.243  0.00  0.00     0.047 H 
ATOM      5  H   LIG d   1      12.532   8.652  -6.571  0.00  0.00     0.047 H 
ENDROOT
BRANCH   1   6
ATOM      6  C   LIG d   1      13.464  10.306  -5.551  0.00  0.00    -0.019 C 
ATOM      7  H   LIG d   1      13.153  11.340  -5.699  0.00  0.00     0.082 H 
ATOM      8  H   LIG d   1      14.532  10.274  -5.339  0.00  0.00     0.082 H 
BRANCH   6   9
ATOM      9  N   LIG d   1      12.723   9.727  -4.422  0.00  0.00     0.234 N 
ATOM     10  H   LIG d   1      13.260   9.834  -3.576  0.00  0.00     0.203 HD
BRANCH   9  11
ATOM     11  C   LIG d   1      12.485   8.300  -4.673  0.00  0.00    -0.025 C 
ATOM     12  H   LIG d   1      13.202   7.706  -4.105  0.00  0.00     0.082 H 
ATOM     13  H   LIG d   1      12.604   8.092  -5.737  0.00  0.00     0.082 H 
BRANCH  11  14
ATOM     14  C   LIG d   1      11.064   7.934  -4.239  0.00  0.00     0.021 C 
ATOM     15  C   LIG d   1      10.488   6.898  -5.206  0.00  0.00    -0.027 C 
ATOM     16  C   LIG d   1       9.184   6.353  -4.612  0.00  0.00    -0.042 C 
ATOM     17  H   LIG d   1      11.200   6.082  -5.336  0.00  0.00     0.031 H 
ATOM     18  C   LIG d   1       9.522   5.547  -3.356  0.00  0.00    -0.011 C 
ATOM     19  H   LIG d   1       8.691   5.708  -5.340  0.00  0.00     0.027 H 
ATOM     20  H   LIG d   1       8.526   7.181  -4.349  0.00  0.00     0.027 H 
ATOM     21  H   LIG d   1       8.603   5.310  -2.820  0.00  0.00     0.035 H 
ATOM     22  C   LIG d   1      10.428   6.343  -2.463  0.00  0.00    -0.072 C 
ATOM     23  C   LIG d   1      11.101   7.377  -2.845  0.00  0.00    -0.076 C 
ATOM     24  H   LIG d   1      11.729   7.871  -2.119  0.00  0.00     0.058 H 
ATOM     25  H   LIG d   1      10.441   8.828  -4.254  0.00  0.00     0.040 H 
BRANCH  15  26
ATOM     26  C   LIG d   1      10.203   7.553  -6.559  0.00  0.00    -0.043 C 
ATOM     27  H   LIG d   1      11.110   8.034  -6.927  0.00  0.00     0.030 H 
BRANCH  26  28
ATOM     28  C   LIG d   1       9.753   6.484  -7.558  0.00  0.00    -0.062 C 
ATOM     29  H   LIG d   1       8.842   6.815  -8.057  0.00  0.00     0.023 H 
ATOM     30  H   LIG d   1      10.536   6.327  -8.299  0.00  0.00     0.023 H 
ATOM     31  H   LIG d   1       9.560   5.551  -7.028  0.00  0.00     0.023 H 
ENDBRANCH  26  28
BRANCH  26  32
ATOM     32  C   LIG d   1       9.100   8.598  -6.398  0.00  0.00    -0.062 C 
ATOM     33  H   LIG d   1       8.545   8.403  -5.479  0.00  0.00     0.023 H 
ATOM     34  H   LIG d   1       9.544   9.592  -6.349  0.00  0.00     0.023 H 
ATOM     35  H   LIG d   1       8.421   8.544  -7.249  0.00  0.00     0.023 H 
ENDBRANCH  26  32
ENDBRANCH  15  26
BRANCH  18  36
ATOM     36  C   LIG d   1      10.222   4.248  -3.761  0.00  0.00     0.032 C 
ATOM     37  H   LIG d   1      10.819   3.881  -2.926  0.00  0.00     0.037 H 
ATOM     38  H   LIG d   1      10.870   4.436  -4.616  0.00  0.00     0.037 H 
BRANCH  36  39
ATOM     39  C   LIG d   1       9.188   3.215  -4.132  0.00  0.00     0.218 A 
ATOM     40  N   LIG d   1       8.848   2.866  -5.342  0.00  0.00    -0.112 NA
ATOM     41  N   LIG d   1       7.937   1.960  -5.287  0.00  0.00    -0.107 NA
ATOM     42  C   LIG d   1       7.662   1.697  -4.031  0.00  0.00     0.248 A 
ATOM     43  O   LIG d   1       8.447   2.491  -3.275  0.00  0.00    -0.420 OA
BRANCH  42  44
ATOM     44  C   LIG d   1       6.672   0.717  -3.537  0.00  0.00     0.038 A 
ATOM     45  C   LIG d   1       6.834  -0.642  -3.811  0.00  0.00    -0.049 A 
ATOM     46  C   LIG d   1       5.906  -1.552  -3.346  0.00  0.00    -0.058 A 
ATOM     47  H   LIG d   1       7.683  -0.981  -4.384  0.00  0.00     0.062 H 
ATOM     48  C   LIG d   1       4.817  -1.119  -2.610  0.00  0.00    -0.050 A 
ATOM     49  H   LIG d   1       6.030  -2.603  -3.557  0.00  0.00     0.062 H 
ATOM     50  C   LIG d   1       4.648   0.227  -2.340  0.00  0.00    -0.058 A 
ATOM     51  C   LIG d   1       5.571   1.147  -2.794  0.00  0.00    -0.049 A 
ATOM     52  H   LIG d   1       3.794   0.560  -1.768  0.00  0.00     0.062 H 
ATOM     53  H   LIG d   1       5.440   2.197  -2.579  0.00  0.00     0.062 H 
BRANCH  48  54
ATOM     54  C   LIG d   1       3.808  -2.118  -2.105  0.00  0.00    -0.040 C 
ATOM     55  H   LIG d   1       3.756  -2.961  -2.795  0.00  0.00     0.028 H 
ATOM     56  H   LIG d   1       4.109  -2.472  -1.119  0.00  0.00     0.028 H 
ATOM     57  H   LIG d   1       2.830  -1.642  -2.037  0.00  0.00     0.028 H 
ENDBRANCH  48  54
ENDBRANCH  42  44
ENDBRANCH  36  39
ENDBRANCH  18  36
BRANCH  22  58
ATOM     58  C   LIG d   1      10.563   5.910  -1.026  0.00  0.00    -0.043 C 
ATOM     59  H   LIG d   1       9.804   5.160  -0.799  0.00  0.00     0.027 H 
ATOM     60  H   LIG d   1      11.553   5.485  -0.866  0.00  0.00     0.027 H 
ATOM     61  H   LIG d   1      10.427   6.772  -0.374  0.00  0.00     0.027 H 
ENDBRANCH  22  58
ENDBRANCH  11  14
ENDBRANCH   9  11
BRANCH   9  62
ATOM     62  C   LIG d   1      11.435  10.420  -4.276  0.00  0.00    -0.043 C 
ATOM     63  H   LIG d   1      10.722   9.759  -3.782  0.00  0.00     0.078 H 
ATOM     64  H   LIG d   1      11.572  11.319  -3.675  0.00  0.00     0.078 H 
ATOM     65  H   LIG d   1      11.057  10.694  -5.260  0.00  0.00     0.078 H 
ENDBRANCH   9  62
ENDBRANCH   6   9
ENDBRANCH   1   6
TORSDOF 13
ENDMDL
MODEL 6
REMARK VINA RESULT:      -5.4      1.594      3.299
REMARK  13 active torsions:
REMARK  status: ('A' for Active; 'I' for Inactive)
REMARK    1  A    between atoms: C_1  and  C_2 
REMARK    2  A    between atoms: C_5  and  C_8 
REMARK    3  A    between atoms: C_11  and  C_13 
REMARK    4  A    between atoms: C_13  and  C_14 
REMARK    5  A    between atoms: C_17  and  C_31 
REMARK    6  A    between atoms: C_19  and  C_24 
REMARK    7  A    between atoms: C_22  and  C_23 
REMARK    8  A    between atoms: C_24  and  N_25 
REMARK    9  A    between atoms: N_25  and  C_26 
REMARK   10  A    between atoms: N_25  and  C_27 
REMARK   11  A    between atoms: C_27  and  C_28 
REMARK   12  A    between atoms: C_31  and  C_32 
REMARK   13  A    between atoms: C_31  and  C_33 
ROOT
ATOM      1  C   LIG d   1      14.551   6.450  -2.989  0.00  0.00     0.075 C 
ATOM      2  C   LIG d   1      14.063   5.286  -3.747  0.00  0.00     0.068 C 
ATOM      3  N   LIG d   1      13.687   4.389  -4.334  0.00  0.00    -0.196 NA
ATOM      4  H   LIG d   1      15.579   6.272  -2.671  0.00  0.00     0.047 H 
ATOM      5  H   LIG d   1      13.921   6.602  -2.111  0.00  0.00     0.047 H 
ENDROOT
BRANCH   1   6
ATOM      6  C   LIG d   1      14.499   7.695  -3.875  0.00  0.00    -0.019 C 
ATOM      7  H   LIG d   1      14.546   7.398  -4.923  0.00  0.00     0.082 H 
ATOM      8  H   LIG d   1      15.345   8.343  -3.643  0.00  0.00     0.082 H 
BRANCH   6   9
ATOM      9  N   LIG d   1      13.245   8.420  -3.628  0.00  0.00     0.234 N 
ATOM     10  H   LIG d   1      12.755   7.991  -2.857  0.00  0.00     0.203 HD
BRANCH   9  11
ATOM     11  C   LIG d   1      12.404   8.368  -4.831  0.00  0.00    -0.025 C 
ATOM     12  H   LIG d   1      12.802   7.622  -5.521  0.00  0.00     0.082 H 
ATOM     13  H   LIG d   1      12.402   9.345  -5.316  0.00  0.00     0.082 H 
BRANCH  11  14
ATOM     14  C   LIG d   1      10.975   7.990  -4.440  0.00  0.00     0.021 C 
ATOM     15  C   LIG d   1      10.461   6.899  -5.383  0.00  0.00    -0.027 C 
ATOM     16  C   LIG d   1       9.145   6.352  -4.820  0.00  0.00    -0.042 C 
ATOM     17  H   LIG d   1      11.195   6.096  -5.448  0.00  0.00     0.031 H 
ATOM     18  C   LIG d   1       9.447   5.608  -3.516  0.00  0.00    -0.011 C 
ATOM     19  H   LIG d   1       8.697   5.665  -5.538  0.00  0.00     0.027 H 
ATOM     20  H   LIG d   1       8.459   7.176  -4.621  0.00  0.00     0.027 H 
ATOM     21  H   LIG d   1       8.511   5.374  -3.009  0.00  0.00     0.035 H 
ATOM     22  C   LIG d   1      10.298   6.462  -2.624  0.00  0.00    -0.072 C 
ATOM     23  C   LIG d   1      10.965   7.494  -3.023  0.00  0.00    -0.076 C 
ATOM     24  H   LIG d   1      11.552   8.033  -2.294  0.00  0.00     0.058 H 
ATOM     25  H   LIG d   1      10.334   8.867  -4.520  0.00  0.00     0.040 H 
BRANCH  15  26
ATOM     26  C   LIG d   1      10.220   7.489  -6.774  0.00  0.00    -0.043 C 
ATOM     27  H   LIG d   1      11.140   7.947  -7.139  0.00  0.00     0.030 H 
BRANCH  26  28
ATOM     28  C   LIG d   1       9.791   6.375  -7.732  0.00  0.00    -0.062 C 
ATOM     29  H   LIG d   1       9.084   5.716  -7.230  0.00  0.00     0.023 H 
ATOM     30  H   LIG d   1       9.318   6.814  -8.610  0.00  0.00     0.023 H 
ATOM     31  H   LIG d   1      10.667   5.804  -8.039  0.00  0.00     0.023 H 
ENDBRANCH  26  28
BRANCH  26  32
ATOM     32  C   LIG d   1       9.119   8.547  -6.696  0.00  0.00    -0.062 C 
ATOM     33  H   LIG d   1       9.553   9.504  -6.405  0.00  0.00     0.023 H 
ATOM     34  H   LIG d   1       8.640   8.647  -7.670  0.00  0.00     0.023 H 
ATOM     35  H   LIG d   1       8.377   8.245  -5.956  0.00  0.00     0.023 H 
ENDBRANCH  26  32
ENDBRANCH  15  26
BRANCH  18  36
ATOM     36  C   LIG d   1      10.190   4.309  -3.835  0.00  0.00     0.032 C 
ATOM     37  H   LIG d   1      10.766   3.997  -2.964  0.00  0.00     0.037 H 
ATOM     38  H   LIG d   1      10.863   4.472  -4.676  0.00  0.00     0.037 H 
BRANCH  36  39
ATOM     39  C   LIG d   1       9.194   3.235  -4.191  0.00  0.00     0.218 A 
ATOM     40  N   LIG d   1       8.913   2.813  -5.392  0.00  0.00    -0.112 NA
ATOM     41  N   LIG d   1       8.018   1.891  -5.326  0.00  0.00    -0.107 NA
ATOM     42  C   LIG d   1       7.695   1.691  -4.069  0.00  0.00     0.248 A 
ATOM     43  O   LIG d   1       8.430   2.543  -3.327  0.00  0.00    -0.420 OA
BRANCH  42  44
ATOM     44  C   LIG d   1       6.704   0.718  -3.562  0.00  0.00     0.038 A 
ATOM     45  C   LIG d   1       6.846  -0.640  -3.849  0.00  0.00    -0.049 A 
ATOM     46  C   LIG d   1       5.917  -1.543  -3.373  0.00  0.00    -0.058 A 
ATOM     47  H   LIG d   1       7.681  -0.984  -4.441  0.00  0.00     0.062 H 
ATOM     48  C   LIG d   1       4.848  -1.104  -2.613  0.00  0.00    -0.050 A 
ATOM     49  H   LIG d   1       6.027  -2.594  -3.593  0.00  0.00     0.062 H 
ATOM     50  C   LIG d   1       4.698   0.241  -2.330  0.00  0.00    -0.058 A 
ATOM     51  C   LIG d   1       5.623   1.154  -2.796  0.00  0.00    -0.049 A 
ATOM     52  H   LIG d   1       3.859   0.579  -1.740  0.00  0.00     0.062 H 
ATOM     53  H   LIG d   1       5.507   2.205  -2.570  0.00  0.00     0.062 H 
BRANCH  48  54
ATOM     54  C   LIG d   1       3.838  -2.096  -2.096  0.00  0.00    -0.040 C 
ATOM     55  H   LIG d   1       2.875  -1.915  -2.572  0.00  0.00     0.028 H 
ATOM     56  H   LIG d   1       4.173  -3.108  -2.325  0.00  0.00     0.028 H 
ATOM     57  H   LIG d   1       3.738  -1.983  -1.016  0.00  0.00     0.028 H 
ENDBRANCH  48  54
ENDBRANCH  42  44
ENDBRANCH  36  39
ENDBRANCH  18  36
BRANCH  22  58
ATOM     58  C   LIG d   1      10.381   6.095  -1.165  0.00  0.00    -0.043 C 
ATOM     59  H   LIG d   1       9.685   5.282  -0.953  0.00  0.00     0.027 H 
ATOM     60  H   LIG d   1      11.395   5.775  -0.928  0.00  0.00     0.027 H 
ATOM     61  H   LIG d   1      10.123   6.962  -0.557  0.00  0.00     0.027 H 
ENDBRANCH  22  58
ENDBRANCH  11  14
ENDBRANCH   9  11
BRANCH   9  62
ATOM     62  C   LIG d   1      13.545   9.820  -3.300  0.00  0.00    -0.043 C 
ATOM     63  H   LIG d   1      14.366   9.858  -2.584  0.00  0.00     0.078 H 
ATOM     64  H   LIG d   1      13.829  10.353  -4.208  0.00  0.00     0.078 H 
ATOM     65  H   LIG d   1      12.661  10.288  -2.867  0.00  0.00     0.078 H 
ENDBRANCH   9  62
ENDBRANCH   6   9
ENDBRANCH   1   6
TORSDOF 13
ENDMDL
MODEL 7
REMARK VINA RESULT:      -5.2      1.574      3.051
REMARK  13 active torsions:
REMARK  status: ('A' for Active; 'I' for Inactive)
REMARK    1  A    between atoms: C_1  and  C_2 
REMARK    2  A    between atoms: C_5  and  C_8 
REMARK    3  A    between atoms: C_11  and  C_13 
REMARK    4  A    between atoms: C_13  and  C_14 
REMARK    5  A    between atoms: C_17  and  C_31 
REMARK    6  A    between atoms: C_19  and  C_24 
REMARK    7  A    between atoms: C_22  and  C_23 
REMARK    8  A    between atoms: C_24  and  N_25 
REMARK    9  A    between atoms: N_25  and  C_26 
REMARK   10  A    between atoms: N_25  and  C_27 
REMARK   11  A    between atoms: C_27  and  C_28 
REMARK   12  A    between atoms: C_31  and  C_32 
REMARK   13  A    between atoms: C_31  and  C_33 
ROOT
ATOM      1  C   LIG d   1      14.280   8.429  -0.060  0.00  0.00     0.075 C 
ATOM      2  C   LIG d   1      13.351   9.555  -0.251  0.00  0.00     0.068 C 
ATOM      3  N   LIG d   1      12.634  10.424  -0.399  0.00  0.00    -0.196 NA
ATOM      4  H   LIG d   1      13.989   7.864   0.826  0.00  0.00     0.047 H 
ATOM      5  H   LIG d   1      15.293   8.811   0.070  0.00  0.00     0.047 H 
ENDROOT
BRANCH   1   6
ATOM      6  C   LIG d   1      14.232   7.515  -1.286  0.00  0.00    -0.019 C 
ATOM      7  H   LIG d   1      13.453   6.766  -1.151  0.00  0.00     0.082 H 
ATOM      8  H   LIG d   1      15.196   7.020  -1.408  0.00  0.00     0.082 H 
BRANCH   6   9
ATOM      9  N   LIG d   1      13.939   8.317  -2.482  0.00  0.00     0.234 N 
ATOM     10  H   LIG d   1      13.701   9.258  -2.207  0.00  0.00     0.203 HD
BRANCH   9  11
ATOM     11  C   LIG d   1      12.811   7.719  -3.208  0.00  0.00    -0.025 C 
ATOM     12  H   LIG d   1      13.086   7.575  -4.253  0.00  0.00     0.082 H 
ATOM     13  H   LIG d   1      11.947   8.382  -3.148  0.00  0.00     0.082 H 
BRANCH  11  14
ATOM     14  C   LIG d   1      12.460   6.367  -2.582  0.00  0.00     0.021 C 
ATOM     15  C   LIG d   1      10.966   6.332  -2.253  0.00  0.00    -0.027 C 
ATOM     16  C   LIG d   1      10.586   4.894  -1.879  0.00  0.00    -0.042 C 
ATOM     17  H   LIG d   1      10.392   6.648  -3.124  0.00  0.00     0.031 H 
ATOM     18  C   LIG d   1      10.717   4.017  -3.126  0.00  0.00    -0.011 C 
ATOM     19  H   LIG d   1       9.557   4.870  -1.518  0.00  0.00     0.027 H 
ATOM     20  H   LIG d   1      11.258   4.528  -1.102  0.00  0.00     0.027 H 
ATOM     21  H   LIG d   1      10.632   2.969  -2.841  0.00  0.00     0.035 H 
ATOM     22  C   LIG d   1      12.046   4.250  -3.781  0.00  0.00    -0.072 C 
ATOM     23  C   LIG d   1      12.803   5.272  -3.549  0.00  0.00    -0.076 C 
ATOM     24  H   LIG d   1      13.738   5.342  -4.084  0.00  0.00     0.058 H 
ATOM     25  H   LIG d   1      13.035   6.233  -1.666  0.00  0.00     0.040 H 
BRANCH  15  26
ATOM     26  C   LIG d   1      10.672   7.265  -1.077  0.00  0.00    -0.043 C 
ATOM     27  H   LIG d   1      11.343   8.124  -1.118  0.00  0.00     0.030 H 
BRANCH  26  28
ATOM     28  C   LIG d   1       9.222   7.748  -1.160  0.00  0.00    -0.062 C 
ATOM     29  H   LIG d   1       8.627   7.018  -1.708  0.00  0.00     0.023 H 
ATOM     30  H   LIG d   1       8.820   7.861  -0.153  0.00  0.00     0.023 H 
ATOM     31  H   LIG d   1       9.188   8.708  -1.675  0.00  0.00     0.023 H 
ENDBRANCH  26  28
BRANCH  26  32
ATOM     32  C   LIG d   1      10.885   6.513   0.237  0.00  0.00    -0.062 C 
ATOM     33  H   LIG d   1      10.134   5.728   0.333  0.00  0.00     0.023 H 
ATOM     34  H   LIG d   1      11.880   6.067   0.245  0.00  0.00     0.023 H 
ATOM     35  H   LIG d   1      10.792   7.208   1.072  0.00  0.00     0.023 H 
ENDBRANCH  26  32
ENDBRANCH  15  26
BRANCH  18  36
ATOM     36  C   LIG d   1       9.598   4.367  -4.110  0.00  0.00     0.032 C 
ATOM     37  H   LIG d   1      10.033   4.725  -5.043  0.00  0.00     0.037 H 
ATOM     38  H   LIG d   1       8.967   5.145  -3.681  0.00  0.00     0.037 H 
BRANCH  36  39
ATOM     39  C   LIG d   1       8.766   3.139  -4.382  0.00  0.00     0.218 A 
ATOM     40  N   LIG d   1       8.698   2.490  -5.510  0.00  0.00    -0.112 NA
ATOM     41  N   LIG d   1       7.894   1.494  -5.386  0.00  0.00    -0.107 NA
ATOM     42  C   LIG d   1       7.417   1.473  -4.163  0.00  0.00     0.248 A 
ATOM     43  O   LIG d   1       7.957   2.519  -3.505  0.00  0.00    -0.420 OA
BRANCH  42  44
ATOM     44  C   LIG d   1       6.461   0.491  -3.612  0.00  0.00     0.038 A 
ATOM     45  C   LIG d   1       6.541  -0.851  -3.986  0.00  0.00    -0.049 A 
ATOM     46  C   LIG d   1       5.644  -1.764  -3.467  0.00  0.00    -0.058 A 
ATOM     47  H   LIG d   1       7.302  -1.176  -4.679  0.00  0.00     0.062 H 
ATOM     48  C   LIG d   1       4.668  -1.350  -2.578  0.00  0.00    -0.050 A 
ATOM     49  H   LIG d   1       5.705  -2.802  -3.756  0.00  0.00     0.062 H 
ATOM     50  C   LIG d   1       4.580  -0.021  -2.207  0.00  0.00    -0.058 A 
ATOM     51  C   LIG d   1       5.473   0.901  -2.714  0.00  0.00    -0.049 A 
ATOM     52  H   LIG d   1       3.813   0.297  -1.516  0.00  0.00     0.062 H 
ATOM     53  H   LIG d   1       5.406   1.939  -2.420  0.00  0.00     0.062 H 
BRANCH  48  54
ATOM     54  C   LIG d   1       3.693  -2.352  -2.015  0.00  0.00    -0.040 C 
ATOM     55  H   LIG d   1       2.757  -1.850  -1.771  0.00  0.00     0.028 H 
ATOM     56  H   LIG d   1       3.506  -3.131  -2.755  0.00  0.00     0.028 H 
ATOM     57  H   LIG d   1       4.112  -2.800  -1.114  0.00  0.00     0.028 H 
ENDBRANCH  48  54
ENDBRANCH  42  44
ENDBRANCH  36  39
ENDBRANCH  18  36
BRANCH  22  58
ATOM     58  C   LIG d   1      12.533   3.228  -4.774  0.00  0.00    -0.043 C 
ATOM     59  H   LIG d   1      13.284   3.680  -5.424  0.00  0.00     0.027 H 
ATOM     60  H   LIG d   1      12.975   2.385  -4.242  0.00  0.00     0.027 H 
ATOM     61  H   LIG d   1      11.695   2.878  -5.376  0.00  0.00     0.027 H 
ENDBRANCH  22  58
ENDBRANCH  11  14
ENDBRANCH   9  11
BRANCH   9  62
ATOM     62  C   LIG d   1      15.121   8.347  -3.354  0.00  0.00    -0.043 C 
ATOM     63  H   LIG d   1      14.804   8.337  -4.397  0.00  0.00     0.078 H 
ATOM     64  H   LIG d   1      15.695   9.253  -3.157  0.00  0.00     0.078 H 
ATOM     65  H   LIG d   1      15.742   7.474  -3.153  0.00  0.00     0.078 H 
ENDBRANCH   9  62
ENDBRANCH   6   9
ENDBRANCH   1   6
TORSDOF 13
ENDMDL
MODEL 8
REMARK VINA RESULT:      -5.2      4.134      6.476
REMARK  13 active torsions:
REMARK  status: ('A' for Active; 'I' for Inactive)
REMARK    1  A    between atoms: C_1  and  C_2 
REMARK    2  A    between atoms: C_5  and  C_8 
REMARK    3  A    between atoms: C_11  and  C_13 
REMARK    4  A    between atoms: C_13  and  C_14 
REMARK    5  A    between atoms: C_17  and  C_31 
REMARK    6  A    between atoms: C_19  and  C_24 
REMARK    7  A    between atoms: C_22  and  C_23 
REMARK    8  A    between atoms: C_24  and  N_25 
REMARK    9  A    between atoms: N_25  and  C_26 
REMARK   10  A    between atoms: N_25  and  C_27 
REMARK   11  A    between atoms: C_27  and  C_28 
REMARK   12  A    between atoms: C_31  and  C_32 
REMARK   13  A    between atoms: C_31  and  C_33 
ROOT
ATOM      1  C   LIG d   1      10.792   5.443 -12.220  0.00  0.00     0.075 C 
ATOM      2  C   LIG d   1       9.553   5.618 -12.996  0.00  0.00     0.068 C 
ATOM      3  N   LIG d   1       8.597   5.754 -13.594  0.00  0.00    -0.196 NA
ATOM      4  H   LIG d   1      10.833   6.190 -11.427  0.00  0.00     0.047 H 
ATOM      5  H   LIG d   1      11.653   5.565 -12.878  0.00  0.00     0.047 H 
ENDROOT
BRANCH   1   6
ATOM      6  C   LIG d   1      10.814   4.042 -11.605  0.00  0.00    -0.019 C 
ATOM      7  H   LIG d   1      11.275   3.345 -12.304  0.00  0.00     0.082 H 
ATOM      8  H   LIG d   1       9.794   3.723 -11.392  0.00  0.00     0.082 H 
BRANCH   6   9
ATOM      9  N   LIG d   1      11.589   4.070 -10.357  0.00  0.00     0.234 N 
ATOM     10  H   LIG d   1      11.021   3.724  -9.599  0.00  0.00     0.203 HD
BRANCH   9  11
ATOM     11  C   LIG d   1      12.003   5.449 -10.068  0.00  0.00    -0.025 C 
ATOM     12  H   LIG d   1      11.495   6.132 -10.751  0.00  0.00     0.082 H 
ATOM     13  H   LIG d   1      13.081   5.541 -10.199  0.00  0.00     0.082 H 
BRANCH  11  14
ATOM     14  C   LIG d   1      11.633   5.802  -8.626  0.00  0.00     0.021 C 
ATOM     15  C   LIG d   1      10.121   5.660  -8.440  0.00  0.00    -0.027 C 
ATOM     16  C   LIG d   1       9.806   5.757  -6.943  0.00  0.00    -0.042 C 
ATOM     17  H   LIG d   1       9.794   4.692  -8.821  0.00  0.00     0.031 H 
ATOM     18  C   LIG d   1      10.387   4.526  -6.243  0.00  0.00    -0.011 C 
ATOM     19  H   LIG d   1       8.725   5.786  -6.797  0.00  0.00     0.027 H 
ATOM     20  H   LIG d   1      10.257   6.660  -6.530  0.00  0.00     0.027 H 
ATOM     21  H   LIG d   1      10.337   4.667  -5.163  0.00  0.00     0.035 H 
ATOM     22  C   LIG d   1      11.817   4.330  -6.654  0.00  0.00    -0.072 C 
ATOM     23  C   LIG d   1      12.358   4.879  -7.690  0.00  0.00    -0.076 C 
ATOM     24  H   LIG d   1      13.396   4.662  -7.896  0.00  0.00     0.058 H 
ATOM     25  H   LIG d   1      11.927   6.831  -8.419  0.00  0.00     0.040 H 
BRANCH  15  26
ATOM     26  C   LIG d   1       9.398   6.779  -9.192  0.00  0.00    -0.043 C 
ATOM     27  H   LIG d   1      10.028   7.134 -10.009  0.00  0.00     0.030 H 
BRANCH  26  28
ATOM     28  C   LIG d   1       8.082   6.244  -9.760  0.00  0.00    -0.062 C 
ATOM     29  H   LIG d   1       7.668   5.501  -9.079  0.00  0.00     0.023 H 
ATOM     30  H   LIG d   1       7.375   7.066  -9.874  0.00  0.00     0.023 H 
ATOM     31  H   LIG d   1       8.266   5.785 -10.732  0.00  0.00     0.023 H 
ENDBRANCH  26  28
BRANCH  26  32
ATOM     32  C   LIG d   1       9.108   7.934  -8.233  0.00  0.00    -0.062 C 
ATOM     33  H   LIG d   1       8.031   8.092  -8.169  0.00  0.00     0.023 H 
ATOM     34  H   LIG d   1       9.499   7.694  -7.245  0.00  0.00     0.023 H 
ATOM     35  H   LIG d   1       9.586   8.842  -8.603  0.00  0.00     0.023 H 
ENDBRANCH  26  32
ENDBRANCH  15  26
BRANCH  18  36
ATOM     36  C   LIG d   1       9.573   3.291  -6.632  0.00  0.00     0.032 C 
ATOM     37  H   LIG d   1      10.232   2.547  -7.080  0.00  0.00     0.037 H 
ATOM     38  H   LIG d   1       8.804   3.574  -7.350  0.00  0.00     0.037 H 
BRANCH  36  39
ATOM     39  C   LIG d   1       8.922   2.710  -5.402  0.00  0.00     0.218 A 
ATOM     40  N   LIG d   1       9.200   3.020  -4.166  0.00  0.00    -0.112 NA
ATOM     41  N   LIG d   1       8.455   2.333  -3.373  0.00  0.00    -0.107 NA
ATOM     42  C   LIG d   1       7.670   1.555  -4.083  0.00  0.00     0.248 A 
ATOM     43  O   LIG d   1       7.955   1.777  -5.382  0.00  0.00    -0.420 OA
BRANCH  42  44
ATOM     44  C   LIG d   1       6.665   0.609  -3.555  0.00  0.00     0.038 A 
ATOM     45  C   LIG d   1       5.547   1.085  -2.869  0.00  0.00    -0.049 A 
ATOM     46  C   LIG d   1       4.612   0.195  -2.379  0.00  0.00    -0.058 A 
ATOM     47  H   LIG d   1       5.412   2.146  -2.722  0.00  0.00     0.062 H 
ATOM     48  C   LIG d   1       4.782  -1.165  -2.567  0.00  0.00    -0.050 A 
ATOM     49  H   LIG d   1       3.746   0.562  -1.848  0.00  0.00     0.062 H 
ATOM     50  C   LIG d   1       5.891  -1.643  -3.240  0.00  0.00    -0.058 A 
ATOM     51  C   LIG d   1       6.831  -0.764  -3.740  0.00  0.00    -0.049 A 
ATOM     52  H   LIG d   1       6.021  -2.706  -3.380  0.00  0.00     0.062 H 
ATOM     53  H   LIG d   1       7.694  -1.139  -4.270  0.00  0.00     0.062 H 
BRANCH  48  54
ATOM     54  C   LIG d   1       3.757  -2.130  -2.029  0.00  0.00    -0.040 C 
ATOM     55  H   LIG d   1       3.573  -2.912  -2.765  0.00  0.00     0.028 H 
ATOM     56  H   LIG d   1       4.129  -2.578  -1.107  0.00  0.00     0.028 H 
ATOM     57  H   LIG d   1       2.828  -1.597  -1.824  0.00  0.00     0.028 H 
ENDBRANCH  48  54
ENDBRANCH  42  44
ENDBRANCH  36  39
ENDBRANCH  18  36
BRANCH  22  58
ATOM     58  C   LIG d   1      12.679   3.434  -5.804  0.00  0.00    -0.043 C 
ATOM     59  H   LIG d   1      12.135   3.155  -4.900  0.00  0.00     0.027 H 
ATOM     60  H   LIG d   1      12.934   2.535  -6.365  0.00  0.00     0.027 H 
ATOM     61  H   LIG d   1      13.592   3.962  -5.530  0.00  0.00     0.027 H 
ENDBRANCH  22  58
ENDBRANCH  11  14
ENDBRANCH   9  11
BRANCH   9  62
ATOM     62  C   LIG d   1      12.781   3.222 -10.502  0.00  0.00    -0.043 C 
ATOM     63  H   LIG d   1      13.595   3.635  -9.907  0.00  0.00     0.078 H 
ATOM     64  H   LIG d   1      12.553   2.213 -10.155  0.00  0.00     0.078 H 
ATOM     65  H   LIG d   1      13.075   3.187 -11.550  0.00  0.00     0.078 H 
ENDBRANCH   9  62
ENDBRANCH   6   9
ENDBRANCH   1   6
TORSDOF 13
ENDMDL
MODEL 9
REMARK VINA RESULT:      -5.1      6.782      9.604
REMARK  13 active torsions:
REMARK  status: ('A' for Active; 'I' for Inactive)
REMARK    1  A    between atoms: C_1  and  C_2 
REMARK    2  A    between atoms: C_5  and  C_8 
REMARK    3  A    between atoms: C_11  and  C_13 
REMARK    4  A    between atoms: C_13  and  C_14 
REMARK    5  A    between atoms: C_17  and  C_31 
REMARK    6  A    between atoms: C_19  and  C_24 
REMARK    7  A    between atoms: C_22  and  C_23 
REMARK    8  A    between atoms: C_24  and  N_25 
REMARK    9  A    between atoms: N_25  and  C_26 
REMARK   10  A    between atoms: N_25  and  C_27 
REMARK   11  A    between atoms: C_27  and  C_28 
REMARK   12  A    between atoms: C_31  and  C_32 
REMARK   13  A    between atoms: C_31  and  C_33 
ROOT
ATOM      1  C   LIG d   1       9.560  -5.637  -2.867  0.00  0.00     0.075 C 
ATOM      2  C   LIG d   1      10.171  -6.517  -1.857  0.00  0.00     0.068 C 
ATOM      3  N   LIG d   1      10.642  -7.195  -1.077  0.00  0.00    -0.196 NA
ATOM      4  H   LIG d   1       8.536  -5.959  -3.058  0.00  0.00     0.047 H 
ATOM      5  H   LIG d   1      10.136  -5.690  -3.791  0.00  0.00     0.047 H 
ENDROOT
BRANCH   1   6
ATOM      6  C   LIG d   1       9.554  -4.197  -2.352  0.00  0.00    -0.019 C 
ATOM      7  H   LIG d   1      10.473  -4.005  -1.799  0.00  0.00     0.082 H 
ATOM      8  H   LIG d   1       8.696  -4.049  -1.696  0.00  0.00     0.082 H 
BRANCH   6   9
ATOM      9  N   LIG d   1       9.465  -3.271  -3.490  0.00  0.00     0.234 N 
ATOM     10  H   LIG d   1       9.753  -2.350  -3.198  0.00  0.00     0.203 HD
BRANCH   9  11
ATOM     11  C   LIG d   1       8.078  -3.220  -3.971  0.00  0.00    -0.025 C 
ATOM     12  H   LIG d   1       7.440  -3.803  -3.305  0.00  0.00     0.082 H 
ATOM     13  H   LIG d   1       8.026  -3.635  -4.978  0.00  0.00     0.082 H 
BRANCH  11  14
ATOM     14  C   LIG d   1       7.599  -1.767  -3.993  0.00  0.00     0.021 C 
ATOM     15  C   LIG d   1       6.995  -1.452  -5.364  0.00  0.00    -0.027 C 
ATOM     16  C   LIG d   1       6.289  -0.094  -5.282  0.00  0.00    -0.042 C 
ATOM     17  H   LIG d   1       6.274  -2.225  -5.633  0.00  0.00     0.031 H 
ATOM     18  C   LIG d   1       5.075  -0.232  -4.361  0.00  0.00    -0.011 C 
ATOM     19  H   LIG d   1       5.962   0.209  -6.278  0.00  0.00     0.027 H 
ATOM     20  H   LIG d   1       6.973   0.652  -4.877  0.00  0.00     0.027 H 
ATOM     21  H   LIG d   1       4.672   0.757  -4.144  0.00  0.00     0.035 H 
ATOM     22  C   LIG d   1       5.477  -0.899  -3.079  0.00  0.00    -0.072 C 
ATOM     23  C   LIG d   1       6.570  -1.569  -2.918  0.00  0.00    -0.076 C 
ATOM     24  H   LIG d   1       6.756  -2.014  -1.952  0.00  0.00     0.058 H 
ATOM     25  H   LIG d   1       8.444  -1.105  -3.810  0.00  0.00     0.040 H 
BRANCH  15  26
ATOM     26  C   LIG d   1       8.103  -1.394  -6.418  0.00  0.00    -0.043 C 
ATOM     27  H   LIG d   1       8.607  -2.360  -6.469  0.00  0.00     0.030 H 
BRANCH  26  28
ATOM     28  C   LIG d   1       7.493  -1.065  -7.782  0.00  0.00    -0.062 C 
ATOM     29  H   LIG d   1       7.541  -1.945  -8.423  0.00  0.00     0.023 H 
ATOM     30  H   LIG d   1       6.452  -0.767  -7.651  0.00  0.00     0.023 H 
ATOM     31  H   LIG d   1       8.050  -0.249  -8.241  0.00  0.00     0.023 H 
ENDBRANCH  26  28
BRANCH  26  32
ATOM     32  C   LIG d   1       9.114  -0.311  -6.036  0.00  0.00    -0.062 C 
ATOM     33  H   LIG d   1       9.373  -0.412  -4.981  0.00  0.00     0.023 H 
ATOM     34  H   LIG d   1      10.012  -0.422  -6.643  0.00  0.00     0.023 H 
ATOM     35  H   LIG d   1       8.675   0.671  -6.210  0.00  0.00     0.023 H 
ENDBRANCH  26  32
ENDBRANCH  15  26
BRANCH  18  36
ATOM     36  C   LIG d   1       4.004  -1.076  -5.058  0.00  0.00     0.032 C 
ATOM     37  H   LIG d   1       3.096  -1.078  -4.455  0.00  0.00     0.037 H 
ATOM     38  H   LIG d   1       4.366  -2.097  -5.175  0.00  0.00     0.037 H 
BRANCH  36  39
ATOM     39  C   LIG d   1       3.707  -0.488  -6.414  0.00  0.00     0.218 A 
ATOM     40  N   LIG d   1       3.166   0.675  -6.647  0.00  0.00    -0.112 NA
ATOM     41  N   LIG d   1       3.059   0.853  -7.917  0.00  0.00    -0.107 NA
ATOM     42  C   LIG d   1       3.533  -0.200  -8.542  0.00  0.00     0.248 A 
ATOM     43  O   LIG d   1       3.947  -1.072  -7.601  0.00  0.00    -0.420 OA
BRANCH  42  44
ATOM     44  C   LIG d   1       3.593  -0.396 -10.006  0.00  0.00     0.038 A 
ATOM     45  C   LIG d   1       2.483  -0.888 -10.694  0.00  0.00    -0.049 A 
ATOM     46  C   LIG d   1       2.547  -1.068 -12.061  0.00  0.00    -0.058 A 
ATOM     47  H   LIG d   1       1.577  -1.127 -10.159  0.00  0.00     0.062 H 
ATOM     48  C   LIG d   1       3.708  -0.761 -12.749  0.00  0.00    -0.050 A 
ATOM     49  H   LIG d   1       1.689  -1.448 -12.594  0.00  0.00     0.062 H 
ATOM     50  C   LIG d   1       4.813  -0.279 -12.072  0.00  0.00    -0.058 A 
ATOM     51  C   LIG d   1       4.761  -0.089 -10.706  0.00  0.00    -0.049 A 
ATOM     52  H   LIG d   1       5.718  -0.045 -12.614  0.00  0.00     0.062 H 
ATOM     53  H   LIG d   1       5.624   0.292 -10.179  0.00  0.00     0.062 H 
BRANCH  48  54
ATOM     54  C   LIG d   1       3.769  -0.961 -14.242  0.00  0.00    -0.040 C 
ATOM     55  H   LIG d   1       4.172  -0.063 -14.711  0.00  0.00     0.028 H 
ATOM     56  H   LIG d   1       4.413  -1.811 -14.468  0.00  0.00     0.028 H 
ATOM     57  H   LIG d   1       2.767  -1.153 -14.624  0.00  0.00     0.028 H 
ENDBRANCH  48  54
ENDBRANCH  42  44
ENDBRANCH  36  39
ENDBRANCH  18  36
BRANCH  22  58
ATOM     58  C   LIG d   1       4.548  -0.781  -1.899  0.00  0.00    -0.043 C 
ATOM     59  H   LIG d   1       4.653  -1.661  -1.263  0.00  0.00     0.027 H 
ATOM     60  H   LIG d   1       4.797   0.112  -1.327  0.00  0.00     0.027 H 
ATOM     61  H   LIG d   1       3.519  -0.711  -2.253  0.00  0.00     0.027 H 
ENDBRANCH  22  58
ENDBRANCH  11  14
ENDBRANCH   9  11
BRANCH   9  62
ATOM     62  C   LIG d   1      10.341  -3.740  -4.572  0.00  0.00    -0.043 C 
ATOM     63  H   LIG d   1      11.199  -3.073  -4.659  0.00  0.00     0.078 H 
ATOM     64  H   LIG d   1      10.687  -4.749  -4.348  0.00  0.00     0.078 H 
ATOM     65  H   LIG d   1       9.787  -3.746  -5.510  0.00  0.00     0.078 H 
ENDBRANCH   9  62
ENDBRANCH   6   9
ENDBRANCH   1   6
TORSDOF 13
ENDMDL
MODEL 10
REMARK VINA RESULT:      -5.0      3.319      5.653
REMARK  13 active torsions:
REMARK  status: ('A' for Active; 'I' for Inactive)
REMARK    1  A    between atoms: C_1  and  C_2 
REMARK    2  A    between atoms: C_5  and  C_8 
REMARK    3  A    between atoms: C_11  and  C_13 
REMARK    4  A    between atoms: C_13  and  C_14 
REMARK    5  A    between atoms: C_17  and  C_31 
REMARK    6  A    between atoms: C_19  and  C_24 
REMARK    7  A    between atoms: C_22  and  C_23 
REMARK    8  A    between atoms: C_24  and  N_25 
REMARK    9  A    between atoms: N_25  and  C_26 
REMARK   10  A    between atoms: N_25  and  C_27 
REMARK   11  A    between atoms: C_27  and  C_28 
REMARK   12  A    between atoms: C_31  and  C_32 
REMARK   13  A    between atoms: C_31  and  C_33 
ROOT
ATOM      1  C   LIG d   1      11.434   2.847  -9.887  0.00  0.00     0.075 C 
ATOM      2  C   LIG d   1      12.137   2.269  -8.730  0.00  0.00     0.068 C 
ATOM      3  N   LIG d   1      12.679   1.823  -7.836  0.00  0.00    -0.196 NA
ATOM      4  H   LIG d   1      10.496   3.294  -9.557  0.00  0.00     0.047 H 
ATOM      5  H   LIG d   1      11.226   2.062 -10.615  0.00  0.00     0.047 H 
ENDROOT
BRANCH   1   6
ATOM      6  C   LIG d   1      12.312   3.921 -10.532  0.00  0.00    -0.019 C 
ATOM      7  H   LIG d   1      11.702   4.547 -11.182  0.00  0.00     0.082 H 
ATOM      8  H   LIG d   1      13.098   3.445 -11.118  0.00  0.00     0.082 H 
BRANCH   6   9
ATOM      9  N   LIG d   1      12.919   4.751  -9.482  0.00  0.00     0.234 N 
ATOM     10  H   LIG d   1      12.735   4.340  -8.579  0.00  0.00     0.203 HD
BRANCH   9  11
ATOM     11  C   LIG d   1      12.343   6.101  -9.531  0.00  0.00    -0.025 C 
ATOM     12  H   LIG d   1      11.580   6.143 -10.310  0.00  0.00     0.082 H 
ATOM     13  H   LIG d   1      13.129   6.824  -9.754  0.00  0.00     0.082 H 
BRANCH  11  14
ATOM     14  C   LIG d   1      11.711   6.436  -8.180  0.00  0.00     0.021 C 
ATOM     15  C   LIG d   1      10.226   6.067  -8.207  0.00  0.00    -0.027 C 
ATOM     16  C   LIG d   1       9.677   6.160  -6.779  0.00  0.00    -0.042 C 
ATOM     17  H   LIG d   1      10.110   5.048  -8.579  0.00  0.00     0.031 H 
ATOM     18  C   LIG d   1      10.323   5.057  -5.937  0.00  0.00    -0.011 C 
ATOM     19  H   LIG d   1       8.595   6.024  -6.793  0.00  0.00     0.027 H 
ATOM     20  H   LIG d   1       9.921   7.134  -6.355  0.00  0.00     0.027 H 
ATOM     21  H   LIG d   1      10.089   5.222  -4.885  0.00  0.00     0.035 H 
ATOM     22  C   LIG d   1      11.811   5.073  -6.125  0.00  0.00    -0.072 C 
ATOM     23  C   LIG d   1      12.416   5.667  -7.100  0.00  0.00    -0.076 C 
ATOM     24  H   LIG d   1      13.493   5.608  -7.141  0.00  0.00     0.058 H 
ATOM     25  H   LIG d   1      11.814   7.504  -7.987  0.00  0.00     0.040 H 
BRANCH  15  26
ATOM     26  C   LIG d   1       9.467   7.036  -9.115  0.00  0.00    -0.043 C 
ATOM     27  H   LIG d   1      10.156   7.466  -9.843  0.00  0.00     0.030 H 
BRANCH  26  28
ATOM     28  C   LIG d   1       8.356   6.282  -9.849  0.00  0.00    -0.062 C 
ATOM     29  H   LIG d   1       7.409   6.803  -9.708  0.00  0.00     0.023 H 
ATOM     30  H   LIG d   1       8.590   6.236 -10.912  0.00  0.00     0.023 H 
ATOM     31  H   LIG d   1       8.278   5.271  -9.449  0.00  0.00     0.023 H 
ENDBRANCH  26  28
BRANCH  26  32
ATOM     32  C   LIG d   1       8.854   8.153  -8.270  0.00  0.00    -0.062 C 
ATOM     33  H   LIG d   1       9.627   8.877  -8.008  0.00  0.00     0.023 H 
ATOM     34  H   LIG d   1       8.069   8.651  -8.839  0.00  0.00     0.023 H 
ATOM     35  H   LIG d   1       8.431   7.729  -7.360  0.00  0.00     0.023 H 
ENDBRANCH  26  32
ENDBRANCH  15  26
BRANCH  18  36
ATOM     36  C   LIG d   1       9.770   3.698  -6.373  0.00  0.00     0.032 C 
ATOM     37  H   LIG d   1      10.587   3.074  -6.737  0.00  0.00     0.037 H 
ATOM     38  H   LIG d   1       9.039   3.841  -7.168  0.00  0.00     0.037 H 
BRANCH  36  39
ATOM     39  C   LIG d   1       9.109   3.025  -5.198  0.00  0.00     0.218 A 
ATOM     40  N   LIG d   1       9.396   3.214  -3.940  0.00  0.00    -0.112 NA
ATOM     41  N   LIG d   1       8.636   2.477  -3.209  0.00  0.00    -0.107 NA
ATOM     42  C   LIG d   1       7.831   1.786  -3.983  0.00  0.00     0.248 A 
ATOM     43  O   LIG d   1       8.119   2.116  -5.257  0.00  0.00    -0.420 OA
BRANCH  42  44
ATOM     44  C   LIG d   1       6.804   0.820  -3.538  0.00  0.00     0.038 A 
ATOM     45  C   LIG d   1       5.626   1.273  -2.945  0.00  0.00    -0.049 A 
ATOM     46  C   LIG d   1       4.671   0.365  -2.533  0.00  0.00    -0.058 A 
ATOM     47  H   LIG d   1       5.459   2.331  -2.810  0.00  0.00     0.062 H 
ATOM     48  C   LIG d   1       4.881  -0.991  -2.706  0.00  0.00    -0.050 A 
ATOM     49  H   LIG d   1       3.758   0.715  -2.074  0.00  0.00     0.062 H 
ATOM     50  C   LIG d   1       6.050  -1.447  -3.288  0.00  0.00    -0.058 A 
ATOM     51  C   LIG d   1       7.011  -0.550  -3.709  0.00  0.00    -0.049 A 
ATOM     52  H   LIG d   1       6.211  -2.507  -3.417  0.00  0.00     0.062 H 
ATOM     53  H   LIG d   1       7.921  -0.908  -4.168  0.00  0.00     0.062 H 
BRANCH  48  54
ATOM     54  C   LIG d   1       3.834  -1.976  -2.253  0.00  0.00    -0.040 C 
ATOM     55  H   LIG d   1       3.130  -1.477  -1.588  0.00  0.00     0.028 H 
ATOM     56  H   LIG d   1       3.302  -2.365  -3.121  0.00  0.00     0.028 H 
ATOM     57  H   LIG d   1       4.315  -2.799  -1.724  0.00  0.00     0.028 H 
ENDBRANCH  48  54
ENDBRANCH  42  44
ENDBRANCH  36  39
ENDBRANCH  18  36
BRANCH  22  58
ATOM     58  C   LIG d   1      12.659   4.348  -5.112  0.00  0.00    -0.043 C 
ATOM     59  H   LIG d   1      12.662   3.281  -5.336  0.00  0.00     0.027 H 
ATOM     60  H   LIG d   1      13.679   4.729  -5.152  0.00  0.00     0.027 H 
ATOM     61  H   LIG d   1      12.250   4.509  -4.115  0.00  0.00     0.027 H 
ENDBRANCH  22  58
ENDBRANCH  11  14
ENDBRANCH   9  11
BRANCH   9  62
ATOM     62  C   LIG d   1      14.370   4.829  -9.698  0.00  0.00    -0.043 C 
ATOM     63  H   LIG d   1      14.618   5.787 -10.157  0.00  0.00     0.078 H 
ATOM     64  H   LIG d   1      14.885   4.741  -8.741  0.00  0.00     0.078 H 
ATOM     65  H   LIG d   1      14.684   4.018 -10.354  0.00  0.00     0.078 H 
ENDBRANCH   9  62
ENDBRANCH   6   9
ENDBRANCH   1   6
TORSDOF 13
ENDMDL
