MODEL 1
REMARK VINA RESULT:      -6.6      0.000      0.000
REMARK  6 active torsions:
REMARK  status: ('A' for Active; 'I' for Inactive)
REMARK    1  A    between atoms: C_1  and  C_2 
REMARK    2  A    between atoms: C_5  and  O_26 
REMARK    3  A    between atoms: C_7  and  C_24 
REMARK    4  A    between atoms: C_7  and  C_25 
REMARK    5  A    between atoms: C_20  and  C_22 
REMARK    6  A    between atoms: C_22  and  O_23 
ROOT
ATOM      1  C   LIG d   1       7.125  -1.717  -4.134  0.00  0.00    -0.025 C 
ATOM      2  C   LIG d   1       7.850  -0.385  -4.342  0.00  0.00    -0.045 C 
ATOM      3  C   LIG d   1       8.975  -0.554  -5.363  0.00  0.00    -0.026 C 
ATOM      4  C   LIG d   1       8.390  -0.976  -6.705  0.00  0.00     0.061 C 
ATOM      5  H   LIG d   1       9.206  -1.116  -7.423  0.00  0.00     0.060 H 
ATOM      6  C   LIG d   1       7.607  -2.284  -6.592  0.00  0.00    -0.006 C 
ATOM      7  C   LIG d   1       6.600  -2.246  -5.457  0.00  0.00    -0.028 C 
ATOM      8  H   LIG d   1       5.811  -1.532  -5.789  0.00  0.00     0.031 H 
ATOM      9  C   LIG d   1       5.911  -3.594  -5.266  0.00  0.00    -0.048 C 
ATOM     10  C   LIG d   1       4.785  -3.474  -4.238  0.00  0.00    -0.043 C 
ATOM     11  C   LIG d   1       4.653  -2.072  -3.701  0.00  0.00    -0.007 C 
ATOM     12  C   LIG d   1       5.964  -1.508  -3.155  0.00  0.00    -0.026 C 
ATOM     13  H   LIG d   1       6.207  -2.020  -2.210  0.00  0.00     0.031 H 
ATOM     14  C   LIG d   1       5.768  -0.013  -2.874  0.00  0.00    -0.048 C 
ATOM     15  C   LIG d   1       4.563   0.188  -1.950  0.00  0.00    -0.046 C 
ATOM     16  C   LIG d   1       3.334  -0.529  -2.534  0.00  0.00    -0.017 C 
ATOM     17  H   LIG d   1       2.408  -0.274  -2.018  0.00  0.00     0.035 H 
ATOM     18  C   LIG d   1       3.653  -2.053  -2.505  0.00  0.00    -0.037 C 
ATOM     19  C   LIG d   1       3.287  -0.234  -4.024  0.00  0.00    -0.045 C 
ATOM     20  C   LIG d   1       4.027  -1.106  -4.673  0.00  0.00    -0.076 C 
ATOM     21  H   LIG d   1       7.148   0.362  -4.712  0.00  0.00     0.027 H 
ATOM     22  H   LIG d   1       8.272  -0.049  -3.394  0.00  0.00     0.027 H 
ATOM     23  H   LIG d   1       9.481   0.413  -5.485  0.00  0.00     0.029 H 
ATOM     24  H   LIG d   1       9.708  -1.276  -5.017  0.00  0.00     0.029 H 
ATOM     25  H   LIG d   1       5.473  -3.930  -6.211  0.00  0.00     0.027 H 
ATOM     26  H   LIG d   1       6.614  -4.354  -4.928  0.00  0.00     0.027 H 
ATOM     27  H   LIG d   1       3.843  -3.763  -4.711  0.00  0.00     0.027 H 
ATOM     28  H   LIG d   1       4.985  -4.159  -3.411  0.00  0.00     0.027 H 
ATOM     29  H   LIG d   1       6.655   0.384  -2.377  0.00  0.00     0.027 H 
ATOM     30  H   LIG d   1       5.599   0.526  -3.801  0.00  0.00     0.027 H 
ATOM     31  H   LIG d   1       4.794  -0.226  -0.968  0.00  0.00     0.027 H 
ATOM     32  H   LIG d   1       4.357   1.253  -1.855  0.00  0.00     0.027 H 
ATOM     33  H   LIG d   1       2.772  -2.658  -2.715  0.00  0.00     0.028 H 
ATOM     34  H   LIG d   1       4.136  -2.351  -1.576  0.00  0.00     0.028 H 
ATOM     35  H   LIG d   1       4.143  -1.123  -5.748  0.00  0.00     0.058 H 
ENDROOT
BRANCH   6  36
ATOM     36  C   LIG d   1       8.573  -3.461  -6.492  0.00  0.00    -0.057 C 
ATOM     37  H   LIG d   1       8.178  -4.305  -7.057  0.00  0.00     0.024 H 
ATOM     38  H   LIG d   1       9.542  -3.173  -6.900  0.00  0.00     0.024 H 
ATOM     39  H   LIG d   1       8.689  -3.747  -5.447  0.00  0.00     0.024 H 
ENDBRANCH   6  36
BRANCH   6  40
ATOM     40  C   LIG d   1       6.827  -2.445  -7.920  0.00  0.00    -0.057 C 
ATOM     41  H   LIG d   1       6.062  -1.672  -7.988  0.00  0.00     0.024 H 
ATOM     42  H   LIG d   1       7.516  -2.348  -8.759  0.00  0.00     0.024 H 
ATOM     43  H   LIG d   1       6.356  -3.427  -7.949  0.00  0.00     0.024 H 
ENDBRANCH   6  40
BRANCH   4  44
ATOM     44  O   LIG d   1       7.525   0.053  -7.198  0.00  0.00    -0.391 OA
ATOM     45  H   LIG d   1       6.584  -0.149  -7.110  0.00  0.00     0.210 HD
ENDBRANCH   4  44
BRANCH   1  46
ATOM     46  C   LIG d   1       8.093  -2.707  -3.472  0.00  0.00    -0.059 C 
ATOM     47  H   LIG d   1       7.534  -3.567  -3.099  0.00  0.00     0.024 H 
ATOM     48  H   LIG d   1       8.829  -3.042  -4.203  0.00  0.00     0.024 H 
ATOM     49  H   LIG d   1       8.602  -2.217  -2.642  0.00  0.00     0.024 H 
ENDBRANCH   1  46
BRANCH  19  50
ATOM     50  C   LIG d   1       2.506   0.885  -4.665  0.00  0.00     0.066 C 
ATOM     51  H   LIG d   1       1.442   0.657  -4.621  0.00  0.00     0.060 H 
ATOM     52  H   LIG d   1       2.700   1.815  -4.131  0.00  0.00     0.060 H 
BRANCH  50  53
ATOM     53  O   LIG d   1       2.908   1.026  -6.029  0.00  0.00    -0.391 OA
ATOM     54  H   LIG d   1       3.001   1.943  -6.319  0.00  0.00     0.210 HD
ENDBRANCH  50  53
ENDBRANCH  19  50
TORSDOF 6
ENDMDL
MODEL 2
REMARK VINA RESULT:      -6.1      1.705      5.250
REMARK  6 active torsions:
REMARK  status: ('A' for Active; 'I' for Inactive)
REMARK    1  A    between atoms: C_1  and  C_2 
REMARK    2  A    between atoms: C_5  and  O_26 
REMARK    3  A    between atoms: C_7  and  C_24 
REMARK    4  A    between atoms: C_7  and  C_25 
REMARK    5  A    between atoms: C_20  and  C_22 
REMARK    6  A    between atoms: C_22  and  O_23 
ROOT
ATOM      1  C   LIG d   1       5.072  -1.101  -5.218  0.00  0.00    -0.025 C 
ATOM      2  C   LIG d   1       4.067  -0.138  -5.855  0.00  0.00    -0.045 C 
ATOM      3  C   LIG d   1       2.788  -0.087  -5.021  0.00  0.00    -0.026 C 
ATOM      4  C   LIG d   1       3.107   0.434  -3.625  0.00  0.00     0.061 C 
ATOM      5  H   LIG d   1       2.188   0.445  -3.028  0.00  0.00     0.060 H 
ATOM      6  C   LIG d   1       4.139  -0.444  -2.918  0.00  0.00    -0.006 C 
ATOM      7  C   LIG d   1       5.360  -0.695  -3.784  0.00  0.00    -0.028 C 
ATOM      8  H   LIG d   1       5.888   0.286  -3.837  0.00  0.00     0.031 H 
ATOM      9  C   LIG d   1       6.329  -1.673  -3.128  0.00  0.00    -0.048 C 
ATOM     10  C   LIG d   1       7.622  -1.766  -3.942  0.00  0.00    -0.043 C 
ATOM     11  C   LIG d   1       7.595  -0.872  -5.154  0.00  0.00    -0.007 C 
ATOM     12  C   LIG d   1       6.368  -1.088  -6.038  0.00  0.00    -0.026 C 
ATOM     13  H   LIG d   1       6.465  -2.056  -6.554  0.00  0.00     0.031 H 
ATOM     14  C   LIG d   1       6.323   0.031  -7.086  0.00  0.00    -0.048 C 
ATOM     15  C   LIG d   1       7.649   0.080  -7.850  0.00  0.00    -0.046 C 
ATOM     16  C   LIG d   1       8.820   0.168  -6.858  0.00  0.00    -0.017 C 
ATOM     17  H   LIG d   1       9.773   0.386  -7.342  0.00  0.00     0.035 H 
ATOM     18  C   LIG d   1       8.828  -1.170  -6.061  0.00  0.00    -0.037 C 
ATOM     19  C   LIG d   1       8.450   1.182  -5.788  0.00  0.00    -0.045 C 
ATOM     20  C   LIG d   1       7.765   0.590  -4.834  0.00  0.00    -0.076 C 
ATOM     21  H   LIG d   1       4.497   0.863  -5.902  0.00  0.00     0.027 H 
ATOM     22  H   LIG d   1       3.826  -0.478  -6.863  0.00  0.00     0.027 H 
ATOM     23  H   LIG d   1       2.085   0.604  -5.505  0.00  0.00     0.029 H 
ATOM     24  H   LIG d   1       2.319  -1.064  -4.971  0.00  0.00     0.029 H 
ATOM     25  H   LIG d   1       6.587  -1.330  -2.122  0.00  0.00     0.027 H 
ATOM     26  H   LIG d   1       5.894  -2.668  -3.047  0.00  0.00     0.027 H 
ATOM     27  H   LIG d   1       8.461  -1.476  -3.304  0.00  0.00     0.027 H 
ATOM     28  H   LIG d   1       7.767  -2.801  -4.260  0.00  0.00     0.027 H 
ATOM     29  H   LIG d   1       5.520  -0.167  -7.797  0.00  0.00     0.027 H 
ATOM     30  H   LIG d   1       6.155   0.991  -6.606  0.00  0.00     0.027 H 
ATOM     31  H   LIG d   1       7.747  -0.825  -8.451  0.00  0.00     0.027 H 
ATOM     32  H   LIG d   1       7.655   0.951  -8.504  0.00  0.00     0.027 H 
ATOM     33  H   LIG d   1       9.736  -1.287  -5.471  0.00  0.00     0.028 H 
ATOM     34  H   LIG d   1       8.651  -2.030  -6.705  0.00  0.00     0.028 H 
ATOM     35  H   LIG d   1       7.401   1.092  -3.948  0.00  0.00     0.058 H 
ENDROOT
BRANCH   6  36
ATOM     36  C   LIG d   1       3.480  -1.732  -2.432  0.00  0.00    -0.057 C 
ATOM     37  H   LIG d   1       3.139  -1.601  -1.405  0.00  0.00     0.024 H 
ATOM     38  H   LIG d   1       2.629  -1.968  -3.070  0.00  0.00     0.024 H 
ATOM     39  H   LIG d   1       4.202  -2.547  -2.474  0.00  0.00     0.024 H 
ENDBRANCH   6  36
BRANCH   6  40
ATOM     40  C   LIG d   1       4.595   0.338  -1.662  0.00  0.00    -0.057 C 
ATOM     41  H   LIG d   1       4.539  -0.312  -0.789  0.00  0.00     0.024 H 
ATOM     42  H   LIG d   1       5.622   0.676  -1.798  0.00  0.00     0.024 H 
ATOM     43  H   LIG d   1       3.945   1.201  -1.516  0.00  0.00     0.024 H 
ENDBRANCH   6  40
BRANCH   4  44
ATOM     44  O   LIG d   1       3.605   1.773  -3.713  0.00  0.00    -0.391 OA
ATOM     45  H   LIG d   1       3.547   2.270  -2.886  0.00  0.00     0.210 HD
ENDBRANCH   4  44
BRANCH   1  46
ATOM     46  C   LIG d   1       4.509  -2.527  -5.301  0.00  0.00    -0.059 C 
ATOM     47  H   LIG d   1       3.726  -2.565  -6.059  0.00  0.00     0.024 H 
ATOM     48  H   LIG d   1       5.307  -3.218  -5.569  0.00  0.00     0.024 H 
ATOM     49  H   LIG d   1       4.092  -2.809  -4.334  0.00  0.00     0.024 H 
ENDBRANCH   1  46
BRANCH  19  50
ATOM     50  C   LIG d   1       8.815   2.644  -5.813  0.00  0.00     0.066 C 
ATOM     51  H   LIG d   1       9.825   2.759  -6.205  0.00  0.00     0.060 H 
ATOM     52  H   LIG d   1       8.114   3.182  -6.450  0.00  0.00     0.060 H 
BRANCH  50  53
ATOM     53  O   LIG d   1       8.756   3.172  -4.486  0.00  0.00    -0.391 OA
ATOM     54  H   LIG d   1       7.916   3.598  -4.270  0.00  0.00     0.210 HD
ENDBRANCH  50  53
ENDBRANCH  19  50
TORSDOF 6
ENDMDL
MODEL 3
REMARK VINA RESULT:      -5.9      2.149      5.085
REMARK  6 active torsions:
REMARK  status: ('A' for Active; 'I' for Inactive)
REMARK    1  A    between atoms: C_1  and  C_2 
REMARK    2  A    between atoms: C_5  and  O_26 
REMARK    3  A    between atoms: C_7  and  C_24 
REMARK    4  A    between atoms: C_7  and  C_25 
REMARK    5  A    between atoms: C_20  and  C_22 
REMARK    6  A    between atoms: C_22  and  O_23 
ROOT
ATOM      1  C   LIG d   1       5.785  -1.361  -3.989  0.00  0.00    -0.025 C 
ATOM      2  C   LIG d   1       5.101  -2.195  -2.904  0.00  0.00    -0.045 C 
ATOM      3  C   LIG d   1       4.342  -1.282  -1.941  0.00  0.00    -0.026 C 
ATOM      4  C   LIG d   1       3.254  -0.530  -2.699  0.00  0.00     0.061 C 
ATOM      5  H   LIG d   1       2.731   0.138  -2.006  0.00  0.00     0.060 H 
ATOM      6  C   LIG d   1       3.838   0.307  -3.838  0.00  0.00    -0.006 C 
ATOM      7  C   LIG d   1       4.766  -0.507  -4.722  0.00  0.00    -0.028 C 
ATOM      8  H   LIG d   1       4.102  -1.214  -5.271  0.00  0.00     0.031 H 
ATOM      9  C   LIG d   1       5.444   0.359  -5.779  0.00  0.00    -0.048 C 
ATOM     10  C   LIG d   1       6.231  -0.516  -6.758  0.00  0.00    -0.043 C 
ATOM     11  C   LIG d   1       6.120  -1.981  -6.424  0.00  0.00    -0.007 C 
ATOM     12  C   LIG d   1       6.488  -2.301  -4.976  0.00  0.00    -0.026 C 
ATOM     13  H   LIG d   1       7.577  -2.189  -4.850  0.00  0.00     0.031 H 
ATOM     14  C   LIG d   1       6.102  -3.757  -4.689  0.00  0.00    -0.048 C 
ATOM     15  C   LIG d   1       6.754  -4.680  -5.723  0.00  0.00    -0.046 C 
ATOM     16  C   LIG d   1       6.422  -4.189  -7.141  0.00  0.00    -0.017 C 
ATOM     17  H   LIG d   1       6.706  -4.903  -7.916  0.00  0.00     0.035 H 
ATOM     18  C   LIG d   1       7.112  -2.802  -7.304  0.00  0.00    -0.037 C 
ATOM     19  C   LIG d   1       4.947  -3.826  -7.177  0.00  0.00    -0.045 C 
ATOM     20  C   LIG d   1       4.786  -2.585  -6.776  0.00  0.00    -0.076 C 
ATOM     21  H   LIG d   1       4.396  -2.888  -3.363  0.00  0.00     0.027 H 
ATOM     22  H   LIG d   1       5.854  -2.756  -2.348  0.00  0.00     0.027 H 
ATOM     23  H   LIG d   1       3.869  -1.906  -1.171  0.00  0.00     0.029 H 
ATOM     24  H   LIG d   1       5.017  -0.592  -1.447  0.00  0.00     0.029 H 
ATOM     25  H   LIG d   1       4.694   0.914  -6.350  0.00  0.00     0.027 H 
ATOM     26  H   LIG d   1       6.126   1.077  -5.326  0.00  0.00     0.027 H 
ATOM     27  H   LIG d   1       5.846  -0.351  -7.766  0.00  0.00     0.027 H 
ATOM     28  H   LIG d   1       7.282  -0.219  -6.732  0.00  0.00     0.027 H 
ATOM     29  H   LIG d   1       6.459  -4.041  -3.698  0.00  0.00     0.027 H 
ATOM     30  H   LIG d   1       5.024  -3.878  -4.735  0.00  0.00     0.027 H 
ATOM     31  H   LIG d   1       7.834  -4.672  -5.577  0.00  0.00     0.027 H 
ATOM     32  H   LIG d   1       6.378  -5.693  -5.588  0.00  0.00     0.027 H 
ATOM     33  H   LIG d   1       7.101  -2.461  -8.338  0.00  0.00     0.028 H 
ATOM     34  H   LIG d   1       8.117  -2.794  -6.886  0.00  0.00     0.028 H 
ATOM     35  H   LIG d   1       3.830  -2.081  -6.729  0.00  0.00     0.058 H 
ENDROOT
BRANCH   6  36
ATOM     36  C   LIG d   1       4.501   1.561  -3.275  0.00  0.00    -0.057 C 
ATOM     37  H   LIG d   1       4.552   1.488  -2.189  0.00  0.00     0.024 H 
ATOM     38  H   LIG d   1       5.508   1.653  -3.681  0.00  0.00     0.024 H 
ATOM     39  H   LIG d   1       3.916   2.437  -3.553  0.00  0.00     0.024 H 
ENDBRANCH   6  36
BRANCH   6  40
ATOM     40  C   LIG d   1       2.639   0.771  -4.701  0.00  0.00    -0.057 C 
ATOM     41  H   LIG d   1       1.970   1.380  -4.094  0.00  0.00     0.024 H 
ATOM     42  H   LIG d   1       3.004   1.361  -5.542  0.00  0.00     0.024 H 
ATOM     43  H   LIG d   1       2.101  -0.100  -5.074  0.00  0.00     0.024 H 
ENDBRANCH   6  40
BRANCH   4  44
ATOM     44  O   LIG d   1       2.307  -1.461  -3.233  0.00  0.00    -0.391 OA
ATOM     45  H   LIG d   1       2.027  -1.262  -4.137  0.00  0.00     0.210 HD
ENDBRANCH   4  44
BRANCH   1  46
ATOM     46  C   LIG d   1       6.879  -0.503  -3.337  0.00  0.00    -0.059 C 
ATOM     47  H   LIG d   1       6.431   0.397  -2.914  0.00  0.00     0.024 H 
ATOM     48  H   LIG d   1       7.364  -1.074  -2.545  0.00  0.00     0.024 H 
ATOM     49  H   LIG d   1       7.617  -0.224  -4.088  0.00  0.00     0.024 H 
ENDBRANCH   1  46
BRANCH  19  50
ATOM     50  C   LIG d   1       3.836  -4.747  -7.611  0.00  0.00     0.066 C 
ATOM     51  H   LIG d   1       3.185  -4.225  -8.312  0.00  0.00     0.060 H 
ATOM     52  H   LIG d   1       4.261  -5.626  -8.096  0.00  0.00     0.060 H 
BRANCH  50  53
ATOM     53  O   LIG d   1       3.079  -5.152  -6.468  0.00  0.00    -0.391 OA
ATOM     54  H   LIG d   1       3.607  -5.576  -5.778  0.00  0.00     0.210 HD
ENDBRANCH  50  53
ENDBRANCH  19  50
TORSDOF 6
ENDMDL
MODEL 4
REMARK VINA RESULT:      -5.7      1.776      2.606
REMARK  6 active torsions:
REMARK  status: ('A' for Active; 'I' for Inactive)
REMARK    1  A    between atoms: C_1  and  C_2 
REMARK    2  A    between atoms: C_5  and  O_26 
REMARK    3  A    between atoms: C_7  and  C_24 
REMARK    4  A    between atoms: C_7  and  C_25 
REMARK    5  A    between atoms: C_20  and  C_22 
REMARK    6  A    between atoms: C_22  and  O_23 
ROOT
ATOM      1  C   LIG d   1       6.182  -2.175  -5.148  0.00  0.00    -0.025 C 
ATOM      2  C   LIG d   1       7.227  -2.415  -4.057  0.00  0.00    -0.045 C 
ATOM      3  C   LIG d   1       8.628  -2.438  -4.668  0.00  0.00    -0.026 C 
ATOM      4  C   LIG d   1       8.930  -1.089  -5.309  0.00  0.00     0.061 C 
ATOM      5  H   LIG d   1       9.926  -1.123  -5.764  0.00  0.00     0.060 H 
ATOM      6  C   LIG d   1       7.909  -0.738  -6.393  0.00  0.00    -0.006 C 
ATOM      7  C   LIG d   1       6.482  -0.889  -5.897  0.00  0.00    -0.028 C 
ATOM      8  H   LIG d   1       6.337  -0.060  -5.165  0.00  0.00     0.031 H 
ATOM      9  C   LIG d   1       5.468  -0.662  -7.014  0.00  0.00    -0.048 C 
ATOM     10  C   LIG d   1       4.047  -0.647  -6.446  0.00  0.00    -0.043 C 
ATOM     11  C   LIG d   1       4.030  -0.850  -4.953  0.00  0.00    -0.007 C 
ATOM     12  C   LIG d   1       4.793  -2.094  -4.503  0.00  0.00    -0.026 C 
ATOM     13  H   LIG d   1       4.220  -2.989  -4.793  0.00  0.00     0.031 H 
ATOM     14  C   LIG d   1       4.919  -2.059  -2.975  0.00  0.00    -0.048 C 
ATOM     15  C   LIG d   1       3.531  -1.908  -2.344  0.00  0.00    -0.046 C 
ATOM     16  C   LIG d   1       2.806  -0.702  -2.963  0.00  0.00    -0.017 C 
ATOM     17  H   LIG d   1       1.891  -0.436  -2.431  0.00  0.00     0.035 H 
ATOM     18  C   LIG d   1       2.564  -1.050  -4.461  0.00  0.00    -0.037 C 
ATOM     19  C   LIG d   1       3.799   0.445  -3.051  0.00  0.00    -0.045 C 
ATOM     20  C   LIG d   1       4.480   0.357  -4.172  0.00  0.00    -0.076 C 
ATOM     21  H   LIG d   1       7.178  -1.614  -3.319  0.00  0.00     0.027 H 
ATOM     22  H   LIG d   1       7.032  -3.371  -3.570  0.00  0.00     0.027 H 
ATOM     23  H   LIG d   1       9.355  -2.619  -3.865  0.00  0.00     0.029 H 
ATOM     24  H   LIG d   1       8.721  -3.240  -5.394  0.00  0.00     0.029 H 
ATOM     25  H   LIG d   1       5.649   0.302  -7.497  0.00  0.00     0.027 H 
ATOM     26  H   LIG d   1       5.534  -1.440  -7.773  0.00  0.00     0.027 H 
ATOM     27  H   LIG d   1       3.585   0.315  -6.680  0.00  0.00     0.027 H 
ATOM     28  H   LIG d   1       3.466  -1.439  -6.924  0.00  0.00     0.027 H 
ATOM     29  H   LIG d   1       5.359  -2.993  -2.623  0.00  0.00     0.027 H 
ATOM     30  H   LIG d   1       5.541  -1.224  -2.667  0.00  0.00     0.027 H 
ATOM     31  H   LIG d   1       2.955  -2.815  -2.529  0.00  0.00     0.027 H 
ATOM     32  H   LIG d   1       3.639  -1.761  -1.270  0.00  0.00     0.027 H 
ATOM     33  H   LIG d   1       1.885  -0.345  -4.939  0.00  0.00     0.028 H 
ATOM     34  H   LIG d   1       2.236  -2.080  -4.594  0.00  0.00     0.028 H 
ATOM     35  H   LIG d   1       5.236   1.066  -4.480  0.00  0.00     0.058 H 
ENDROOT
BRANCH   6  36
ATOM     36  C   LIG d   1       8.189  -1.551  -7.653  0.00  0.00    -0.057 C 
ATOM     37  H   LIG d   1       9.254  -1.507  -7.884  0.00  0.00     0.024 H 
ATOM     38  H   LIG d   1       7.895  -2.588  -7.491  0.00  0.00     0.024 H 
ATOM     39  H   LIG d   1       7.620  -1.138  -8.486  0.00  0.00     0.024 H 
ENDBRANCH   6  36
BRANCH   6  40
ATOM     40  C   LIG d   1       8.139   0.751  -6.747  0.00  0.00    -0.057 C 
ATOM     41  H   LIG d   1       9.099   1.076  -6.345  0.00  0.00     0.024 H 
ATOM     42  H   LIG d   1       8.141   0.870  -7.831  0.00  0.00     0.024 H 
ATOM     43  H   LIG d   1       7.340   1.355  -6.317  0.00  0.00     0.024 H 
ENDBRANCH   6  40
BRANCH   4  44
ATOM     44  O   LIG d   1       8.925  -0.067  -4.306  0.00  0.00    -0.391 OA
ATOM     45  H   LIG d   1       8.041   0.206  -4.027  0.00  0.00     0.210 HD
ENDBRANCH   4  44
BRANCH   1  46
ATOM     46  C   LIG d   1       6.164  -3.388  -6.090  0.00  0.00    -0.059 C 
ATOM     47  H   LIG d   1       7.129  -3.894  -6.048  0.00  0.00     0.024 H 
ATOM     48  H   LIG d   1       5.378  -4.077  -5.781  0.00  0.00     0.024 H 
ATOM     49  H   LIG d   1       5.974  -3.053  -7.109  0.00  0.00     0.024 H 
ENDBRANCH   1  46
BRANCH  19  50
ATOM     50  C   LIG d   1       3.974   1.524  -2.013  0.00  0.00     0.066 C 
ATOM     51  H   LIG d   1       4.256   2.456  -2.502  0.00  0.00     0.060 H 
ATOM     52  H   LIG d   1       3.037   1.666  -1.474  0.00  0.00     0.060 H 
BRANCH  50  53
ATOM     53  O   LIG d   1       4.999   1.139  -1.094  0.00  0.00    -0.391 OA
ATOM     54  H   LIG d   1       5.421   1.882  -0.643  0.00  0.00     0.210 HD
ENDBRANCH  50  53
ENDBRANCH  19  50
TORSDOF 6
ENDMDL
MODEL 5
REMARK VINA RESULT:      -5.6      2.569      4.528
REMARK  6 active torsions:
REMARK  status: ('A' for Active; 'I' for Inactive)
REMARK    1  A    between atoms: C_1  and  C_2 
REMARK    2  A    between atoms: C_5  and  O_26 
REMARK    3  A    between atoms: C_7  and  C_24 
REMARK    4  A    between atoms: C_7  and  C_25 
REMARK    5  A    between atoms: C_20  and  C_22 
REMARK    6  A    between atoms: C_22  and  O_23 
ROOT
ATOM      1  C   LIG d   1       4.630  -1.295  -5.219  0.00  0.00    -0.025 C 
ATOM      2  C   LIG d   1       3.836  -0.310  -4.358  0.00  0.00    -0.045 C 
ATOM      3  C   LIG d   1       4.458  -0.210  -2.965  0.00  0.00    -0.026 C 
ATOM      4  C   LIG d   1       5.883   0.318  -3.077  0.00  0.00     0.061 C 
ATOM      5  H   LIG d   1       6.327   0.364  -2.076  0.00  0.00     0.060 H 
ATOM      6  C   LIG d   1       6.750  -0.584  -3.957  0.00  0.00    -0.006 C 
ATOM      7  C   LIG d   1       6.089  -0.881  -5.290  0.00  0.00    -0.028 C 
ATOM      8  H   LIG d   1       6.113   0.082  -5.851  0.00  0.00     0.031 H 
ATOM      9  C   LIG d   1       6.897  -1.880  -6.113  0.00  0.00    -0.048 C 
ATOM     10  C   LIG d   1       6.297  -2.022  -7.514  0.00  0.00    -0.043 C 
ATOM     11  C   LIG d   1       5.090  -1.142  -7.706  0.00  0.00    -0.007 C 
ATOM     12  C   LIG d   1       4.025  -1.331  -6.628  0.00  0.00    -0.026 C 
ATOM     13  H   LIG d   1       3.537  -2.308  -6.773  0.00  0.00     0.031 H 
ATOM     14  C   LIG d   1       2.975  -0.224  -6.783  0.00  0.00    -0.048 C 
ATOM     15  C   LIG d   1       2.429  -0.224  -8.214  0.00  0.00    -0.046 C 
ATOM     16  C   LIG d   1       3.593  -0.160  -9.216  0.00  0.00    -0.017 C 
ATOM     17  H   LIG d   1       3.264   0.023 -10.240  0.00  0.00     0.035 H 
ATOM     18  C   LIG d   1       4.391  -1.488  -9.057  0.00  0.00    -0.037 C 
ATOM     19  C   LIG d   1       4.584   0.877  -8.715  0.00  0.00    -0.045 C 
ATOM     20  C   LIG d   1       5.422   0.318  -7.870  0.00  0.00    -0.076 C 
ATOM     21  H   LIG d   1       3.850   0.677  -4.822  0.00  0.00     0.027 H 
ATOM     22  H   LIG d   1       2.805  -0.655  -4.268  0.00  0.00     0.027 H 
ATOM     23  H   LIG d   1       3.864   0.496  -2.369  0.00  0.00     0.029 H 
ATOM     24  H   LIG d   1       4.440  -1.172  -2.463  0.00  0.00     0.029 H 
ATOM     25  H   LIG d   1       7.928  -1.533  -6.219  0.00  0.00     0.027 H 
ATOM     26  H   LIG d   1       6.915  -2.860  -5.638  0.00  0.00     0.027 H 
ATOM     27  H   LIG d   1       7.057  -1.751  -8.250  0.00  0.00     0.027 H 
ATOM     28  H   LIG d   1       6.013  -3.065  -7.673  0.00  0.00     0.027 H 
ATOM     29  H   LIG d   1       2.147  -0.406  -6.097  0.00  0.00     0.027 H 
ATOM     30  H   LIG d   1       3.416   0.746  -6.572  0.00  0.00     0.027 H 
ATOM     31  H   LIG d   1       1.857  -1.139  -8.377  0.00  0.00     0.027 H 
ATOM     32  H   LIG d   1       1.779   0.638  -8.351  0.00  0.00     0.027 H 
ATOM     33  H   LIG d   1       5.117  -1.626  -9.856  0.00  0.00     0.028 H 
ATOM     34  H   LIG d   1       3.733  -2.350  -8.956  0.00  0.00     0.028 H 
ATOM     35  H   LIG d   1       6.236   0.841  -7.387  0.00  0.00     0.058 H 
ENDROOT
BRANCH   6  36
ATOM     36  C   LIG d   1       7.135  -1.845  -3.189  0.00  0.00    -0.057 C 
ATOM     37  H   LIG d   1       7.661  -2.529  -3.855  0.00  0.00     0.024 H 
ATOM     38  H   LIG d   1       7.784  -1.579  -2.355  0.00  0.00     0.024 H 
ATOM     39  H   LIG d   1       6.235  -2.328  -2.810  0.00  0.00     0.024 H 
ENDBRANCH   6  36
BRANCH   6  40
ATOM     40  C   LIG d   1       8.057   0.200  -4.234  0.00  0.00    -0.057 C 
ATOM     41  H   LIG d   1       8.256   0.878  -3.404  0.00  0.00     0.024 H 
ATOM     42  H   LIG d   1       8.885  -0.502  -4.336  0.00  0.00     0.024 H 
ATOM     43  H   LIG d   1       7.949   0.772  -5.155  0.00  0.00     0.024 H 
ENDBRANCH   6  40
BRANCH   4  44
ATOM     44  O   LIG d   1       5.865   1.640  -3.626  0.00  0.00    -0.391 OA
ATOM     45  H   LIG d   1       5.818   1.664  -4.591  0.00  0.00     0.210 HD
ENDBRANCH   4  44
BRANCH   1  46
ATOM     46  C   LIG d   1       4.469  -2.704  -4.630  0.00  0.00    -0.059 C 
ATOM     47  H   LIG d   1       4.838  -3.441  -5.345  0.00  0.00     0.024 H 
ATOM     48  H   LIG d   1       5.040  -2.779  -3.705  0.00  0.00     0.024 H 
ATOM     49  H   LIG d   1       3.416  -2.894  -4.424  0.00  0.00     0.024 H 
ENDBRANCH   1  46
BRANCH  19  50
ATOM     50  C   LIG d   1       4.607   2.327  -9.126  0.00  0.00     0.066 C 
ATOM     51  H   LIG d   1       4.041   2.452 -10.048  0.00  0.00     0.060 H 
ATOM     52  H   LIG d   1       4.159   2.934  -8.340  0.00  0.00     0.060 H 
BRANCH  50  53
ATOM     53  O   LIG d   1       5.959   2.741  -9.335  0.00  0.00    -0.391 OA
ATOM     54  H   LIG d   1       6.469   2.144  -9.900  0.00  0.00     0.210 HD
ENDBRANCH  50  53
ENDBRANCH  19  50
TORSDOF 6
ENDMDL
MODEL 6
REMARK VINA RESULT:      -5.4      2.559      4.210
REMARK  6 active torsions:
REMARK  status: ('A' for Active; 'I' for Inactive)
REMARK    1  A    between atoms: C_1  and  C_2 
REMARK    2  A    between atoms: C_5  and  O_26 
REMARK    3  A    between atoms: C_7  and  C_24 
REMARK    4  A    between atoms: C_7  and  C_25 
REMARK    5  A    between atoms: C_20  and  C_22 
REMARK    6  A    between atoms: C_22  and  O_23 
ROOT
ATOM      1  C   LIG d   1       6.028  -3.308  -6.810  0.00  0.00    -0.025 C 
ATOM      2  C   LIG d   1       4.647  -2.989  -7.386  0.00  0.00    -0.045 C 
ATOM      3  C   LIG d   1       4.127  -4.179  -8.191  0.00  0.00    -0.026 C 
ATOM      4  C   LIG d   1       3.978  -5.390  -7.278  0.00  0.00     0.061 C 
ATOM      5  H   LIG d   1       3.626  -6.243  -7.868  0.00  0.00     0.060 H 
ATOM      6  C   LIG d   1       5.306  -5.765  -6.618  0.00  0.00    -0.006 C 
ATOM      7  C   LIG d   1       5.972  -4.568  -5.964  0.00  0.00    -0.028 C 
ATOM      8  H   LIG d   1       5.336  -4.324  -5.082  0.00  0.00     0.031 H 
ATOM      9  C   LIG d   1       7.353  -4.917  -5.419  0.00  0.00    -0.048 C 
ATOM     10  C   LIG d   1       7.920  -3.743  -4.617  0.00  0.00    -0.043 C 
ATOM     11  C   LIG d   1       6.969  -2.574  -4.574  0.00  0.00    -0.007 C 
ATOM     12  C   LIG d   1       6.501  -2.124  -5.957  0.00  0.00    -0.026 C 
ATOM     13  H   LIG d   1       7.339  -1.632  -6.476  0.00  0.00     0.031 H 
ATOM     14  C   LIG d   1       5.364  -1.111  -5.778  0.00  0.00    -0.048 C 
ATOM     15  C   LIG d   1       5.826   0.031  -4.867  0.00  0.00    -0.046 C 
ATOM     16  C   LIG d   1       6.395  -0.543  -3.559  0.00  0.00    -0.017 C 
ATOM     17  H   LIG d   1       6.573   0.220  -2.801  0.00  0.00     0.035 H 
ATOM     18  C   LIG d   1       7.679  -1.336  -3.944  0.00  0.00    -0.037 C 
ATOM     19  C   LIG d   1       5.461  -1.645  -3.087  0.00  0.00    -0.045 C 
ATOM     20  C   LIG d   1       5.791  -2.782  -3.659  0.00  0.00    -0.076 C 
ATOM     21  H   LIG d   1       3.949  -2.781  -6.574  0.00  0.00     0.027 H 
ATOM     22  H   LIG d   1       4.717  -2.117  -8.038  0.00  0.00     0.027 H 
ATOM     23  H   LIG d   1       3.140  -3.920  -8.598  0.00  0.00     0.029 H 
ATOM     24  H   LIG d   1       4.786  -4.402  -9.024  0.00  0.00     0.029 H 
ATOM     25  H   LIG d   1       7.287  -5.781  -4.752  0.00  0.00     0.027 H 
ATOM     26  H   LIG d   1       8.047  -5.159  -6.223  0.00  0.00     0.027 H 
ATOM     27  H   LIG d   1       8.118  -4.077  -3.596  0.00  0.00     0.027 H 
ATOM     28  H   LIG d   1       8.861  -3.425  -5.070  0.00  0.00     0.027 H 
ATOM     29  H   LIG d   1       5.091  -0.692  -6.747  0.00  0.00     0.027 H 
ATOM     30  H   LIG d   1       4.497  -1.591  -5.332  0.00  0.00     0.027 H 
ATOM     31  H   LIG d   1       6.597   0.606  -5.380  0.00  0.00     0.027 H 
ATOM     32  H   LIG d   1       4.979   0.679  -4.646  0.00  0.00     0.027 H 
ATOM     33  H   LIG d   1       8.263  -1.616  -3.069  0.00  0.00     0.028 H 
ATOM     34  H   LIG d   1       8.282  -0.805  -4.679  0.00  0.00     0.028 H 
ATOM     35  H   LIG d   1       5.291  -3.722  -3.474  0.00  0.00     0.058 H 
ENDROOT
BRANCH   6  36
ATOM     36  C   LIG d   1       6.207  -6.469  -7.628  0.00  0.00    -0.057 C 
ATOM     37  H   LIG d   1       7.227  -6.499  -7.246  0.00  0.00     0.024 H 
ATOM     38  H   LIG d   1       5.849  -7.486  -7.787  0.00  0.00     0.024 H 
ATOM     39  H   LIG d   1       6.189  -5.925  -8.572  0.00  0.00     0.024 H 
ENDBRANCH   6  36
BRANCH   6  40
ATOM     40  C   LIG d   1       4.971  -6.792  -5.509  0.00  0.00    -0.057 C 
ATOM     41  H   LIG d   1       4.717  -7.749  -5.966  0.00  0.00     0.024 H 
ATOM     42  H   LIG d   1       5.836  -6.918  -4.858  0.00  0.00     0.024 H 
ATOM     43  H   LIG d   1       4.125  -6.432  -4.924  0.00  0.00     0.024 H 
ENDBRANCH   6  40
BRANCH   4  44
ATOM     44  O   LIG d   1       3.007  -5.111  -6.263  0.00  0.00    -0.391 OA
ATOM     45  H   LIG d   1       2.123  -5.449  -6.461  0.00  0.00     0.210 HD
ENDBRANCH   4  44
BRANCH   1  46
ATOM     46  C   LIG d   1       7.026  -3.447  -7.969  0.00  0.00    -0.059 C 
ATOM     47  H   LIG d   1       6.885  -4.412  -8.456  0.00  0.00     0.024 H 
ATOM     48  H   LIG d   1       6.858  -2.648  -8.691  0.00  0.00     0.024 H 
ATOM     49  H   LIG d   1       8.043  -3.380  -7.582  0.00  0.00     0.024 H 
ENDBRANCH   1  46
BRANCH  19  50
ATOM     50  C   LIG d   1       4.329  -1.465  -2.108  0.00  0.00     0.066 C 
ATOM     51  H   LIG d   1       3.379  -1.606  -2.622  0.00  0.00     0.060 H 
ATOM     52  H   LIG d   1       4.422  -2.198  -1.307  0.00  0.00     0.060 H 
BRANCH  50  53
ATOM     53  O   LIG d   1       4.381  -0.147  -1.557  0.00  0.00    -0.391 OA
ATOM     54  H   LIG d   1       3.766   0.475  -1.968  0.00  0.00     0.210 HD
ENDBRANCH  50  53
ENDBRANCH  19  50
TORSDOF 6
ENDMDL
MODEL 7
REMARK VINA RESULT:      -5.4      2.504      3.679
REMARK  6 active torsions:
REMARK  status: ('A' for Active; 'I' for Inactive)
REMARK    1  A    between atoms: C_1  and  C_2 
REMARK    2  A    between atoms: C_5  and  O_26 
REMARK    3  A    between atoms: C_7  and  C_24 
REMARK    4  A    between atoms: C_7  and  C_25 
REMARK    5  A    between atoms: C_20  and  C_22 
REMARK    6  A    between atoms: C_22  and  O_23 
ROOT
ATOM      1  C   LIG d   1       6.077  -0.489  -7.349  0.00  0.00    -0.025 C 
ATOM      2  C   LIG d   1       6.371   0.970  -7.707  0.00  0.00    -0.045 C 
ATOM      3  C   LIG d   1       5.842   1.283  -9.106  0.00  0.00    -0.026 C 
ATOM      4  C   LIG d   1       4.330   1.096  -9.136  0.00  0.00     0.061 C 
ATOM      5  H   LIG d   1       3.963   1.301 -10.148  0.00  0.00     0.060 H 
ATOM      6  C   LIG d   1       3.931  -0.329  -8.750  0.00  0.00    -0.006 C 
ATOM      7  C   LIG d   1       4.589  -0.771  -7.455  0.00  0.00    -0.028 C 
ATOM      8  H   LIG d   1       4.098  -0.169  -6.656  0.00  0.00     0.031 H 
ATOM      9  C   LIG d   1       4.291  -2.234  -7.140  0.00  0.00    -0.048 C 
ATOM     10  C   LIG d   1       4.819  -2.596  -5.750  0.00  0.00    -0.043 C 
ATOM     11  C   LIG d   1       5.477  -1.423  -5.070  0.00  0.00    -0.007 C 
ATOM     12  C   LIG d   1       6.561  -0.761  -5.919  0.00  0.00    -0.026 C 
ATOM     13  H   LIG d   1       7.435  -1.430  -5.968  0.00  0.00     0.031 H 
ATOM     14  C   LIG d   1       6.976   0.549  -5.240  0.00  0.00    -0.048 C 
ATOM     15  C   LIG d   1       7.391   0.274  -3.791  0.00  0.00    -0.046 C 
ATOM     16  C   LIG d   1       6.280  -0.506  -3.070  0.00  0.00    -0.017 C 
ATOM     17  H   LIG d   1       6.438  -0.575  -1.993  0.00  0.00     0.035 H 
ATOM     18  C   LIG d   1       6.190  -1.897  -3.767  0.00  0.00    -0.037 C 
ATOM     19  C   LIG d   1       4.950   0.129  -3.438  0.00  0.00    -0.045 C 
ATOM     20  C   LIG d   1       4.504  -0.393  -4.560  0.00  0.00    -0.076 C 
ATOM     21  H   LIG d   1       5.883   1.630  -6.989  0.00  0.00     0.027 H 
ATOM     22  H   LIG d   1       7.448   1.140  -7.683  0.00  0.00     0.027 H 
ATOM     23  H   LIG d   1       6.073   2.332  -9.338  0.00  0.00     0.029 H 
ATOM     24  H   LIG d   1       6.323   0.659  -9.852  0.00  0.00     0.029 H 
ATOM     25  H   LIG d   1       3.211  -2.408  -7.147  0.00  0.00     0.027 H 
ATOM     26  H   LIG d   1       4.748  -2.898  -7.872  0.00  0.00     0.027 H 
ATOM     27  H   LIG d   1       3.985  -2.941  -5.135  0.00  0.00     0.027 H 
ATOM     28  H   LIG d   1       5.542  -3.409  -5.846  0.00  0.00     0.027 H 
ATOM     29  H   LIG d   1       7.828   0.981  -5.768  0.00  0.00     0.027 H 
ATOM     30  H   LIG d   1       6.150   1.254  -5.244  0.00  0.00     0.027 H 
ATOM     31  H   LIG d   1       8.310  -0.313  -3.789  0.00  0.00     0.027 H 
ATOM     32  H   LIG d   1       7.566   1.220  -3.282  0.00  0.00     0.027 H 
ATOM     33  H   LIG d   1       5.570  -2.594  -3.205  0.00  0.00     0.028 H 
ATOM     34  H   LIG d   1       7.174  -2.312  -3.979  0.00  0.00     0.028 H 
ATOM     35  H   LIG d   1       3.565  -0.122  -5.024  0.00  0.00     0.058 H 
ENDROOT
BRANCH   6  36
ATOM     36  C   LIG d   1       4.206  -1.279  -9.912  0.00  0.00    -0.057 C 
ATOM     37  H   LIG d   1       4.970  -1.999  -9.619  0.00  0.00     0.024 H 
ATOM     38  H   LIG d   1       3.290  -1.808 -10.174  0.00  0.00     0.024 H 
ATOM     39  H   LIG d   1       4.555  -0.708 -10.772  0.00  0.00     0.024 H 
ENDBRANCH   6  36
BRANCH   6  40
ATOM     40  C   LIG d   1       2.399  -0.311  -8.527  0.00  0.00    -0.057 C 
ATOM     41  H   LIG d   1       1.912   0.143  -9.390  0.00  0.00     0.024 H 
ATOM     42  H   LIG d   1       2.038  -1.332  -8.402  0.00  0.00     0.024 H 
ATOM     43  H   LIG d   1       2.168   0.268  -7.632  0.00  0.00     0.024 H 
ENDBRANCH   6  40
BRANCH   4  44
ATOM     44  O   LIG d   1       3.712   2.021  -8.235  0.00  0.00    -0.391 OA
ATOM     45  H   LIG d   1       3.812   2.948  -8.492  0.00  0.00     0.210 HD
ENDBRANCH   4  44
BRANCH   1  46
ATOM     46  C   LIG d   1       6.895  -1.399  -8.276  0.00  0.00    -0.059 C 
ATOM     47  H   LIG d   1       6.891  -0.986  -9.285  0.00  0.00     0.024 H 
ATOM     48  H   LIG d   1       7.920  -1.461  -7.912  0.00  0.00     0.024 H 
ATOM     49  H   LIG d   1       6.453  -2.395  -8.289  0.00  0.00     0.024 H 
ENDBRANCH   1  46
BRANCH  19  50
ATOM     50  C   LIG d   1       4.244   1.193  -2.637  0.00  0.00     0.066 C 
ATOM     51  H   LIG d   1       3.462   0.733  -2.032  0.00  0.00     0.060 H 
ATOM     52  H   LIG d   1       4.960   1.692  -1.985  0.00  0.00     0.060 H 
BRANCH  50  53
ATOM     53  O   LIG d   1       3.660   2.148  -3.525  0.00  0.00    -0.391 OA
ATOM     54  H   LIG d   1       3.763   1.929  -4.461  0.00  0.00     0.210 HD
ENDBRANCH  50  53
ENDBRANCH  19  50
TORSDOF 6
ENDMDL
MODEL 8
REMARK VINA RESULT:      -5.1     10.592     12.802
REMARK  6 active torsions:
REMARK  status: ('A' for Active; 'I' for Inactive)
REMARK    1  A    between atoms: C_1  and  C_2 
REMARK    2  A    between atoms: C_5  and  O_26 
REMARK    3  A    between atoms: C_7  and  C_24 
REMARK    4  A    between atoms: C_7  and  C_25 
REMARK    5  A    between atoms: C_20  and  C_22 
REMARK    6  A    between atoms: C_22  and  O_23 
ROOT
ATOM      1  C   LIG d   1      10.135   9.130  -1.134  0.00  0.00    -0.025 C 
ATOM      2  C   LIG d   1      10.136   9.149  -2.664  0.00  0.00    -0.045 C 
ATOM      3  C   LIG d   1      10.096  10.590  -3.171  0.00  0.00    -0.026 C 
ATOM      4  C   LIG d   1      11.340  11.334  -2.699  0.00  0.00     0.061 C 
ATOM      5  H   LIG d   1      11.290  12.371  -3.049  0.00  0.00     0.060 H 
ATOM      6  C   LIG d   1      11.450  11.336  -1.174  0.00  0.00    -0.006 C 
ATOM      7  C   LIG d   1      11.299   9.942  -0.593  0.00  0.00    -0.028 C 
ATOM      8  H   LIG d   1      12.225   9.398  -0.891  0.00  0.00     0.031 H 
ATOM      9  C   LIG d   1      11.283   9.963   0.933  0.00  0.00    -0.048 C 
ATOM     10  C   LIG d   1      11.306   8.536   1.484  0.00  0.00    -0.043 C 
ATOM     11  C   LIG d   1      11.347   7.504   0.386  0.00  0.00    -0.007 C 
ATOM     12  C   LIG d   1      10.238   7.678  -0.650  0.00  0.00    -0.026 C 
ATOM     13  H   LIG d   1       9.276   7.393  -0.196  0.00  0.00     0.031 H 
ATOM     14  C   LIG d   1      10.527   6.744  -1.831  0.00  0.00    -0.048 C 
ATOM     15  C   LIG d   1      10.697   5.308  -1.326  0.00  0.00    -0.046 C 
ATOM     16  C   LIG d   1      11.743   5.272  -0.200  0.00  0.00    -0.017 C 
ATOM     17  H   LIG d   1      12.037   4.258   0.075  0.00  0.00     0.035 H 
ATOM     18  C   LIG d   1      11.143   6.080   0.989  0.00  0.00    -0.037 C 
ATOM     19  C   LIG d   1      12.916   6.138  -0.625  0.00  0.00    -0.045 C 
ATOM     20  C   LIG d   1      12.688   7.389  -0.290  0.00  0.00    -0.076 C 
ATOM     21  H   LIG d   1      11.042   8.669  -3.036  0.00  0.00     0.027 H 
ATOM     22  H   LIG d   1       9.262   8.613  -3.035  0.00  0.00     0.027 H 
ATOM     23  H   LIG d   1      10.090  10.572  -4.269  0.00  0.00     0.029 H 
ATOM     24  H   LIG d   1       9.195  11.094  -2.838  0.00  0.00     0.029 H 
ATOM     25  H   LIG d   1      12.165  10.487   1.311  0.00  0.00     0.027 H 
ATOM     26  H   LIG d   1      10.397  10.470   1.312  0.00  0.00     0.027 H 
ATOM     27  H   LIG d   1      12.189   8.417   2.116  0.00  0.00     0.027 H 
ATOM     28  H   LIG d   1      10.415   8.377   2.095  0.00  0.00     0.027 H 
ATOM     29  H   LIG d   1       9.690   6.769  -2.530  0.00  0.00     0.027 H 
ATOM     30  H   LIG d   1      11.435   7.051  -2.341  0.00  0.00     0.027 H 
ATOM     31  H   LIG d   1       9.740   4.947  -0.948  0.00  0.00     0.027 H 
ATOM     32  H   LIG d   1      11.022   4.674  -2.150  0.00  0.00     0.027 H 
ATOM     33  H   LIG d   1      11.721   5.949   1.903  0.00  0.00     0.028 H 
ATOM     34  H   LIG d   1      10.088   5.859   1.142  0.00  0.00     0.028 H 
ATOM     35  H   LIG d   1      13.381   8.201  -0.465  0.00  0.00     0.058 H 
ENDROOT
BRANCH   6  36
ATOM     36  C   LIG d   1      10.462  12.337  -0.582  0.00  0.00    -0.057 C 
ATOM     37  H   LIG d   1      10.928  12.855   0.256  0.00  0.00     0.024 H 
ATOM     38  H   LIG d   1      10.180  13.063  -1.345  0.00  0.00     0.024 H 
ATOM     39  H   LIG d   1       9.574  11.810  -0.236  0.00  0.00     0.024 H 
ENDBRANCH   6  36
BRANCH   6  40
ATOM     40  C   LIG d   1      12.873  11.844  -0.838  0.00  0.00    -0.057 C 
ATOM     41  H   LIG d   1      12.908  12.927  -0.950  0.00  0.00     0.024 H 
ATOM     42  H   LIG d   1      13.121  11.577   0.190  0.00  0.00     0.024 H 
ATOM     43  H   LIG d   1      13.593  11.384  -1.516  0.00  0.00     0.024 H 
ENDBRANCH   6  40
BRANCH   4  44
ATOM     44  O   LIG d   1      12.508  10.723  -3.258  0.00  0.00    -0.391 OA
ATOM     45  H   LIG d   1      12.962  11.270  -3.913  0.00  0.00     0.210 HD
ENDBRANCH   4  44
BRANCH   1  46
ATOM     46  C   LIG d   1       8.787   9.670  -0.635  0.00  0.00    -0.059 C 
ATOM     47  H   LIG d   1       8.079   8.846  -0.538  0.00  0.00     0.024 H 
ATOM     48  H   LIG d   1       8.924  10.148   0.335  0.00  0.00     0.024 H 
ATOM     49  H   LIG d   1       8.402  10.399  -1.348  0.00  0.00     0.024 H 
ENDBRANCH   1  46
BRANCH  19  50
ATOM     50  C   LIG d   1      14.157   5.641  -1.321  0.00  0.00     0.066 C 
ATOM     51  H   LIG d   1      14.281   6.170  -2.265  0.00  0.00     0.060 H 
ATOM     52  H   LIG d   1      15.025   5.820  -0.687  0.00  0.00     0.060 H 
BRANCH  50  53
ATOM     53  O   LIG d   1      14.032   4.240  -1.572  0.00  0.00    -0.391 OA
ATOM     54  H   LIG d   1      13.298   3.820  -1.103  0.00  0.00     0.210 HD
ENDBRANCH  50  53
ENDBRANCH  19  50
TORSDOF 6
ENDMDL
MODEL 9
REMARK VINA RESULT:      -5.1     10.461     12.437
REMARK  6 active torsions:
REMARK  status: ('A' for Active; 'I' for Inactive)
REMARK    1  A    between atoms: C_1  and  C_2 
REMARK    2  A    between atoms: C_5  and  O_26 
REMARK    3  A    between atoms: C_7  and  C_24 
REMARK    4  A    between atoms: C_7  and  C_25 
REMARK    5  A    between atoms: C_20  and  C_22 
REMARK    6  A    between atoms: C_22  and  O_23 
ROOT
ATOM      1  C   LIG d   1      11.261   7.929  -3.469  0.00  0.00    -0.025 C 
ATOM      2  C   LIG d   1       9.920   7.190  -3.499  0.00  0.00    -0.045 C 
ATOM      3  C   LIG d   1       9.929   6.046  -2.487  0.00  0.00    -0.026 C 
ATOM      4  C   LIG d   1      10.116   6.605  -1.082  0.00  0.00     0.061 C 
ATOM      5  H   LIG d   1      10.144   5.776  -0.367  0.00  0.00     0.060 H 
ATOM      6  C   LIG d   1      11.418   7.400  -0.961  0.00  0.00    -0.006 C 
ATOM      7  C   LIG d   1      11.558   8.430  -2.067  0.00  0.00    -0.028 C 
ATOM      8  H   LIG d   1      10.791   9.207  -1.843  0.00  0.00     0.031 H 
ATOM      9  C   LIG d   1      12.912   9.132  -2.018  0.00  0.00    -0.048 C 
ATOM     10  C   LIG d   1      12.952  10.279  -3.031  0.00  0.00    -0.043 C 
ATOM     11  C   LIG d   1      11.657  10.411  -3.790  0.00  0.00    -0.007 C 
ATOM     12  C   LIG d   1      11.205   9.109  -4.447  0.00  0.00    -0.026 C 
ATOM     13  H   LIG d   1      11.869   8.888  -5.298  0.00  0.00     0.031 H 
ATOM     14  C   LIG d   1       9.776   9.300  -4.969  0.00  0.00    -0.048 C 
ATOM     15  C   LIG d   1       9.719  10.523  -5.889  0.00  0.00    -0.046 C 
ATOM     16  C   LIG d   1      10.315  11.744  -5.171  0.00  0.00    -0.017 C 
ATOM     17  H   LIG d   1      10.140  12.679  -5.704  0.00  0.00     0.035 H 
ATOM     18  C   LIG d   1      11.827  11.436  -4.953  0.00  0.00    -0.037 C 
ATOM     19  C   LIG d   1       9.778  11.758  -3.749  0.00  0.00    -0.045 C 
ATOM     20  C   LIG d   1      10.537  11.011  -2.980  0.00  0.00    -0.076 C 
ATOM     21  H   LIG d   1       9.115   7.880  -3.245  0.00  0.00     0.027 H 
ATOM     22  H   LIG d   1       9.751   6.786  -4.498  0.00  0.00     0.027 H 
ATOM     23  H   LIG d   1       8.960   5.531  -2.536  0.00  0.00     0.029 H 
ATOM     24  H   LIG d   1      10.705   5.325  -2.722  0.00  0.00     0.029 H 
ATOM     25  H   LIG d   1      13.082   9.553  -1.023  0.00  0.00     0.027 H 
ATOM     26  H   LIG d   1      13.724   8.441  -2.239  0.00  0.00     0.027 H 
ATOM     27  H   LIG d   1      13.149  11.212  -2.498  0.00  0.00     0.027 H 
ATOM     28  H   LIG d   1      13.767  10.101  -3.736  0.00  0.00     0.027 H 
ATOM     29  H   LIG d   1       9.475   8.421  -5.541  0.00  0.00     0.027 H 
ATOM     30  H   LIG d   1       9.089   9.447  -4.140  0.00  0.00     0.027 H 
ATOM     31  H   LIG d   1      10.291  10.315  -6.793  0.00  0.00     0.027 H 
ATOM     32  H   LIG d   1       8.682  10.724  -6.156  0.00  0.00     0.027 H 
ATOM     33  H   LIG d   1      12.379  12.317  -4.628  0.00  0.00     0.028 H 
ATOM     34  H   LIG d   1      12.280  10.975  -5.828  0.00  0.00     0.028 H 
ATOM     35  H   LIG d   1      10.377  10.872  -1.919  0.00  0.00     0.058 H 
ENDROOT
BRANCH   6  36
ATOM     36  C   LIG d   1      12.605   6.444  -0.884  0.00  0.00    -0.057 C 
ATOM     37  H   LIG d   1      12.412   5.574  -1.512  0.00  0.00     0.024 H 
ATOM     38  H   LIG d   1      13.504   6.952  -1.233  0.00  0.00     0.024 H 
ATOM     39  H   LIG d   1      12.746   6.123   0.148  0.00  0.00     0.024 H 
ENDBRANCH   6  36
BRANCH   6  40
ATOM     40  C   LIG d   1      11.348   8.153   0.390  0.00  0.00    -0.057 C 
ATOM     41  H   LIG d   1      11.563   9.209   0.229  0.00  0.00     0.024 H 
ATOM     42  H   LIG d   1      10.348   8.047   0.813  0.00  0.00     0.024 H 
ATOM     43  H   LIG d   1      12.080   7.733   1.079  0.00  0.00     0.024 H 
ENDBRANCH   6  40
BRANCH   4  44
ATOM     44  O   LIG d   1       9.012   7.453  -0.750  0.00  0.00    -0.391 OA
ATOM     45  H   LIG d   1       9.192   8.396  -0.863  0.00  0.00     0.210 HD
ENDBRANCH   4  44
BRANCH   1  46
ATOM     46  C   LIG d   1      12.357   6.982  -3.977  0.00  0.00    -0.059 C 
ATOM     47  H   LIG d   1      12.528   6.196  -3.241  0.00  0.00     0.024 H 
ATOM     48  H   LIG d   1      12.043   6.534  -4.920  0.00  0.00     0.024 H 
ATOM     49  H   LIG d   1      13.279   7.543  -4.131  0.00  0.00     0.024 H 
ENDBRANCH   1  46
BRANCH  19  50
ATOM     50  C   LIG d   1       8.560  12.518  -3.289  0.00  0.00     0.066 C 
ATOM     51  H   LIG d   1       8.793  13.054  -2.369  0.00  0.00     0.060 H 
ATOM     52  H   LIG d   1       8.263  13.230  -4.059  0.00  0.00     0.060 H 
BRANCH  50  53
ATOM     53  O   LIG d   1       7.490  11.601  -3.048  0.00  0.00    -0.391 OA
ATOM     54  H   LIG d   1       6.698  12.011  -2.674  0.00  0.00     0.210 HD
ENDBRANCH  50  53
ENDBRANCH  19  50
TORSDOF 6
ENDMDL
MODEL 10
REMARK VINA RESULT:      -5.0      8.192      9.951
REMARK  6 active torsions:
REMARK  status: ('A' for Active; 'I' for Inactive)
REMARK    1  A    between atoms: C_1  and  C_2 
REMARK    2  A    between atoms: C_5  and  O_26 
REMARK    3  A    between atoms: C_7  and  C_24 
REMARK    4  A    between atoms: C_7  and  C_25 
REMARK    5  A    between atoms: C_20  and  C_22 
REMARK    6  A    between atoms: C_22  and  O_23 
ROOT
ATOM      1  C   LIG d   1      11.885   6.507  -5.316  0.00  0.00    -0.025 C 
ATOM      2  C   LIG d   1      12.772   7.746  -5.173  0.00  0.00    -0.045 C 
ATOM      3  C   LIG d   1      12.915   8.447  -6.524  0.00  0.00    -0.026 C 
ATOM      4  C   LIG d   1      11.547   8.913  -7.007  0.00  0.00     0.061 C 
ATOM      5  H   LIG d   1      11.657   9.394  -7.985  0.00  0.00     0.060 H 
ATOM      6  C   LIG d   1      10.570   7.744  -7.143  0.00  0.00    -0.006 C 
ATOM      7  C   LIG d   1      10.531   6.888  -5.890  0.00  0.00    -0.028 C 
ATOM      8  H   LIG d   1      10.031   7.519  -5.119  0.00  0.00     0.031 H 
ATOM      9  C   LIG d   1       9.654   5.654  -6.074  0.00  0.00    -0.048 C 
ATOM     10  C   LIG d   1       9.497   4.911  -4.746  0.00  0.00    -0.043 C 
ATOM     11  C   LIG d   1      10.235   5.593  -3.623  0.00  0.00    -0.007 C 
ATOM     12  C   LIG d   1      11.706   5.857  -3.939  0.00  0.00    -0.026 C 
ATOM     13  H   LIG d   1      12.251   4.899  -3.932  0.00  0.00     0.031 H 
ATOM     14  C   LIG d   1      12.281   6.764  -2.845  0.00  0.00    -0.048 C 
ATOM     15  C   LIG d   1      12.035   6.137  -1.469  0.00  0.00    -0.046 C 
ATOM     16  C   LIG d   1      10.544   5.796  -1.311  0.00  0.00    -0.017 C 
ATOM     17  H   LIG d   1      10.277   5.515  -0.291  0.00  0.00     0.035 H 
ATOM     18  C   LIG d   1      10.230   4.685  -2.356  0.00  0.00    -0.037 C 
ATOM     19  C   LIG d   1       9.738   6.973  -1.835  0.00  0.00    -0.045 C 
ATOM     20  C   LIG d   1       9.566   6.850  -3.133  0.00  0.00    -0.076 C 
ATOM     21  H   LIG d   1      12.323   8.439  -4.462  0.00  0.00     0.027 H 
ATOM     22  H   LIG d   1      13.759   7.447  -4.818  0.00  0.00     0.027 H 
ATOM     23  H   LIG d   1      13.562   9.325  -6.392  0.00  0.00     0.029 H 
ATOM     24  H   LIG d   1      13.381   7.793  -7.253  0.00  0.00     0.029 H 
ATOM     25  H   LIG d   1       8.658   5.948  -6.417  0.00  0.00     0.027 H 
ATOM     26  H   LIG d   1      10.079   4.972  -6.809  0.00  0.00     0.027 H 
ATOM     27  H   LIG d   1       8.435   4.860  -4.494  0.00  0.00     0.027 H 
ATOM     28  H   LIG d   1       9.877   3.894  -4.862  0.00  0.00     0.027 H 
ATOM     29  H   LIG d   1      13.357   6.872  -2.988  0.00  0.00     0.027 H 
ATOM     30  H   LIG d   1      11.810   7.742  -2.878  0.00  0.00     0.027 H 
ATOM     31  H   LIG d   1      12.629   5.227  -1.380  0.00  0.00     0.027 H 
ATOM     32  H   LIG d   1      12.335   6.842  -0.694  0.00  0.00     0.027 H 
ATOM     33  H   LIG d   1       9.251   4.237  -2.192  0.00  0.00     0.028 H 
ATOM     34  H   LIG d   1      11.016   3.932  -2.401  0.00  0.00     0.028 H 
ATOM     35  H   LIG d   1       9.008   7.550  -3.740  0.00  0.00     0.058 H 
ENDROOT
BRANCH   6  36
ATOM     36  C   LIG d   1      10.890   6.943  -8.401  0.00  0.00    -0.057 C 
ATOM     37  H   LIG d   1      11.962   6.986  -8.597  0.00  0.00     0.024 H 
ATOM     38  H   LIG d   1      10.590   5.905  -8.258  0.00  0.00     0.024 H 
ATOM     39  H   LIG d   1      10.350   7.364  -9.248  0.00  0.00     0.024 H 
ENDBRANCH   6  36
BRANCH   6  40
ATOM     40  C   LIG d   1       9.166   8.367  -7.342  0.00  0.00    -0.057 C 
ATOM     41  H   LIG d   1       8.442   7.833  -6.727  0.00  0.00     0.024 H 
ATOM     42  H   LIG d   1       9.190   9.416  -7.047  0.00  0.00     0.024 H 
ATOM     43  H   LIG d   1       8.880   8.291  -8.391  0.00  0.00     0.024 H 
ENDBRANCH   6  40
BRANCH   4  44
ATOM     44  O   LIG d   1      11.013   9.872  -6.088  0.00  0.00    -0.391 OA
ATOM     45  H   LIG d   1      10.208  10.309  -6.399  0.00  0.00     0.210 HD
ENDBRANCH   4  44
BRANCH   1  46
ATOM     46  C   LIG d   1      12.607   5.482  -6.201  0.00  0.00    -0.059 C 
ATOM     47  H   LIG d   1      12.572   5.810  -7.241  0.00  0.00     0.024 H 
ATOM     48  H   LIG d   1      13.646   5.394  -5.883  0.00  0.00     0.024 H 
ATOM     49  H   LIG d   1      12.116   4.513  -6.110  0.00  0.00     0.024 H 
ENDBRANCH   1  46
BRANCH  19  50
ATOM     50  C   LIG d   1       9.211   8.108  -0.995  0.00  0.00     0.066 C 
ATOM     51  H   LIG d   1       9.597   8.018   0.020  0.00  0.00     0.060 H 
ATOM     52  H   LIG d   1       9.532   9.057  -1.423  0.00  0.00     0.060 H 
BRANCH  50  53
ATOM     53  O   LIG d   1       7.783   8.056  -0.968  0.00  0.00    -0.391 OA
ATOM     54  H   LIG d   1       7.395   8.343  -0.130  0.00  0.00     0.210 HD
ENDBRANCH  50  53
ENDBRANCH  19  50
TORSDOF 6
ENDMDL
