MODEL 1
REMARK VINA RESULT:      -4.2      0.000      0.000
REMARK  3 active torsions:
REMARK  status: ('A' for Active; 'I' for Inactive)
REMARK    1  A    between atoms: C_3  and  C_6 
REMARK    2  A    between atoms: C_6  and  C_8 
REMARK    3  A    between atoms: C_8  and  O_9 
ROOT
ATOM      1  C   LIG d   1       4.526   0.828  -1.665  0.00  0.00    -0.023 A 
ATOM      2  C   LIG d   1       4.372  -0.541  -1.923  0.00  0.00    -0.013 A 
ATOM      3  C   LIG d   1       4.475  -0.697  -3.290  0.00  0.00     0.172 A 
ATOM      4  O   LIG d   1       4.688   0.522  -3.829  0.00  0.00    -0.460 OA
ATOM      5  C   LIG d   1       4.713   1.441  -2.857  0.00  0.00     0.093 A 
ATOM      6  H   LIG d   1       4.499   1.304  -0.697  0.00  0.00     0.065 H 
ATOM      7  H   LIG d   1       4.205  -1.321  -1.194  0.00  0.00     0.066 H 
ATOM      8  H   LIG d   1       4.864   2.501  -2.999  0.00  0.00     0.103 H 
ENDROOT
BRANCH   3   9
ATOM      9  C   LIG d   1       4.382  -1.917  -3.999  0.00  0.00     0.223 C 
ATOM     10  O   LIG d   1       4.098  -2.940  -3.411  0.00  0.00    -0.286 OA
BRANCH   9  11
ATOM     11  C   LIG d   1       4.629  -1.945  -5.485  0.00  0.00     0.110 C 
ATOM     12  H   LIG d   1       5.556  -1.622  -5.675  0.00  0.00     0.064 H 
ATOM     13  H   LIG d   1       4.517  -2.965  -5.853  0.00  0.00     0.064 H 
BRANCH  11  14
ATOM     14  O   LIG d   1       3.686  -1.095  -6.141  0.00  0.00    -0.387 OA
ATOM     15  H   LIG d   1       2.790  -1.455  -6.176  0.00  0.00     0.210 HD
ENDBRANCH  11  14
ENDBRANCH   9  11
ENDBRANCH   3   9
TORSDOF 3
ENDMDL
MODEL 2
REMARK VINA RESULT:      -4.2      1.877      3.471
REMARK  3 active torsions:
REMARK  status: ('A' for Active; 'I' for Inactive)
REMARK    1  A    between atoms: C_3  and  C_6 
REMARK    2  A    between atoms: C_6  and  C_8 
REMARK    3  A    between atoms: C_8  and  O_9 
ROOT
ATOM      1  C   LIG d   1       3.832  -2.324  -2.468  0.00  0.00    -0.023 A 
ATOM      2  C   LIG d   1       4.224  -1.046  -2.045  0.00  0.00    -0.013 A 
ATOM      3  C   LIG d   1       5.152  -0.597  -2.962  0.00  0.00     0.172 A 
ATOM      4  O   LIG d   1       5.306  -1.558  -3.897  0.00  0.00    -0.460 OA
ATOM      5  C   LIG d   1       4.519  -2.599  -3.600  0.00  0.00     0.093 A 
ATOM      6  H   LIG d   1       3.115  -2.968  -1.980  0.00  0.00     0.065 H 
ATOM      7  H   LIG d   1       3.869  -0.518  -1.172  0.00  0.00     0.066 H 
ATOM      8  H   LIG d   1       4.441  -3.511  -4.175  0.00  0.00     0.103 H 
ENDROOT
BRANCH   3   9
ATOM      9  C   LIG d   1       5.817   0.650  -2.931  0.00  0.00     0.223 C 
ATOM     10  O   LIG d   1       5.396   1.545  -2.227  0.00  0.00    -0.286 OA
BRANCH   9  11
ATOM     11  C   LIG d   1       7.052   0.865  -3.767  0.00  0.00     0.110 C 
ATOM     12  H   LIG d   1       6.793   0.954  -4.729  0.00  0.00     0.064 H 
ATOM     13  H   LIG d   1       7.557   1.775  -3.442  0.00  0.00     0.064 H 
BRANCH  11  14
ATOM     14  O   LIG d   1       7.932  -0.249  -3.613  0.00  0.00    -0.387 OA
ATOM     15  H   LIG d   1       7.769  -0.969  -4.237  0.00  0.00     0.210 HD
ENDBRANCH  11  14
ENDBRANCH   9  11
ENDBRANCH   3   9
TORSDOF 3
ENDMDL
MODEL 3
REMARK VINA RESULT:      -4.1      1.550      1.912
REMARK  3 active torsions:
REMARK  status: ('A' for Active; 'I' for Inactive)
REMARK    1  A    between atoms: C_3  and  C_6 
REMARK    2  A    between atoms: C_6  and  C_8 
REMARK    3  A    between atoms: C_8  and  O_9 
ROOT
ATOM      1  C   LIG d   1       4.493   0.816  -1.680  0.00  0.00    -0.023 A 
ATOM      2  C   LIG d   1       4.395  -0.571  -1.853  0.00  0.00    -0.013 A 
ATOM      3  C   LIG d   1       5.071  -0.870  -3.018  0.00  0.00     0.172 A 
ATOM      4  O   LIG d   1       5.559   0.284  -3.519  0.00  0.00    -0.460 OA
ATOM      5  C   LIG d   1       5.209   1.300  -2.721  0.00  0.00     0.093 A 
ATOM      6  H   LIG d   1       4.075   1.391  -0.867  0.00  0.00     0.065 H 
ATOM      7  H   LIG d   1       3.889  -1.269  -1.202  0.00  0.00     0.066 H 
ATOM      8  H   LIG d   1       5.461   2.338  -2.880  0.00  0.00     0.103 H 
ENDROOT
BRANCH   3   9
ATOM      9  C   LIG d   1       5.230  -2.157  -3.582  0.00  0.00     0.223 C 
ATOM     10  O   LIG d   1       4.264  -2.876  -3.735  0.00  0.00    -0.286 OA
BRANCH   9  11
ATOM     11  C   LIG d   1       6.597  -2.632  -4.000  0.00  0.00     0.110 C 
ATOM     12  H   LIG d   1       6.712  -3.590  -3.737  0.00  0.00     0.064 H 
ATOM     13  H   LIG d   1       6.701  -2.538  -5.081  0.00  0.00     0.064 H 
BRANCH  11  14
ATOM     14  O   LIG d   1       7.595  -1.839  -3.355  0.00  0.00    -0.387 OA
ATOM     15  H   LIG d   1       7.856  -1.052  -3.851  0.00  0.00     0.210 HD
ENDBRANCH  11  14
ENDBRANCH   9  11
ENDBRANCH   3   9
TORSDOF 3
ENDMDL
MODEL 4
REMARK VINA RESULT:      -4.0      1.744      2.700
REMARK  3 active torsions:
REMARK  status: ('A' for Active; 'I' for Inactive)
REMARK    1  A    between atoms: C_3  and  C_6 
REMARK    2  A    between atoms: C_6  and  C_8 
REMARK    3  A    between atoms: C_8  and  O_9 
ROOT
ATOM      1  C   LIG d   1       4.288  -0.949  -1.832  0.00  0.00    -0.023 A 
ATOM      2  C   LIG d   1       4.064   0.164  -2.654  0.00  0.00    -0.013 A 
ATOM      3  C   LIG d   1       3.400  -0.301  -3.771  0.00  0.00     0.172 A 
ATOM      4  O   LIG d   1       3.228  -1.632  -3.624  0.00  0.00    -0.460 OA
ATOM      5  C   LIG d   1       3.765  -2.025  -2.463  0.00  0.00     0.093 A 
ATOM      6  H   LIG d   1       4.786  -0.947  -0.873  0.00  0.00     0.065 H 
ATOM      7  H   LIG d   1       4.354   1.185  -2.453  0.00  0.00     0.066 H 
ATOM      8  H   LIG d   1       3.775  -3.038  -2.087  0.00  0.00     0.103 H 
ENDROOT
BRANCH   3   9
ATOM      9  C   LIG d   1       2.972   0.478  -4.870  0.00  0.00     0.223 C 
ATOM     10  O   LIG d   1       2.560   1.606  -4.690  0.00  0.00    -0.286 OA
BRANCH   9  11
ATOM     11  C   LIG d   1       3.032  -0.089  -6.264  0.00  0.00     0.110 C 
ATOM     12  H   LIG d   1       2.114  -0.359  -6.555  0.00  0.00     0.064 H 
ATOM     13  H   LIG d   1       3.421   0.666  -6.947  0.00  0.00     0.064 H 
BRANCH  11  14
ATOM     14  O   LIG d   1       3.890  -1.231  -6.278  0.00  0.00    -0.387 OA
ATOM     15  H   LIG d   1       3.636  -1.908  -6.919  0.00  0.00     0.210 HD
ENDBRANCH  11  14
ENDBRANCH   9  11
ENDBRANCH   3   9
TORSDOF 3
ENDMDL
MODEL 5
REMARK VINA RESULT:      -3.9      2.186      2.845
REMARK  3 active torsions:
REMARK  status: ('A' for Active; 'I' for Inactive)
REMARK    1  A    between atoms: C_3  and  C_6 
REMARK    2  A    between atoms: C_6  and  C_8 
REMARK    3  A    between atoms: C_8  and  O_9 
ROOT
ATOM      1  C   LIG d   1       3.596   1.146  -2.206  0.00  0.00    -0.023 A 
ATOM      2  C   LIG d   1       4.903   0.701  -1.963  0.00  0.00    -0.013 A 
ATOM      3  C   LIG d   1       5.441   0.377  -3.192  0.00  0.00     0.172 A 
ATOM      4  O   LIG d   1       4.503   0.621  -4.131  0.00  0.00    -0.460 OA
ATOM      5  C   LIG d   1       3.392   1.078  -3.542  0.00  0.00     0.093 A 
ATOM      6  H   LIG d   1       2.885   1.480  -1.465  0.00  0.00     0.065 H 
ATOM      7  H   LIG d   1       5.392   0.627  -1.003  0.00  0.00     0.066 H 
ATOM      8  H   LIG d   1       2.480   1.353  -4.051  0.00  0.00     0.103 H 
ENDROOT
BRANCH   3   9
ATOM      9  C   LIG d   1       6.745  -0.117  -3.426  0.00  0.00     0.223 C 
ATOM     10  O   LIG d   1       7.010  -1.275  -3.174  0.00  0.00    -0.286 OA
BRANCH   9  11
ATOM     11  C   LIG d   1       7.804   0.791  -3.994  0.00  0.00     0.110 C 
ATOM     12  H   LIG d   1       8.487   0.988  -3.291  0.00  0.00     0.064 H 
ATOM     13  H   LIG d   1       8.286   0.303  -4.841  0.00  0.00     0.064 H 
BRANCH  11  14
ATOM     14  O   LIG d   1       7.202   2.013  -4.427  0.00  0.00    -0.387 OA
ATOM     15  H   LIG d   1       7.744   2.522  -5.044  0.00  0.00     0.210 HD
ENDBRANCH  11  14
ENDBRANCH   9  11
ENDBRANCH   3   9
TORSDOF 3
ENDMDL
MODEL 6
REMARK VINA RESULT:      -3.9      1.902      3.447
REMARK  3 active torsions:
REMARK  status: ('A' for Active; 'I' for Inactive)
REMARK    1  A    between atoms: C_3  and  C_6 
REMARK    2  A    between atoms: C_6  and  C_8 
REMARK    3  A    between atoms: C_8  and  O_9 
ROOT
ATOM      1  C   LIG d   1       2.768   0.375  -6.201  0.00  0.00    -0.023 A 
ATOM      2  C   LIG d   1       2.532   0.644  -4.845  0.00  0.00    -0.013 A 
ATOM      3  C   LIG d   1       3.506  -0.031  -4.137  0.00  0.00     0.172 A 
ATOM      4  O   LIG d   1       4.294  -0.670  -5.026  0.00  0.00    -0.460 OA
ATOM      5  C   LIG d   1       3.850  -0.434  -6.266  0.00  0.00     0.093 A 
ATOM      6  H   LIG d   1       2.192   0.745  -7.036  0.00  0.00     0.065 H 
ATOM      7  H   LIG d   1       1.744   1.258  -4.436  0.00  0.00     0.066 H 
ATOM      8  H   LIG d   1       4.289  -0.821  -7.174  0.00  0.00     0.103 H 
ENDROOT
BRANCH   3   9
ATOM      9  C   LIG d   1       3.655  -0.044  -2.731  0.00  0.00     0.223 C 
ATOM     10  O   LIG d   1       3.369   0.942  -2.081  0.00  0.00    -0.286 OA
BRANCH   9  11
ATOM     11  C   LIG d   1       4.161  -1.282  -2.039  0.00  0.00     0.110 C 
ATOM     12  H   LIG d   1       5.160  -1.259  -2.002  0.00  0.00     0.064 H 
ATOM     13  H   LIG d   1       3.762  -1.322  -1.026  0.00  0.00     0.064 H 
BRANCH  11  14
ATOM     14  O   LIG d   1       3.740  -2.439  -2.763  0.00  0.00    -0.387 OA
ATOM     15  H   LIG d   1       2.821  -2.405  -3.061  0.00  0.00     0.210 HD
ENDBRANCH  11  14
ENDBRANCH   9  11
ENDBRANCH   3   9
TORSDOF 3
ENDMDL
MODEL 7
REMARK VINA RESULT:      -3.8      2.270      3.140
REMARK  3 active torsions:
REMARK  status: ('A' for Active; 'I' for Inactive)
REMARK    1  A    between atoms: C_3  and  C_6 
REMARK    2  A    between atoms: C_6  and  C_8 
REMARK    3  A    between atoms: C_8  and  O_9 
ROOT
ATOM      1  C   LIG d   1       4.449   0.829  -1.745  0.00  0.00    -0.023 A 
ATOM      2  C   LIG d   1       5.385   1.244  -2.703  0.00  0.00    -0.013 A 
ATOM      3  C   LIG d   1       5.848   0.100  -3.320  0.00  0.00     0.172 A 
ATOM      4  O   LIG d   1       5.215  -0.954  -2.764  0.00  0.00    -0.460 OA
ATOM      5  C   LIG d   1       4.378  -0.520  -1.814  0.00  0.00     0.093 A 
ATOM      6  H   LIG d   1       3.890   1.468  -1.078  0.00  0.00     0.065 H 
ATOM      7  H   LIG d   1       5.685   2.260  -2.914  0.00  0.00     0.066 H 
ATOM      8  H   LIG d   1       3.744  -1.146  -1.203  0.00  0.00     0.103 H 
ENDROOT
BRANCH   3   9
ATOM      9  C   LIG d   1       6.809   0.043  -4.355  0.00  0.00     0.223 C 
ATOM     10  O   LIG d   1       6.944   0.984  -5.110  0.00  0.00    -0.286 OA
BRANCH   9  11
ATOM     11  C   LIG d   1       7.670  -1.182  -4.517  0.00  0.00     0.110 C 
ATOM     12  H   LIG d   1       7.249  -1.801  -5.180  0.00  0.00     0.064 H 
ATOM     13  H   LIG d   1       8.658  -0.889  -4.872  0.00  0.00     0.064 H 
BRANCH  11  14
ATOM     14  O   LIG d   1       7.794  -1.847  -3.259  0.00  0.00    -0.387 OA
ATOM     15  H   LIG d   1       8.696  -2.118  -3.043  0.00  0.00     0.210 HD
ENDBRANCH  11  14
ENDBRANCH   9  11
ENDBRANCH   3   9
TORSDOF 3
ENDMDL
MODEL 8
REMARK VINA RESULT:      -3.8      1.961      2.940
REMARK  3 active torsions:
REMARK  status: ('A' for Active; 'I' for Inactive)
REMARK    1  A    between atoms: C_3  and  C_6 
REMARK    2  A    between atoms: C_6  and  C_8 
REMARK    3  A    between atoms: C_8  and  O_9 
ROOT
ATOM      1  C   LIG d   1       7.174   0.341  -3.542  0.00  0.00    -0.023 A 
ATOM      2  C   LIG d   1       5.975   0.997  -3.230  0.00  0.00    -0.013 A 
ATOM      3  C   LIG d   1       5.050   0.012  -2.953  0.00  0.00     0.172 A 
ATOM      4  O   LIG d   1       5.666  -1.182  -3.086  0.00  0.00    -0.460 OA
ATOM      5  C   LIG d   1       6.940  -0.988  -3.446  0.00  0.00     0.093 A 
ATOM      6  H   LIG d   1       8.109   0.810  -3.810  0.00  0.00     0.065 H 
ATOM      7  H   LIG d   1       5.808   2.064  -3.211  0.00  0.00     0.066 H 
ATOM      8  H   LIG d   1       7.667  -1.766  -3.625  0.00  0.00     0.103 H 
ENDROOT
BRANCH   3   9
ATOM      9  C   LIG d   1       3.699   0.216  -2.588  0.00  0.00     0.223 C 
ATOM     10  O   LIG d   1       3.374   1.234  -2.012  0.00  0.00    -0.286 OA
BRANCH   9  11
ATOM     11  C   LIG d   1       2.663  -0.826  -2.920  0.00  0.00     0.110 C 
ATOM     12  H   LIG d   1       2.498  -1.400  -2.117  0.00  0.00     0.064 H 
ATOM     13  H   LIG d   1       1.735  -0.337  -3.213  0.00  0.00     0.064 H 
BRANCH  11  14
ATOM     14  O   LIG d   1       3.134  -1.641  -3.995  0.00  0.00    -0.387 OA
ATOM     15  H   LIG d   1       3.140  -2.587  -3.800  0.00  0.00     0.210 HD
ENDBRANCH  11  14
ENDBRANCH   9  11
ENDBRANCH   3   9
TORSDOF 3
ENDMDL
MODEL 9
REMARK VINA RESULT:      -3.8      2.390      3.273
REMARK  3 active torsions:
REMARK  status: ('A' for Active; 'I' for Inactive)
REMARK    1  A    between atoms: C_3  and  C_6 
REMARK    2  A    between atoms: C_6  and  C_8 
REMARK    3  A    between atoms: C_8  and  O_9 
ROOT
ATOM      1  C   LIG d   1       7.690   0.127  -4.089  0.00  0.00    -0.023 A 
ATOM      2  C   LIG d   1       6.602  -0.519  -3.484  0.00  0.00    -0.013 A 
ATOM      3  C   LIG d   1       5.811   0.472  -2.940  0.00  0.00     0.172 A 
ATOM      4  O   LIG d   1       6.393   1.660  -3.211  0.00  0.00    -0.460 OA
ATOM      5  C   LIG d   1       7.524   1.456  -3.896  0.00  0.00     0.093 A 
ATOM      6  H   LIG d   1       8.507  -0.349  -4.611  0.00  0.00     0.065 H 
ATOM      7  H   LIG d   1       6.420  -1.583  -3.450  0.00  0.00     0.066 H 
ATOM      8  H   LIG d   1       8.195   2.228  -4.244  0.00  0.00     0.103 H 
ENDROOT
BRANCH   3   9
ATOM      9  C   LIG d   1       4.603   0.279  -2.231  0.00  0.00     0.223 C 
ATOM     10  O   LIG d   1       4.430  -0.740  -1.595  0.00  0.00    -0.286 OA
BRANCH   9  11
ATOM     11  C   LIG d   1       3.535   1.341  -2.259  0.00  0.00     0.110 C 
ATOM     12  H   LIG d   1       2.635   0.910  -2.196  0.00  0.00     0.064 H 
ATOM     13  H   LIG d   1       3.673   2.018  -1.417  0.00  0.00     0.064 H 
BRANCH  11  14
ATOM     14  O   LIG d   1       3.625   2.075  -3.482  0.00  0.00    -0.387 OA
ATOM     15  H   LIG d   1       3.079   2.872  -3.504  0.00  0.00     0.210 HD
ENDBRANCH  11  14
ENDBRANCH   9  11
ENDBRANCH   3   9
TORSDOF 3
ENDMDL
