MODEL 1
REMARK VINA RESULT:      -7.1      0.000      0.000
REMARK  7 active torsions:
REMARK  status: ('A' for Active; 'I' for Inactive)
REMARK    1  A    between atoms: C_1  and  C_2 
REMARK    2  A    between atoms: C_2  and  C_3 
REMARK    3  A    between atoms: C_2  and  C_4 
REMARK    4  A    between atoms: C_4  and  N_5 
REMARK    5  A    between atoms: C_11  and  O_30 
REMARK    6  A    between atoms: N_17  and  C_20 
REMARK    7  A    between atoms: C_20  and  C_21 
ROOT
ATOM      1  N   LIG d   1       5.756  -2.030  -4.730  0.00  0.00    -0.306 N 
ATOM      2  C   LIG d   1       5.585  -0.768  -3.994  0.00  0.00     0.060 A 
ATOM      3  H   LIG d   1       6.526  -0.223  -3.917  0.00  0.00     0.053 H 
ATOM      4  C   LIG d   1       5.001  -1.070  -2.606  0.00  0.00     0.079 C 
ATOM      5  H   LIG d   1       5.679  -1.676  -2.006  0.00  0.00     0.043 H 
ATOM      6  C   LIG d   1       4.701   0.269  -1.916  0.00  0.00    -0.009 C 
ATOM      7  C   LIG d   1       3.649   1.028  -2.728  0.00  0.00     0.095 C 
ATOM      8  H   LIG d   1       2.759   1.179  -2.116  0.00  0.00     0.063 H 
ATOM      9  C   LIG d   1       3.277   0.220  -3.976  0.00  0.00     0.149 C 
ATOM     10  H   LIG d   1       2.517   0.749  -4.550  0.00  0.00     0.078 H 
ATOM     11  C   LIG d   1       4.536   0.002  -4.821  0.00  0.00     0.084 A 
ATOM     12  H   LIG d   1       4.937   0.951  -5.178  0.00  0.00     0.056 H 
ATOM     13  N   LIG d   1       4.225  -0.910  -5.932  0.00  0.00    -0.304 N 
ATOM     14  C   LIG d   1       4.955  -2.026  -5.803  0.00  0.00     0.136 A 
ATOM     15  S   LIG d   1       4.870  -3.330  -6.910  0.00  0.00    -0.018 SA
ATOM     16  O   LIG d   1       2.768  -1.083  -3.552  0.00  0.00    -0.457 OA
ATOM     17  C   LIG d   1       3.674  -1.782  -2.820  0.00  0.00     0.312 C 
ATOM     18  O   LIG d   1       3.444  -2.880  -2.372  0.00  0.00    -0.251 OA
ATOM     19  H   LIG d   1       5.614   0.862  -1.858  0.00  0.00     0.030 H 
ATOM     20  H   LIG d   1       4.322   0.083  -0.911  0.00  0.00     0.030 H 
ENDROOT
BRANCH  13  21
ATOM     21  C   LIG d   1       3.270  -0.640  -7.009  0.00  0.00     0.017 C 
ATOM     22  H   LIG d   1       3.013  -1.573  -7.509  0.00  0.00     0.047 H 
ATOM     23  H   LIG d   1       2.368  -0.191  -6.591  0.00  0.00     0.047 H 
BRANCH  21  24
ATOM     24  C   LIG d   1       3.898   0.325  -8.017  0.00  0.00    -0.025 C 
ATOM     25  C   LIG d   1       4.109  -0.397  -9.349  0.00  0.00    -0.049 C 
ATOM     26  C   LIG d   1       4.738   0.567 -10.357  0.00  0.00    -0.053 C 
ATOM     27  H   LIG d   1       4.771  -1.250  -9.200  0.00  0.00     0.027 H 
ATOM     28  H   LIG d   1       3.149  -0.746  -9.730  0.00  0.00     0.027 H 
ATOM     29  C   LIG d   1       3.807   1.764 -10.568  0.00  0.00    -0.053 C 
ATOM     30  H   LIG d   1       5.698   0.916  -9.977  0.00  0.00     0.026 H 
ATOM     31  H   LIG d   1       4.888   0.052 -11.307  0.00  0.00     0.026 H 
ATOM     32  C   LIG d   1       3.597   2.484  -9.236  0.00  0.00    -0.053 C 
ATOM     33  H   LIG d   1       4.255   2.450 -11.286  0.00  0.00     0.026 H 
ATOM     34  H   LIG d   1       2.847   1.415 -10.948  0.00  0.00     0.026 H 
ATOM     35  C   LIG d   1       2.967   1.521  -8.227  0.00  0.00    -0.049 C 
ATOM     36  H   LIG d   1       4.557   2.833  -8.855  0.00  0.00     0.026 H 
ATOM     37  H   LIG d   1       2.934   3.337  -9.384  0.00  0.00     0.026 H 
ATOM     38  H   LIG d   1       2.007   1.173  -8.608  0.00  0.00     0.027 H 
ATOM     39  H   LIG d   1       2.817   2.035  -7.278  0.00  0.00     0.027 H 
ATOM     40  H   LIG d   1       4.858   0.673  -7.636  0.00  0.00     0.032 H 
ENDBRANCH  21  24
ENDBRANCH  13  21
BRANCH   1  41
ATOM     41  C   LIG d   1       6.660  -3.118  -4.348  0.00  0.00     0.017 C 
ATOM     42  H   LIG d   1       6.314  -3.569  -3.418  0.00  0.00     0.047 H 
ATOM     43  H   LIG d   1       6.674  -3.872  -5.135  0.00  0.00     0.047 H 
BRANCH  41  44
ATOM     44  C   LIG d   1       8.072  -2.561  -4.151  0.00  0.00    -0.031 C 
ATOM     45  H   LIG d   1       8.023  -1.655  -3.546  0.00  0.00     0.031 H 
BRANCH  44  46
ATOM     46  C   LIG d   1       8.937  -3.603  -3.439  0.00  0.00    -0.061 C 
ATOM     47  H   LIG d   1       8.296  -4.350  -2.972  0.00  0.00     0.023 H 
ATOM     48  H   LIG d   1       9.591  -4.088  -4.163  0.00  0.00     0.023 H 
ATOM     49  H   LIG d   1       9.540  -3.113  -2.675  0.00  0.00     0.023 H 
ENDBRANCH  44  46
BRANCH  44  50
ATOM     50  C   LIG d   1       8.685  -2.233  -5.513  0.00  0.00    -0.061 C 
ATOM     51  H   LIG d   1       7.942  -1.737  -6.137  0.00  0.00     0.023 H 
ATOM     52  H   LIG d   1       9.543  -1.575  -5.377  0.00  0.00     0.023 H 
ATOM     53  H   LIG d   1       9.009  -3.155  -5.998  0.00  0.00     0.023 H 
ENDBRANCH  44  50
ENDBRANCH  41  44
ENDBRANCH   1  41
BRANCH   7  54
ATOM     54  O   LIG d   1       4.177   2.295  -3.122  0.00  0.00    -0.388 OA
ATOM     55  H   LIG d   1       4.688   2.740  -2.432  0.00  0.00     0.210 HD
ENDBRANCH   7  54
TORSDOF 7
ENDMDL
MODEL 2
REMARK VINA RESULT:      -6.0      2.465      3.052
REMARK  7 active torsions:
REMARK  status: ('A' for Active; 'I' for Inactive)
REMARK    1  A    between atoms: C_1  and  C_2 
REMARK    2  A    between atoms: C_2  and  C_3 
REMARK    3  A    between atoms: C_2  and  C_4 
REMARK    4  A    between atoms: C_4  and  N_5 
REMARK    5  A    between atoms: C_11  and  O_30 
REMARK    6  A    between atoms: N_17  and  C_20 
REMARK    7  A    between atoms: C_20  and  C_21 
ROOT
ATOM      1  N   LIG d   1       6.986   0.115  -4.939  0.00  0.00    -0.306 N 
ATOM      2  C   LIG d   1       5.780   0.145  -4.097  0.00  0.00     0.060 A 
ATOM      3  H   LIG d   1       5.514   1.165  -3.820  0.00  0.00     0.053 H 
ATOM      4  C   LIG d   1       6.013  -0.727  -2.854  0.00  0.00     0.079 C 
ATOM      5  H   LIG d   1       6.821  -0.338  -2.234  0.00  0.00     0.043 H 
ATOM      6  C   LIG d   1       4.696  -0.793  -2.067  0.00  0.00    -0.009 C 
ATOM      7  C   LIG d   1       3.627  -1.463  -2.933  0.00  0.00     0.095 C 
ATOM      8  H   LIG d   1       3.287  -2.377  -2.446  0.00  0.00     0.063 H 
ATOM      9  C   LIG d   1       4.213  -1.806  -4.307  0.00  0.00     0.149 C 
ATOM     10  H   LIG d   1       3.461  -2.297  -4.922  0.00  0.00     0.078 H 
ATOM     11  C   LIG d   1       4.700  -0.516  -4.976  0.00  0.00     0.084 A 
ATOM     12  H   LIG d   1       3.871   0.167  -5.158  0.00  0.00     0.056 H 
ATOM     13  N   LIG d   1       5.413  -0.851  -6.217  0.00  0.00    -0.304 N 
ATOM     14  C   LIG d   1       6.690  -0.460  -6.111  0.00  0.00     0.136 A 
ATOM     15  S   LIG d   1       7.841  -0.680  -7.360  0.00  0.00    -0.018 SA
ATOM     16  O   LIG d   1       5.360  -2.693  -4.115  0.00  0.00    -0.457 OA
ATOM     17  C   LIG d   1       6.327  -2.134  -3.342  0.00  0.00     0.312 C 
ATOM     18  O   LIG d   1       7.352  -2.707  -3.062  0.00  0.00    -0.251 OA
ATOM     19  H   LIG d   1       4.376   0.215  -1.808  0.00  0.00     0.030 H 
ATOM     20  H   LIG d   1       4.845  -1.375  -1.157  0.00  0.00     0.030 H 
ENDROOT
BRANCH  13  21
ATOM     21  C   LIG d   1       4.820  -1.507  -7.386  0.00  0.00     0.017 C 
ATOM     22  H   LIG d   1       5.551  -1.540  -8.194  0.00  0.00     0.047 H 
ATOM     23  H   LIG d   1       4.524  -2.522  -7.121  0.00  0.00     0.047 H 
BRANCH  21  24
ATOM     24  C   LIG d   1       3.590  -0.719  -7.842  0.00  0.00    -0.025 C 
ATOM     25  C   LIG d   1       4.023   0.664  -8.331  0.00  0.00    -0.049 C 
ATOM     26  C   LIG d   1       2.793   1.452  -8.787  0.00  0.00    -0.053 C 
ATOM     27  H   LIG d   1       4.517   1.199  -7.520  0.00  0.00     0.027 H 
ATOM     28  H   LIG d   1       4.714   0.554  -9.167  0.00  0.00     0.027 H 
ATOM     29  C   LIG d   1       2.101   0.702  -9.927  0.00  0.00    -0.053 C 
ATOM     30  H   LIG d   1       2.102   1.562  -7.951  0.00  0.00     0.026 H 
ATOM     31  H   LIG d   1       3.102   2.438  -9.135  0.00  0.00     0.026 H 
ATOM     32  C   LIG d   1       1.668  -0.681  -9.437  0.00  0.00    -0.053 C 
ATOM     33  H   LIG d   1       1.224   1.263 -10.251  0.00  0.00     0.026 H 
ATOM     34  H   LIG d   1       2.792   0.592 -10.762  0.00  0.00     0.026 H 
ATOM     35  C   LIG d   1       2.898  -1.469  -8.982  0.00  0.00    -0.049 C 
ATOM     36  H   LIG d   1       0.977  -0.571  -8.601  0.00  0.00     0.026 H 
ATOM     37  H   LIG d   1       1.175  -1.216 -10.248  0.00  0.00     0.026 H 
ATOM     38  H   LIG d   1       3.589  -1.579  -9.817  0.00  0.00     0.027 H 
ATOM     39  H   LIG d   1       2.589  -2.455  -8.633  0.00  0.00     0.027 H 
ATOM     40  H   LIG d   1       2.899  -0.609  -7.006  0.00  0.00     0.032 H 
ENDBRANCH  21  24
ENDBRANCH  13  21
BRANCH   1  41
ATOM     41  C   LIG d   1       8.301   0.635  -4.556  0.00  0.00     0.017 C 
ATOM     42  H   LIG d   1       8.552   0.286  -3.554  0.00  0.00     0.047 H 
ATOM     43  H   LIG d   1       9.052   0.284  -5.263  0.00  0.00     0.047 H 
BRANCH  41  44
ATOM     44  C   LIG d   1       8.266   2.166  -4.568  0.00  0.00    -0.031 C 
ATOM     45  H   LIG d   1       7.241   2.507  -4.426  0.00  0.00     0.031 H 
BRANCH  44  46
ATOM     46  C   LIG d   1       9.144   2.705  -3.437  0.00  0.00    -0.061 C 
ATOM     47  H   LIG d   1       9.259   3.783  -3.548  0.00  0.00     0.023 H 
ATOM     48  H   LIG d   1       8.677   2.486  -2.477  0.00  0.00     0.023 H 
ATOM     49  H   LIG d   1      10.125   2.230  -3.481  0.00  0.00     0.023 H 
ENDBRANCH  44  46
BRANCH  44  50
ATOM     50  C   LIG d   1       8.793   2.676  -5.911  0.00  0.00    -0.061 C 
ATOM     51  H   LIG d   1       9.363   1.887  -6.402  0.00  0.00     0.023 H 
ATOM     52  H   LIG d   1       7.954   2.967  -6.543  0.00  0.00     0.023 H 
ATOM     53  H   LIG d   1       9.437   3.540  -5.744  0.00  0.00     0.023 H 
ENDBRANCH  44  50
ENDBRANCH  41  44
ENDBRANCH   1  41
BRANCH   7  54
ATOM     54  O   LIG d   1       2.522  -0.572  -3.097  0.00  0.00    -0.388 OA
ATOM     55  H   LIG d   1       2.776   0.328  -3.342  0.00  0.00     0.210 HD
ENDBRANCH   7  54
TORSDOF 7
ENDMDL
MODEL 3
REMARK VINA RESULT:      -5.9      3.164      6.789
REMARK  7 active torsions:
REMARK  status: ('A' for Active; 'I' for Inactive)
REMARK    1  A    between atoms: C_1  and  C_2 
REMARK    2  A    between atoms: C_2  and  C_3 
REMARK    3  A    between atoms: C_2  and  C_4 
REMARK    4  A    between atoms: C_4  and  N_5 
REMARK    5  A    between atoms: C_11  and  O_30 
REMARK    6  A    between atoms: N_17  and  C_20 
REMARK    7  A    between atoms: C_20  and  C_21 
ROOT
ATOM      1  N   LIG d   1       3.300  -1.894  -9.390  0.00  0.00    -0.306 N 
ATOM      2  C   LIG d   1       3.104  -0.436  -9.407  0.00  0.00     0.060 A 
ATOM      3  H   LIG d   1       2.046  -0.178  -9.391  0.00  0.00     0.053 H 
ATOM      4  C   LIG d   1       3.802   0.150 -10.643  0.00  0.00     0.079 C 
ATOM      5  H   LIG d   1       3.363  -0.222 -11.569  0.00  0.00     0.043 H 
ATOM      6  C   LIG d   1       3.705   1.680 -10.562  0.00  0.00    -0.009 C 
ATOM      7  C   LIG d   1       4.446   2.165  -9.314  0.00  0.00     0.095 C 
ATOM      8  H   LIG d   1       5.269   2.816  -9.611  0.00  0.00     0.063 H 
ATOM      9  C   LIG d   1       5.001   0.963  -8.542  0.00  0.00     0.149 C 
ATOM     10  H   LIG d   1       5.542   1.303  -7.660  0.00  0.00     0.078 H 
ATOM     11  C   LIG d   1       3.838   0.049  -8.141  0.00  0.00     0.084 A 
ATOM     12  H   LIG d   1       3.154   0.560  -7.463  0.00  0.00     0.056 H 
ATOM     13  N   LIG d   1       4.371  -1.186  -7.548  0.00  0.00    -0.304 N 
ATOM     14  C   LIG d   1       4.021  -2.229  -8.313  0.00  0.00     0.136 A 
ATOM     15  S   LIG d   1       4.459  -3.843  -7.947  0.00  0.00    -0.018 SA
ATOM     16  O   LIG d   1       5.897   0.217  -9.424  0.00  0.00    -0.457 OA
ATOM     17  C   LIG d   1       5.275  -0.221 -10.549  0.00  0.00     0.312 C 
ATOM     18  O   LIG d   1       5.844  -0.853 -11.406  0.00  0.00    -0.251 OA
ATOM     19  H   LIG d   1       2.658   1.976 -10.502  0.00  0.00     0.030 H 
ATOM     20  H   LIG d   1       4.159   2.121 -11.450  0.00  0.00     0.030 H 
ENDROOT
BRANCH  13  21
ATOM     21  C   LIG d   1       5.159  -1.263  -6.316  0.00  0.00     0.017 C 
ATOM     22  H   LIG d   1       5.845  -2.109  -6.375  0.00  0.00     0.047 H 
ATOM     23  H   LIG d   1       5.729  -0.342  -6.190  0.00  0.00     0.047 H 
BRANCH  21  24
ATOM     24  C   LIG d   1       4.221  -1.449  -5.122  0.00  0.00    -0.025 C 
ATOM     25  C   LIG d   1       4.971  -2.150  -3.987  0.00  0.00    -0.049 C 
ATOM     26  C   LIG d   1       4.032  -2.335  -2.794  0.00  0.00    -0.053 C 
ATOM     27  H   LIG d   1       5.320  -3.123  -4.330  0.00  0.00     0.027 H 
ATOM     28  H   LIG d   1       5.825  -1.543  -3.687  0.00  0.00     0.027 H 
ATOM     29  C   LIG d   1       3.543  -0.968  -2.312  0.00  0.00    -0.053 C 
ATOM     30  H   LIG d   1       3.178  -2.942  -3.094  0.00  0.00     0.026 H 
ATOM     31  H   LIG d   1       4.568  -2.835  -1.985  0.00  0.00     0.026 H 
ATOM     32  C   LIG d   1       2.793  -0.268  -3.446  0.00  0.00    -0.053 C 
ATOM     33  H   LIG d   1       2.874  -1.100  -1.461  0.00  0.00     0.026 H 
ATOM     34  H   LIG d   1       4.397  -0.361  -2.012  0.00  0.00     0.026 H 
ATOM     35  C   LIG d   1       3.731  -0.081  -4.640  0.00  0.00    -0.049 C 
ATOM     36  H   LIG d   1       1.939  -0.875  -3.746  0.00  0.00     0.026 H 
ATOM     37  H   LIG d   1       2.444   0.707  -3.104  0.00  0.00     0.026 H 
ATOM     38  H   LIG d   1       4.585   0.526  -4.340  0.00  0.00     0.027 H 
ATOM     39  H   LIG d   1       3.197   0.418  -5.449  0.00  0.00     0.027 H 
ATOM     40  H   LIG d   1       3.367  -2.056  -5.422  0.00  0.00     0.032 H 
ENDBRANCH  21  24
ENDBRANCH  13  21
BRANCH   1  41
ATOM     41  C   LIG d   1       2.784  -2.831 -10.392  0.00  0.00     0.017 C 
ATOM     42  H   LIG d   1       3.308  -2.678 -11.335  0.00  0.00     0.047 H 
ATOM     43  H   LIG d   1       2.941  -3.853 -10.049  0.00  0.00     0.047 H 
BRANCH  41  44
ATOM     44  C   LIG d   1       1.287  -2.586 -10.595  0.00  0.00    -0.031 C 
ATOM     45  H   LIG d   1       0.913  -1.942  -9.799  0.00  0.00     0.031 H 
BRANCH  44  46
ATOM     46  C   LIG d   1       1.060  -1.909 -11.948  0.00  0.00    -0.061 C 
ATOM     47  H   LIG d   1       0.029  -1.563 -12.012  0.00  0.00     0.023 H 
ATOM     48  H   LIG d   1       1.735  -1.059 -12.047  0.00  0.00     0.023 H 
ATOM     49  H   LIG d   1       1.254  -2.623 -12.748  0.00  0.00     0.023 H 
ENDBRANCH  44  46
BRANCH  44  50
ATOM     50  C   LIG d   1       0.543  -3.923 -10.562  0.00  0.00    -0.061 C 
ATOM     51  H   LIG d   1       0.739  -4.425  -9.615  0.00  0.00     0.023 H 
ATOM     52  H   LIG d   1      -0.527  -3.745 -10.664  0.00  0.00     0.023 H 
ATOM     53  H   LIG d   1       0.887  -4.550 -11.384  0.00  0.00     0.023 H 
ENDBRANCH  44  50
ENDBRANCH  41  44
ENDBRANCH   1  41
BRANCH   7  54
ATOM     54  O   LIG d   1       3.543   2.891  -8.478  0.00  0.00    -0.388 OA
ATOM     55  H   LIG d   1       2.791   2.370  -8.165  0.00  0.00     0.210 HD
ENDBRANCH   7  54
TORSDOF 7
ENDMDL
MODEL 4
REMARK VINA RESULT:      -5.9      2.746      4.353
REMARK  7 active torsions:
REMARK  status: ('A' for Active; 'I' for Inactive)
REMARK    1  A    between atoms: C_1  and  C_2 
REMARK    2  A    between atoms: C_2  and  C_3 
REMARK    3  A    between atoms: C_2  and  C_4 
REMARK    4  A    between atoms: C_4  and  N_5 
REMARK    5  A    between atoms: C_11  and  O_30 
REMARK    6  A    between atoms: N_17  and  C_20 
REMARK    7  A    between atoms: C_20  and  C_21 
ROOT
ATOM      1  N   LIG d   1       5.530  -1.650  -4.907  0.00  0.00    -0.306 N 
ATOM      2  C   LIG d   1       4.631  -2.721  -5.365  0.00  0.00     0.060 A 
ATOM      3  H   LIG d   1       3.616  -2.569  -5.001  0.00  0.00     0.053 H 
ATOM      4  C   LIG d   1       5.190  -4.076  -4.906  0.00  0.00     0.079 C 
ATOM      5  H   LIG d   1       5.219  -4.154  -3.819  0.00  0.00     0.043 H 
ATOM      6  C   LIG d   1       4.314  -5.181  -5.515  0.00  0.00    -0.009 C 
ATOM      7  C   LIG d   1       4.408  -5.112  -7.041  0.00  0.00     0.095 C 
ATOM      8  H   LIG d   1       4.828  -6.043  -7.421  0.00  0.00     0.063 H 
ATOM      9  C   LIG d   1       5.307  -3.942  -7.452  0.00  0.00     0.149 C 
ATOM     10  H   LIG d   1       5.389  -3.897  -8.537  0.00  0.00     0.078 H 
ATOM     11  C   LIG d   1       4.714  -2.641  -6.902  0.00  0.00     0.084 A 
ATOM     12  H   LIG d   1       3.735  -2.442  -7.338  0.00  0.00     0.056 H 
ATOM     13  N   LIG d   1       5.653  -1.536  -7.146  0.00  0.00    -0.304 N 
ATOM     14  C   LIG d   1       6.061  -1.036  -5.972  0.00  0.00     0.136 A 
ATOM     15  S   LIG d   1       7.163   0.268  -5.845  0.00  0.00    -0.018 SA
ATOM     16  O   LIG d   1       6.629  -4.140  -6.857  0.00  0.00    -0.457 OA
ATOM     17  C   LIG d   1       6.583  -4.216  -5.502  0.00  0.00     0.312 C 
ATOM     18  O   LIG d   1       7.569  -4.382  -4.824  0.00  0.00    -0.251 OA
ATOM     19  H   LIG d   1       3.279  -5.037  -5.206  0.00  0.00     0.030 H 
ATOM     20  H   LIG d   1       4.666  -6.155  -5.172  0.00  0.00     0.030 H 
ENDROOT
BRANCH  13  21
ATOM     21  C   LIG d   1       6.074  -1.057  -8.465  0.00  0.00     0.017 C 
ATOM     22  H   LIG d   1       6.877  -0.329  -8.348  0.00  0.00     0.047 H 
ATOM     23  H   LIG d   1       6.430  -1.898  -9.061  0.00  0.00     0.047 H 
BRANCH  21  24
ATOM     24  C   LIG d   1       4.887  -0.399  -9.171  0.00  0.00    -0.025 C 
ATOM     25  C   LIG d   1       4.390   0.784  -8.336  0.00  0.00    -0.049 C 
ATOM     26  C   LIG d   1       3.202   1.442  -9.042  0.00  0.00    -0.053 C 
ATOM     27  H   LIG d   1       4.078   0.430  -7.354  0.00  0.00     0.027 H 
ATOM     28  H   LIG d   1       5.193   1.511  -8.222  0.00  0.00     0.027 H 
ATOM     29  C   LIG d   1       3.640   1.939 -10.421  0.00  0.00    -0.053 C 
ATOM     30  H   LIG d   1       2.399   0.714  -9.156  0.00  0.00     0.026 H 
ATOM     31  H   LIG d   1       2.848   2.284  -8.447  0.00  0.00     0.026 H 
ATOM     32  C   LIG d   1       4.137   0.758 -11.255  0.00  0.00    -0.053 C 
ATOM     33  H   LIG d   1       2.794   2.408 -10.924  0.00  0.00     0.026 H 
ATOM     34  H   LIG d   1       4.444   2.667 -10.307  0.00  0.00     0.026 H 
ATOM     35  C   LIG d   1       5.325   0.099 -10.550  0.00  0.00    -0.049 C 
ATOM     36  H   LIG d   1       3.333   0.030 -11.369  0.00  0.00     0.026 H 
ATOM     37  H   LIG d   1       4.449   1.111 -12.237  0.00  0.00     0.026 H 
ATOM     38  H   LIG d   1       6.128   0.827 -10.436  0.00  0.00     0.027 H 
ATOM     39  H   LIG d   1       5.679  -0.743 -11.144  0.00  0.00     0.027 H 
ATOM     40  H   LIG d   1       4.084  -1.126  -9.285  0.00  0.00     0.032 H 
ENDBRANCH  21  24
ENDBRANCH  13  21
BRANCH   1  41
ATOM     41  C   LIG d   1       5.800  -1.309  -3.508  0.00  0.00     0.017 C 
ATOM     42  H   LIG d   1       6.180  -2.187  -2.987  0.00  0.00     0.047 H 
ATOM     43  H   LIG d   1       6.539  -0.510  -3.464  0.00  0.00     0.047 H 
BRANCH  41  44
ATOM     44  C   LIG d   1       4.504  -0.841  -2.840  0.00  0.00    -0.031 C 
ATOM     45  H   LIG d   1       3.788  -0.543  -3.605  0.00  0.00     0.031 H 
BRANCH  44  46
ATOM     46  C   LIG d   1       3.917  -1.984  -2.009  0.00  0.00    -0.061 C 
ATOM     47  H   LIG d   1       4.681  -2.375  -1.338  0.00  0.00     0.023 H 
ATOM     48  H   LIG d   1       3.075  -1.614  -1.425  0.00  0.00     0.023 H 
ATOM     49  H   LIG d   1       3.577  -2.779  -2.675  0.00  0.00     0.023 H 
ENDBRANCH  44  46
BRANCH  44  50
ATOM     50  C   LIG d   1       4.802   0.351  -1.928  0.00  0.00    -0.061 C 
ATOM     51  H   LIG d   1       3.909   0.604  -1.357  0.00  0.00     0.023 H 
ATOM     52  H   LIG d   1       5.610   0.092  -1.245  0.00  0.00     0.023 H 
ATOM     53  H   LIG d   1       5.100   1.206  -2.535  0.00  0.00     0.023 H 
ENDBRANCH  44  50
ENDBRANCH  41  44
ENDBRANCH   1  41
BRANCH   7  54
ATOM     54  O   LIG d   1       3.101  -4.922  -7.588  0.00  0.00    -0.388 OA
ATOM     55  H   LIG d   1       2.763  -4.021  -7.496  0.00  0.00     0.210 HD
ENDBRANCH   7  54
TORSDOF 7
ENDMDL
MODEL 5
REMARK VINA RESULT:      -5.9      3.472      5.576
REMARK  7 active torsions:
REMARK  status: ('A' for Active; 'I' for Inactive)
REMARK    1  A    between atoms: C_1  and  C_2 
REMARK    2  A    between atoms: C_2  and  C_3 
REMARK    3  A    between atoms: C_2  and  C_4 
REMARK    4  A    between atoms: C_4  and  N_5 
REMARK    5  A    between atoms: C_11  and  O_30 
REMARK    6  A    between atoms: N_17  and  C_20 
REMARK    7  A    between atoms: C_20  and  C_21 
ROOT
ATOM      1  N   LIG d   1       7.744  -4.005  -5.223  0.00  0.00    -0.306 N 
ATOM      2  C   LIG d   1       6.473  -4.714  -5.440  0.00  0.00     0.060 A 
ATOM      3  H   LIG d   1       6.256  -5.398  -4.620  0.00  0.00     0.053 H 
ATOM      4  C   LIG d   1       6.534  -5.455  -6.783  0.00  0.00     0.079 C 
ATOM      5  H   LIG d   1       7.309  -6.223  -6.786  0.00  0.00     0.043 H 
ATOM      6  C   LIG d   1       5.151  -6.067  -7.051  0.00  0.00    -0.009 C 
ATOM      7  C   LIG d   1       4.119  -4.943  -7.166  0.00  0.00     0.095 C 
ATOM      8  H   LIG d   1       3.674  -4.961  -8.162  0.00  0.00     0.063 H 
ATOM      9  C   LIG d   1       4.799  -3.590  -6.936  0.00  0.00     0.149 C 
ATOM     10  H   LIG d   1       4.072  -2.785  -7.032  0.00  0.00     0.078 H 
ATOM     11  C   LIG d   1       5.432  -3.582  -5.541  0.00  0.00     0.084 A 
ATOM     12  H   LIG d   1       4.671  -3.678  -4.766  0.00  0.00     0.056 H 
ATOM     13  N   LIG d   1       6.227  -2.356  -5.374  0.00  0.00    -0.304 N 
ATOM     14  C   LIG d   1       7.514  -2.687  -5.200  0.00  0.00     0.136 A 
ATOM     15  S   LIG d   1       8.752  -1.526  -4.970  0.00  0.00    -0.018 SA
ATOM     16  O   LIG d   1       5.860  -3.428  -7.930  0.00  0.00    -0.457 OA
ATOM     17  C   LIG d   1       6.791  -4.414  -7.863  0.00  0.00     0.312 C 
ATOM     18  O   LIG d   1       7.745  -4.463  -8.602  0.00  0.00    -0.251 OA
ATOM     19  H   LIG d   1       4.880  -6.728  -6.228  0.00  0.00     0.030 H 
ATOM     20  H   LIG d   1       5.178  -6.635  -7.982  0.00  0.00     0.030 H 
ENDROOT
BRANCH  13  21
ATOM     21  C   LIG d   1       5.696  -0.991  -5.393  0.00  0.00     0.017 C 
ATOM     22  H   LIG d   1       6.508  -0.287  -5.572  0.00  0.00     0.047 H 
ATOM     23  H   LIG d   1       4.955  -0.901  -6.188  0.00  0.00     0.047 H 
BRANCH  21  24
ATOM     24  C   LIG d   1       5.038  -0.682  -4.047  0.00  0.00    -0.025 C 
ATOM     25  C   LIG d   1       5.711   0.541  -3.420  0.00  0.00    -0.049 C 
ATOM     26  C   LIG d   1       5.053   0.851  -2.074  0.00  0.00    -0.053 C 
ATOM     27  H   LIG d   1       6.770   0.336  -3.269  0.00  0.00     0.027 H 
ATOM     28  H   LIG d   1       5.599   1.398  -4.085  0.00  0.00     0.027 H 
ATOM     29  C   LIG d   1       3.565   1.141  -2.287  0.00  0.00    -0.053 C 
ATOM     30  H   LIG d   1       5.165  -0.006  -1.409  0.00  0.00     0.026 H 
ATOM     31  H   LIG d   1       5.533   1.723  -1.628  0.00  0.00     0.026 H 
ATOM     32  C   LIG d   1       2.894  -0.082  -2.914  0.00  0.00    -0.053 C 
ATOM     33  H   LIG d   1       3.097   1.361  -1.328  0.00  0.00     0.026 H 
ATOM     34  H   LIG d   1       3.453   1.998  -2.952  0.00  0.00     0.026 H 
ATOM     35  C   LIG d   1       3.550  -0.392  -4.260  0.00  0.00    -0.049 C 
ATOM     36  H   LIG d   1       3.006  -0.938  -2.249  0.00  0.00     0.026 H 
ATOM     37  H   LIG d   1       1.834   0.124  -3.066  0.00  0.00     0.026 H 
ATOM     38  H   LIG d   1       3.438   0.465  -4.925  0.00  0.00     0.027 H 
ATOM     39  H   LIG d   1       3.071  -1.263  -4.707  0.00  0.00     0.027 H 
ATOM     40  H   LIG d   1       5.150  -1.538  -3.382  0.00  0.00     0.032 H 
ENDBRANCH  21  24
ENDBRANCH  13  21
BRANCH   1  41
ATOM     41  C   LIG d   1       9.053  -4.642  -5.057  0.00  0.00     0.017 C 
ATOM     42  H   LIG d   1       9.200  -5.381  -5.845  0.00  0.00     0.047 H 
ATOM     43  H   LIG d   1       9.835  -3.887  -5.116  0.00  0.00     0.047 H 
BRANCH  41  44
ATOM     44  C   LIG d   1       9.113  -5.334  -3.693  0.00  0.00    -0.031 C 
ATOM     45  H   LIG d   1       8.100  -5.502  -3.326  0.00  0.00     0.031 H 
BRANCH  44  46
ATOM     46  C   LIG d   1       9.834  -6.676  -3.832  0.00  0.00    -0.061 C 
ATOM     47  H   LIG d   1       9.175  -7.479  -3.505  0.00  0.00     0.023 H 
ATOM     48  H   LIG d   1      10.110  -6.834  -4.875  0.00  0.00     0.023 H 
ATOM     49  H   LIG d   1      10.734  -6.670  -3.215  0.00  0.00     0.023 H 
ENDBRANCH  44  46
BRANCH  44  50
ATOM     50  C   LIG d   1       9.873  -4.446  -2.705  0.00  0.00    -0.061 C 
ATOM     51  H   LIG d   1      10.644  -3.888  -3.236  0.00  0.00     0.023 H 
ATOM     52  H   LIG d   1       9.179  -3.750  -2.234  0.00  0.00     0.023 H 
ATOM     53  H   LIG d   1      10.337  -5.069  -1.940  0.00  0.00     0.023 H 
ENDBRANCH  44  50
ENDBRANCH  41  44
ENDBRANCH   1  41
BRANCH   7  54
ATOM     54  O   LIG d   1       3.098  -5.135  -6.186  0.00  0.00    -0.388 OA
ATOM     55  H   LIG d   1       3.433  -5.362  -5.307  0.00  0.00     0.210 HD
ENDBRANCH   7  54
TORSDOF 7
ENDMDL
MODEL 6
REMARK VINA RESULT:      -5.5      2.498      5.762
REMARK  7 active torsions:
REMARK  status: ('A' for Active; 'I' for Inactive)
REMARK    1  A    between atoms: C_1  and  C_2 
REMARK    2  A    between atoms: C_2  and  C_3 
REMARK    3  A    between atoms: C_2  and  C_4 
REMARK    4  A    between atoms: C_4  and  N_5 
REMARK    5  A    between atoms: C_11  and  O_30 
REMARK    6  A    between atoms: N_17  and  C_20 
REMARK    7  A    between atoms: C_20  and  C_21 
ROOT
ATOM      1  N   LIG d   1       4.928  -0.871  -6.580  0.00  0.00    -0.306 N 
ATOM      2  C   LIG d   1       4.221  -1.150  -5.320  0.00  0.00     0.060 A 
ATOM      3  H   LIG d   1       3.153  -1.292  -5.487  0.00  0.00     0.053 H 
ATOM      4  C   LIG d   1       4.482  -0.003  -4.333  0.00  0.00     0.079 C 
ATOM      5  H   LIG d   1       4.082   0.943  -4.697  0.00  0.00     0.043 H 
ATOM      6  C   LIG d   1       3.853  -0.385  -2.985  0.00  0.00    -0.009 C 
ATOM      7  C   LIG d   1       4.537  -1.646  -2.451  0.00  0.00     0.095 C 
ATOM      8  H   LIG d   1       5.020  -1.422  -1.500  0.00  0.00     0.063 H 
ATOM      9  C   LIG d   1       5.588  -2.129  -3.456  0.00  0.00     0.149 C 
ATOM     10  H   LIG d   1       6.088  -3.019  -3.075  0.00  0.00     0.078 H 
ATOM     11  C   LIG d   1       4.899  -2.429  -4.791  0.00  0.00     0.084 A 
ATOM     12  H   LIG d   1       4.179  -3.240  -4.687  0.00  0.00     0.056 H 
ATOM     13  N   LIG d   1       5.918  -2.732  -5.807  0.00  0.00    -0.304 N 
ATOM     14  C   LIG d   1       5.863  -1.808  -6.776  0.00  0.00     0.136 A 
ATOM     15  S   LIG d   1       6.899  -1.823  -8.139  0.00  0.00    -0.018 SA
ATOM     16  O   LIG d   1       6.561  -1.057  -3.663  0.00  0.00    -0.457 OA
ATOM     17  C   LIG d   1       5.987   0.083  -4.128  0.00  0.00     0.312 C 
ATOM     18  O   LIG d   1       6.621   1.085  -4.359  0.00  0.00    -0.251 OA
ATOM     19  H   LIG d   1       2.789  -0.576  -3.120  0.00  0.00     0.030 H 
ATOM     20  H   LIG d   1       3.990   0.432  -2.275  0.00  0.00     0.030 H 
ENDROOT
BRANCH  13  21
ATOM     21  C   LIG d   1       6.844  -3.867  -5.767  0.00  0.00     0.017 C 
ATOM     22  H   LIG d   1       7.447  -3.876  -6.674  0.00  0.00     0.047 H 
ATOM     23  H   LIG d   1       7.496  -3.772  -4.898  0.00  0.00     0.047 H 
BRANCH  21  24
ATOM     24  C   LIG d   1       6.049  -5.170  -5.668  0.00  0.00    -0.025 C 
ATOM     25  C   LIG d   1       5.293  -5.407  -6.977  0.00  0.00    -0.049 C 
ATOM     26  C   LIG d   1       4.498  -6.710  -6.878  0.00  0.00    -0.053 C 
ATOM     27  H   LIG d   1       4.611  -4.577  -7.157  0.00  0.00     0.027 H 
ATOM     28  H   LIG d   1       6.005  -5.477  -7.800  0.00  0.00     0.027 H 
ATOM     29  C   LIG d   1       5.458  -7.875  -6.626  0.00  0.00    -0.053 C 
ATOM     30  H   LIG d   1       3.787  -6.640  -6.055  0.00  0.00     0.026 H 
ATOM     31  H   LIG d   1       3.960  -6.878  -7.812  0.00  0.00     0.026 H 
ATOM     32  C   LIG d   1       6.213  -7.638  -5.318  0.00  0.00    -0.053 C 
ATOM     33  H   LIG d   1       4.891  -8.804  -6.556  0.00  0.00     0.026 H 
ATOM     34  H   LIG d   1       6.169  -7.945  -7.449  0.00  0.00     0.026 H 
ATOM     35  C   LIG d   1       7.009  -6.335  -5.416  0.00  0.00    -0.049 C 
ATOM     36  H   LIG d   1       5.502  -7.568  -4.495  0.00  0.00     0.026 H 
ATOM     37  H   LIG d   1       6.897  -8.468  -5.137  0.00  0.00     0.026 H 
ATOM     38  H   LIG d   1       7.720  -6.405  -6.239  0.00  0.00     0.027 H 
ATOM     39  H   LIG d   1       7.547  -6.167  -4.483  0.00  0.00     0.027 H 
ATOM     40  H   LIG d   1       5.338  -5.100  -4.845  0.00  0.00     0.032 H 
ENDBRANCH  21  24
ENDBRANCH  13  21
BRANCH   1  41
ATOM     41  C   LIG d   1       4.649   0.253  -7.478  0.00  0.00     0.017 C 
ATOM     42  H   LIG d   1       5.034   1.173  -7.038  0.00  0.00     0.047 H 
ATOM     43  H   LIG d   1       5.132   0.079  -8.438  0.00  0.00     0.047 H 
BRANCH  41  44
ATOM     44  C   LIG d   1       3.138   0.379  -7.682  0.00  0.00    -0.031 C 
ATOM     45  H   LIG d   1       2.634   0.308  -6.718  0.00  0.00     0.031 H 
BRANCH  44  46
ATOM     46  C   LIG d   1       2.820   1.729  -8.327  0.00  0.00    -0.061 C 
ATOM     47  H   LIG d   1       2.235   2.334  -7.634  0.00  0.00     0.023 H 
ATOM     48  H   LIG d   1       3.750   2.247  -8.564  0.00  0.00     0.023 H 
ATOM     49  H   LIG d   1       2.250   1.570  -9.242  0.00  0.00     0.023 H 
ENDBRANCH  44  46
BRANCH  44  50
ATOM     50  C   LIG d   1       2.652  -0.749  -8.595  0.00  0.00    -0.061 C 
ATOM     51  H   LIG d   1       2.178  -0.322  -9.480  0.00  0.00     0.023 H 
ATOM     52  H   LIG d   1       3.500  -1.363  -8.897  0.00  0.00     0.023 H 
ATOM     53  H   LIG d   1       1.930  -1.365  -8.059  0.00  0.00     0.023 H 
ENDBRANCH  44  50
ENDBRANCH  41  44
ENDBRANCH   1  41
BRANCH   7  54
ATOM     54  O   LIG d   1       3.558  -2.669  -2.257  0.00  0.00    -0.388 OA
ATOM     55  H   LIG d   1       3.834  -3.542  -2.570  0.00  0.00     0.210 HD
ENDBRANCH   7  54
TORSDOF 7
ENDMDL
MODEL 7
REMARK VINA RESULT:      -5.4      3.362      6.824
REMARK  7 active torsions:
REMARK  status: ('A' for Active; 'I' for Inactive)
REMARK    1  A    between atoms: C_1  and  C_2 
REMARK    2  A    between atoms: C_2  and  C_3 
REMARK    3  A    between atoms: C_2  and  C_4 
REMARK    4  A    between atoms: C_4  and  N_5 
REMARK    5  A    between atoms: C_11  and  O_30 
REMARK    6  A    between atoms: N_17  and  C_20 
REMARK    7  A    between atoms: C_20  and  C_21 
ROOT
ATOM      1  N   LIG d   1       6.174  -0.749  -4.317  0.00  0.00    -0.306 N 
ATOM      2  C   LIG d   1       7.453  -0.051  -4.110  0.00  0.00     0.060 A 
ATOM      3  H   LIG d   1       7.569   0.265  -3.074  0.00  0.00     0.053 H 
ATOM      4  C   LIG d   1       7.533   1.145  -5.070  0.00  0.00     0.079 C 
ATOM      5  H   LIG d   1       6.755   1.880  -4.865  0.00  0.00     0.043 H 
ATOM      6  C   LIG d   1       8.930   1.769  -4.934  0.00  0.00    -0.009 C 
ATOM      7  C   LIG d   1       9.982   0.740  -5.356  0.00  0.00     0.095 C 
ATOM      8  H   LIG d   1      10.535   1.119  -6.215  0.00  0.00     0.063 H 
ATOM      9  C   LIG d   1       9.297  -0.578  -5.731  0.00  0.00     0.149 C 
ATOM     10  H   LIG d   1      10.040  -1.309  -6.046  0.00  0.00     0.078 H 
ATOM     11  C   LIG d   1       8.512  -1.093  -4.520  0.00  0.00     0.084 A 
ATOM     12  H   LIG d   1       9.180  -1.321  -3.690  0.00  0.00     0.056 H 
ATOM     13  N   LIG d   1       7.718  -2.265  -4.918  0.00  0.00    -0.304 N 
ATOM     14  C   LIG d   1       6.416  -1.985  -4.771  0.00  0.00     0.136 A 
ATOM     15  S   LIG d   1       5.173  -3.106  -5.134  0.00  0.00    -0.018 SA
ATOM     16  O   LIG d   1       8.355  -0.318  -6.820  0.00  0.00    -0.457 OA
ATOM     17  C   LIG d   1       7.411   0.599  -6.485  0.00  0.00     0.312 C 
ATOM     18  O   LIG d   1       6.545   0.953  -7.248  0.00  0.00    -0.251 OA
ATOM     19  H   LIG d   1       9.100   2.060  -3.898  0.00  0.00     0.030 H 
ATOM     20  H   LIG d   1       9.001   2.647  -5.577  0.00  0.00     0.030 H 
ENDROOT
BRANCH  13  21
ATOM     21  C   LIG d   1       8.264  -3.537  -5.396  0.00  0.00     0.017 C 
ATOM     22  H   LIG d   1       7.571  -3.986  -6.108  0.00  0.00     0.047 H 
ATOM     23  H   LIG d   1       9.223  -3.360  -5.885  0.00  0.00     0.047 H 
BRANCH  21  24
ATOM     24  C   LIG d   1       8.463  -4.484  -4.211  0.00  0.00    -0.025 C 
ATOM     25  C   LIG d   1       8.834  -5.876  -4.728  0.00  0.00    -0.049 C 
ATOM     26  C   LIG d   1       9.033  -6.823  -3.542  0.00  0.00    -0.053 C 
ATOM     27  H   LIG d   1       8.033  -6.253  -5.363  0.00  0.00     0.027 H 
ATOM     28  H   LIG d   1       9.757  -5.816  -5.304  0.00  0.00     0.027 H 
ATOM     29  C   LIG d   1      10.158  -6.294  -2.650  0.00  0.00    -0.053 C 
ATOM     30  H   LIG d   1       8.110  -6.883  -2.966  0.00  0.00     0.026 H 
ATOM     31  H   LIG d   1       9.297  -7.815  -3.911  0.00  0.00     0.026 H 
ATOM     32  C   LIG d   1       9.788  -4.903  -2.135  0.00  0.00    -0.053 C 
ATOM     33  H   LIG d   1      10.300  -6.969  -1.806  0.00  0.00     0.026 H 
ATOM     34  H   LIG d   1      11.082  -6.234  -3.227  0.00  0.00     0.026 H 
ATOM     35  C   LIG d   1       9.589  -3.955  -3.319  0.00  0.00    -0.049 C 
ATOM     36  H   LIG d   1       8.865  -4.963  -1.558  0.00  0.00     0.026 H 
ATOM     37  H   LIG d   1      10.589  -4.525  -1.499  0.00  0.00     0.026 H 
ATOM     38  H   LIG d   1      10.512  -3.895  -3.896  0.00  0.00     0.027 H 
ATOM     39  H   LIG d   1       9.325  -2.964  -2.952  0.00  0.00     0.027 H 
ATOM     40  H   LIG d   1       7.540  -4.544  -3.635  0.00  0.00     0.032 H 
ENDBRANCH  21  24
ENDBRANCH  13  21
BRANCH   1  41
ATOM     41  C   LIG d   1       4.847  -0.181  -4.064  0.00  0.00     0.017 C 
ATOM     42  H   LIG d   1       4.880   0.898  -4.213  0.00  0.00     0.047 H 
ATOM     43  H   LIG d   1       4.126  -0.621  -4.751  0.00  0.00     0.047 H 
BRANCH  41  44
ATOM     44  C   LIG d   1       4.430  -0.485  -2.623  0.00  0.00    -0.031 C 
ATOM     45  H   LIG d   1       5.120  -1.209  -2.190  0.00  0.00     0.031 H 
BRANCH  44  46
ATOM     46  C   LIG d   1       4.462   0.805  -1.800  0.00  0.00    -0.061 C 
ATOM     47  H   LIG d   1       5.496   1.073  -1.584  0.00  0.00     0.023 H 
ATOM     48  H   LIG d   1       3.988   1.608  -2.364  0.00  0.00     0.023 H 
ATOM     49  H   LIG d   1       3.923   0.651  -0.864  0.00  0.00     0.023 H 
ENDBRANCH  44  46
BRANCH  44  50
ATOM     50  C   LIG d   1       3.013  -1.061  -2.614  0.00  0.00    -0.061 C 
ATOM     51  H   LIG d   1       2.307  -0.287  -2.312  0.00  0.00     0.023 H 
ATOM     52  H   LIG d   1       2.759  -1.416  -3.612  0.00  0.00     0.023 H 
ATOM     53  H   LIG d   1       2.964  -1.892  -1.910  0.00  0.00     0.023 H 
ENDBRANCH  44  50
ENDBRANCH  41  44
ENDBRANCH   1  41
BRANCH   7  54
ATOM     54  O   LIG d   1      10.885   0.514  -4.272  0.00  0.00    -0.388 OA
ATOM     55  H   LIG d   1      10.450   0.370  -3.420  0.00  0.00     0.210 HD
ENDBRANCH   7  54
TORSDOF 7
ENDMDL
MODEL 8
REMARK VINA RESULT:      -5.3      1.608      2.112
REMARK  7 active torsions:
REMARK  status: ('A' for Active; 'I' for Inactive)
REMARK    1  A    between atoms: C_1  and  C_2 
REMARK    2  A    between atoms: C_2  and  C_3 
REMARK    3  A    between atoms: C_2  and  C_4 
REMARK    4  A    between atoms: C_4  and  N_5 
REMARK    5  A    between atoms: C_11  and  O_30 
REMARK    6  A    between atoms: N_17  and  C_20 
REMARK    7  A    between atoms: C_20  and  C_21 
ROOT
ATOM      1  N   LIG d   1       7.273  -2.309  -4.586  0.00  0.00    -0.306 N 
ATOM      2  C   LIG d   1       6.764  -1.296  -3.649  0.00  0.00     0.060 A 
ATOM      3  H   LIG d   1       7.554  -0.924  -2.998  0.00  0.00     0.053 H 
ATOM      4  C   LIG d   1       5.610  -1.899  -2.835  0.00  0.00     0.079 C 
ATOM      5  H   LIG d   1       5.943  -2.735  -2.220  0.00  0.00     0.043 H 
ATOM      6  C   LIG d   1       5.005  -0.784  -1.969  0.00  0.00    -0.009 C 
ATOM      7  C   LIG d   1       4.435   0.306  -2.880  0.00  0.00     0.095 C 
ATOM      8  H   LIG d   1       3.362   0.394  -2.712  0.00  0.00     0.063 H 
ATOM      9  C   LIG d   1       4.694  -0.058  -4.346  0.00  0.00     0.149 C 
ATOM     10  H   LIG d   1       4.277   0.707  -5.000  0.00  0.00     0.078 H 
ATOM     11  C   LIG d   1       6.204  -0.192  -4.567  0.00  0.00     0.084 A 
ATOM     12  H   LIG d   1       6.710   0.758  -4.393  0.00  0.00     0.056 H 
ATOM     13  N   LIG d   1       6.454  -0.702  -5.923  0.00  0.00    -0.304 N 
ATOM     14  C   LIG d   1       7.058  -1.895  -5.841  0.00  0.00     0.136 A 
ATOM     15  S   LIG d   1       7.513  -2.808  -7.216  0.00  0.00    -0.018 SA
ATOM     16  O   LIG d   1       4.066  -1.349  -4.622  0.00  0.00    -0.457 OA
ATOM     17  C   LIG d   1       4.541  -2.340  -3.824  0.00  0.00     0.312 C 
ATOM     18  O   LIG d   1       4.147  -3.480  -3.893  0.00  0.00    -0.251 OA
ATOM     19  H   LIG d   1       5.779  -0.358  -1.332  0.00  0.00     0.030 H 
ATOM     20  H   LIG d   1       4.208  -1.196  -1.350  0.00  0.00     0.030 H 
ENDROOT
BRANCH  13  21
ATOM     21  C   LIG d   1       6.100  -0.013  -7.167  0.00  0.00     0.017 C 
ATOM     22  H   LIG d   1       5.939   1.045  -6.964  0.00  0.00     0.047 H 
ATOM     23  H   LIG d   1       6.910  -0.126  -7.888  0.00  0.00     0.047 H 
BRANCH  21  24
ATOM     24  C   LIG d   1       4.819  -0.624  -7.740  0.00  0.00    -0.025 C 
ATOM     25  C   LIG d   1       3.691   0.408  -7.679  0.00  0.00    -0.049 C 
ATOM     26  C   LIG d   1       2.410  -0.203  -8.252  0.00  0.00    -0.053 C 
ATOM     27  H   LIG d   1       3.522   0.701  -6.644  0.00  0.00     0.027 H 
ATOM     28  H   LIG d   1       3.968   1.285  -8.264  0.00  0.00     0.027 H 
ATOM     29  C   LIG d   1       2.648  -0.613  -9.707  0.00  0.00    -0.053 C 
ATOM     30  H   LIG d   1       2.133  -1.079  -7.668  0.00  0.00     0.026 H 
ATOM     31  H   LIG d   1       1.607   0.533  -8.209  0.00  0.00     0.026 H 
ATOM     32  C   LIG d   1       3.775  -1.645  -9.767  0.00  0.00    -0.053 C 
ATOM     33  H   LIG d   1       1.735  -1.048 -10.115  0.00  0.00     0.026 H 
ATOM     34  H   LIG d   1       2.925   0.263 -10.292  0.00  0.00     0.026 H 
ATOM     35  C   LIG d   1       5.056  -1.035  -9.195  0.00  0.00    -0.049 C 
ATOM     36  H   LIG d   1       3.497  -2.521  -9.183  0.00  0.00     0.026 H 
ATOM     37  H   LIG d   1       3.945  -1.938 -10.803  0.00  0.00     0.026 H 
ATOM     38  H   LIG d   1       5.334  -0.158  -9.780  0.00  0.00     0.027 H 
ATOM     39  H   LIG d   1       5.860  -1.770  -9.238  0.00  0.00     0.027 H 
ATOM     40  H   LIG d   1       4.541  -1.501  -7.155  0.00  0.00     0.032 H 
ENDBRANCH  21  24
ENDBRANCH  13  21
BRANCH   1  41
ATOM     41  C   LIG d   1       7.915  -3.570  -4.206  0.00  0.00     0.017 C 
ATOM     42  H   LIG d   1       7.310  -4.072  -3.451  0.00  0.00     0.047 H 
ATOM     43  H   LIG d   1       8.008  -4.209  -5.082  0.00  0.00     0.047 H 
BRANCH  41  44
ATOM     44  C   LIG d   1       9.306  -3.281  -3.635  0.00  0.00    -0.031 C 
ATOM     45  H   LIG d   1       9.354  -2.243  -3.303  0.00  0.00     0.031 H 
BRANCH  44  46
ATOM     46  C   LIG d   1       9.573  -4.208  -2.448  0.00  0.00    -0.061 C 
ATOM     47  H   LIG d   1      10.340  -4.934  -2.720  0.00  0.00     0.023 H 
ATOM     48  H   LIG d   1       9.915  -3.620  -1.597  0.00  0.00     0.023 H 
ATOM     49  H   LIG d   1       8.655  -4.733  -2.183  0.00  0.00     0.023 H 
ENDBRANCH  44  46
BRANCH  44  50
ATOM     50  C   LIG d   1      10.360  -3.520  -4.718  0.00  0.00    -0.061 C 
ATOM     51  H   LIG d   1       9.869  -3.819  -5.644  0.00  0.00     0.023 H 
ATOM     52  H   LIG d   1      10.924  -2.602  -4.885  0.00  0.00     0.023 H 
ATOM     53  H   LIG d   1      11.039  -4.309  -4.395  0.00  0.00     0.023 H 
ENDBRANCH  44  50
ENDBRANCH  41  44
ENDBRANCH   1  41
BRANCH   7  54
ATOM     54  O   LIG d   1       5.067   1.552  -2.581  0.00  0.00    -0.388 OA
ATOM     55  H   LIG d   1       4.838   2.266  -3.192  0.00  0.00     0.210 HD
ENDBRANCH   7  54
TORSDOF 7
ENDMDL
MODEL 9
REMARK VINA RESULT:      -5.1      1.596      5.897
REMARK  7 active torsions:
REMARK  status: ('A' for Active; 'I' for Inactive)
REMARK    1  A    between atoms: C_1  and  C_2 
REMARK    2  A    between atoms: C_2  and  C_3 
REMARK    3  A    between atoms: C_2  and  C_4 
REMARK    4  A    between atoms: C_4  and  N_5 
REMARK    5  A    between atoms: C_11  and  O_30 
REMARK    6  A    between atoms: N_17  and  C_20 
REMARK    7  A    between atoms: C_20  and  C_21 
ROOT
ATOM      1  N   LIG d   1       5.024  -0.815  -6.501  0.00  0.00    -0.306 N 
ATOM      2  C   LIG d   1       4.291  -1.145  -5.269  0.00  0.00     0.060 A 
ATOM      3  H   LIG d   1       3.238  -1.339  -5.474  0.00  0.00     0.053 H 
ATOM      4  C   LIG d   1       4.460   0.002  -4.262  0.00  0.00     0.079 C 
ATOM      5  H   LIG d   1       4.023   0.931  -4.630  0.00  0.00     0.043 H 
ATOM      6  C   LIG d   1       3.807  -0.427  -2.940  0.00  0.00    -0.009 C 
ATOM      7  C   LIG d   1       4.536  -1.658  -2.397  0.00  0.00     0.095 C 
ATOM      8  H   LIG d   1       4.976  -1.421  -1.428  0.00  0.00     0.063 H 
ATOM      9  C   LIG d   1       5.643  -2.075  -3.370  0.00  0.00     0.149 C 
ATOM     10  H   LIG d   1       6.176  -2.942  -2.981  0.00  0.00     0.078 H 
ATOM     11  C   LIG d   1       5.016  -2.393  -4.731  0.00  0.00     0.084 A 
ATOM     12  H   LIG d   1       4.336  -3.242  -4.659  0.00  0.00     0.056 H 
ATOM     13  N   LIG d   1       6.083  -2.632  -5.715  0.00  0.00    -0.304 N 
ATOM     14  C   LIG d   1       6.013  -1.700  -6.675  0.00  0.00     0.136 A 
ATOM     15  S   LIG d   1       7.093  -1.646  -8.003  0.00  0.00    -0.018 SA
ATOM     16  O   LIG d   1       6.566  -0.952  -3.533  0.00  0.00    -0.457 OA
ATOM     17  C   LIG d   1       5.951   0.163  -4.005  0.00  0.00     0.312 C 
ATOM     18  O   LIG d   1       6.539   1.199  -4.204  0.00  0.00    -0.251 OA
ATOM     19  H   LIG d   1       2.759  -0.671  -3.113  0.00  0.00     0.030 H 
ATOM     20  H   LIG d   1       3.877   0.387  -2.217  0.00  0.00     0.030 H 
ENDROOT
BRANCH  13  21
ATOM     21  C   LIG d   1       7.065  -3.718  -5.655  0.00  0.00     0.017 C 
ATOM     22  H   LIG d   1       6.599  -4.605  -5.228  0.00  0.00     0.047 H 
ATOM     23  H   LIG d   1       7.420  -3.942  -6.661  0.00  0.00     0.047 H 
BRANCH  21  24
ATOM     24  C   LIG d   1       8.245  -3.289  -4.781  0.00  0.00    -0.025 C 
ATOM     25  C   LIG d   1       8.594  -4.416  -3.807  0.00  0.00    -0.049 C 
ATOM     26  C   LIG d   1       9.774  -3.987  -2.933  0.00  0.00    -0.053 C 
ATOM     27  H   LIG d   1       7.732  -4.629  -3.175  0.00  0.00     0.027 H 
ATOM     28  H   LIG d   1       8.863  -5.311  -4.367  0.00  0.00     0.027 H 
ATOM     29  C   LIG d   1      10.984  -3.689  -3.821  0.00  0.00    -0.053 C 
ATOM     30  H   LIG d   1       9.505  -3.092  -2.372  0.00  0.00     0.026 H 
ATOM     31  H   LIG d   1      10.022  -4.791  -2.239  0.00  0.00     0.026 H 
ATOM     32  C   LIG d   1      10.636  -2.563  -4.795  0.00  0.00    -0.053 C 
ATOM     33  H   LIG d   1      11.825  -3.384  -3.198  0.00  0.00     0.026 H 
ATOM     34  H   LIG d   1      11.254  -4.584  -4.382  0.00  0.00     0.026 H 
ATOM     35  C   LIG d   1       9.455  -2.991  -5.669  0.00  0.00    -0.049 C 
ATOM     36  H   LIG d   1      10.366  -1.668  -4.234  0.00  0.00     0.026 H 
ATOM     37  H   LIG d   1      11.497  -2.349  -5.428  0.00  0.00     0.026 H 
ATOM     38  H   LIG d   1       9.725  -3.886  -6.230  0.00  0.00     0.027 H 
ATOM     39  H   LIG d   1       9.207  -2.188  -6.363  0.00  0.00     0.027 H 
ATOM     40  H   LIG d   1       7.976  -2.394  -4.221  0.00  0.00     0.032 H 
ENDBRANCH  21  24
ENDBRANCH  13  21
BRANCH   1  41
ATOM     41  C   LIG d   1       4.718   0.304  -7.396  0.00  0.00     0.017 C 
ATOM     42  H   LIG d   1       5.035   1.238  -6.932  0.00  0.00     0.047 H 
ATOM     43  H   LIG d   1       5.245   0.170  -8.340  0.00  0.00     0.047 H 
BRANCH  41  44
ATOM     44  C   LIG d   1       3.211   0.351  -7.656  0.00  0.00    -0.031 C 
ATOM     45  H   LIG d   1       2.676   0.262  -6.710  0.00  0.00     0.031 H 
BRANCH  44  46
ATOM     46  C   LIG d   1       2.848   1.679  -8.324  0.00  0.00    -0.061 C 
ATOM     47  H   LIG d   1       1.812   1.647  -8.659  0.00  0.00     0.023 H 
ATOM     48  H   LIG d   1       2.973   2.492  -7.608  0.00  0.00     0.023 H 
ATOM     49  H   LIG d   1       3.503   1.845  -9.180  0.00  0.00     0.023 H 
ENDBRANCH  44  46
BRANCH  44  50
ATOM     50  C   LIG d   1       2.816  -0.806  -8.576  0.00  0.00    -0.061 C 
ATOM     51  H   LIG d   1       2.727  -1.722  -7.991  0.00  0.00     0.023 H 
ATOM     52  H   LIG d   1       1.860  -0.584  -9.050  0.00  0.00     0.023 H 
ATOM     53  H   LIG d   1       3.580  -0.938  -9.343  0.00  0.00     0.023 H 
ENDBRANCH  44  50
ENDBRANCH  41  44
ENDBRANCH   1  41
BRANCH   7  54
ATOM     54  O   LIG d   1       3.606  -2.732  -2.247  0.00  0.00    -0.388 OA
ATOM     55  H   LIG d   1       3.567  -3.098  -1.352  0.00  0.00     0.210 HD
ENDBRANCH   7  54
TORSDOF 7
ENDMDL
MODEL 10
REMARK VINA RESULT:      -5.1      9.738     10.581
REMARK  7 active torsions:
REMARK  status: ('A' for Active; 'I' for Inactive)
REMARK    1  A    between atoms: C_1  and  C_2 
REMARK    2  A    between atoms: C_2  and  C_3 
REMARK    3  A    between atoms: C_2  and  C_4 
REMARK    4  A    between atoms: C_4  and  N_5 
REMARK    5  A    between atoms: C_11  and  O_30 
REMARK    6  A    between atoms: N_17  and  C_20 
REMARK    7  A    between atoms: C_20  and  C_21 
ROOT
ATOM      1  N   LIG d   1      12.574   6.181  -1.694  0.00  0.00    -0.306 N 
ATOM      2  C   LIG d   1      12.249   7.587  -1.410  0.00  0.00     0.060 A 
ATOM      3  H   LIG d   1      13.076   8.246  -1.671  0.00  0.00     0.053 H 
ATOM      4  C   LIG d   1      11.872   7.725   0.073  0.00  0.00     0.079 C 
ATOM      5  H   LIG d   1      12.707   7.473   0.727  0.00  0.00     0.043 H 
ATOM      6  C   LIG d   1      11.402   9.168   0.310  0.00  0.00    -0.009 C 
ATOM      7  C   LIG d   1      10.152   9.434  -0.533  0.00  0.00     0.095 C 
ATOM      8  H   LIG d   1       9.315   9.671   0.125  0.00  0.00     0.063 H 
ATOM      9  C   LIG d   1       9.812   8.190  -1.361  0.00  0.00     0.149 C 
ATOM     10  H   LIG d   1       8.915   8.369  -1.952  0.00  0.00     0.078 H 
ATOM     11  C   LIG d   1      10.999   7.858  -2.271  0.00  0.00     0.084 A 
ATOM     12  H   LIG d   1      11.182   8.661  -2.985  0.00  0.00     0.056 H 
ATOM     13  N   LIG d   1      10.751   6.575  -2.946  0.00  0.00    -0.304 N 
ATOM     14  C   LIG d   1      11.683   5.691  -2.566  0.00  0.00     0.136 A 
ATOM     15  S   LIG d   1      11.729   4.079  -3.141  0.00  0.00    -0.018 SA
ATOM     16  O   LIG d   1       9.596   7.068  -0.448  0.00  0.00    -0.457 OA
ATOM     17  C   LIG d   1      10.683   6.809   0.324  0.00  0.00     0.312 C 
ATOM     18  O   LIG d   1      10.705   5.924   1.145  0.00  0.00    -0.251 OA
ATOM     19  H   LIG d   1      12.191   9.861   0.020  0.00  0.00     0.030 H 
ATOM     20  H   LIG d   1      11.165   9.305   1.366  0.00  0.00     0.030 H 
ENDROOT
BRANCH  13  21
ATOM     21  C   LIG d   1       9.660   6.309  -3.886  0.00  0.00     0.017 C 
ATOM     22  H   LIG d   1       9.476   5.236  -3.934  0.00  0.00     0.047 H 
ATOM     23  H   LIG d   1       8.757   6.817  -3.547  0.00  0.00     0.047 H 
BRANCH  21  24
ATOM     24  C   LIG d   1      10.045   6.824  -5.273  0.00  0.00    -0.025 C 
ATOM     25  C   LIG d   1       9.834   5.715  -6.306  0.00  0.00    -0.049 C 
ATOM     26  C   LIG d   1      10.219   6.231  -7.694  0.00  0.00    -0.053 C 
ATOM     27  H   LIG d   1      10.456   4.858  -6.051  0.00  0.00     0.027 H 
ATOM     28  H   LIG d   1       8.786   5.416  -6.308  0.00  0.00     0.027 H 
ATOM     29  C   LIG d   1       9.345   7.435  -8.052  0.00  0.00    -0.053 C 
ATOM     30  H   LIG d   1      11.267   6.531  -7.692  0.00  0.00     0.026 H 
ATOM     31  H   LIG d   1      10.068   5.440  -8.430  0.00  0.00     0.026 H 
ATOM     32  C   LIG d   1       9.557   8.543  -7.020  0.00  0.00    -0.053 C 
ATOM     33  H   LIG d   1       9.620   7.802  -9.041  0.00  0.00     0.026 H 
ATOM     34  H   LIG d   1       8.297   7.135  -8.054  0.00  0.00     0.026 H 
ATOM     35  C   LIG d   1       9.171   8.028  -5.632  0.00  0.00    -0.049 C 
ATOM     36  H   LIG d   1      10.605   8.842  -7.018  0.00  0.00     0.026 H 
ATOM     37  H   LIG d   1       8.935   9.401  -7.274  0.00  0.00     0.026 H 
ATOM     38  H   LIG d   1       8.123   7.729  -5.634  0.00  0.00     0.027 H 
ATOM     39  H   LIG d   1       9.322   8.818  -4.896  0.00  0.00     0.027 H 
ATOM     40  H   LIG d   1      11.093   7.124  -5.271  0.00  0.00     0.032 H 
ENDBRANCH  21  24
ENDBRANCH  13  21
BRANCH   1  41
ATOM     41  C   LIG d   1      13.696   5.436  -1.117  0.00  0.00     0.017 C 
ATOM     42  H   LIG d   1      13.513   5.268  -0.056  0.00  0.00     0.047 H 
ATOM     43  H   LIG d   1      13.797   4.478  -1.626  0.00  0.00     0.047 H 
BRANCH  41  44
ATOM     44  C   LIG d   1      14.985   6.243  -1.290  0.00  0.00    -0.031 C 
ATOM     45  H   LIG d   1      14.775   7.301  -1.133  0.00  0.00     0.031 H 
BRANCH  44  46
ATOM     46  C   LIG d   1      16.023   5.772  -0.270  0.00  0.00    -0.061 C 
ATOM     47  H   LIG d   1      15.519   5.468   0.648  0.00  0.00     0.023 H 
ATOM     48  H   LIG d   1      16.576   4.926  -0.678  0.00  0.00     0.023 H 
ATOM     49  H   LIG d   1      16.713   6.587  -0.052  0.00  0.00     0.023 H 
ENDBRANCH  44  46
BRANCH  44  50
ATOM     50  C   LIG d   1      15.530   6.036  -2.705  0.00  0.00    -0.061 C 
ATOM     51  H   LIG d   1      14.787   6.365  -3.432  0.00  0.00     0.023 H 
ATOM     52  H   LIG d   1      16.443   6.616  -2.831  0.00  0.00     0.023 H 
ATOM     53  H   LIG d   1      15.747   4.979  -2.860  0.00  0.00     0.023 H 
ENDBRANCH  44  50
ENDBRANCH  41  44
ENDBRANCH   1  41
BRANCH   7  54
ATOM     54  O   LIG d   1      10.397  10.536  -1.408  0.00  0.00    -0.388 OA
ATOM     55  H   LIG d   1      10.810  10.288  -2.247  0.00  0.00     0.210 HD
ENDBRANCH   7  54
TORSDOF 7
ENDMDL
