MODEL 1
REMARK VINA RESULT:      -6.1      0.000      0.000
REMARK  7 active torsions:
REMARK  status: ('A' for Active; 'I' for Inactive)
REMARK    1  A    between atoms: C_1  and  C_2 
REMARK    2  A    between atoms: C_2  and  C_4 
REMARK    3  A    between atoms: C_2  and  O_20 
REMARK    4  A    between atoms: C_4  and  C_5 
REMARK    5  A    between atoms: C_5  and  C_6 
REMARK    6  A    between atoms: C_6  and  C_7 
REMARK    7  A    between atoms: C_14  and  O_19 
ROOT
ATOM      1  C   LIG d   1       3.803  -0.516  -6.809  0.00  0.00     0.107 C 
ATOM      2  H   LIG d   1       4.685   0.124  -6.834  0.00  0.00     0.074 H 
ATOM      3  C   LIG d   1       4.081  -1.732  -5.924  0.00  0.00     0.011 C 
ATOM      4  C   LIG d   1       4.171  -1.315  -4.480  0.00  0.00    -0.026 A 
ATOM      5  C   LIG d   1       4.823  -2.116  -3.568  0.00  0.00    -0.057 A 
ATOM      6  C   LIG d   1       4.906  -1.738  -2.237  0.00  0.00    -0.058 A 
ATOM      7  C   LIG d   1       4.337  -0.555  -1.808  0.00  0.00    -0.019 A 
ATOM      8  C   LIG d   1       3.677   0.267  -2.711  0.00  0.00     0.131 A 
ATOM      9  C   LIG d   1       3.595  -0.115  -4.055  0.00  0.00     0.103 A 
ATOM     10  C   LIG d   1       2.904   0.743  -5.041  0.00  0.00     0.343 C 
ATOM     11  O   LIG d   1       2.544   1.869  -4.758  0.00  0.00    -0.245 OA
ATOM     12  O   LIG d   1       2.693   0.219  -6.275  0.00  0.00    -0.458 OA
ATOM     13  H   LIG d   1       3.274  -2.456  -6.041  0.00  0.00     0.035 H 
ATOM     14  H   LIG d   1       5.021  -2.192  -6.226  0.00  0.00     0.035 H 
ATOM     15  H   LIG d   1       5.271  -3.044  -3.891  0.00  0.00     0.062 H 
ATOM     16  H   LIG d   1       5.419  -2.372  -1.531  0.00  0.00     0.062 H 
ATOM     17  H   LIG d   1       4.405  -0.269  -0.768  0.00  0.00     0.065 H 
ENDROOT
BRANCH   1  18
ATOM     18  C   LIG d   1       3.470  -0.983  -8.228  0.00  0.00    -0.015 C 
ATOM     19  H   LIG d   1       2.958  -1.944  -8.183  0.00  0.00     0.030 H 
ATOM     20  H   LIG d   1       4.392  -1.089  -8.800  0.00  0.00     0.030 H 
BRANCH  18  21
ATOM     21  C   LIG d   1       2.565   0.048  -8.904  0.00  0.00    -0.047 C 
ATOM     22  H   LIG d   1       2.544   0.961  -8.308  0.00  0.00     0.027 H 
ATOM     23  H   LIG d   1       1.555  -0.355  -8.989  0.00  0.00     0.027 H 
BRANCH  21  24
ATOM     24  C   LIG d   1       3.106   0.363 -10.301  0.00  0.00    -0.027 C 
ATOM     25  H   LIG d   1       2.276   0.434 -11.004  0.00  0.00     0.029 H 
ATOM     26  H   LIG d   1       3.782  -0.431 -10.616  0.00  0.00     0.029 H 
BRANCH  24  27
ATOM     27  C   LIG d   1       3.861   1.693 -10.266  0.00  0.00     0.052 C 
ATOM     28  H   LIG d   1       3.660   2.250 -11.180  0.00  0.00     0.059 H 
BRANCH  27  29
ATOM     29  C   LIG d   1       3.398   2.511  -9.058  0.00  0.00    -0.039 C 
ATOM     30  H   LIG d   1       3.366   1.870  -8.176  0.00  0.00     0.025 H 
ATOM     31  H   LIG d   1       4.093   3.332  -8.886  0.00  0.00     0.025 H 
ATOM     32  H   LIG d   1       2.403   2.911  -9.251  0.00  0.00     0.025 H 
ENDBRANCH  27  29
BRANCH  27  33
ATOM     33  O   LIG d   1       5.264   1.442 -10.160  0.00  0.00    -0.392 OA
ATOM     34  H   LIG d   1       5.482   0.539  -9.891  0.00  0.00     0.210 HD
ENDBRANCH  27  33
ENDBRANCH  24  27
ENDBRANCH  21  24
ENDBRANCH  18  21
ENDBRANCH   1  18
BRANCH   8  35
ATOM     35  O   LIG d   1       3.115   1.429  -2.295  0.00  0.00    -0.506 OA
ATOM     36  H   LIG d   1       2.155   1.460  -2.400  0.00  0.00     0.292 HD
ENDBRANCH   8  35
TORSDOF 7
ENDMDL
MODEL 2
REMARK VINA RESULT:      -6.0      1.889      2.783
REMARK  7 active torsions:
REMARK  status: ('A' for Active; 'I' for Inactive)
REMARK    1  A    between atoms: C_1  and  C_2 
REMARK    2  A    between atoms: C_2  and  C_4 
REMARK    3  A    between atoms: C_2  and  O_20 
REMARK    4  A    between atoms: C_4  and  C_5 
REMARK    5  A    between atoms: C_5  and  C_6 
REMARK    6  A    between atoms: C_6  and  C_7 
REMARK    7  A    between atoms: C_14  and  O_19 
ROOT
ATOM      1  C   LIG d   1       3.219   0.361  -7.149  0.00  0.00     0.107 C 
ATOM      2  H   LIG d   1       2.852  -0.601  -7.506  0.00  0.00     0.074 H 
ATOM      3  C   LIG d   1       2.654   0.636  -5.755  0.00  0.00     0.011 C 
ATOM      4  C   LIG d   1       3.274  -0.297  -4.749  0.00  0.00    -0.026 A 
ATOM      5  C   LIG d   1       2.639  -0.541  -3.550  0.00  0.00    -0.057 A 
ATOM      6  C   LIG d   1       3.208  -1.397  -2.620  0.00  0.00    -0.058 A 
ATOM      7  C   LIG d   1       4.415  -2.015  -2.881  0.00  0.00    -0.019 A 
ATOM      8  C   LIG d   1       5.068  -1.783  -4.083  0.00  0.00     0.131 A 
ATOM      9  C   LIG d   1       4.493  -0.919  -5.023  0.00  0.00     0.103 A 
ATOM     10  C   LIG d   1       5.163  -0.659  -6.315  0.00  0.00     0.343 C 
ATOM     11  O   LIG d   1       6.128  -1.306  -6.670  0.00  0.00    -0.245 OA
ATOM     12  O   LIG d   1       4.651   0.333  -7.086  0.00  0.00    -0.458 OA
ATOM     13  H   LIG d   1       2.871   1.667  -5.474  0.00  0.00     0.035 H 
ATOM     14  H   LIG d   1       1.574   0.489  -5.767  0.00  0.00     0.035 H 
ATOM     15  H   LIG d   1       1.695  -0.063  -3.334  0.00  0.00     0.062 H 
ATOM     16  H   LIG d   1       2.704  -1.581  -1.684  0.00  0.00     0.062 H 
ATOM     17  H   LIG d   1       4.851  -2.679  -2.149  0.00  0.00     0.065 H 
ENDROOT
BRANCH   1  18
ATOM     18  C   LIG d   1       2.772   1.467  -8.108  0.00  0.00    -0.015 C 
ATOM     19  H   LIG d   1       2.340   2.289  -7.538  0.00  0.00     0.030 H 
ATOM     20  H   LIG d   1       2.025   1.069  -8.797  0.00  0.00     0.030 H 
BRANCH  18  21
ATOM     21  C   LIG d   1       3.979   1.973  -8.901  0.00  0.00    -0.047 C 
ATOM     22  H   LIG d   1       4.882   1.478  -8.542  0.00  0.00     0.027 H 
ATOM     23  H   LIG d   1       4.076   3.050  -8.767  0.00  0.00     0.027 H 
BRANCH  21  24
ATOM     24  C   LIG d   1       3.782   1.659 -10.386  0.00  0.00    -0.027 C 
ATOM     25  H   LIG d   1       4.432   2.300 -10.981  0.00  0.00     0.029 H 
ATOM     26  H   LIG d   1       2.743   1.841 -10.660  0.00  0.00     0.029 H 
BRANCH  24  27
ATOM     27  C   LIG d   1       4.130   0.193 -10.647  0.00  0.00     0.052 C 
ATOM     28  H   LIG d   1       3.334  -0.444 -10.263  0.00  0.00     0.059 H 
BRANCH  27  29
ATOM     29  C   LIG d   1       4.283  -0.034 -12.153  0.00  0.00    -0.039 C 
ATOM     30  H   LIG d   1       3.313  -0.282 -12.583  0.00  0.00     0.025 H 
ATOM     31  H   LIG d   1       4.667   0.873 -12.620  0.00  0.00     0.025 H 
ATOM     32  H   LIG d   1       4.978  -0.855 -12.327  0.00  0.00     0.025 H 
ENDBRANCH  27  29
BRANCH  27  33
ATOM     33  O   LIG d   1       5.357  -0.130  -9.989  0.00  0.00    -0.392 OA
ATOM     34  H   LIG d   1       5.309  -0.086  -9.025  0.00  0.00     0.210 HD
ENDBRANCH  27  33
ENDBRANCH  24  27
ENDBRANCH  21  24
ENDBRANCH  18  21
ENDBRANCH   1  18
BRANCH   8  35
ATOM     35  O   LIG d   1       6.255  -2.386  -4.344  0.00  0.00    -0.506 OA
ATOM     36  H   LIG d   1       6.500  -2.380  -5.279  0.00  0.00     0.292 HD
ENDBRANCH   8  35
TORSDOF 7
ENDMDL
MODEL 3
REMARK VINA RESULT:      -5.9      2.574      4.344
REMARK  7 active torsions:
REMARK  status: ('A' for Active; 'I' for Inactive)
REMARK    1  A    between atoms: C_1  and  C_2 
REMARK    2  A    between atoms: C_2  and  C_4 
REMARK    3  A    between atoms: C_2  and  O_20 
REMARK    4  A    between atoms: C_4  and  C_5 
REMARK    5  A    between atoms: C_5  and  C_6 
REMARK    6  A    between atoms: C_6  and  C_7 
REMARK    7  A    between atoms: C_14  and  O_19 
ROOT
ATOM      1  C   LIG d   1       5.629  -2.074  -6.332  0.00  0.00     0.107 C 
ATOM      2  H   LIG d   1       6.423  -1.328  -6.291  0.00  0.00     0.074 H 
ATOM      3  C   LIG d   1       5.389  -2.640  -4.932  0.00  0.00     0.011 C 
ATOM      4  C   LIG d   1       4.753  -1.596  -4.052  0.00  0.00    -0.026 A 
ATOM      5  C   LIG d   1       4.834  -1.706  -2.680  0.00  0.00    -0.057 A 
ATOM      6  C   LIG d   1       4.248  -0.750  -1.867  0.00  0.00    -0.058 A 
ATOM      7  C   LIG d   1       3.575   0.323  -2.418  0.00  0.00    -0.019 A 
ATOM      8  C   LIG d   1       3.483   0.452  -3.796  0.00  0.00     0.131 A 
ATOM      9  C   LIG d   1       4.077  -0.514  -4.618  0.00  0.00     0.103 A 
ATOM     10  C   LIG d   1       4.001  -0.399  -6.090  0.00  0.00     0.343 C 
ATOM     11  O   LIG d   1       3.580   0.607  -6.626  0.00  0.00    -0.245 OA
ATOM     12  O   LIG d   1       4.424  -1.466  -6.814  0.00  0.00    -0.458 OA
ATOM     13  H   LIG d   1       4.731  -3.506  -5.000  0.00  0.00     0.035 H 
ATOM     14  H   LIG d   1       6.341  -2.947  -4.498  0.00  0.00     0.035 H 
ATOM     15  H   LIG d   1       5.358  -2.540  -2.237  0.00  0.00     0.062 H 
ATOM     16  H   LIG d   1       4.317  -0.844  -0.794  0.00  0.00     0.062 H 
ATOM     17  H   LIG d   1       3.119   1.063  -1.775  0.00  0.00     0.065 H 
ENDROOT
BRANCH   1  18
ATOM     18  C   LIG d   1       6.042  -3.206  -7.276  0.00  0.00    -0.015 C 
ATOM     19  H   LIG d   1       6.618  -3.948  -6.722  0.00  0.00     0.030 H 
ATOM     20  H   LIG d   1       6.653  -2.801  -8.084  0.00  0.00     0.030 H 
BRANCH  18  21
ATOM     21  C   LIG d   1       4.791  -3.863  -7.862  0.00  0.00    -0.047 C 
ATOM     22  H   LIG d   1       4.634  -3.504  -8.879  0.00  0.00     0.027 H 
ATOM     23  H   LIG d   1       3.926  -3.609  -7.249  0.00  0.00     0.027 H 
BRANCH  21  24
ATOM     24  C   LIG d   1       4.974  -5.383  -7.880  0.00  0.00    -0.027 C 
ATOM     25  H   LIG d   1       6.028  -5.623  -7.739  0.00  0.00     0.029 H 
ATOM     26  H   LIG d   1       4.636  -5.777  -8.838  0.00  0.00     0.029 H 
BRANCH  24  27
ATOM     27  C   LIG d   1       4.152  -6.009  -6.752  0.00  0.00     0.052 C 
ATOM     28  H   LIG d   1       3.663  -6.912  -7.116  0.00  0.00     0.059 H 
BRANCH  27  29
ATOM     29  C   LIG d   1       5.075  -6.363  -5.584  0.00  0.00    -0.039 C 
ATOM     30  H   LIG d   1       5.035  -5.570  -4.837  0.00  0.00     0.025 H 
ATOM     31  H   LIG d   1       4.752  -7.302  -5.137  0.00  0.00     0.025 H 
ATOM     32  H   LIG d   1       6.097  -6.466  -5.949  0.00  0.00     0.025 H 
ENDBRANCH  27  29
BRANCH  27  33
ATOM     33  O   LIG d   1       3.162  -5.077  -6.310  0.00  0.00    -0.392 OA
ATOM     34  H   LIG d   1       2.435  -4.951  -6.936  0.00  0.00     0.210 HD
ENDBRANCH  27  33
ENDBRANCH  24  27
ENDBRANCH  21  24
ENDBRANCH  18  21
ENDBRANCH   1  18
BRANCH   8  35
ATOM     35  O   LIG d   1       2.822   1.502  -4.343  0.00  0.00    -0.506 OA
ATOM     36  H   LIG d   1       2.462   2.121  -3.693  0.00  0.00     0.292 HD
ENDBRANCH   8  35
TORSDOF 7
ENDMDL
MODEL 4
REMARK VINA RESULT:      -5.8      4.782      6.345
REMARK  7 active torsions:
REMARK  status: ('A' for Active; 'I' for Inactive)
REMARK    1  A    between atoms: C_1  and  C_2 
REMARK    2  A    between atoms: C_2  and  C_4 
REMARK    3  A    between atoms: C_2  and  O_20 
REMARK    4  A    between atoms: C_4  and  C_5 
REMARK    5  A    between atoms: C_5  and  C_6 
REMARK    6  A    between atoms: C_6  and  C_7 
REMARK    7  A    between atoms: C_14  and  O_19 
ROOT
ATOM      1  C   LIG d   1       7.608   0.751  -4.680  0.00  0.00     0.107 C 
ATOM      2  H   LIG d   1       7.087   1.082  -5.579  0.00  0.00     0.074 H 
ATOM      3  C   LIG d   1       6.890   1.299  -3.446  0.00  0.00     0.011 C 
ATOM      4  C   LIG d   1       5.560   0.616  -3.272  0.00  0.00    -0.026 A 
ATOM      5  C   LIG d   1       4.569   1.213  -2.522  0.00  0.00    -0.057 A 
ATOM      6  C   LIG d   1       3.344   0.586  -2.357  0.00  0.00    -0.058 A 
ATOM      7  C   LIG d   1       3.101  -0.642  -2.939  0.00  0.00    -0.019 A 
ATOM      8  C   LIG d   1       4.085  -1.259  -3.698  0.00  0.00     0.131 A 
ATOM      9  C   LIG d   1       5.321  -0.625  -3.866  0.00  0.00     0.103 A 
ATOM     10  C   LIG d   1       6.386  -1.255  -4.675  0.00  0.00     0.343 C 
ATOM     11  O   LIG d   1       6.169  -2.241  -5.351  0.00  0.00    -0.245 OA
ATOM     12  O   LIG d   1       7.616  -0.682  -4.631  0.00  0.00    -0.458 OA
ATOM     13  H   LIG d   1       7.506   1.124  -2.563  0.00  0.00     0.035 H 
ATOM     14  H   LIG d   1       6.733   2.371  -3.566  0.00  0.00     0.035 H 
ATOM     15  H   LIG d   1       4.748   2.174  -2.062  0.00  0.00     0.062 H 
ATOM     16  H   LIG d   1       2.575   1.062  -1.768  0.00  0.00     0.062 H 
ATOM     17  H   LIG d   1       2.143  -1.124  -2.802  0.00  0.00     0.065 H 
ENDROOT
BRANCH   1  18
ATOM     18  C   LIG d   1       9.048   1.269  -4.705  0.00  0.00    -0.015 C 
ATOM     19  H   LIG d   1       9.320   1.537  -5.726  0.00  0.00     0.030 H 
ATOM     20  H   LIG d   1       9.720   0.490  -4.343  0.00  0.00     0.030 H 
BRANCH  18  21
ATOM     21  C   LIG d   1       9.162   2.501  -3.806  0.00  0.00    -0.047 C 
ATOM     22  H   LIG d   1       8.342   2.503  -3.086  0.00  0.00     0.027 H 
ATOM     23  H   LIG d   1       9.113   3.403  -4.416  0.00  0.00     0.027 H 
BRANCH  21  24
ATOM     24  C   LIG d   1      10.497   2.464  -3.057  0.00  0.00    -0.027 C 
ATOM     25  H   LIG d   1      11.259   2.019  -3.696  0.00  0.00     0.029 H 
ATOM     26  H   LIG d   1      10.388   1.868  -2.151  0.00  0.00     0.029 H 
BRANCH  24  27
ATOM     27  C   LIG d   1      10.911   3.889  -2.684  0.00  0.00     0.052 C 
ATOM     28  H   LIG d   1      11.816   4.158  -3.229  0.00  0.00     0.059 H 
BRANCH  27  29
ATOM     29  C   LIG d   1       9.786   4.859  -3.051  0.00  0.00    -0.039 C 
ATOM     30  H   LIG d   1       8.839   4.476  -2.673  0.00  0.00     0.025 H 
ATOM     31  H   LIG d   1       9.988   5.834  -2.607  0.00  0.00     0.025 H 
ATOM     32  H   LIG d   1       9.731   4.958  -4.135  0.00  0.00     0.025 H 
ENDBRANCH  27  29
BRANCH  27  33
ATOM     33  O   LIG d   1      11.162   3.959  -1.279  0.00  0.00    -0.392 OA
ATOM     34  H   LIG d   1      12.043   4.288  -1.053  0.00  0.00     0.210 HD
ENDBRANCH  27  33
ENDBRANCH  24  27
ENDBRANCH  21  24
ENDBRANCH  18  21
ENDBRANCH   1  18
BRANCH   8  35
ATOM     35  O   LIG d   1       3.851  -2.466  -4.270  0.00  0.00    -0.506 OA
ATOM     36  H   LIG d   1       3.790  -3.195  -3.638  0.00  0.00     0.292 HD
ENDBRANCH   8  35
TORSDOF 7
ENDMDL
MODEL 5
REMARK VINA RESULT:      -5.7      1.742      6.051
REMARK  7 active torsions:
REMARK  status: ('A' for Active; 'I' for Inactive)
REMARK    1  A    between atoms: C_1  and  C_2 
REMARK    2  A    between atoms: C_2  and  C_4 
REMARK    3  A    between atoms: C_2  and  O_20 
REMARK    4  A    between atoms: C_4  and  C_5 
REMARK    5  A    between atoms: C_5  and  C_6 
REMARK    6  A    between atoms: C_6  and  C_7 
REMARK    7  A    between atoms: C_14  and  O_19 
ROOT
ATOM      1  C   LIG d   1       3.167   0.193  -5.322  0.00  0.00     0.107 C 
ATOM      2  H   LIG d   1       3.814   0.985  -4.944  0.00  0.00     0.074 H 
ATOM      3  C   LIG d   1       2.337   0.728  -6.490  0.00  0.00     0.011 C 
ATOM      4  C   LIG d   1       3.218   0.970  -7.686  0.00  0.00    -0.026 A 
ATOM      5  C   LIG d   1       2.810   1.830  -8.683  0.00  0.00    -0.057 A 
ATOM      6  C   LIG d   1       3.617   2.053  -9.788  0.00  0.00    -0.058 A 
ATOM      7  C   LIG d   1       4.838   1.419  -9.904  0.00  0.00    -0.019 A 
ATOM      8  C   LIG d   1       5.267   0.551  -8.910  0.00  0.00     0.131 A 
ATOM      9  C   LIG d   1       4.453   0.327  -7.794  0.00  0.00     0.103 A 
ATOM     10  C   LIG d   1       4.888  -0.587  -6.717  0.00  0.00     0.343 C 
ATOM     11  O   LIG d   1       6.018  -1.031  -6.679  0.00  0.00    -0.245 OA
ATOM     12  O   LIG d   1       3.969  -0.907  -5.771  0.00  0.00    -0.458 OA
ATOM     13  H   LIG d   1       1.567   0.001  -6.749  0.00  0.00     0.035 H 
ATOM     14  H   LIG d   1       1.861   1.664  -6.196  0.00  0.00     0.035 H 
ATOM     15  H   LIG d   1       1.857   2.332  -8.604  0.00  0.00     0.062 H 
ATOM     16  H   LIG d   1       3.288   2.728 -10.563  0.00  0.00     0.062 H 
ATOM     17  H   LIG d   1       5.459   1.599 -10.770  0.00  0.00     0.065 H 
ENDROOT
BRANCH   1  18
ATOM     18  C   LIG d   1       2.232  -0.278  -4.205  0.00  0.00    -0.015 C 
ATOM     19  H   LIG d   1       1.755  -1.212  -4.502  0.00  0.00     0.030 H 
ATOM     20  H   LIG d   1       1.468   0.480  -4.027  0.00  0.00     0.030 H 
BRANCH  18  21
ATOM     21  C   LIG d   1       3.039  -0.501  -2.925  0.00  0.00    -0.047 C 
ATOM     22  H   LIG d   1       3.858  -1.192  -3.127  0.00  0.00     0.027 H 
ATOM     23  H   LIG d   1       2.391  -0.919  -2.155  0.00  0.00     0.027 H 
BRANCH  21  24
ATOM     24  C   LIG d   1       3.608   0.836  -2.442  0.00  0.00    -0.027 C 
ATOM     25  H   LIG d   1       3.135   1.113  -1.500  0.00  0.00     0.029 H 
ATOM     26  H   LIG d   1       3.411   1.605  -3.188  0.00  0.00     0.029 H 
BRANCH  24  27
ATOM     27  C   LIG d   1       5.118   0.701  -2.235  0.00  0.00     0.052 C 
ATOM     28  H   LIG d   1       5.358   0.877  -1.186  0.00  0.00     0.059 H 
BRANCH  27  29
ATOM     29  C   LIG d   1       5.563  -0.708  -2.631  0.00  0.00    -0.039 C 
ATOM     30  H   LIG d   1       5.572  -1.348  -1.748  0.00  0.00     0.025 H 
ATOM     31  H   LIG d   1       4.871  -1.114  -3.368  0.00  0.00     0.025 H 
ATOM     32  H   LIG d   1       6.565  -0.665  -3.058  0.00  0.00     0.025 H 
ENDBRANCH  27  29
BRANCH  27  33
ATOM     33  O   LIG d   1       5.798   1.662  -3.047  0.00  0.00    -0.392 OA
ATOM     34  H   LIG d   1       5.621   2.580  -2.800  0.00  0.00     0.210 HD
ENDBRANCH  27  33
ENDBRANCH  24  27
ENDBRANCH  21  24
ENDBRANCH  18  21
ENDBRANCH   1  18
BRANCH   8  35
ATOM     35  O   LIG d   1       6.465  -0.076  -9.020  0.00  0.00    -0.506 OA
ATOM     36  H   LIG d   1       7.170   0.331  -8.498  0.00  0.00     0.292 HD
ENDBRANCH   8  35
TORSDOF 7
ENDMDL
MODEL 6
REMARK VINA RESULT:      -5.7      2.086      2.517
REMARK  7 active torsions:
REMARK  status: ('A' for Active; 'I' for Inactive)
REMARK    1  A    between atoms: C_1  and  C_2 
REMARK    2  A    between atoms: C_2  and  C_4 
REMARK    3  A    between atoms: C_2  and  O_20 
REMARK    4  A    between atoms: C_4  and  C_5 
REMARK    5  A    between atoms: C_5  and  C_6 
REMARK    6  A    between atoms: C_6  and  C_7 
REMARK    7  A    between atoms: C_14  and  O_19 
ROOT
ATOM      1  C   LIG d   1       4.246  -1.410  -6.671  0.00  0.00     0.107 C 
ATOM      2  H   LIG d   1       4.248  -2.358  -6.133  0.00  0.00     0.074 H 
ATOM      3  C   LIG d   1       3.330  -0.418  -5.953  0.00  0.00     0.011 C 
ATOM      4  C   LIG d   1       3.943   0.000  -4.642  0.00  0.00    -0.026 A 
ATOM      5  C   LIG d   1       3.150   0.524  -3.644  0.00  0.00    -0.057 A 
ATOM      6  C   LIG d   1       3.710   0.913  -2.438  0.00  0.00    -0.058 A 
ATOM      7  C   LIG d   1       5.068   0.782  -2.220  0.00  0.00    -0.019 A 
ATOM      8  C   LIG d   1       5.883   0.256  -3.212  0.00  0.00     0.131 A 
ATOM      9  C   LIG d   1       5.316  -0.138  -4.430  0.00  0.00     0.103 A 
ATOM     10  C   LIG d   1       6.159  -0.709  -5.502  0.00  0.00     0.343 C 
ATOM     11  O   LIG d   1       7.319  -1.010  -5.304  0.00  0.00    -0.245 OA
ATOM     12  O   LIG d   1       5.578  -0.882  -6.717  0.00  0.00    -0.458 OA
ATOM     13  H   LIG d   1       3.186   0.461  -6.581  0.00  0.00     0.035 H 
ATOM     14  H   LIG d   1       2.364  -0.888  -5.766  0.00  0.00     0.035 H 
ATOM     15  H   LIG d   1       2.087   0.632  -3.802  0.00  0.00     0.062 H 
ATOM     16  H   LIG d   1       3.081   1.322  -1.662  0.00  0.00     0.062 H 
ATOM     17  H   LIG d   1       5.496   1.090  -1.276  0.00  0.00     0.065 H 
ENDROOT
BRANCH   1  18
ATOM     18  C   LIG d   1       3.737  -1.634  -8.097  0.00  0.00    -0.015 C 
ATOM     19  H   LIG d   1       3.124  -2.535  -8.126  0.00  0.00     0.030 H 
ATOM     20  H   LIG d   1       4.586  -1.749  -8.772  0.00  0.00     0.030 H 
BRANCH  18  21
ATOM     21  C   LIG d   1       2.898  -0.431  -8.533  0.00  0.00    -0.047 C 
ATOM     22  H   LIG d   1       2.764   0.245  -7.688  0.00  0.00     0.027 H 
ATOM     23  H   LIG d   1       1.924  -0.774  -8.883  0.00  0.00     0.027 H 
BRANCH  21  24
ATOM     24  C   LIG d   1       3.615   0.307  -9.666  0.00  0.00    -0.027 C 
ATOM     25  H   LIG d   1       2.946   0.397 -10.521  0.00  0.00     0.029 H 
ATOM     26  H   LIG d   1       4.504  -0.252  -9.958  0.00  0.00     0.029 H 
BRANCH  24  27
ATOM     27  C   LIG d   1       4.024   1.701  -9.188  0.00  0.00     0.052 C 
ATOM     28  H   LIG d   1       4.255   2.328 -10.049  0.00  0.00     0.059 H 
BRANCH  27  29
ATOM     29  C   LIG d   1       2.873   2.326  -8.396  0.00  0.00    -0.039 C 
ATOM     30  H   LIG d   1       3.258   2.745  -7.466  0.00  0.00     0.025 H 
ATOM     31  H   LIG d   1       2.411   3.116  -8.987  0.00  0.00     0.025 H 
ATOM     32  H   LIG d   1       2.131   1.560  -8.169  0.00  0.00     0.025 H 
ENDBRANCH  27  29
BRANCH  27  33
ATOM     33  O   LIG d   1       5.178   1.598  -8.350  0.00  0.00    -0.392 OA
ATOM     34  H   LIG d   1       5.167   2.198  -7.592  0.00  0.00     0.210 HD
ENDBRANCH  27  33
ENDBRANCH  24  27
ENDBRANCH  21  24
ENDBRANCH  18  21
ENDBRANCH   1  18
BRANCH   8  35
ATOM     35  O   LIG d   1       7.217   0.126  -3.004  0.00  0.00    -0.506 OA
ATOM     36  H   LIG d   1       7.477  -0.736  -2.652  0.00  0.00     0.292 HD
ENDBRANCH   8  35
TORSDOF 7
ENDMDL
MODEL 7
REMARK VINA RESULT:      -5.6      2.024      5.597
REMARK  7 active torsions:
REMARK  status: ('A' for Active; 'I' for Inactive)
REMARK    1  A    between atoms: C_1  and  C_2 
REMARK    2  A    between atoms: C_2  and  C_4 
REMARK    3  A    between atoms: C_2  and  O_20 
REMARK    4  A    between atoms: C_4  and  C_5 
REMARK    5  A    between atoms: C_5  and  C_6 
REMARK    6  A    between atoms: C_6  and  C_7 
REMARK    7  A    between atoms: C_14  and  O_19 
ROOT
ATOM      1  C   LIG d   1       4.500  -2.081  -4.798  0.00  0.00     0.107 C 
ATOM      2  H   LIG d   1       4.144  -2.777  -5.557  0.00  0.00     0.074 H 
ATOM      3  C   LIG d   1       5.989  -1.811  -5.013  0.00  0.00     0.011 C 
ATOM      4  C   LIG d   1       6.195  -0.998  -6.263  0.00  0.00    -0.026 A 
ATOM      5  C   LIG d   1       7.422  -0.995  -6.892  0.00  0.00    -0.057 A 
ATOM      6  C   LIG d   1       7.617  -0.246  -8.041  0.00  0.00    -0.058 A 
ATOM      7  C   LIG d   1       6.587   0.507  -8.571  0.00  0.00    -0.019 A 
ATOM      8  C   LIG d   1       5.345   0.516  -7.953  0.00  0.00     0.131 A 
ATOM      9  C   LIG d   1       5.147  -0.241  -6.793  0.00  0.00     0.103 A 
ATOM     10  C   LIG d   1       3.833  -0.256  -6.118  0.00  0.00     0.343 C 
ATOM     11  O   LIG d   1       2.850   0.240  -6.633  0.00  0.00    -0.245 OA
ATOM     12  O   LIG d   1       3.772  -0.850  -4.899  0.00  0.00    -0.458 OA
ATOM     13  H   LIG d   1       6.384  -1.263  -4.156  0.00  0.00     0.035 H 
ATOM     14  H   LIG d   1       6.519  -2.759  -5.107  0.00  0.00     0.035 H 
ATOM     15  H   LIG d   1       8.235  -1.579  -6.487  0.00  0.00     0.062 H 
ATOM     16  H   LIG d   1       8.581  -0.250  -8.526  0.00  0.00     0.062 H 
ATOM     17  H   LIG d   1       6.749   1.089  -9.467  0.00  0.00     0.065 H 
ENDROOT
BRANCH   1  18
ATOM     18  C   LIG d   1       4.286  -2.688  -3.409  0.00  0.00    -0.015 C 
ATOM     19  H   LIG d   1       5.252  -2.943  -2.972  0.00  0.00     0.030 H 
ATOM     20  H   LIG d   1       3.677  -3.588  -3.496  0.00  0.00     0.030 H 
BRANCH  18  21
ATOM     21  C   LIG d   1       3.573  -1.673  -2.514  0.00  0.00    -0.047 C 
ATOM     22  H   LIG d   1       2.846  -2.189  -1.885  0.00  0.00     0.027 H 
ATOM     23  H   LIG d   1       3.060  -0.938  -3.134  0.00  0.00     0.027 H 
BRANCH  21  24
ATOM     24  C   LIG d   1       4.600  -0.964  -1.628  0.00  0.00    -0.027 C 
ATOM     25  H   LIG d   1       5.605  -1.261  -1.928  0.00  0.00     0.029 H 
ATOM     26  H   LIG d   1       4.435  -1.242  -0.587  0.00  0.00     0.029 H 
BRANCH  24  27
ATOM     27  C   LIG d   1       4.447   0.550  -1.781  0.00  0.00     0.052 C 
ATOM     28  H   LIG d   1       4.542   1.026  -0.806  0.00  0.00     0.059 H 
BRANCH  27  29
ATOM     29  C   LIG d   1       5.536   1.080  -2.716  0.00  0.00    -0.039 C 
ATOM     30  H   LIG d   1       6.296   1.600  -2.131  0.00  0.00     0.025 H 
ATOM     31  H   LIG d   1       5.994   0.248  -3.250  0.00  0.00     0.025 H 
ATOM     32  H   LIG d   1       5.094   1.772  -3.433  0.00  0.00     0.025 H 
ENDBRANCH  27  29
BRANCH  27  33
ATOM     33  O   LIG d   1       3.161   0.846  -2.332  0.00  0.00    -0.392 OA
ATOM     34  H   LIG d   1       3.122   1.687  -2.807  0.00  0.00     0.210 HD
ENDBRANCH  27  33
ENDBRANCH  24  27
ENDBRANCH  21  24
ENDBRANCH  18  21
ENDBRANCH   1  18
BRANCH   8  35
ATOM     35  O   LIG d   1       4.330   1.255  -8.468  0.00  0.00    -0.506 OA
ATOM     36  H   LIG d   1       3.644   0.730  -8.903  0.00  0.00     0.292 HD
ENDBRANCH   8  35
TORSDOF 7
ENDMDL
MODEL 8
REMARK VINA RESULT:      -5.4      4.215      6.010
REMARK  7 active torsions:
REMARK  status: ('A' for Active; 'I' for Inactive)
REMARK    1  A    between atoms: C_1  and  C_2 
REMARK    2  A    between atoms: C_2  and  C_4 
REMARK    3  A    between atoms: C_2  and  O_20 
REMARK    4  A    between atoms: C_4  and  C_5 
REMARK    5  A    between atoms: C_5  and  C_6 
REMARK    6  A    between atoms: C_6  and  C_7 
REMARK    7  A    between atoms: C_14  and  O_19 
ROOT
ATOM      1  C   LIG d   1       6.346  -3.036  -4.307  0.00  0.00     0.107 C 
ATOM      2  H   LIG d   1       6.713  -3.180  -3.290  0.00  0.00     0.074 H 
ATOM      3  C   LIG d   1       4.827  -2.857  -4.278  0.00  0.00     0.011 C 
ATOM      4  C   LIG d   1       4.471  -1.532  -3.657  0.00  0.00    -0.026 A 
ATOM      5  C   LIG d   1       3.212  -1.330  -3.134  0.00  0.00    -0.057 A 
ATOM      6  C   LIG d   1       2.879  -0.112  -2.564  0.00  0.00    -0.058 A 
ATOM      7  C   LIG d   1       3.802   0.914  -2.512  0.00  0.00    -0.019 A 
ATOM      8  C   LIG d   1       5.075   0.730  -3.032  0.00  0.00     0.131 A 
ATOM      9  C   LIG d   1       5.412  -0.501  -3.607  0.00  0.00     0.103 A 
ATOM     10  C   LIG d   1       6.763  -0.729  -4.162  0.00  0.00     0.343 C 
ATOM     11  O   LIG d   1       7.663   0.068  -3.986  0.00  0.00    -0.245 OA
ATOM     12  O   LIG d   1       6.953  -1.868  -4.875  0.00  0.00    -0.458 OA
ATOM     13  H   LIG d   1       4.440  -2.894  -5.297  0.00  0.00     0.035 H 
ATOM     14  H   LIG d   1       4.379  -3.662  -3.695  0.00  0.00     0.035 H 
ATOM     15  H   LIG d   1       2.481  -2.125  -3.169  0.00  0.00     0.062 H 
ATOM     16  H   LIG d   1       1.890   0.037  -2.157  0.00  0.00     0.062 H 
ATOM     17  H   LIG d   1       3.533   1.861  -2.067  0.00  0.00     0.065 H 
ENDROOT
BRANCH   1  18
ATOM     18  C   LIG d   1       6.699  -4.260  -5.155  0.00  0.00    -0.015 C 
ATOM     19  H   LIG d   1       6.202  -4.186  -6.122  0.00  0.00     0.030 H 
ATOM     20  H   LIG d   1       6.368  -5.164  -4.643  0.00  0.00     0.030 H 
BRANCH  18  21
ATOM     21  C   LIG d   1       8.214  -4.315  -5.362  0.00  0.00    -0.047 C 
ATOM     22  H   LIG d   1       8.605  -3.302  -5.461  0.00  0.00     0.027 H 
ATOM     23  H   LIG d   1       8.437  -4.881  -6.267  0.00  0.00     0.027 H 
BRANCH  21  24
ATOM     24  C   LIG d   1       8.868  -4.999  -4.159  0.00  0.00    -0.027 C 
ATOM     25  H   LIG d   1       9.543  -5.781  -4.509  0.00  0.00     0.029 H 
ATOM     26  H   LIG d   1       8.096  -5.441  -3.529  0.00  0.00     0.029 H 
BRANCH  24  27
ATOM     27  C   LIG d   1       9.657  -3.966  -3.353  0.00  0.00     0.052 C 
ATOM     28  H   LIG d   1       9.146  -3.774  -2.409  0.00  0.00     0.059 H 
BRANCH  27  29
ATOM     29  C   LIG d   1      11.062  -4.504  -3.072  0.00  0.00    -0.039 C 
ATOM     30  H   LIG d   1      11.424  -4.097  -2.127  0.00  0.00     0.025 H 
ATOM     31  H   LIG d   1      11.029  -5.591  -3.010  0.00  0.00     0.025 H 
ATOM     32  H   LIG d   1      11.732  -4.205  -3.877  0.00  0.00     0.025 H 
ENDBRANCH  27  29
BRANCH  27  33
ATOM     33  O   LIG d   1       9.753  -2.751  -4.099  0.00  0.00    -0.392 OA
ATOM     34  H   LIG d   1      10.416  -2.134  -3.761  0.00  0.00     0.210 HD
ENDBRANCH  27  33
ENDBRANCH  24  27
ENDBRANCH  21  24
ENDBRANCH  18  21
ENDBRANCH   1  18
BRANCH   8  35
ATOM     35  O   LIG d   1       5.985   1.734  -2.985  0.00  0.00    -0.506 OA
ATOM     36  H   LIG d   1       6.756   1.541  -2.434  0.00  0.00     0.292 HD
ENDBRANCH   8  35
TORSDOF 7
ENDMDL
MODEL 9
REMARK VINA RESULT:      -5.4      9.794     11.169
REMARK  7 active torsions:
REMARK  status: ('A' for Active; 'I' for Inactive)
REMARK    1  A    between atoms: C_1  and  C_2 
REMARK    2  A    between atoms: C_2  and  C_4 
REMARK    3  A    between atoms: C_2  and  O_20 
REMARK    4  A    between atoms: C_4  and  C_5 
REMARK    5  A    between atoms: C_5  and  C_6 
REMARK    6  A    between atoms: C_6  and  C_7 
REMARK    7  A    between atoms: C_14  and  O_19 
ROOT
ATOM      1  C   LIG d   1      10.822   8.034  -1.556  0.00  0.00     0.107 C 
ATOM      2  H   LIG d   1      11.823   7.960  -1.982  0.00  0.00     0.074 H 
ATOM      3  C   LIG d   1       9.784   7.780  -2.650  0.00  0.00     0.011 C 
ATOM      4  C   LIG d   1       9.810   6.334  -3.068  0.00  0.00    -0.026 A 
ATOM      5  C   LIG d   1       9.301   5.958  -4.292  0.00  0.00    -0.057 A 
ATOM      6  C   LIG d   1       9.321   4.628  -4.679  0.00  0.00    -0.058 A 
ATOM      7  C   LIG d   1       9.850   3.663  -3.845  0.00  0.00    -0.019 A 
ATOM      8  C   LIG d   1      10.368   4.021  -2.609  0.00  0.00     0.131 A 
ATOM      9  C   LIG d   1      10.349   5.365  -2.219  0.00  0.00     0.103 A 
ATOM     10  C   LIG d   1      10.901   5.776  -0.910  0.00  0.00     0.343 C 
ATOM     11  O   LIG d   1      11.534   5.004  -0.218  0.00  0.00    -0.245 OA
ATOM     12  O   LIG d   1      10.671   7.056  -0.519  0.00  0.00    -0.458 OA
ATOM     13  H   LIG d   1       8.792   8.029  -2.271  0.00  0.00     0.035 H 
ATOM     14  H   LIG d   1      10.006   8.410  -3.512  0.00  0.00     0.035 H 
ATOM     15  H   LIG d   1       8.885   6.704  -4.953  0.00  0.00     0.062 H 
ATOM     16  H   LIG d   1       8.920   4.344  -5.640  0.00  0.00     0.062 H 
ATOM     17  H   LIG d   1       9.859   2.627  -4.155  0.00  0.00     0.065 H 
ENDROOT
BRANCH   1  18
ATOM     18  C   LIG d   1      10.617   9.433  -0.972  0.00  0.00    -0.015 C 
ATOM     19  H   LIG d   1      11.472  10.061  -1.223  0.00  0.00     0.030 H 
ATOM     20  H   LIG d   1      10.523   9.364   0.113  0.00  0.00     0.030 H 
BRANCH  18  21
ATOM     21  C   LIG d   1       9.343  10.047  -1.556  0.00  0.00    -0.047 C 
ATOM     22  H   LIG d   1       8.578  10.104  -0.781  0.00  0.00     0.027 H 
ATOM     23  H   LIG d   1       8.984   9.427  -2.377  0.00  0.00     0.027 H 
BRANCH  21  24
ATOM     24  C   LIG d   1       9.648  11.455  -2.075  0.00  0.00    -0.027 C 
ATOM     25  H   LIG d   1      10.682  11.500  -2.416  0.00  0.00     0.029 H 
ATOM     26  H   LIG d   1       9.497  12.178  -1.274  0.00  0.00     0.029 H 
BRANCH  24  27
ATOM     27  C   LIG d   1       8.711  11.781  -3.241  0.00  0.00     0.052 C 
ATOM     28  H   LIG d   1       8.753  12.849  -3.452  0.00  0.00     0.059 H 
BRANCH  27  29
ATOM     29  C   LIG d   1       9.148  10.997  -4.480  0.00  0.00    -0.039 C 
ATOM     30  H   LIG d   1      10.231  11.066  -4.590  0.00  0.00     0.025 H 
ATOM     31  H   LIG d   1       8.859   9.952  -4.370  0.00  0.00     0.025 H 
ATOM     32  H   LIG d   1       8.667  11.417  -5.363  0.00  0.00     0.025 H 
ENDBRANCH  27  29
BRANCH  27  33
ATOM     33  O   LIG d   1       7.374  11.416  -2.893  0.00  0.00    -0.392 OA
ATOM     34  H   LIG d   1       7.057  11.820  -2.073  0.00  0.00     0.210 HD
ENDBRANCH  27  33
ENDBRANCH  24  27
ENDBRANCH  21  24
ENDBRANCH  18  21
ENDBRANCH   1  18
BRANCH   8  35
ATOM     35  O   LIG d   1      10.887   3.077  -1.785  0.00  0.00    -0.506 OA
ATOM     36  H   LIG d   1      11.615   3.394  -1.234  0.00  0.00     0.292 HD
ENDBRANCH   8  35
TORSDOF 7
ENDMDL
