MODEL 1
REMARK VINA RESULT:      -7.8      0.000      0.000
REMARK  6 active torsions:
REMARK  status: ('A' for Active; 'I' for Inactive)
REMARK    1  A    between atoms: C_1  and  C_2 
REMARK    2  A    between atoms: C_19  and  C_21 
REMARK    3  A    between atoms: C_21  and  N_22 
REMARK    4  A    between atoms: N_25  and  C_28 
REMARK    5  A    between atoms: C_28  and  C_30 
REMARK    6  A    between atoms: C_28  and  C_36 
ROOT
ATOM      1  N   LIG d   1       9.019   2.137  -4.782  0.00  0.00    -0.292 N 
ATOM      2  C   LIG d   1       7.964   1.925  -3.781  0.00  0.00     0.039 C 
ATOM      3  C   LIG d   1       7.055   0.781  -4.237  0.00  0.00    -0.018 C 
ATOM      4  N   LIG d   1       7.858  -0.437  -4.419  0.00  0.00     0.246 N 
ATOM      5  C   LIG d   1       8.912  -0.225  -5.419  0.00  0.00    -0.018 C 
ATOM      6  C   LIG d   1       9.822   0.919  -4.964  0.00  0.00     0.039 C 
ATOM      7  H   LIG d   1       8.423   1.667  -2.815  0.00  0.00     0.048 H 
ATOM      8  H   LIG d   1       7.372   2.845  -3.672  0.00  0.00     0.048 H 
ATOM      9  H   LIG d   1       6.282   0.601  -3.475  0.00  0.00     0.083 H 
ATOM     10  H   LIG d   1       6.575   1.051  -5.189  0.00  0.00     0.083 H 
ATOM     11  H   LIG d   1       9.505  -1.145  -5.528  0.00  0.00     0.083 H 
ATOM     12  H   LIG d   1       8.454   0.032  -6.386  0.00  0.00     0.083 H 
ATOM     13  H   LIG d   1      10.594   1.099  -5.726  0.00  0.00     0.048 H 
ATOM     14  H   LIG d   1      10.301   0.651  -4.011  0.00  0.00     0.048 H 
ATOM     15  H   LIG d   1       8.342  -0.671  -3.459  0.00  0.00     0.204 HD
ENDROOT
BRANCH   1  16
ATOM     16  C   LIG d   1       9.869   3.278  -4.417  0.00  0.00     0.013 C 
ATOM     17  H   LIG d   1      10.927   2.977  -4.465  0.00  0.00     0.043 H 
ATOM     18  H   LIG d   1       9.626   3.604  -3.396  0.00  0.00     0.043 H 
BRANCH  16  19
ATOM     19  C   LIG d   1       9.622   4.430  -5.393  0.00  0.00     0.075 C 
ATOM     20  C   LIG d   1       9.223   5.723  -4.620  0.00  0.00     0.011 C 
ATOM     21  C   LIG d   1       9.800   5.580  -3.210  0.00  0.00    -0.039 C 
ATOM     22  H   LIG d   1       8.154   5.959  -4.510  0.00  0.00     0.035 H 
ATOM     23  C   LIG d   1      10.006   6.768  -5.437  0.00  0.00     0.107 C 
ATOM     24  C   LIG d   1       9.882   6.942  -2.524  0.00  0.00    -0.014 C 
ATOM     25  H   LIG d   1      10.807   5.144  -3.278  0.00  0.00     0.028 H 
ATOM     26  H   LIG d   1       9.150   4.914  -2.624  0.00  0.00     0.028 H 
ATOM     27  C   LIG d   1      10.854   7.820  -3.325  0.00  0.00    -0.022 C 
ATOM     28  C   LIG d   1      10.427   6.785  -1.124  0.00  0.00    -0.073 C 
ATOM     29  H   LIG d   1       8.879   7.387  -2.464  0.00  0.00     0.035 H 
ATOM     30  C   LIG d   1      10.237   8.066  -4.701  0.00  0.00    -0.009 C 
ATOM     31  C   LIG d   1      11.055   9.145  -2.591  0.00  0.00    -0.047 C 
ATOM     32  H   LIG d   1       9.271   8.578  -4.584  0.00  0.00     0.031 H 
ATOM     33  H   LIG d   1      10.915   8.693  -5.300  0.00  0.00     0.031 H 
ATOM     34  C   LIG d   1      11.727   8.891  -1.236  0.00  0.00    -0.049 C 
ATOM     35  H   LIG d   1      11.693   9.806  -3.195  0.00  0.00     0.027 H 
ATOM     36  H   LIG d   1      10.079   9.626  -2.429  0.00  0.00     0.027 H 
ATOM     37  C   LIG d   1      10.802   8.038  -0.362  0.00  0.00    -0.032 C 
ATOM     38  H   LIG d   1      12.677   8.360  -1.392  0.00  0.00     0.027 H 
ATOM     39  H   LIG d   1      11.920   9.851  -0.737  0.00  0.00     0.027 H 
ATOM     40  H   LIG d   1      11.325   7.766   0.568  0.00  0.00     0.031 H 
ATOM     41  H   LIG d   1       9.895   8.610  -0.118  0.00  0.00     0.031 H 
ATOM     42  C   LIG d   1      10.572   5.599  -0.585  0.00  0.00    -0.099 C 
ATOM     43  H   LIG d   1      10.295   4.700  -1.154  0.00  0.00     0.053 H 
ATOM     44  H   LIG d   1      10.971   5.504   0.435  0.00  0.00     0.053 H 
ATOM     45  H   LIG d   1       9.492   7.100  -6.351  0.00  0.00     0.074 H 
ATOM     46  O   LIG d   1      11.241   6.076  -5.781  0.00  0.00    -0.461 OA
ATOM     47  C   LIG d   1      10.908   4.807  -6.106  0.00  0.00     0.312 C 
ATOM     48  O   LIG d   1      11.534   4.086  -6.847  0.00  0.00    -0.251 OA
ATOM     49  H   LIG d   1       8.853   4.079  -6.096  0.00  0.00     0.043 H 
BRANCH  27  50
ATOM     50  C   LIG d   1      12.198   7.103  -3.469  0.00  0.00    -0.059 C 
ATOM     51  H   LIG d   1      12.117   6.323  -4.239  0.00  0.00     0.024 H 
ATOM     52  H   LIG d   1      12.472   6.642  -2.508  0.00  0.00     0.024 H 
ATOM     53  H   LIG d   1      12.971   7.828  -3.761  0.00  0.00     0.024 H 
ENDBRANCH  27  50
ENDBRANCH  16  19
ENDBRANCH   1  16
BRANCH   4  54
ATOM     54  C   LIG d   1       7.007  -1.578  -4.783  0.00  0.00     0.031 C 
ATOM     55  H   LIG d   1       6.832  -1.541  -5.868  0.00  0.00     0.096 H 
BRANCH  54  56
ATOM     56  C   LIG d   1       5.698  -1.486  -4.042  0.00  0.00     0.005 A 
ATOM     57  C   LIG d   1       4.534  -1.197  -4.730  0.00  0.00    -0.053 A 
ATOM     58  C   LIG d   1       3.333  -1.112  -4.050  0.00  0.00    -0.061 A 
ATOM     59  H   LIG d   1       4.563  -1.036  -5.797  0.00  0.00     0.062 H 
ATOM     60  C   LIG d   1       3.296  -1.317  -2.683  0.00  0.00    -0.062 A 
ATOM     61  H   LIG d   1       2.424  -0.886  -4.587  0.00  0.00     0.062 H 
ATOM     62  C   LIG d   1       4.460  -1.607  -1.997  0.00  0.00    -0.061 A 
ATOM     63  H   LIG d   1       2.358  -1.251  -2.153  0.00  0.00     0.062 H 
ATOM     64  C   LIG d   1       5.660  -1.697  -2.676  0.00  0.00    -0.053 A 
ATOM     65  H   LIG d   1       4.432  -1.767  -0.929  0.00  0.00     0.062 H 
ATOM     66  H   LIG d   1       6.569  -1.927  -2.140  0.00  0.00     0.062 H 
ENDBRANCH  54  56
BRANCH  54  67
ATOM     67  C   LIG d   1       7.705  -2.862  -4.413  0.00  0.00     0.005 A 
ATOM     68  C   LIG d   1       8.596  -2.884  -3.355  0.00  0.00    -0.051 A 
ATOM     69  C   LIG d   1       9.236  -4.060  -3.016  0.00  0.00    -0.043 A 
ATOM     70  H   LIG d   1       8.790  -1.981  -2.794  0.00  0.00     0.062 H 
ATOM     71  C   LIG d   1       8.987  -5.216  -3.734  0.00  0.00     0.041 A 
ATOM     72  H   LIG d   1       9.932  -4.077  -2.190  0.00  0.00     0.063 H 
ATOM     73  C   LIG d   1       8.096  -5.193  -4.794  0.00  0.00    -0.043 A 
ATOM     74 CL   LIG d   1       9.793  -6.693  -3.310  0.00  0.00    -0.084 Cl
ATOM     75  C   LIG d   1       7.452  -4.016  -5.128  0.00  0.00    -0.051 A 
ATOM     76  H   LIG d   1       7.902  -6.095  -5.355  0.00  0.00     0.063 H 
ATOM     77  H   LIG d   1       6.753  -4.000  -5.951  0.00  0.00     0.062 H 
ENDBRANCH  54  67
ENDBRANCH   4  54
TORSDOF 6
ENDMDL
MODEL 2
REMARK VINA RESULT:      -7.5      3.770      9.945
REMARK  6 active torsions:
REMARK  status: ('A' for Active; 'I' for Inactive)
REMARK    1  A    between atoms: C_1  and  C_2 
REMARK    2  A    between atoms: C_19  and  C_21 
REMARK    3  A    between atoms: C_21  and  N_22 
REMARK    4  A    between atoms: N_25  and  C_28 
REMARK    5  A    between atoms: C_28  and  C_30 
REMARK    6  A    between atoms: C_28  and  C_36 
ROOT
ATOM      1  N   LIG d   1       9.316   2.834  -5.423  0.00  0.00    -0.292 N 
ATOM      2  C   LIG d   1       8.979   3.382  -4.103  0.00  0.00     0.039 C 
ATOM      3  C   LIG d   1      10.141   4.241  -3.599  0.00  0.00    -0.018 C 
ATOM      4  N   LIG d   1      10.405   5.319  -4.562  0.00  0.00     0.246 N 
ATOM      5  C   LIG d   1      10.743   4.770  -5.882  0.00  0.00    -0.018 C 
ATOM      6  C   LIG d   1       9.580   3.912  -6.387  0.00  0.00     0.039 C 
ATOM      7  H   LIG d   1       8.073   4.001  -4.184  0.00  0.00     0.048 H 
ATOM      8  H   LIG d   1       8.797   2.558  -3.398  0.00  0.00     0.048 H 
ATOM      9  H   LIG d   1       9.879   4.677  -2.622  0.00  0.00     0.083 H 
ATOM     10  H   LIG d   1      11.039   3.616  -3.490  0.00  0.00     0.083 H 
ATOM     11  H   LIG d   1      10.923   5.595  -6.587  0.00  0.00     0.083 H 
ATOM     12  H   LIG d   1      11.649   4.152  -5.802  0.00  0.00     0.083 H 
ATOM     13  H   LIG d   1       9.842   3.475  -7.362  0.00  0.00     0.048 H 
ATOM     14  H   LIG d   1       8.681   4.535  -6.494  0.00  0.00     0.048 H 
ATOM     15  H   LIG d   1       9.485   5.914  -4.666  0.00  0.00     0.204 HD
ENDROOT
BRANCH   1  16
ATOM     16  C   LIG d   1       8.255   1.941  -5.909  0.00  0.00     0.013 C 
ATOM     17  H   LIG d   1       7.946   2.254  -6.918  0.00  0.00     0.043 H 
ATOM     18  H   LIG d   1       7.393   1.993  -5.228  0.00  0.00     0.043 H 
BRANCH  16  19
ATOM     19  C   LIG d   1       8.780   0.505  -5.959  0.00  0.00     0.075 C 
ATOM     20  C   LIG d   1       8.352  -0.277  -4.681  0.00  0.00     0.011 C 
ATOM     21  C   LIG d   1       7.096   0.417  -4.149  0.00  0.00    -0.039 C 
ATOM     22  H   LIG d   1       9.064  -0.345  -3.845  0.00  0.00     0.035 H 
ATOM     23  C   LIG d   1       8.008  -1.639  -5.312  0.00  0.00     0.107 C 
ATOM     24  C   LIG d   1       6.332  -0.507  -3.205  0.00  0.00    -0.014 C 
ATOM     25  H   LIG d   1       6.451   0.688  -4.998  0.00  0.00     0.028 H 
ATOM     26  H   LIG d   1       7.394   1.328  -3.609  0.00  0.00     0.028 H 
ATOM     27  C   LIG d   1       5.868  -1.730  -4.008  0.00  0.00    -0.022 C 
ATOM     28  C   LIG d   1       5.110   0.198  -2.665  0.00  0.00    -0.073 C 
ATOM     29  H   LIG d   1       6.978  -0.790  -2.361  0.00  0.00     0.035 H 
ATOM     30  C   LIG d   1       7.112  -2.499  -4.452  0.00  0.00    -0.009 C 
ATOM     31  C   LIG d   1       4.992  -2.612  -3.120  0.00  0.00    -0.047 C 
ATOM     32  H   LIG d   1       7.681  -2.819  -3.566  0.00  0.00     0.031 H 
ATOM     33  H   LIG d   1       6.810  -3.382  -5.033  0.00  0.00     0.031 H 
ATOM     34  C   LIG d   1       3.719  -1.851  -2.728  0.00  0.00    -0.049 C 
ATOM     35  H   LIG d   1       4.715  -3.525  -3.667  0.00  0.00     0.027 H 
ATOM     36  H   LIG d   1       5.548  -2.884  -2.210  0.00  0.00     0.027 H 
ATOM     37  C   LIG d   1       4.097  -0.622  -1.895  0.00  0.00    -0.032 C 
ATOM     38  H   LIG d   1       3.190  -1.529  -3.637  0.00  0.00     0.027 H 
ATOM     39  H   LIG d   1       3.066  -2.508  -2.136  0.00  0.00     0.027 H 
ATOM     40  H   LIG d   1       3.198  -0.018  -1.703  0.00  0.00     0.031 H 
ATOM     41  H   LIG d   1       4.532  -0.946  -0.937  0.00  0.00     0.031 H 
ATOM     42  C   LIG d   1       4.932   1.482  -2.857  0.00  0.00    -0.099 C 
ATOM     43  H   LIG d   1       5.678   2.061  -3.420  0.00  0.00     0.053 H 
ATOM     44  H   LIG d   1       4.036   1.979  -2.458  0.00  0.00     0.053 H 
ATOM     45  H   LIG d   1       8.879  -2.291  -5.474  0.00  0.00     0.074 H 
ATOM     46  O   LIG d   1       7.406  -1.281  -6.589  0.00  0.00    -0.461 OA
ATOM     47  C   LIG d   1       8.129  -0.259  -7.097  0.00  0.00     0.312 C 
ATOM     48  O   LIG d   1       8.240   0.005  -8.271  0.00  0.00    -0.251 OA
ATOM     49  H   LIG d   1       9.870   0.580  -6.089  0.00  0.00     0.043 H 
BRANCH  27  50
ATOM     50  C   LIG d   1       5.067  -1.272  -5.228  0.00  0.00    -0.059 C 
ATOM     51  H   LIG d   1       4.821  -2.143  -5.853  0.00  0.00     0.024 H 
ATOM     52  H   LIG d   1       5.666  -0.559  -5.813  0.00  0.00     0.024 H 
ATOM     53  H   LIG d   1       4.139  -0.786  -4.896  0.00  0.00     0.024 H 
ENDBRANCH  27  50
ENDBRANCH  16  19
ENDBRANCH   1  16
BRANCH   4  54
ATOM     54  C   LIG d   1      11.466   6.212  -4.075  0.00  0.00     0.031 C 
ATOM     55  H   LIG d   1      12.420   5.879  -4.511  0.00  0.00     0.096 H 
BRANCH  54  56
ATOM     56  C   LIG d   1      11.530   6.143  -2.572  0.00  0.00     0.005 A 
ATOM     57  C   LIG d   1      12.653   5.630  -1.950  0.00  0.00    -0.053 A 
ATOM     58  C   LIG d   1      12.712   5.567  -0.571  0.00  0.00    -0.061 A 
ATOM     59  H   LIG d   1      13.484   5.277  -2.543  0.00  0.00     0.062 H 
ATOM     60  C   LIG d   1      11.647   6.018   0.188  0.00  0.00    -0.062 A 
ATOM     61  H   LIG d   1      13.589   5.166  -0.085  0.00  0.00     0.062 H 
ATOM     62  C   LIG d   1      10.525   6.532  -0.433  0.00  0.00    -0.061 A 
ATOM     63  H   LIG d   1      11.694   5.969   1.266  0.00  0.00     0.062 H 
ATOM     64  C   LIG d   1      10.468   6.599  -1.812  0.00  0.00    -0.053 A 
ATOM     65  H   LIG d   1       9.693   6.884   0.159  0.00  0.00     0.062 H 
ATOM     66  H   LIG d   1       9.592   7.004  -2.298  0.00  0.00     0.062 H 
ENDBRANCH  54  56
BRANCH  54  67
ATOM     67  C   LIG d   1      11.166   7.626  -4.502  0.00  0.00     0.005 A 
ATOM     68  C   LIG d   1       9.903   7.955  -4.961  0.00  0.00    -0.051 A 
ATOM     69  C   LIG d   1       9.628   9.252  -5.353  0.00  0.00    -0.043 A 
ATOM     70  H   LIG d   1       9.133   7.200  -5.013  0.00  0.00     0.062 H 
ATOM     71  C   LIG d   1      10.614  10.219  -5.287  0.00  0.00     0.041 A 
ATOM     72  H   LIG d   1       8.642   9.509  -5.713  0.00  0.00     0.063 H 
ATOM     73  C   LIG d   1      11.878   9.888  -4.828  0.00  0.00    -0.043 A 
ATOM     74 CL   LIG d   1      10.269  11.847  -5.782  0.00  0.00    -0.084 Cl
ATOM     75  C   LIG d   1      12.151   8.592  -4.431  0.00  0.00    -0.051 A 
ATOM     76  H   LIG d   1      12.649  10.643  -4.777  0.00  0.00     0.063 H 
ATOM     77  H   LIG d   1      13.135   8.336  -4.068  0.00  0.00     0.062 H 
ENDBRANCH  54  67
ENDBRANCH   4  54
TORSDOF 6
ENDMDL
MODEL 3
REMARK VINA RESULT:      -7.4      3.716     10.230
REMARK  6 active torsions:
REMARK  status: ('A' for Active; 'I' for Inactive)
REMARK    1  A    between atoms: C_1  and  C_2 
REMARK    2  A    between atoms: C_19  and  C_21 
REMARK    3  A    between atoms: C_21  and  N_22 
REMARK    4  A    between atoms: N_25  and  C_28 
REMARK    5  A    between atoms: C_28  and  C_30 
REMARK    6  A    between atoms: C_28  and  C_36 
ROOT
ATOM      1  N   LIG d   1       9.393   3.667  -4.437  0.00  0.00    -0.292 N 
ATOM      2  C   LIG d   1       9.987   3.580  -3.095  0.00  0.00     0.039 C 
ATOM      3  C   LIG d   1      11.186   4.529  -3.009  0.00  0.00    -0.018 C 
ATOM      4  N   LIG d   1      10.744   5.900  -3.299  0.00  0.00     0.246 N 
ATOM      5  C   LIG d   1      10.151   5.987  -4.639  0.00  0.00    -0.018 C 
ATOM      6  C   LIG d   1       8.952   5.039  -4.726  0.00  0.00     0.039 C 
ATOM      7  H   LIG d   1       9.237   3.867  -2.343  0.00  0.00     0.048 H 
ATOM      8  H   LIG d   1      10.320   2.549  -2.907  0.00  0.00     0.048 H 
ATOM      9  H   LIG d   1      11.615   4.486  -1.996  0.00  0.00     0.083 H 
ATOM     10  H   LIG d   1      11.948   4.224  -3.742  0.00  0.00     0.083 H 
ATOM     11  H   LIG d   1       9.818   7.018  -4.828  0.00  0.00     0.083 H 
ATOM     12  H   LIG d   1      10.901   5.701  -5.392  0.00  0.00     0.083 H 
ATOM     13  H   LIG d   1       8.523   5.080  -5.739  0.00  0.00     0.048 H 
ATOM     14  H   LIG d   1       8.190   5.341  -3.993  0.00  0.00     0.048 H 
ATOM     15  H   LIG d   1       9.969   6.169  -2.565  0.00  0.00     0.204 HD
ENDROOT
BRANCH   1  16
ATOM     16  C   LIG d   1       8.285   2.715  -4.584  0.00  0.00     0.013 C 
ATOM     17  H   LIG d   1       7.497   3.163  -5.207  0.00  0.00     0.043 H 
ATOM     18  H   LIG d   1       7.875   2.473  -3.592  0.00  0.00     0.043 H 
BRANCH  16  19
ATOM     19  C   LIG d   1       8.796   1.436  -5.250  0.00  0.00     0.075 C 
ATOM     20  C   LIG d   1       8.374   0.184  -4.424  0.00  0.00     0.011 C 
ATOM     21  C   LIG d   1       7.131   0.589  -3.628  0.00  0.00    -0.039 C 
ATOM     22  H   LIG d   1       9.095  -0.237  -3.706  0.00  0.00     0.035 H 
ATOM     23  C   LIG d   1       8.011  -0.776  -5.571  0.00  0.00     0.107 C 
ATOM     24  C   LIG d   1       6.369  -0.648  -3.159  0.00  0.00    -0.014 C 
ATOM     25  H   LIG d   1       6.479   1.199  -4.270  0.00  0.00     0.028 H 
ATOM     26  H   LIG d   1       7.443   1.180  -2.754  0.00  0.00     0.028 H 
ATOM     27  C   LIG d   1       5.885  -1.409  -4.402  0.00  0.00    -0.022 C 
ATOM     28  C   LIG d   1       5.159  -0.237  -2.353  0.00  0.00    -0.073 C 
ATOM     29  H   LIG d   1       7.021  -1.267  -2.526  0.00  0.00     0.035 H 
ATOM     30  C   LIG d   1       7.117  -1.918  -5.149  0.00  0.00    -0.009 C 
ATOM     31  C   LIG d   1       5.010  -2.583  -3.964  0.00  0.00    -0.047 C 
ATOM     32  H   LIG d   1       7.692  -2.588  -4.493  0.00  0.00     0.031 H 
ATOM     33  H   LIG d   1       6.800  -2.466  -6.048  0.00  0.00     0.031 H 
ATOM     34  C   LIG d   1       3.749  -2.057  -3.266  0.00  0.00    -0.049 C 
ATOM     35  H   LIG d   1       4.719  -3.173  -4.845  0.00  0.00     0.027 H 
ATOM     36  H   LIG d   1       5.574  -3.219  -3.266  0.00  0.00     0.027 H 
ATOM     37  C   LIG d   1       4.148  -1.304  -1.993  0.00  0.00    -0.032 C 
ATOM     38  H   LIG d   1       3.213  -1.376  -3.943  0.00  0.00     0.027 H 
ATOM     39  H   LIG d   1       3.097  -2.902  -3.003  0.00  0.00     0.027 H 
ATOM     40  H   LIG d   1       3.256  -0.837  -1.549  0.00  0.00     0.031 H 
ATOM     41  H   LIG d   1       4.590  -2.008  -1.273  0.00  0.00     0.031 H 
ATOM     42  C   LIG d   1       4.991   1.006  -1.976  0.00  0.00    -0.099 C 
ATOM     43  H   LIG d   1       5.736   1.768  -2.247  0.00  0.00     0.053 H 
ATOM     44  H   LIG d   1       4.104   1.288  -1.390  0.00  0.00     0.053 H 
ATOM     45  H   LIG d   1       8.874  -1.299  -6.009  0.00  0.00     0.074 H 
ATOM     46  O   LIG d   1       7.398   0.095  -6.564  0.00  0.00    -0.461 OA
ATOM     47  C   LIG d   1       8.125   1.234  -6.596  0.00  0.00     0.312 C 
ATOM     48  O   LIG d   1       8.225   1.974  -7.546  0.00  0.00    -0.251 OA
ATOM     49  H   LIG d   1       9.884   1.555  -5.351  0.00  0.00     0.043 H 
BRANCH  27  50
ATOM     50  C   LIG d   1       5.075  -0.470  -5.298  0.00  0.00    -0.059 C 
ATOM     51  H   LIG d   1       4.072  -0.329  -4.869  0.00  0.00     0.024 H 
ATOM     52  H   LIG d   1       4.985  -0.909  -6.302  0.00  0.00     0.024 H 
ATOM     53  H   LIG d   1       5.584   0.502  -5.366  0.00  0.00     0.024 H 
ENDBRANCH  27  50
ENDBRANCH  16  19
ENDBRANCH   1  16
BRANCH   4  54
ATOM     54  C   LIG d   1      11.854   6.852  -3.151  0.00  0.00     0.031 C 
ATOM     55  H   LIG d   1      12.081   7.269  -4.143  0.00  0.00     0.096 H 
BRANCH  54  56
ATOM     56  C   LIG d   1      13.059   6.137  -2.599  0.00  0.00     0.005 A 
ATOM     57  C   LIG d   1      13.185   5.944  -1.236  0.00  0.00    -0.053 A 
ATOM     58  C   LIG d   1      14.291   5.288  -0.730  0.00  0.00    -0.061 A 
ATOM     59  H   LIG d   1      12.420   6.307  -0.566  0.00  0.00     0.062 H 
ATOM     60  C   LIG d   1      15.272   4.824  -1.587  0.00  0.00    -0.062 A 
ATOM     61  H   LIG d   1      14.390   5.138   0.335  0.00  0.00     0.062 H 
ATOM     62  C   LIG d   1      15.146   5.016  -2.950  0.00  0.00    -0.061 A 
ATOM     63  H   LIG d   1      16.136   4.312  -1.191  0.00  0.00     0.062 H 
ATOM     64  C   LIG d   1      14.037   5.667  -3.457  0.00  0.00    -0.053 A 
ATOM     65  H   LIG d   1      15.912   4.654  -3.620  0.00  0.00     0.062 H 
ATOM     66  H   LIG d   1      13.937   5.814  -4.522  0.00  0.00     0.062 H 
ENDBRANCH  54  56
BRANCH  54  67
ATOM     67  C   LIG d   1      11.446   7.953  -2.206  0.00  0.00     0.005 A 
ATOM     68  C   LIG d   1      10.305   7.815  -1.435  0.00  0.00    -0.051 A 
ATOM     69  C   LIG d   1       9.931   8.825  -0.569  0.00  0.00    -0.043 A 
ATOM     70  H   LIG d   1       9.708   6.918  -1.511  0.00  0.00     0.062 H 
ATOM     71  C   LIG d   1      10.696   9.974  -0.473  0.00  0.00     0.041 A 
ATOM     72  H   LIG d   1       9.040   8.718   0.032  0.00  0.00     0.063 H 
ATOM     73  C   LIG d   1      11.836  10.111  -1.245  0.00  0.00    -0.043 A 
ATOM     74 CL   LIG d   1      10.224  11.243   0.613  0.00  0.00    -0.084 Cl
ATOM     75  C   LIG d   1      12.213   9.098  -2.107  0.00  0.00    -0.051 A 
ATOM     76  H   LIG d   1      12.434  11.008  -1.171  0.00  0.00     0.063 H 
ATOM     77  H   LIG d   1      13.106   9.204  -2.706  0.00  0.00     0.062 H 
ENDBRANCH  54  67
ENDBRANCH   4  54
TORSDOF 6
ENDMDL
MODEL 4
REMARK VINA RESULT:      -7.2      7.000     12.746
REMARK  6 active torsions:
REMARK  status: ('A' for Active; 'I' for Inactive)
REMARK    1  A    between atoms: C_1  and  C_2 
REMARK    2  A    between atoms: C_19  and  C_21 
REMARK    3  A    between atoms: C_21  and  N_22 
REMARK    4  A    between atoms: N_25  and  C_28 
REMARK    5  A    between atoms: C_28  and  C_30 
REMARK    6  A    between atoms: C_28  and  C_36 
ROOT
ATOM      1  N   LIG d   1       4.896  -5.130  -6.657  0.00  0.00    -0.292 N 
ATOM      2  C   LIG d   1       4.976  -4.772  -5.234  0.00  0.00     0.039 C 
ATOM      3  C   LIG d   1       5.618  -3.388  -5.096  0.00  0.00    -0.018 C 
ATOM      4  N   LIG d   1       4.821  -2.404  -5.841  0.00  0.00     0.246 N 
ATOM      5  C   LIG d   1       4.741  -2.763  -7.262  0.00  0.00    -0.018 C 
ATOM      6  C   LIG d   1       4.098  -4.145  -7.402  0.00  0.00     0.039 C 
ATOM      7  H   LIG d   1       3.964  -4.751  -4.804  0.00  0.00     0.048 H 
ATOM      8  H   LIG d   1       5.586  -5.515  -4.702  0.00  0.00     0.048 H 
ATOM      9  H   LIG d   1       5.653  -3.105  -4.033  0.00  0.00     0.083 H 
ATOM     10  H   LIG d   1       6.640  -3.417  -5.500  0.00  0.00     0.083 H 
ATOM     11  H   LIG d   1       4.130  -2.019  -7.795  0.00  0.00     0.083 H 
ATOM     12  H   LIG d   1       5.753  -2.783  -7.694  0.00  0.00     0.083 H 
ATOM     13  H   LIG d   1       4.064  -4.430  -8.464  0.00  0.00     0.048 H 
ATOM     14  H   LIG d   1       3.077  -4.119  -6.996  0.00  0.00     0.048 H 
ATOM     15  H   LIG d   1       3.800  -2.413  -5.429  0.00  0.00     0.204 HD
ENDROOT
BRANCH   1  16
ATOM     16  C   LIG d   1       4.353  -6.485  -6.828  0.00  0.00     0.013 C 
ATOM     17  H   LIG d   1       3.254  -6.445  -6.804  0.00  0.00     0.043 H 
ATOM     18  H   LIG d   1       4.715  -7.130  -6.013  0.00  0.00     0.043 H 
BRANCH  16  19
ATOM     19  C   LIG d   1       4.814  -7.053  -8.171  0.00  0.00     0.075 C 
ATOM     20  C   LIG d   1       6.022  -8.016  -7.970  0.00  0.00     0.011 C 
ATOM     21  C   LIG d   1       5.932  -8.530  -6.532  0.00  0.00    -0.039 C 
ATOM     22  H   LIG d   1       7.039  -7.618  -8.109  0.00  0.00     0.035 H 
ATOM     23  C   LIG d   1       5.648  -9.119  -8.978  0.00  0.00     0.107 C 
ATOM     24  C   LIG d   1       6.757  -9.803  -6.364  0.00  0.00    -0.014 C 
ATOM     25  H   LIG d   1       4.880  -8.742  -6.293  0.00  0.00     0.028 H 
ATOM     26  H   LIG d   1       6.314  -7.754  -5.851  0.00  0.00     0.028 H 
ATOM     27  C   LIG d   1       6.153 -10.885  -7.270  0.00  0.00    -0.022 C 
ATOM     28  C   LIG d   1       6.683 -10.286  -4.935  0.00  0.00    -0.073 C 
ATOM     29  H   LIG d   1       7.809  -9.599  -6.613  0.00  0.00     0.035 H 
ATOM     30  C   LIG d   1       6.337 -10.438  -8.720  0.00  0.00    -0.009 C 
ATOM     31  C   LIG d   1       6.879 -12.207  -7.029  0.00  0.00    -0.047 C 
ATOM     32  H   LIG d   1       7.409 -10.319  -8.934  0.00  0.00     0.031 H 
ATOM     33  H   LIG d   1       5.910 -11.195  -9.394  0.00  0.00     0.031 H 
ATOM     34  C   LIG d   1       6.640 -12.675  -5.588  0.00  0.00    -0.049 C 
ATOM     35  H   LIG d   1       6.499 -12.968  -7.726  0.00  0.00     0.027 H 
ATOM     36  H   LIG d   1       7.958 -12.068  -7.192  0.00  0.00     0.027 H 
ATOM     37  C   LIG d   1       7.242 -11.655  -4.615  0.00  0.00    -0.032 C 
ATOM     38  H   LIG d   1       5.558 -12.761  -5.406  0.00  0.00     0.027 H 
ATOM     39  H   LIG d   1       7.117 -13.653  -5.435  0.00  0.00     0.027 H 
ATOM     40  H   LIG d   1       6.979 -11.934  -3.584  0.00  0.00     0.031 H 
ATOM     41  H   LIG d   1       8.336 -11.645  -4.725  0.00  0.00     0.031 H 
ATOM     42  C   LIG d   1       6.150  -9.540  -3.998  0.00  0.00    -0.099 C 
ATOM     43  H   LIG d   1       5.748  -8.547  -4.249  0.00  0.00     0.053 H 
ATOM     44  H   LIG d   1       6.103  -9.907  -2.962  0.00  0.00     0.053 H 
ATOM     45  H   LIG d   1       5.938  -8.897 -10.015  0.00  0.00     0.074 H 
ATOM     46  O   LIG d   1       4.197  -9.200  -8.871  0.00  0.00    -0.461 OA
ATOM     47  C   LIG d   1       3.735  -7.933  -8.774  0.00  0.00     0.312 C 
ATOM     48  O   LIG d   1       2.637  -7.561  -9.114  0.00  0.00    -0.251 OA
ATOM     49  H   LIG d   1       5.039  -6.187  -8.811  0.00  0.00     0.043 H 
BRANCH  27  50
ATOM     50  C   LIG d   1       4.665 -11.050  -6.954  0.00  0.00    -0.059 C 
ATOM     51  H   LIG d   1       4.350 -10.264  -6.252  0.00  0.00     0.024 H 
ATOM     52  H   LIG d   1       4.495 -12.036  -6.498  0.00  0.00     0.024 H 
ATOM     53  H   LIG d   1       4.081 -10.969  -7.882  0.00  0.00     0.024 H 
ENDBRANCH  27  50
ENDBRANCH  16  19
ENDBRANCH   1  16
BRANCH   4  54
ATOM     54  C   LIG d   1       5.363  -1.050  -5.668  0.00  0.00     0.031 C 
ATOM     55  H   LIG d   1       6.461  -1.118  -5.672  0.00  0.00     0.096 H 
BRANCH  54  56
ATOM     56  C   LIG d   1       4.883  -0.478  -4.361  0.00  0.00     0.005 A 
ATOM     57  C   LIG d   1       5.686   0.397  -3.651  0.00  0.00    -0.053 A 
ATOM     58  C   LIG d   1       5.244   0.921  -2.452  0.00  0.00    -0.061 A 
ATOM     59  H   LIG d   1       6.658   0.669  -4.034  0.00  0.00     0.062 H 
ATOM     60  C   LIG d   1       4.000   0.572  -1.960  0.00  0.00    -0.062 A 
ATOM     61  H   LIG d   1       5.871   1.604  -1.897  0.00  0.00     0.062 H 
ATOM     62  C   LIG d   1       3.197  -0.301  -2.669  0.00  0.00    -0.061 A 
ATOM     63  H   LIG d   1       3.655   0.983  -1.022  0.00  0.00     0.062 H 
ATOM     64  C   LIG d   1       3.636  -0.822  -3.871  0.00  0.00    -0.053 A 
ATOM     65  H   LIG d   1       2.225  -0.574  -2.285  0.00  0.00     0.062 H 
ATOM     66  H   LIG d   1       3.007  -1.501  -4.428  0.00  0.00     0.062 H 
ENDBRANCH  54  56
BRANCH  54  67
ATOM     67  C   LIG d   1       4.895  -0.174  -6.803  0.00  0.00     0.005 A 
ATOM     68  C   LIG d   1       5.812   0.341  -7.701  0.00  0.00    -0.051 A 
ATOM     69  C   LIG d   1       5.383   1.144  -8.741  0.00  0.00    -0.043 A 
ATOM     70  H   LIG d   1       6.863   0.117  -7.589  0.00  0.00     0.062 H 
ATOM     71  C   LIG d   1       4.038   1.433  -8.883  0.00  0.00     0.041 A 
ATOM     72  H   LIG d   1       6.100   1.548  -9.442  0.00  0.00     0.063 H 
ATOM     73  C   LIG d   1       3.121   0.917  -7.984  0.00  0.00    -0.043 A 
ATOM     74 CL   LIG d   1       3.500   2.443 -10.189  0.00  0.00    -0.084 Cl
ATOM     75  C   LIG d   1       3.551   0.109  -6.947  0.00  0.00    -0.051 A 
ATOM     76  H   LIG d   1       2.071   1.141  -8.094  0.00  0.00     0.063 H 
ATOM     77  H   LIG d   1       2.835  -0.298  -6.248  0.00  0.00     0.062 H 
ENDBRANCH  54  67
ENDBRANCH   4  54
TORSDOF 6
ENDMDL
MODEL 5
REMARK VINA RESULT:      -7.1      1.786      2.543
REMARK  6 active torsions:
REMARK  status: ('A' for Active; 'I' for Inactive)
REMARK    1  A    between atoms: C_1  and  C_2 
REMARK    2  A    between atoms: C_19  and  C_21 
REMARK    3  A    between atoms: C_21  and  N_22 
REMARK    4  A    between atoms: N_25  and  C_28 
REMARK    5  A    between atoms: C_28  and  C_30 
REMARK    6  A    between atoms: C_28  and  C_36 
ROOT
ATOM      1  N   LIG d   1       9.484   2.313  -4.514  0.00  0.00    -0.292 N 
ATOM      2  C   LIG d   1       8.335   2.230  -3.601  0.00  0.00     0.039 C 
ATOM      3  C   LIG d   1       7.296   1.267  -4.182  0.00  0.00    -0.018 C 
ATOM      4  N   LIG d   1       7.909  -0.055  -4.375  0.00  0.00     0.246 N 
ATOM      5  C   LIG d   1       9.057   0.029  -5.287  0.00  0.00    -0.018 C 
ATOM      6  C   LIG d   1      10.097   0.991  -4.707  0.00  0.00     0.039 C 
ATOM      7  H   LIG d   1       8.671   1.859  -2.621  0.00  0.00     0.048 H 
ATOM      8  H   LIG d   1       7.887   3.226  -3.482  0.00  0.00     0.048 H 
ATOM      9  H   LIG d   1       6.447   1.180  -3.486  0.00  0.00     0.083 H 
ATOM     10  H   LIG d   1       6.938   1.652  -5.148  0.00  0.00     0.083 H 
ATOM     11  H   LIG d   1       9.506  -0.968  -5.405  0.00  0.00     0.083 H 
ATOM     12  H   LIG d   1       8.721   0.399  -6.267  0.00  0.00     0.083 H 
ATOM     13  H   LIG d   1      10.945   1.079  -5.402  0.00  0.00     0.048 H 
ATOM     14  H   LIG d   1      10.454   0.608  -3.739  0.00  0.00     0.048 H 
ATOM     15  H   LIG d   1       8.275  -0.405  -3.398  0.00  0.00     0.204 HD
ENDROOT
BRANCH   1  16
ATOM     16  C   LIG d   1      10.471   3.286  -4.028  0.00  0.00     0.013 C 
ATOM     17  H   LIG d   1      10.951   3.780  -4.886  0.00  0.00     0.043 H 
ATOM     18  H   LIG d   1      11.234   2.767  -3.430  0.00  0.00     0.043 H 
BRANCH  16  19
ATOM     19  C   LIG d   1       9.771   4.335  -3.162  0.00  0.00     0.075 C 
ATOM     20  C   LIG d   1      10.661   4.719  -1.943  0.00  0.00     0.011 C 
ATOM     21  C   LIG d   1      12.105   4.414  -2.348  0.00  0.00    -0.039 C 
ATOM     22  H   LIG d   1      10.481   4.215  -0.982  0.00  0.00     0.035 H 
ATOM     23  C   LIG d   1      10.407   6.237  -1.901  0.00  0.00     0.107 C 
ATOM     24  C   LIG d   1      13.084   5.164  -1.449  0.00  0.00    -0.014 C 
ATOM     25  H   LIG d   1      12.257   4.723  -3.392  0.00  0.00     0.028 H 
ATOM     26  H   LIG d   1      12.280   3.331  -2.257  0.00  0.00     0.028 H 
ATOM     27  C   LIG d   1      12.864   6.669  -1.656  0.00  0.00    -0.022 C 
ATOM     28  C   LIG d   1      14.506   4.833  -1.840  0.00  0.00    -0.073 C 
ATOM     29  H   LIG d   1      12.929   4.866  -0.402  0.00  0.00     0.035 H 
ATOM     30  C   LIG d   1      11.464   7.011  -1.150  0.00  0.00    -0.009 C 
ATOM     31  C   LIG d   1      13.916   7.445  -0.865  0.00  0.00    -0.047 C 
ATOM     32  H   LIG d   1      11.388   6.760  -0.082  0.00  0.00     0.031 H 
ATOM     33  H   LIG d   1      11.276   8.086  -1.289  0.00  0.00     0.031 H 
ATOM     34  C   LIG d   1      15.313   7.137  -1.419  0.00  0.00    -0.049 C 
ATOM     35  H   LIG d   1      13.720   8.523  -0.952  0.00  0.00     0.027 H 
ATOM     36  H   LIG d   1      13.871   7.148   0.194  0.00  0.00     0.027 H 
ATOM     37  C   LIG d   1      15.622   5.649  -1.224  0.00  0.00    -0.032 C 
ATOM     38  H   LIG d   1      15.344   7.381  -2.491  0.00  0.00     0.027 H 
ATOM     39  H   LIG d   1      16.061   7.739  -0.884  0.00  0.00     0.027 H 
ATOM     40  H   LIG d   1      16.576   5.405  -1.714  0.00  0.00     0.031 H 
ATOM     41  H   LIG d   1      15.695   5.427  -0.149  0.00  0.00     0.031 H 
ATOM     42  C   LIG d   1      14.765   3.869  -2.688  0.00  0.00    -0.099 C 
ATOM     43  H   LIG d   1      13.941   3.287  -3.127  0.00  0.00     0.053 H 
ATOM     44  H   LIG d   1      15.806   3.642  -2.962  0.00  0.00     0.053 H 
ATOM     45  H   LIG d   1       9.484   6.523  -1.375  0.00  0.00     0.074 H 
ATOM     46  O   LIG d   1      10.316   6.607  -3.307  0.00  0.00    -0.461 OA
ATOM     47  C   LIG d   1       9.611   5.635  -3.929  0.00  0.00     0.312 C 
ATOM     48  O   LIG d   1       8.957   5.779  -4.934  0.00  0.00    -0.251 OA
ATOM     49  H   LIG d   1       8.798   3.904  -2.883  0.00  0.00     0.043 H 
BRANCH  27  50
ATOM     50  C   LIG d   1      12.986   7.007  -3.143  0.00  0.00    -0.059 C 
ATOM     51  H   LIG d   1      14.036   6.910  -3.456  0.00  0.00     0.024 H 
ATOM     52  H   LIG d   1      12.648   8.040  -3.312  0.00  0.00     0.024 H 
ATOM     53  H   LIG d   1      12.364   6.316  -3.729  0.00  0.00     0.024 H 
ENDBRANCH  27  50
ENDBRANCH  16  19
ENDBRANCH   1  16
BRANCH   4  54
ATOM     54  C   LIG d   1       6.920  -1.027  -4.860  0.00  0.00     0.031 C 
ATOM     55  H   LIG d   1       6.752  -0.838  -5.930  0.00  0.00     0.096 H 
BRANCH  54  56
ATOM     56  C   LIG d   1       5.634  -0.862  -4.094  0.00  0.00     0.005 A 
ATOM     57  C   LIG d   1       4.481  -0.480  -4.754  0.00  0.00    -0.053 A 
ATOM     58  C   LIG d   1       3.301  -0.328  -4.051  0.00  0.00    -0.061 A 
ATOM     59  H   LIG d   1       4.502  -0.300  -5.818  0.00  0.00     0.062 H 
ATOM     60  C   LIG d   1       3.273  -0.558  -2.687  0.00  0.00    -0.062 A 
ATOM     61  H   LIG d   1       2.399  -0.030  -4.566  0.00  0.00     0.062 H 
ATOM     62  C   LIG d   1       4.425  -0.940  -2.028  0.00  0.00    -0.061 A 
ATOM     63  H   LIG d   1       2.350  -0.439  -2.138  0.00  0.00     0.062 H 
ATOM     64  C   LIG d   1       5.605  -1.097  -2.731  0.00  0.00    -0.053 A 
ATOM     65  H   LIG d   1       4.405  -1.119  -0.963  0.00  0.00     0.062 H 
ATOM     66  H   LIG d   1       6.505  -1.400  -2.217  0.00  0.00     0.062 H 
ENDBRANCH  54  56
BRANCH  54  67
ATOM     67  C   LIG d   1       7.451  -2.424  -4.657  0.00  0.00     0.005 A 
ATOM     68  C   LIG d   1       7.045  -3.445  -5.497  0.00  0.00    -0.051 A 
ATOM     69  C   LIG d   1       7.531  -4.726  -5.311  0.00  0.00    -0.043 A 
ATOM     70  H   LIG d   1       6.349  -3.242  -6.298  0.00  0.00     0.062 H 
ATOM     71  C   LIG d   1       8.421  -4.986  -4.285  0.00  0.00     0.041 A 
ATOM     72  H   LIG d   1       7.214  -5.524  -5.967  0.00  0.00     0.063 H 
ATOM     73  C   LIG d   1       8.826  -3.964  -3.445  0.00  0.00    -0.043 A 
ATOM     74 CL   LIG d   1       9.030  -6.595  -4.051  0.00  0.00    -0.084 Cl
ATOM     75  C   LIG d   1       8.344  -2.682  -3.635  0.00  0.00    -0.051 A 
ATOM     76  H   LIG d   1       9.521  -4.166  -2.643  0.00  0.00     0.063 H 
ATOM     77  H   LIG d   1       8.664  -1.883  -2.982  0.00  0.00     0.062 H 
ENDBRANCH  54  67
ENDBRANCH   4  54
TORSDOF 6
ENDMDL
MODEL 6
REMARK VINA RESULT:      -7.1      3.459      9.920
REMARK  6 active torsions:
REMARK  status: ('A' for Active; 'I' for Inactive)
REMARK    1  A    between atoms: C_1  and  C_2 
REMARK    2  A    between atoms: C_19  and  C_21 
REMARK    3  A    between atoms: C_21  and  N_22 
REMARK    4  A    between atoms: N_25  and  C_28 
REMARK    5  A    between atoms: C_28  and  C_30 
REMARK    6  A    between atoms: C_28  and  C_36 
ROOT
ATOM      1  N   LIG d   1       9.370   3.464  -4.519  0.00  0.00    -0.292 N 
ATOM      2  C   LIG d   1       9.543   3.380  -3.062  0.00  0.00     0.039 C 
ATOM      3  C   LIG d   1      10.754   4.219  -2.646  0.00  0.00    -0.018 C 
ATOM      4  N   LIG d   1      10.552   5.611  -3.071  0.00  0.00     0.246 N 
ATOM      5  C   LIG d   1      10.379   5.694  -4.527  0.00  0.00    -0.018 C 
ATOM      6  C   LIG d   1       9.168   4.856  -4.943  0.00  0.00     0.039 C 
ATOM      7  H   LIG d   1       8.641   3.764  -2.563  0.00  0.00     0.048 H 
ATOM      8  H   LIG d   1       9.704   2.332  -2.771  0.00  0.00     0.048 H 
ATOM      9  H   LIG d   1      10.868   4.181  -1.552  0.00  0.00     0.083 H 
ATOM     10  H   LIG d   1      11.660   3.817  -3.122  0.00  0.00     0.083 H 
ATOM     11  H   LIG d   1      10.217   6.743  -4.818  0.00  0.00     0.083 H 
ATOM     12  H   LIG d   1      11.281   5.311  -5.026  0.00  0.00     0.083 H 
ATOM     13  H   LIG d   1       9.054   4.893  -6.037  0.00  0.00     0.048 H 
ATOM     14  H   LIG d   1       8.261   5.256  -4.467  0.00  0.00     0.048 H 
ATOM     15  H   LIG d   1       9.629   5.980  -2.597  0.00  0.00     0.204 HD
ENDROOT
BRANCH   1  16
ATOM     16  C   LIG d   1       8.262   2.610  -4.967  0.00  0.00     0.013 C 
ATOM     17  H   LIG d   1       7.701   3.125  -5.761  0.00  0.00     0.043 H 
ATOM     18  H   LIG d   1       7.593   2.403  -4.119  0.00  0.00     0.043 H 
BRANCH  16  19
ATOM     19  C   LIG d   1       8.820   1.293  -5.509  0.00  0.00     0.075 C 
ATOM     20  C   LIG d   1       8.450   0.112  -4.562  0.00  0.00     0.011 C 
ATOM     21  C   LIG d   1       7.194   0.545  -3.802  0.00  0.00    -0.039 C 
ATOM     22  H   LIG d   1       9.188  -0.210  -3.812  0.00  0.00     0.035 H 
ATOM     23  C   LIG d   1       8.120  -0.969  -5.608  0.00  0.00     0.107 C 
ATOM     24  C   LIG d   1       6.482  -0.669  -3.209  0.00  0.00    -0.014 C 
ATOM     25  H   LIG d   1       6.517   1.064  -4.496  0.00  0.00     0.028 H 
ATOM     26  H   LIG d   1       7.485   1.230  -2.991  0.00  0.00     0.028 H 
ATOM     27  C   LIG d   1       6.024  -1.565  -4.368  0.00  0.00    -0.022 C 
ATOM     28  C   LIG d   1       5.260  -0.227  -2.438  0.00  0.00    -0.073 C 
ATOM     29  H   LIG d   1       7.159  -1.197  -2.523  0.00  0.00     0.035 H 
ATOM     30  C   LIG d   1       7.272  -2.097  -5.070  0.00  0.00    -0.009 C 
ATOM     31  C   LIG d   1       5.196  -2.723  -3.812  0.00  0.00    -0.047 C 
ATOM     32  H   LIG d   1       7.875  -2.678  -4.357  0.00  0.00     0.031 H 
ATOM     33  H   LIG d   1       6.974  -2.742  -5.910  0.00  0.00     0.031 H 
ATOM     34  C   LIG d   1       3.918  -2.180  -3.160  0.00  0.00    -0.049 C 
ATOM     35  H   LIG d   1       4.925  -3.406  -4.629  0.00  0.00     0.027 H 
ATOM     36  H   LIG d   1       5.786  -3.266  -3.059  0.00  0.00     0.027 H 
ATOM     37  C   LIG d   1       4.291  -1.291  -1.970  0.00  0.00    -0.032 C 
ATOM     38  H   LIG d   1       3.354  -1.589  -3.897  0.00  0.00     0.027 H 
ATOM     39  H   LIG d   1       3.299  -3.019  -2.812  0.00  0.00     0.027 H 
ATOM     40  H   LIG d   1       3.383  -0.818  -1.567  0.00  0.00     0.031 H 
ATOM     41  H   LIG d   1       4.762  -1.904  -1.187  0.00  0.00     0.031 H 
ATOM     42  C   LIG d   1       5.044   1.040  -2.183  0.00  0.00    -0.099 C 
ATOM     43  H   LIG d   1       5.759   1.800  -2.532  0.00  0.00     0.053 H 
ATOM     44  H   LIG d   1       4.149   1.343  -1.621  0.00  0.00     0.053 H 
ATOM     45  H   LIG d   1       9.002  -1.498  -5.999  0.00  0.00     0.074 H 
ATOM     46  O   LIG d   1       7.471  -0.222  -6.677  0.00  0.00    -0.461 OA
ATOM     47  C   LIG d   1       8.153   0.935  -6.825  0.00  0.00     0.312 C 
ATOM     48  O   LIG d   1       8.222   1.582  -7.843  0.00  0.00    -0.251 OA
ATOM     49  H   LIG d   1       9.903   1.442  -5.628  0.00  0.00     0.043 H 
BRANCH  27  50
ATOM     50  C   LIG d   1       5.175  -0.749  -5.346  0.00  0.00    -0.059 C 
ATOM     51  H   LIG d   1       4.136  -0.711  -4.986  0.00  0.00     0.024 H 
ATOM     52  H   LIG d   1       5.201  -1.224  -6.337  0.00  0.00     0.024 H 
ATOM     53  H   LIG d   1       5.576   0.272  -5.416  0.00  0.00     0.024 H 
ENDBRANCH  27  50
ENDBRANCH  16  19
ENDBRANCH   1  16
BRANCH   4  54
ATOM     54  C   LIG d   1      11.660   6.464  -2.621  0.00  0.00     0.031 C 
ATOM     55  H   LIG d   1      12.377   5.834  -2.076  0.00  0.00     0.096 H 
BRANCH  54  56
ATOM     56  C   LIG d   1      11.128   7.546  -1.719  0.00  0.00     0.005 A 
ATOM     57  C   LIG d   1      12.001   8.313  -0.969  0.00  0.00    -0.053 A 
ATOM     58  C   LIG d   1      11.512   9.305  -0.141  0.00  0.00    -0.061 A 
ATOM     59  H   LIG d   1      13.064   8.135  -1.029  0.00  0.00     0.062 H 
ATOM     60  C   LIG d   1      10.151   9.533  -0.062  0.00  0.00    -0.062 A 
ATOM     61  H   LIG d   1      12.194   9.904   0.446  0.00  0.00     0.062 H 
ATOM     62  C   LIG d   1       9.278   8.768  -0.812  0.00  0.00    -0.061 A 
ATOM     63  H   LIG d   1       9.770  10.308   0.586  0.00  0.00     0.062 H 
ATOM     64  C   LIG d   1       9.766   7.778  -1.644  0.00  0.00    -0.053 A 
ATOM     65  H   LIG d   1       8.215   8.944  -0.751  0.00  0.00     0.062 H 
ATOM     66  H   LIG d   1       9.085   7.182  -2.234  0.00  0.00     0.062 H 
ENDBRANCH  54  56
BRANCH  54  67
ATOM     67  C   LIG d   1      12.327   7.091  -3.819  0.00  0.00     0.005 A 
ATOM     68  C   LIG d   1      13.488   6.539  -4.331  0.00  0.00    -0.051 A 
ATOM     69  C   LIG d   1      14.099   7.114  -5.429  0.00  0.00    -0.043 A 
ATOM     70  H   LIG d   1      13.915   5.660  -3.872  0.00  0.00     0.062 H 
ATOM     71  C   LIG d   1      13.552   8.241  -6.015  0.00  0.00     0.041 A 
ATOM     72  H   LIG d   1      15.006   6.683  -5.828  0.00  0.00     0.063 H 
ATOM     73  C   LIG d   1      12.391   8.793  -5.502  0.00  0.00    -0.043 A 
ATOM     74 CL   LIG d   1      14.322   8.964  -7.393  0.00  0.00    -0.084 Cl
ATOM     75  C   LIG d   1      11.777   8.214  -4.407  0.00  0.00    -0.051 A 
ATOM     76  H   LIG d   1      11.964   9.673  -5.959  0.00  0.00     0.063 H 
ATOM     77  H   LIG d   1      10.868   8.642  -4.010  0.00  0.00     0.062 H 
ENDBRANCH  54  67
ENDBRANCH   4  54
TORSDOF 6
ENDMDL
MODEL 7
REMARK VINA RESULT:      -7.1      2.018      2.866
REMARK  6 active torsions:
REMARK  status: ('A' for Active; 'I' for Inactive)
REMARK    1  A    between atoms: C_1  and  C_2 
REMARK    2  A    between atoms: C_19  and  C_21 
REMARK    3  A    between atoms: C_21  and  N_22 
REMARK    4  A    between atoms: N_25  and  C_28 
REMARK    5  A    between atoms: C_28  and  C_30 
REMARK    6  A    between atoms: C_28  and  C_36 
ROOT
ATOM      1  N   LIG d   1       9.543   1.148  -6.173  0.00  0.00    -0.292 N 
ATOM      2  C   LIG d   1       8.244   1.517  -5.592  0.00  0.00     0.039 C 
ATOM      3  C   LIG d   1       7.322   0.294  -5.595  0.00  0.00    -0.018 C 
ATOM      4  N   LIG d   1       7.950  -0.792  -4.829  0.00  0.00     0.246 N 
ATOM      5  C   LIG d   1       9.248  -1.160  -5.410  0.00  0.00    -0.018 C 
ATOM      6  C   LIG d   1      10.170   0.062  -5.407  0.00  0.00     0.039 C 
ATOM      7  H   LIG d   1       8.391   1.864  -4.558  0.00  0.00     0.048 H 
ATOM      8  H   LIG d   1       7.790   2.321  -6.188  0.00  0.00     0.048 H 
ATOM      9  H   LIG d   1       6.359   0.560  -5.134  0.00  0.00     0.083 H 
ATOM     10  H   LIG d   1       7.153  -0.035  -6.630  0.00  0.00     0.083 H 
ATOM     11  H   LIG d   1       9.702  -1.964  -4.814  0.00  0.00     0.083 H 
ATOM     12  H   LIG d   1       9.102  -1.508  -6.444  0.00  0.00     0.083 H 
ATOM     13  H   LIG d   1      11.133  -0.203  -5.869  0.00  0.00     0.048 H 
ATOM     14  H   LIG d   1      10.339   0.393  -4.372  0.00  0.00     0.048 H 
ATOM     15  H   LIG d   1       8.126  -0.428  -3.806  0.00  0.00     0.204 HD
ENDROOT
BRANCH   1  16
ATOM     16  C   LIG d   1      10.431   2.315  -6.258  0.00  0.00     0.013 C 
ATOM     17  H   LIG d   1      11.411   2.061  -5.825  0.00  0.00     0.043 H 
ATOM     18  H   LIG d   1       9.989   3.153  -5.699  0.00  0.00     0.043 H 
BRANCH  16  19
ATOM     19  C   LIG d   1      10.609   2.715  -7.723  0.00  0.00     0.075 C 
ATOM     20  C   LIG d   1       9.914   4.081  -8.004  0.00  0.00     0.011 C 
ATOM     21  C   LIG d   1       9.846   4.816  -6.663  0.00  0.00    -0.039 C 
ATOM     22  H   LIG d   1       8.896   4.075  -8.422  0.00  0.00     0.035 H 
ATOM     23  C   LIG d   1      10.960   4.721  -8.935  0.00  0.00     0.107 C 
ATOM     24  C   LIG d   1       9.624   6.310  -6.882  0.00  0.00    -0.014 C 
ATOM     25  H   LIG d   1      10.791   4.662  -6.123  0.00  0.00     0.028 H 
ATOM     26  H   LIG d   1       9.014   4.405  -6.072  0.00  0.00     0.028 H 
ATOM     27  C   LIG d   1      10.836   6.866  -7.642  0.00  0.00    -0.022 C 
ATOM     28  C   LIG d   1       9.531   7.021  -5.552  0.00  0.00    -0.073 C 
ATOM     29  H   LIG d   1       8.685   6.468  -7.432  0.00  0.00     0.035 H 
ATOM     30  C   LIG d   1      10.852   6.224  -9.029  0.00  0.00    -0.009 C 
ATOM     31  C   LIG d   1      10.701   8.383  -7.764  0.00  0.00    -0.047 C 
ATOM     32  H   LIG d   1       9.923   6.475  -9.561  0.00  0.00     0.031 H 
ATOM     33  H   LIG d   1      11.714   6.603  -9.598  0.00  0.00     0.031 H 
ATOM     34  C   LIG d   1      10.743   9.021  -6.370  0.00  0.00    -0.049 C 
ATOM     35  H   LIG d   1      11.530   8.778  -8.369  0.00  0.00     0.027 H 
ATOM     36  H   LIG d   1       9.744   8.629  -8.248  0.00  0.00     0.027 H 
ATOM     37  C   LIG d   1       9.543   8.534  -5.551  0.00  0.00    -0.032 C 
ATOM     38  H   LIG d   1      11.675   8.731  -5.862  0.00  0.00     0.027 H 
ATOM     39  H   LIG d   1      10.703  10.115  -6.465  0.00  0.00     0.027 H 
ATOM     40  H   LIG d   1       9.629   8.906  -4.519  0.00  0.00     0.031 H 
ATOM     41  H   LIG d   1       8.613   8.914  -6.001  0.00  0.00     0.031 H 
ATOM     42  C   LIG d   1       9.444   6.347  -4.431  0.00  0.00    -0.099 C 
ATOM     43  H   LIG d   1       9.437   5.247  -4.451  0.00  0.00     0.053 H 
ATOM     44  H   LIG d   1       9.378   6.881  -3.472  0.00  0.00     0.053 H 
ATOM     45  H   LIG d   1      10.875   4.409  -9.986  0.00  0.00     0.074 H 
ATOM     46  O   LIG d   1      12.230   4.270  -8.381  0.00  0.00    -0.461 OA
ATOM     47  C   LIG d   1      12.072   2.975  -8.029  0.00  0.00     0.312 C 
ATOM     48  O   LIG d   1      12.957   2.154  -7.968  0.00  0.00    -0.251 OA
ATOM     49  H   LIG d   1      10.209   1.883  -8.321  0.00  0.00     0.043 H 
BRANCH  27  50
ATOM     50  C   LIG d   1      12.121   6.523  -6.886  0.00  0.00    -0.059 C 
ATOM     51  H   LIG d   1      12.475   7.411  -6.343  0.00  0.00     0.024 H 
ATOM     52  H   LIG d   1      12.891   6.199  -7.601  0.00  0.00     0.024 H 
ATOM     53  H   LIG d   1      11.920   5.713  -6.171  0.00  0.00     0.024 H 
ENDBRANCH  27  50
ENDBRANCH  16  19
ENDBRANCH   1  16
BRANCH   4  54
ATOM     54  C   LIG d   1       7.061  -1.958  -4.744  0.00  0.00     0.031 C 
ATOM     55  H   LIG d   1       6.642  -2.142  -5.745  0.00  0.00     0.096 H 
BRANCH  54  56
ATOM     56  C   LIG d   1       5.954  -1.676  -3.762  0.00  0.00     0.005 A 
ATOM     57  C   LIG d   1       4.933  -2.592  -3.589  0.00  0.00    -0.053 A 
ATOM     58  C   LIG d   1       3.918  -2.334  -2.688  0.00  0.00    -0.061 A 
ATOM     59  H   LIG d   1       4.928  -3.509  -4.159  0.00  0.00     0.062 H 
ATOM     60  C   LIG d   1       3.924  -1.159  -1.958  0.00  0.00    -0.062 A 
ATOM     61  H   LIG d   1       3.120  -3.049  -2.553  0.00  0.00     0.062 H 
ATOM     62  C   LIG d   1       4.944  -0.244  -2.130  0.00  0.00    -0.061 A 
ATOM     63  H   LIG d   1       3.130  -0.957  -1.254  0.00  0.00     0.062 H 
ATOM     64  C   LIG d   1       5.962  -0.504  -3.028  0.00  0.00    -0.053 A 
ATOM     65  H   LIG d   1       4.949   0.674  -1.561  0.00  0.00     0.062 H 
ATOM     66  H   LIG d   1       6.763   0.209  -3.160  0.00  0.00     0.062 H 
ENDBRANCH  54  56
BRANCH  54  67
ATOM     67  C   LIG d   1       7.849  -3.157  -4.284  0.00  0.00     0.005 A 
ATOM     68  C   LIG d   1       8.567  -3.100  -3.103  0.00  0.00    -0.051 A 
ATOM     69  C   LIG d   1       9.290  -4.199  -2.681  0.00  0.00    -0.043 A 
ATOM     70  H   LIG d   1       8.562  -2.196  -2.512  0.00  0.00     0.062 H 
ATOM     71  C   LIG d   1       9.297  -5.356  -3.438  0.00  0.00     0.041 A 
ATOM     72  H   LIG d   1       9.852  -4.154  -1.759  0.00  0.00     0.063 H 
ATOM     73  C   LIG d   1       8.578  -5.413  -4.620  0.00  0.00    -0.043 A 
ATOM     74 CL   LIG d   1      10.207  -6.736  -2.909  0.00  0.00    -0.084 Cl
ATOM     75  C   LIG d   1       7.851  -4.314  -5.039  0.00  0.00    -0.051 A 
ATOM     76  H   LIG d   1       8.583  -6.316  -5.212  0.00  0.00     0.063 H 
ATOM     77  H   LIG d   1       7.286  -4.361  -5.958  0.00  0.00     0.062 H 
ENDBRANCH  54  67
ENDBRANCH   4  54
TORSDOF 6
ENDMDL
MODEL 8
REMARK VINA RESULT:      -7.0      4.645     10.228
REMARK  6 active torsions:
REMARK  status: ('A' for Active; 'I' for Inactive)
REMARK    1  A    between atoms: C_1  and  C_2 
REMARK    2  A    between atoms: C_19  and  C_21 
REMARK    3  A    between atoms: C_21  and  N_22 
REMARK    4  A    between atoms: N_25  and  C_28 
REMARK    5  A    between atoms: C_28  and  C_30 
REMARK    6  A    between atoms: C_28  and  C_36 
ROOT
ATOM      1  N   LIG d   1       8.876   2.425  -7.149  0.00  0.00    -0.292 N 
ATOM      2  C   LIG d   1       9.436   3.520  -6.344  0.00  0.00     0.039 C 
ATOM      3  C   LIG d   1      10.443   4.305  -7.189  0.00  0.00    -0.018 C 
ATOM      4  N   LIG d   1       9.772   4.826  -8.388  0.00  0.00     0.246 N 
ATOM      5  C   LIG d   1       9.213   3.731  -9.192  0.00  0.00    -0.018 C 
ATOM      6  C   LIG d   1       8.206   2.945  -8.348  0.00  0.00     0.039 C 
ATOM      7  H   LIG d   1       8.625   4.189  -6.022  0.00  0.00     0.048 H 
ATOM      8  H   LIG d   1       9.942   3.105  -5.460  0.00  0.00     0.048 H 
ATOM      9  H   LIG d   1      10.842   5.143  -6.597  0.00  0.00     0.083 H 
ATOM     10  H   LIG d   1      11.268   3.642  -7.486  0.00  0.00     0.083 H 
ATOM     11  H   LIG d   1       8.707   4.146 -10.076  0.00  0.00     0.083 H 
ATOM     12  H   LIG d   1      10.024   3.061  -9.515  0.00  0.00     0.083 H 
ATOM     13  H   LIG d   1       7.807   2.106  -8.938  0.00  0.00     0.048 H 
ATOM     14  H   LIG d   1       7.381   3.607  -8.048  0.00  0.00     0.048 H 
ATOM     15  H   LIG d   1       8.940   5.467  -8.061  0.00  0.00     0.204 HD
ENDROOT
BRANCH   1  16
ATOM     16  C   LIG d   1       7.961   1.600  -6.349  0.00  0.00     0.013 C 
ATOM     17  H   LIG d   1       6.922   1.815  -6.643  0.00  0.00     0.043 H 
ATOM     18  H   LIG d   1       8.096   1.831  -5.282  0.00  0.00     0.043 H 
BRANCH  16  19
ATOM     19  C   LIG d   1       8.263   0.120  -6.592  0.00  0.00     0.075 C 
ATOM     20  C   LIG d   1       7.983  -0.712  -5.305  0.00  0.00     0.011 C 
ATOM     21  C   LIG d   1       6.960   0.082  -4.490  0.00  0.00    -0.039 C 
ATOM     22  H   LIG d   1       8.825  -0.941  -4.634  0.00  0.00     0.035 H 
ATOM     23  C   LIG d   1       7.340  -1.961  -5.936  0.00  0.00     0.107 C 
ATOM     24  C   LIG d   1       6.270  -0.821  -3.470  0.00  0.00    -0.014 C 
ATOM     25  H   LIG d   1       6.208   0.503  -5.173  0.00  0.00     0.028 H 
ATOM     26  H   LIG d   1       7.477   0.898  -3.965  0.00  0.00     0.028 H 
ATOM     27  C   LIG d   1       5.496  -1.903  -4.238  0.00  0.00    -0.022 C 
ATOM     28  C   LIG d   1       5.282  -0.021  -2.653  0.00  0.00    -0.073 C 
ATOM     29  H   LIG d   1       7.019  -1.254  -2.792  0.00  0.00     0.035 H 
ATOM     30  C   LIG d   1       6.515  -2.776  -4.969  0.00  0.00    -0.009 C 
ATOM     31  C   LIG d   1       4.692  -2.744  -3.248  0.00  0.00    -0.047 C 
ATOM     32  H   LIG d   1       7.192  -3.241  -4.238  0.00  0.00     0.031 H 
ATOM     33  H   LIG d   1       5.988  -3.561  -5.532  0.00  0.00     0.031 H 
ATOM     34  C   LIG d   1       3.636  -1.869  -2.562  0.00  0.00    -0.049 C 
ATOM     35  H   LIG d   1       4.193  -3.564  -3.784  0.00  0.00     0.027 H 
ATOM     36  H   LIG d   1       5.369  -3.161  -2.488  0.00  0.00     0.027 H 
ATOM     37  C   LIG d   1       4.332  -0.774  -1.748  0.00  0.00    -0.032 C 
ATOM     38  H   LIG d   1       2.992  -1.407  -3.325  0.00  0.00     0.027 H 
ATOM     39  H   LIG d   1       3.023  -2.490  -1.894  0.00  0.00     0.027 H 
ATOM     40  H   LIG d   1       3.577  -0.083  -1.343  0.00  0.00     0.031 H 
ATOM     41  H   LIG d   1       4.892  -1.232  -0.919  0.00  0.00     0.031 H 
ATOM     42  C   LIG d   1       5.249   1.287  -2.727  0.00  0.00    -0.099 C 
ATOM     43  H   LIG d   1       5.947   1.818  -3.391  0.00  0.00     0.053 H 
ATOM     44  H   LIG d   1       4.523   1.853  -2.125  0.00  0.00     0.053 H 
ATOM     45  H   LIG d   1       8.065  -2.698  -6.311  0.00  0.00     0.074 H 
ATOM     46  O   LIG d   1       6.560  -1.421  -7.042  0.00  0.00    -0.461 OA
ATOM     47  C   LIG d   1       7.307  -0.455  -7.621  0.00  0.00     0.312 C 
ATOM     48  O   LIG d   1       7.228  -0.105  -8.775  0.00  0.00    -0.251 OA
ATOM     49  H   LIG d   1       9.307   0.071  -6.933  0.00  0.00     0.043 H 
BRANCH  27  50
ATOM     50  C   LIG d   1       4.548  -1.244  -5.242  0.00  0.00    -0.059 C 
ATOM     51  H   LIG d   1       3.886  -0.542  -4.714  0.00  0.00     0.024 H 
ATOM     52  H   LIG d   1       3.943  -2.017  -5.736  0.00  0.00     0.024 H 
ATOM     53  H   LIG d   1       5.134  -0.699  -5.996  0.00  0.00     0.024 H 
ENDBRANCH  27  50
ENDBRANCH  16  19
ENDBRANCH   1  16
BRANCH   4  54
ATOM     54  C   LIG d   1      10.689   5.651  -9.187  0.00  0.00     0.031 C 
ATOM     55  H   LIG d   1      11.708   5.261  -9.049  0.00  0.00     0.096 H 
BRANCH  54  56
ATOM     56  C   LIG d   1      10.612   7.081  -8.721  0.00  0.00     0.005 A 
ATOM     57  C   LIG d   1      11.652   7.953  -8.990  0.00  0.00    -0.053 A 
ATOM     58  C   LIG d   1      11.581   9.265  -8.563  0.00  0.00    -0.061 A 
ATOM     59  H   LIG d   1      12.519   7.608  -9.533  0.00  0.00     0.062 H 
ATOM     60  C   LIG d   1      10.471   9.707  -7.867  0.00  0.00    -0.062 A 
ATOM     61  H   LIG d   1      12.393   9.946  -8.773  0.00  0.00     0.062 H 
ATOM     62  C   LIG d   1       9.432   8.837  -7.599  0.00  0.00    -0.061 A 
ATOM     63  H   LIG d   1      10.417  10.733  -7.533  0.00  0.00     0.062 H 
ATOM     64  C   LIG d   1       9.500   7.526  -8.030  0.00  0.00    -0.053 A 
ATOM     65  H   LIG d   1       8.565   9.182  -7.055  0.00  0.00     0.062 H 
ATOM     66  H   LIG d   1       8.686   6.846  -7.824  0.00  0.00     0.062 H 
ENDBRANCH  54  56
BRANCH  54  67
ATOM     67  C   LIG d   1      10.296   5.573 -10.640  0.00  0.00     0.005 A 
ATOM     68  C   LIG d   1       9.216   6.303 -11.103  0.00  0.00    -0.051 A 
ATOM     69  C   LIG d   1       8.856   6.231 -12.436  0.00  0.00    -0.043 A 
ATOM     70  H   LIG d   1       8.655   6.928 -10.424  0.00  0.00     0.062 H 
ATOM     71  C   LIG d   1       9.573   5.430 -13.305  0.00  0.00     0.041 A 
ATOM     72  H   LIG d   1       8.011   6.800 -12.798  0.00  0.00     0.063 H 
ATOM     73  C   LIG d   1      10.654   4.700 -12.840  0.00  0.00    -0.043 A 
ATOM     74 CL   LIG d   1       9.119   5.339 -14.978  0.00  0.00    -0.084 Cl
ATOM     75  C   LIG d   1      11.017   4.776 -11.508  0.00  0.00    -0.051 A 
ATOM     76  H   LIG d   1      11.215   4.074 -13.518  0.00  0.00     0.063 H 
ATOM     77  H   LIG d   1      11.863   4.211 -11.147  0.00  0.00     0.062 H 
ENDBRANCH  54  67
ENDBRANCH   4  54
TORSDOF 6
ENDMDL
MODEL 9
REMARK VINA RESULT:      -7.0      1.971      2.895
REMARK  6 active torsions:
REMARK  status: ('A' for Active; 'I' for Inactive)
REMARK    1  A    between atoms: C_1  and  C_2 
REMARK    2  A    between atoms: C_19  and  C_21 
REMARK    3  A    between atoms: C_21  and  N_22 
REMARK    4  A    between atoms: N_25  and  C_28 
REMARK    5  A    between atoms: C_28  and  C_30 
REMARK    6  A    between atoms: C_28  and  C_36 
ROOT
ATOM      1  N   LIG d   1       8.432   0.509  -6.366  0.00  0.00    -0.292 N 
ATOM      2  C   LIG d   1       7.988   0.191  -5.002  0.00  0.00     0.039 C 
ATOM      3  C   LIG d   1       6.591  -0.432  -5.056  0.00  0.00    -0.018 C 
ATOM      4  N   LIG d   1       6.628  -1.642  -5.889  0.00  0.00     0.246 N 
ATOM      5  C   LIG d   1       7.072  -1.324  -7.253  0.00  0.00    -0.018 C 
ATOM      6  C   LIG d   1       8.469  -0.701  -7.200  0.00  0.00     0.039 C 
ATOM      7  H   LIG d   1       8.691  -0.521  -4.544  0.00  0.00     0.048 H 
ATOM      8  H   LIG d   1       7.957   1.112  -4.402  0.00  0.00     0.048 H 
ATOM      9  H   LIG d   1       6.268  -0.697  -4.037  0.00  0.00     0.083 H 
ATOM     10  H   LIG d   1       5.883   0.291  -5.486  0.00  0.00     0.083 H 
ATOM     11  H   LIG d   1       7.103  -2.245  -7.853  0.00  0.00     0.083 H 
ATOM     12  H   LIG d   1       6.369  -0.612  -7.711  0.00  0.00     0.083 H 
ATOM     13  H   LIG d   1       8.792  -0.435  -8.218  0.00  0.00     0.048 H 
ATOM     14  H   LIG d   1       9.178  -1.422  -6.768  0.00  0.00     0.048 H 
ATOM     15  H   LIG d   1       7.358  -2.337  -5.447  0.00  0.00     0.204 HD
ENDROOT
BRANCH   1  16
ATOM     16  C   LIG d   1       9.739   1.179  -6.351  0.00  0.00     0.013 C 
ATOM     17  H   LIG d   1      10.538   0.425  -6.413  0.00  0.00     0.043 H 
ATOM     18  H   LIG d   1       9.846   1.752  -5.419  0.00  0.00     0.043 H 
BRANCH  16  19
ATOM     19  C   LIG d   1       9.840   2.127  -7.547  0.00  0.00     0.075 C 
ATOM     20  C   LIG d   1       9.400   3.566  -7.141  0.00  0.00     0.011 C 
ATOM     21  C   LIG d   1       9.617   3.674  -5.630  0.00  0.00    -0.039 C 
ATOM     22  H   LIG d   1       8.363   3.874  -7.343  0.00  0.00     0.035 H 
ATOM     23  C   LIG d   1      10.450   4.387  -7.913  0.00  0.00     0.107 C 
ATOM     24  C   LIG d   1       9.670   5.138  -5.201  0.00  0.00    -0.014 C 
ATOM     25  H   LIG d   1      10.564   3.182  -5.369  0.00  0.00     0.028 H 
ATOM     26  H   LIG d   1       8.786   3.171  -5.113  0.00  0.00     0.028 H 
ATOM     27  C   LIG d   1      10.882   5.790  -5.880  0.00  0.00    -0.022 C 
ATOM     28  C   LIG d   1       9.856   5.233  -3.704  0.00  0.00    -0.073 C 
ATOM     29  H   LIG d   1       8.729   5.638  -5.471  0.00  0.00     0.035 H 
ATOM     30  C   LIG d   1      10.630   5.791  -7.387  0.00  0.00    -0.009 C 
ATOM     31  C   LIG d   1      11.036   7.222  -5.369  0.00  0.00    -0.047 C 
ATOM     32  H   LIG d   1       9.717   6.366  -7.606  0.00  0.00     0.031 H 
ATOM     33  H   LIG d   1      11.485   6.252  -7.902  0.00  0.00     0.031 H 
ATOM     34  C   LIG d   1      11.346   7.206  -3.867  0.00  0.00    -0.049 C 
ATOM     35  H   LIG d   1      11.858   7.717  -5.905  0.00  0.00     0.027 H 
ATOM     36  H   LIG d   1      10.100   7.775  -5.542  0.00  0.00     0.027 H 
ATOM     37  C   LIG d   1      10.164   6.590  -3.110  0.00  0.00    -0.032 C 
ATOM     38  H   LIG d   1      12.250   6.607  -3.686  0.00  0.00     0.027 H 
ATOM     39  H   LIG d   1      11.511   8.234  -3.515  0.00  0.00     0.027 H 
ATOM     40  H   LIG d   1      10.427   6.481  -2.047  0.00  0.00     0.031 H 
ATOM     41  H   LIG d   1       9.286   7.246  -3.204  0.00  0.00     0.031 H 
ATOM     42  C   LIG d   1       9.755   4.171  -2.943  0.00  0.00    -0.099 C 
ATOM     43  H   LIG d   1       9.531   3.193  -3.393  0.00  0.00     0.053 H 
ATOM     44  H   LIG d   1       9.894   4.259  -1.856  0.00  0.00     0.053 H 
ATOM     45  H   LIG d   1      10.197   4.559  -8.969  0.00  0.00     0.074 H 
ATOM     46  O   LIG d   1      11.657   3.578  -7.812  0.00  0.00    -0.461 OA
ATOM     47  C   LIG d   1      11.286   2.289  -7.976  0.00  0.00     0.312 C 
ATOM     48  O   LIG d   1      11.994   1.405  -8.399  0.00  0.00    -0.251 OA
ATOM     49  H   LIG d   1       9.225   1.684  -8.344  0.00  0.00     0.043 H 
BRANCH  27  50
ATOM     50  C   LIG d   1      12.146   4.991  -5.557  0.00  0.00    -0.059 C 
ATOM     51  H   LIG d   1      12.444   4.403  -6.438  0.00  0.00     0.024 H 
ATOM     52  H   LIG d   1      11.945   4.312  -4.716  0.00  0.00     0.024 H 
ATOM     53  H   LIG d   1      12.957   5.681  -5.286  0.00  0.00     0.024 H 
ENDBRANCH  27  50
ENDBRANCH  16  19
ENDBRANCH   1  16
BRANCH   4  54
ATOM     54  C   LIG d   1       5.321  -2.312  -5.903  0.00  0.00     0.031 C 
ATOM     55  H   LIG d   1       4.817  -2.059  -6.848  0.00  0.00     0.096 H 
BRANCH  54  56
ATOM     56  C   LIG d   1       4.500  -1.836  -4.733  0.00  0.00     0.005 A 
ATOM     57  C   LIG d   1       3.620  -0.781  -4.889  0.00  0.00    -0.053 A 
ATOM     58  C   LIG d   1       2.867  -0.345  -3.815  0.00  0.00    -0.061 A 
ATOM     59  H   LIG d   1       3.522  -0.297  -5.849  0.00  0.00     0.062 H 
ATOM     60  C   LIG d   1       2.993  -0.964  -2.585  0.00  0.00    -0.062 A 
ATOM     61  H   LIG d   1       2.180   0.479  -3.937  0.00  0.00     0.062 H 
ATOM     62  C   LIG d   1       3.872  -2.019  -2.429  0.00  0.00    -0.061 A 
ATOM     63  H   LIG d   1       2.404  -0.622  -1.746  0.00  0.00     0.062 H 
ATOM     64  C   LIG d   1       4.621  -2.459  -3.504  0.00  0.00    -0.053 A 
ATOM     65  H   LIG d   1       3.971  -2.502  -1.469  0.00  0.00     0.062 H 
ATOM     66  H   LIG d   1       5.306  -3.286  -3.384  0.00  0.00     0.062 H 
ENDBRANCH  54  56
BRANCH  54  67
ATOM     67  C   LIG d   1       5.521  -3.803  -5.805  0.00  0.00     0.005 A 
ATOM     68  C   LIG d   1       6.767  -4.313  -5.488  0.00  0.00    -0.051 A 
ATOM     69  C   LIG d   1       6.950  -5.680  -5.399  0.00  0.00    -0.043 A 
ATOM     70  H   LIG d   1       7.595  -3.643  -5.311  0.00  0.00     0.062 H 
ATOM     71  C   LIG d   1       5.889  -6.537  -5.626  0.00  0.00     0.041 A 
ATOM     72  H   LIG d   1       7.924  -6.079  -5.152  0.00  0.00     0.063 H 
ATOM     73  C   LIG d   1       4.643  -6.026  -5.943  0.00  0.00    -0.043 A 
ATOM     74 CL   LIG d   1       6.120  -8.254  -5.515  0.00  0.00    -0.084 Cl
ATOM     75  C   LIG d   1       4.459  -4.658  -6.028  0.00  0.00    -0.051 A 
ATOM     76  H   LIG d   1       3.813  -6.694  -6.121  0.00  0.00     0.063 H 
ATOM     77  H   LIG d   1       3.485  -4.259  -6.270  0.00  0.00     0.062 H 
ENDBRANCH  54  67
ENDBRANCH   4  54
TORSDOF 6
ENDMDL
MODEL 10
REMARK VINA RESULT:      -6.9      2.177      3.765
REMARK  6 active torsions:
REMARK  status: ('A' for Active; 'I' for Inactive)
REMARK    1  A    between atoms: C_1  and  C_2 
REMARK    2  A    between atoms: C_19  and  C_21 
REMARK    3  A    between atoms: C_21  and  N_22 
REMARK    4  A    between atoms: N_25  and  C_28 
REMARK    5  A    between atoms: C_28  and  C_30 
REMARK    6  A    between atoms: C_28  and  C_36 
ROOT
ATOM      1  N   LIG d   1      10.637   3.439  -4.443  0.00  0.00    -0.292 N 
ATOM      2  C   LIG d   1       9.176   3.513  -4.588  0.00  0.00     0.039 C 
ATOM      3  C   LIG d   1       8.684   2.302  -5.385  0.00  0.00    -0.018 C 
ATOM      4  N   LIG d   1       9.080   1.068  -4.692  0.00  0.00     0.246 N 
ATOM      5  C   LIG d   1      10.540   0.995  -4.548  0.00  0.00    -0.018 C 
ATOM      6  C   LIG d   1      11.033   2.206  -3.750  0.00  0.00     0.039 C 
ATOM      7  H   LIG d   1       8.708   3.512  -3.592  0.00  0.00     0.048 H 
ATOM      8  H   LIG d   1       8.906   4.437  -5.119  0.00  0.00     0.048 H 
ATOM      9  H   LIG d   1       7.587   2.341  -5.470  0.00  0.00     0.083 H 
ATOM     10  H   LIG d   1       9.129   2.319  -6.391  0.00  0.00     0.083 H 
ATOM     11  H   LIG d   1      10.811   0.071  -4.016  0.00  0.00     0.083 H 
ATOM     12  H   LIG d   1      11.008   0.996  -5.543  0.00  0.00     0.083 H 
ATOM     13  H   LIG d   1      12.129   2.169  -3.666  0.00  0.00     0.048 H 
ATOM     14  H   LIG d   1      10.587   2.191  -2.745  0.00  0.00     0.048 H 
ATOM     15  H   LIG d   1       8.639   1.089  -3.684  0.00  0.00     0.204 HD
ENDROOT
BRANCH   1  16
ATOM     16  C   LIG d   1      11.157   4.625  -3.748  0.00  0.00     0.013 C 
ATOM     17  H   LIG d   1      12.237   4.716  -3.937  0.00  0.00     0.043 H 
ATOM     18  H   LIG d   1      10.981   4.522  -2.667  0.00  0.00     0.043 H 
BRANCH  16  19
ATOM     19  C   LIG d   1      10.441   5.874  -4.265  0.00  0.00     0.075 C 
ATOM     20  C   LIG d   1       9.780   6.650  -3.087  0.00  0.00     0.011 C 
ATOM     21  C   LIG d   1      10.561   6.272  -1.826  0.00  0.00    -0.039 C 
ATOM     22  H   LIG d   1       8.715   6.472  -2.873  0.00  0.00     0.035 H 
ATOM     23  C   LIG d   1      10.090   8.095  -3.519  0.00  0.00     0.107 C 
ATOM     24  C   LIG d   1      10.321   7.296  -0.720  0.00  0.00    -0.014 C 
ATOM     25  H   LIG d   1      11.633   6.238  -2.067  0.00  0.00     0.028 H 
ATOM     26  H   LIG d   1      10.230   5.280  -1.485  0.00  0.00     0.028 H 
ATOM     27  C   LIG d   1      10.862   8.651  -1.199  0.00  0.00    -0.022 C 
ATOM     28  C   LIG d   1      11.075   6.898   0.528  0.00  0.00    -0.073 C 
ATOM     29  H   LIG d   1       9.248   7.342  -0.484  0.00  0.00     0.035 H 
ATOM     30  C   LIG d   1      10.016   9.097  -2.391  0.00  0.00    -0.009 C 
ATOM     31  C   LIG d   1      10.751   9.667  -0.063  0.00  0.00    -0.047 C 
ATOM     32  H   LIG d   1       8.966   9.196  -2.080  0.00  0.00     0.031 H 
ATOM     33  H   LIG d   1      10.383  10.066  -2.759  0.00  0.00     0.031 H 
ATOM     34  C   LIG d   1      11.648   9.238   1.105  0.00  0.00    -0.049 C 
ATOM     35  H   LIG d   1      11.070  10.656  -0.422  0.00  0.00     0.027 H 
ATOM     36  H   LIG d   1       9.707   9.721   0.280  0.00  0.00     0.027 H 
ATOM     37  C   LIG d   1      11.155   7.898   1.661  0.00  0.00    -0.032 C 
ATOM     38  H   LIG d   1      12.684   9.130   0.751  0.00  0.00     0.027 H 
ATOM     39  H   LIG d   1      11.609  10.000   1.896  0.00  0.00     0.027 H 
ATOM     40  H   LIG d   1      11.858   7.538   2.427  0.00  0.00     0.031 H 
ATOM     41  H   LIG d   1      10.160   8.031   2.110  0.00  0.00     0.031 H 
ATOM     42  C   LIG d   1      11.644   5.722   0.626  0.00  0.00    -0.099 C 
ATOM     43  H   LIG d   1      11.577   5.008  -0.208  0.00  0.00     0.053 H 
ATOM     44  H   LIG d   1      12.190   5.449   1.541  0.00  0.00     0.053 H 
ATOM     45  H   LIG d   1       9.378   8.507  -4.250  0.00  0.00     0.074 H 
ATOM     46  O   LIG d   1      11.416   7.996  -4.113  0.00  0.00    -0.461 OA
ATOM     47  C   LIG d   1      11.441   6.858  -4.842  0.00  0.00     0.312 C 
ATOM     48  O   LIG d   1      12.148   6.657  -5.801  0.00  0.00    -0.251 OA
ATOM     49  H   LIG d   1       9.725   5.527  -5.024  0.00  0.00     0.043 H 
BRANCH  27  50
ATOM     50  C   LIG d   1      12.327   8.503  -1.616  0.00  0.00    -0.059 C 
ATOM     51  H   LIG d   1      12.793   7.692  -1.036  0.00  0.00     0.024 H 
ATOM     52  H   LIG d   1      12.859   9.445  -1.421  0.00  0.00     0.024 H 
ATOM     53  H   LIG d   1      12.380   8.265  -2.688  0.00  0.00     0.024 H 
ENDBRANCH  27  50
ENDBRANCH  16  19
ENDBRANCH   1  16
BRANCH   4  54
ATOM     54  C   LIG d   1       8.559  -0.116  -5.388  0.00  0.00     0.031 C 
ATOM     55  H   LIG d   1       9.363  -0.866  -5.434  0.00  0.00     0.096 H 
BRANCH  54  56
ATOM     56  C   LIG d   1       8.126   0.268  -6.778  0.00  0.00     0.005 A 
ATOM     57  C   LIG d   1       9.044   0.267  -7.813  0.00  0.00    -0.053 A 
ATOM     58  C   LIG d   1       8.646   0.618  -9.089  0.00  0.00    -0.061 A 
ATOM     59  H   LIG d   1      10.071  -0.008  -7.624  0.00  0.00     0.062 H 
ATOM     60  C   LIG d   1       7.331   0.971  -9.332  0.00  0.00    -0.062 A 
ATOM     61  H   LIG d   1       9.363   0.618  -9.898  0.00  0.00     0.062 H 
ATOM     62  C   LIG d   1       6.415   0.972  -8.298  0.00  0.00    -0.061 A 
ATOM     63  H   LIG d   1       7.022   1.247 -10.329  0.00  0.00     0.062 H 
ATOM     64  C   LIG d   1       6.810   0.615  -7.023  0.00  0.00    -0.053 A 
ATOM     65  H   LIG d   1       5.387   1.248  -8.487  0.00  0.00     0.062 H 
ATOM     66  H   LIG d   1       6.093   0.611  -6.215  0.00  0.00     0.062 H 
ENDBRANCH  54  56
BRANCH  54  67
ATOM     67  C   LIG d   1       7.380  -0.665  -4.627  0.00  0.00     0.005 A 
ATOM     68  C   LIG d   1       6.915  -1.939  -4.900  0.00  0.00    -0.051 A 
ATOM     69  C   LIG d   1       5.833  -2.443  -4.202  0.00  0.00    -0.043 A 
ATOM     70  H   LIG d   1       7.397  -2.540  -5.657  0.00  0.00     0.062 H 
ATOM     71  C   LIG d   1       5.215  -1.674  -3.233  0.00  0.00     0.041 A 
ATOM     72  H   LIG d   1       5.469  -3.438  -4.416  0.00  0.00     0.063 H 
ATOM     73  C   LIG d   1       5.680  -0.399  -2.962  0.00  0.00    -0.043 A 
ATOM     74 CL   LIG d   1       3.855  -2.306  -2.359  0.00  0.00    -0.084 Cl
ATOM     75  C   LIG d   1       6.766   0.102  -3.656  0.00  0.00    -0.051 A 
ATOM     76  H   LIG d   1       5.198   0.203  -2.205  0.00  0.00     0.063 H 
ATOM     77  H   LIG d   1       7.133   1.095  -3.440  0.00  0.00     0.062 H 
ENDBRANCH  54  67
ENDBRANCH   4  54
TORSDOF 6
ENDMDL
