MODEL 1
REMARK VINA RESULT:      -4.9      0.000      0.000
REMARK  15 active torsions:
REMARK  status: ('A' for Active; 'I' for Inactive)
REMARK    1  A    between atoms: C_1  and  C_2 
REMARK    2  A    between atoms: C_2  and  C_3 
REMARK    3  A    between atoms: C_2  and  C_4 
REMARK    4  A    between atoms: C_2  and  N_5 
REMARK    5  A    between atoms: N_5  and  C_6 
REMARK    6  A    between atoms: C_8  and  N_17 
REMARK    7  A    between atoms: C_10  and  N_12 
REMARK    8  A    between atoms: N_12  and  C_13 
REMARK    9  A    between atoms: C_13  and  C_14 
REMARK   10  A    between atoms: C_13  and  C_15 
REMARK   11  A    between atoms: C_13  and  C_16 
REMARK   12  A    between atoms: N_17  and  C_18 
REMARK   13  A    between atoms: C_18  and  C_19 
REMARK   14  A    between atoms: C_18  and  C_20 
REMARK   15  A    between atoms: C_18  and  C_21 
ROOT
ATOM      1  C   LIG d   1       5.033  -0.857  -5.140  0.00  0.00     0.221 A 
ATOM      2  N   LIG d   1       4.632  -2.093  -5.421  0.00  0.00    -0.181 NA
ATOM      3  C   LIG d   1       4.388  -2.442  -6.680  0.00  0.00     0.221 A 
ATOM      4  N   LIG d   1       4.557  -1.559  -7.659  0.00  0.00    -0.181 NA
ATOM      5  C   LIG d   1       4.963  -0.326  -7.378  0.00  0.00     0.221 A 
ATOM      6  N   LIG d   1       5.202   0.025  -6.119  0.00  0.00    -0.181 NA
ENDROOT
BRANCH   1   7
ATOM      7  N   LIG d   1       5.281  -0.493  -3.831  0.00  0.00    -0.309 N 
ATOM      8  H   LIG d   1       6.184  -0.274  -3.553  0.00  0.00     0.149 HD
BRANCH   7   9
ATOM      9  C   LIG d   1       4.181  -0.438  -2.864  0.00  0.00     0.026 C 
BRANCH   9  10
ATOM     10  C   LIG d   1       4.491   0.615  -1.799  0.00  0.00    -0.044 C 
ATOM     11  H   LIG d   1       5.535   0.920  -1.883  0.00  0.00     0.025 H 
ATOM     12  H   LIG d   1       3.846   1.480  -1.945  0.00  0.00     0.025 H 
ATOM     13  H   LIG d   1       4.315   0.192  -0.810  0.00  0.00     0.025 H 
ENDBRANCH   9  10
BRANCH   9  14
ATOM     14  C   LIG d   1       4.020  -1.806  -2.199  0.00  0.00    -0.044 C 
ATOM     15  H   LIG d   1       4.792  -2.483  -2.567  0.00  0.00     0.025 H 
ATOM     16  H   LIG d   1       4.118  -1.698  -1.118  0.00  0.00     0.025 H 
ATOM     17  H   LIG d   1       3.037  -2.213  -2.436  0.00  0.00     0.025 H 
ENDBRANCH   9  14
BRANCH   9  18
ATOM     18  C   LIG d   1       2.885  -0.067  -3.587  0.00  0.00    -0.044 C 
ATOM     19  H   LIG d   1       3.086   0.725  -4.309  0.00  0.00     0.025 H 
ATOM     20  H   LIG d   1       2.496  -0.943  -4.108  0.00  0.00     0.025 H 
ATOM     21  H   LIG d   1       2.151   0.281  -2.861  0.00  0.00     0.025 H 
ENDBRANCH   9  18
ENDBRANCH   7   9
ENDBRANCH   1   7
BRANCH   5  22
ATOM     22  N   LIG d   1       5.138   0.592  -8.395  0.00  0.00    -0.309 N 
ATOM     23  H   LIG d   1       6.029   0.784  -8.726  0.00  0.00     0.149 HD
BRANCH  22  24
ATOM     24  C   LIG d   1       3.976   1.273  -8.974  0.00  0.00     0.026 C 
BRANCH  24  25
ATOM     25  C   LIG d   1       3.573   0.577 -10.274  0.00  0.00    -0.044 C 
ATOM     26  H   LIG d   1       4.466   0.348 -10.856  0.00  0.00     0.025 H 
ATOM     27  H   LIG d   1       3.044  -0.348 -10.043  0.00  0.00     0.025 H 
ATOM     28  H   LIG d   1       2.922   1.233 -10.851  0.00  0.00     0.025 H 
ENDBRANCH  24  25
BRANCH  24  29
ATOM     29  C   LIG d   1       2.810   1.221  -7.984  0.00  0.00    -0.044 C 
ATOM     30  H   LIG d   1       1.868   1.281  -8.529  0.00  0.00     0.025 H 
ATOM     31  H   LIG d   1       2.848   0.283  -7.428  0.00  0.00     0.025 H 
ATOM     32  H   LIG d   1       2.884   2.058  -7.291  0.00  0.00     0.025 H 
ENDBRANCH  24  29
BRANCH  24  33
ATOM     33  C   LIG d   1       4.334   2.732  -9.265  0.00  0.00    -0.044 C 
ATOM     34  H   LIG d   1       5.388   2.898  -9.044  0.00  0.00     0.025 H 
ATOM     35  H   LIG d   1       4.144   2.949 -10.316  0.00  0.00     0.025 H 
ATOM     36  H   LIG d   1       3.725   3.386  -8.643  0.00  0.00     0.025 H 
ENDBRANCH  24  33
ENDBRANCH  22  24
ENDBRANCH   5  22
BRANCH   3  37
ATOM     37  N   LIG d   1       3.966  -3.724  -6.971  0.00  0.00    -0.309 N 
ATOM     38  H   LIG d   1       3.048  -3.882  -7.241  0.00  0.00     0.149 HD
BRANCH  37  39
ATOM     39  C   LIG d   1       4.903  -4.844  -6.872  0.00  0.00     0.026 C 
BRANCH  39  40
ATOM     40  C   LIG d   1       4.742  -5.527  -5.512  0.00  0.00    -0.044 C 
ATOM     41  H   LIG d   1       4.375  -4.804  -4.784  0.00  0.00     0.025 H 
ATOM     42  H   LIG d   1       4.031  -6.348  -5.600  0.00  0.00     0.025 H 
ATOM     43  H   LIG d   1       5.707  -5.915  -5.185  0.00  0.00     0.025 H 
ENDBRANCH  39  40
BRANCH  39  44
ATOM     44  C   LIG d   1       4.613  -5.852  -7.986  0.00  0.00    -0.044 C 
ATOM     45  H   LIG d   1       3.970  -5.390  -8.736  0.00  0.00     0.025 H 
ATOM     46  H   LIG d   1       5.549  -6.161  -8.450  0.00  0.00     0.025 H 
ATOM     47  H   LIG d   1       4.111  -6.724  -7.565  0.00  0.00     0.025 H 
ENDBRANCH  39  44
BRANCH  39  48
ATOM     48  C   LIG d   1       6.335  -4.325  -7.015  0.00  0.00    -0.044 C 
ATOM     49  H   LIG d   1       6.341  -3.240  -6.910  0.00  0.00     0.025 H 
ATOM     50  H   LIG d   1       6.962  -4.769  -6.241  0.00  0.00     0.025 H 
ATOM     51  H   LIG d   1       6.724  -4.597  -7.997  0.00  0.00     0.025 H 
ENDBRANCH  39  48
ENDBRANCH  37  39
ENDBRANCH   3  37
TORSDOF 15
ENDMDL
MODEL 2
REMARK VINA RESULT:      -4.9      1.055      5.612
REMARK  15 active torsions:
REMARK  status: ('A' for Active; 'I' for Inactive)
REMARK    1  A    between atoms: C_1  and  C_2 
REMARK    2  A    between atoms: C_2  and  C_3 
REMARK    3  A    between atoms: C_2  and  C_4 
REMARK    4  A    between atoms: C_2  and  N_5 
REMARK    5  A    between atoms: N_5  and  C_6 
REMARK    6  A    between atoms: C_8  and  N_17 
REMARK    7  A    between atoms: C_10  and  N_12 
REMARK    8  A    between atoms: N_12  and  C_13 
REMARK    9  A    between atoms: C_13  and  C_14 
REMARK   10  A    between atoms: C_13  and  C_15 
REMARK   11  A    between atoms: C_13  and  C_16 
REMARK   12  A    between atoms: N_17  and  C_18 
REMARK   13  A    between atoms: C_18  and  C_19 
REMARK   14  A    between atoms: C_18  and  C_20 
REMARK   15  A    between atoms: C_18  and  C_21 
ROOT
ATOM      1  C   LIG d   1       4.309  -2.399  -6.285  0.00  0.00     0.221 A 
ATOM      2  N   LIG d   1       4.498  -1.647  -7.364  0.00  0.00    -0.181 NA
ATOM      3  C   LIG d   1       4.443  -0.323  -7.269  0.00  0.00     0.221 A 
ATOM      4  N   LIG d   1       4.211   0.250  -6.092  0.00  0.00    -0.181 NA
ATOM      5  C   LIG d   1       4.027  -0.502  -5.012  0.00  0.00     0.221 A 
ATOM      6  N   LIG d   1       4.077  -1.827  -5.108  0.00  0.00    -0.181 NA
ENDROOT
BRANCH   1   7
ATOM      7  N   LIG d   1       4.362  -3.775  -6.385  0.00  0.00    -0.309 N 
ATOM      8  H   LIG d   1       3.562  -4.275  -6.613  0.00  0.00     0.149 HD
BRANCH   7   9
ATOM      9  C   LIG d   1       5.624  -4.480  -6.145  0.00  0.00     0.026 C 
BRANCH   9  10
ATOM     10  C   LIG d   1       6.427  -3.738  -5.076  0.00  0.00    -0.044 C 
ATOM     11  H   LIG d   1       7.443  -3.572  -5.435  0.00  0.00     0.025 H 
ATOM     12  H   LIG d   1       5.954  -2.779  -4.867  0.00  0.00     0.025 H 
ATOM     13  H   LIG d   1       6.456  -4.335  -4.164  0.00  0.00     0.025 H 
ENDBRANCH   9  10
BRANCH   9  14
ATOM     14  C   LIG d   1       6.431  -4.535  -7.443  0.00  0.00    -0.044 C 
ATOM     15  H   LIG d   1       7.131  -3.700  -7.472  0.00  0.00     0.025 H 
ATOM     16  H   LIG d   1       6.984  -5.474  -7.488  0.00  0.00     0.025 H 
ATOM     17  H   LIG d   1       5.754  -4.471  -8.296  0.00  0.00     0.025 H 
ENDBRANCH   9  14
BRANCH   9  18
ATOM     18  C   LIG d   1       5.330  -5.903  -5.667  0.00  0.00    -0.044 C 
ATOM     19  H   LIG d   1       4.743  -5.864  -4.749  0.00  0.00     0.025 H 
ATOM     20  H   LIG d   1       4.769  -6.436  -6.435  0.00  0.00     0.025 H 
ATOM     21  H   LIG d   1       6.268  -6.423  -5.475  0.00  0.00     0.025 H 
ENDBRANCH   9  18
ENDBRANCH   7   9
ENDBRANCH   1   7
BRANCH   5  22
ATOM     22  N   LIG d   1       3.785   0.092  -3.790  0.00  0.00    -0.309 N 
ATOM     23  H   LIG d   1       3.003   0.653  -3.670  0.00  0.00     0.149 HD
BRANCH  22  24
ATOM     24  C   LIG d   1       4.710  -0.127  -2.674  0.00  0.00     0.026 C 
BRANCH  24  25
ATOM     25  C   LIG d   1       4.399  -1.469  -2.011  0.00  0.00    -0.044 C 
ATOM     26  H   LIG d   1       5.270  -2.120  -2.082  0.00  0.00     0.025 H 
ATOM     27  H   LIG d   1       4.150  -1.308  -0.961  0.00  0.00     0.025 H 
ATOM     28  H   LIG d   1       3.554  -1.937  -2.516  0.00  0.00     0.025 H 
ENDBRANCH  24  25
BRANCH  24  29
ATOM     29  C   LIG d   1       6.147  -0.137  -3.199  0.00  0.00    -0.044 C 
ATOM     30  H   LIG d   1       6.658  -1.031  -2.842  0.00  0.00     0.025 H 
ATOM     31  H   LIG d   1       6.135  -0.137  -4.290  0.00  0.00     0.025 H 
ATOM     32  H   LIG d   1       6.671   0.748  -2.841  0.00  0.00     0.025 H 
ENDBRANCH  24  29
BRANCH  24  33
ATOM     33  C   LIG d   1       4.548   0.998  -1.650  0.00  0.00    -0.044 C 
ATOM     34  H   LIG d   1       4.967   1.920  -2.053  0.00  0.00     0.025 H 
ATOM     35  H   LIG d   1       3.489   1.144  -1.436  0.00  0.00     0.025 H 
ATOM     36  H   LIG d   1       5.071   0.732  -0.732  0.00  0.00     0.025 H 
ENDBRANCH  24  33
ENDBRANCH  22  24
ENDBRANCH   5  22
BRANCH   3  37
ATOM     37  N   LIG d   1       4.634   0.458  -8.391  0.00  0.00    -0.309 N 
ATOM     38  H   LIG d   1       5.532   0.678  -8.683  0.00  0.00     0.149 HD
BRANCH  37  39
ATOM     39  C   LIG d   1       3.479   0.954  -9.143  0.00  0.00     0.026 C 
BRANCH  39  40
ATOM     40  C   LIG d   1       2.945   2.225  -8.479  0.00  0.00    -0.044 C 
ATOM     41  H   LIG d   1       3.777   2.800  -8.073  0.00  0.00     0.025 H 
ATOM     42  H   LIG d   1       2.414   2.825  -9.217  0.00  0.00     0.025 H 
ATOM     43  H   LIG d   1       2.263   1.954  -7.673  0.00  0.00     0.025 H 
ENDBRANCH  39  40
BRANCH  39  44
ATOM     44  C   LIG d   1       3.902   1.269 -10.580  0.00  0.00    -0.044 C 
ATOM     45  H   LIG d   1       3.056   1.689 -11.123  0.00  0.00     0.025 H 
ATOM     46  H   LIG d   1       4.720   1.989 -10.568  0.00  0.00     0.025 H 
ATOM     47  H   LIG d   1       4.231   0.353 -11.071  0.00  0.00     0.025 H 
ENDBRANCH  39  44
BRANCH  39  48
ATOM     48  C   LIG d   1       2.383  -0.113  -9.157  0.00  0.00    -0.044 C 
ATOM     49  H   LIG d   1       1.464   0.304  -8.746  0.00  0.00     0.025 H 
ATOM     50  H   LIG d   1       2.207  -0.440 -10.183  0.00  0.00     0.025 H 
ATOM     51  H   LIG d   1       2.697  -0.965  -8.554  0.00  0.00     0.025 H 
ENDBRANCH  39  48
ENDBRANCH  37  39
ENDBRANCH   3  37
TORSDOF 15
ENDMDL
MODEL 3
REMARK VINA RESULT:      -4.9      1.056      4.514
REMARK  15 active torsions:
REMARK  status: ('A' for Active; 'I' for Inactive)
REMARK    1  A    between atoms: C_1  and  C_2 
REMARK    2  A    between atoms: C_2  and  C_3 
REMARK    3  A    between atoms: C_2  and  C_4 
REMARK    4  A    between atoms: C_2  and  N_5 
REMARK    5  A    between atoms: N_5  and  C_6 
REMARK    6  A    between atoms: C_8  and  N_17 
REMARK    7  A    between atoms: C_10  and  N_12 
REMARK    8  A    between atoms: N_12  and  C_13 
REMARK    9  A    between atoms: C_13  and  C_14 
REMARK   10  A    between atoms: C_13  and  C_15 
REMARK   11  A    between atoms: C_13  and  C_16 
REMARK   12  A    between atoms: N_17  and  C_18 
REMARK   13  A    between atoms: C_18  and  C_19 
REMARK   14  A    between atoms: C_18  and  C_20 
REMARK   15  A    between atoms: C_18  and  C_21 
ROOT
ATOM      1  C   LIG d   1       4.308  -2.391  -6.272  0.00  0.00     0.221 A 
ATOM      2  N   LIG d   1       4.079  -1.805  -5.102  0.00  0.00    -0.181 NA
ATOM      3  C   LIG d   1       4.042  -0.479  -5.018  0.00  0.00     0.221 A 
ATOM      4  N   LIG d   1       4.223   0.260  -6.108  0.00  0.00    -0.181 NA
ATOM      5  C   LIG d   1       4.447  -0.325  -7.279  0.00  0.00     0.221 A 
ATOM      6  N   LIG d   1       4.490  -1.652  -7.361  0.00  0.00    -0.181 NA
ENDROOT
BRANCH   1   7
ATOM      7  N   LIG d   1       4.352  -3.768  -6.358  0.00  0.00    -0.309 N 
ATOM      8  H   LIG d   1       3.544  -4.267  -6.557  0.00  0.00     0.149 HD
BRANCH   7   9
ATOM      9  C   LIG d   1       5.618  -4.476  -6.148  0.00  0.00     0.026 C 
BRANCH   9  10
ATOM     10  C   LIG d   1       6.437  -3.749  -5.079  0.00  0.00    -0.044 C 
ATOM     11  H   LIG d   1       6.466  -2.683  -5.307  0.00  0.00     0.025 H 
ATOM     12  H   LIG d   1       5.976  -3.901  -4.104  0.00  0.00     0.025 H 
ATOM     13  H   LIG d   1       7.452  -4.147  -5.069  0.00  0.00     0.025 H 
ENDBRANCH   9  10
BRANCH   9  14
ATOM     14  C   LIG d   1       6.406  -4.510  -7.459  0.00  0.00    -0.044 C 
ATOM     15  H   LIG d   1       6.536  -5.545  -7.778  0.00  0.00     0.025 H 
ATOM     16  H   LIG d   1       5.859  -3.961  -8.226  0.00  0.00     0.025 H 
ATOM     17  H   LIG d   1       7.383  -4.050  -7.309  0.00  0.00     0.025 H 
ENDBRANCH   9  14
BRANCH   9  18
ATOM     18  C   LIG d   1       5.332  -5.906  -5.687  0.00  0.00    -0.044 C 
ATOM     19  H   LIG d   1       5.646  -6.024  -4.650  0.00  0.00     0.025 H 
ATOM     20  H   LIG d   1       4.263  -6.108  -5.768  0.00  0.00     0.025 H 
ATOM     21  H   LIG d   1       5.882  -6.607  -6.314  0.00  0.00     0.025 H 
ENDBRANCH   9  18
ENDBRANCH   7   9
ENDBRANCH   1   7
BRANCH   5  22
ATOM     22  N   LIG d   1       4.636   0.443  -8.410  0.00  0.00    -0.309 N 
ATOM     23  H   LIG d   1       5.534   0.646  -8.714  0.00  0.00     0.149 HD
BRANCH  22  24
ATOM     24  C   LIG d   1       3.478   0.950  -9.152  0.00  0.00     0.026 C 
BRANCH  24  25
ATOM     25  C   LIG d   1       2.948   2.211  -8.468  0.00  0.00    -0.044 C 
ATOM     26  H   LIG d   1       2.864   3.014  -9.201  0.00  0.00     0.025 H 
ATOM     27  H   LIG d   1       1.966   2.007  -8.039  0.00  0.00     0.025 H 
ATOM     28  H   LIG d   1       3.634   2.511  -7.678  0.00  0.00     0.025 H 
ENDBRANCH  24  25
BRANCH  24  29
ATOM     29  C   LIG d   1       3.898   1.284 -10.585  0.00  0.00    -0.044 C 
ATOM     30  H   LIG d   1       3.483   0.543 -11.268  0.00  0.00     0.025 H 
ATOM     31  H   LIG d   1       3.524   2.273 -10.851  0.00  0.00     0.025 H 
ATOM     32  H   LIG d   1       4.985   1.275 -10.656  0.00  0.00     0.025 H 
ENDBRANCH  24  29
BRANCH  24  33
ATOM     33  C   LIG d   1       2.381  -0.117  -9.177  0.00  0.00    -0.044 C 
ATOM     34  H   LIG d   1       2.755  -1.011  -9.676  0.00  0.00     0.025 H 
ATOM     35  H   LIG d   1       2.093  -0.364  -8.155  0.00  0.00     0.025 H 
ATOM     36  H   LIG d   1       1.515   0.265  -9.717  0.00  0.00     0.025 H 
ENDBRANCH  24  33
ENDBRANCH  22  24
ENDBRANCH   5  22
BRANCH   3  37
ATOM     37  N   LIG d   1       3.809   0.129  -3.801  0.00  0.00    -0.309 N 
ATOM     38  H   LIG d   1       3.039   0.708  -3.687  0.00  0.00     0.149 HD
BRANCH  37  39
ATOM     39  C   LIG d   1       4.724  -0.101  -2.681  0.00  0.00     0.026 C 
BRANCH  39  40
ATOM     40  C   LIG d   1       4.408  -1.451  -2.032  0.00  0.00    -0.044 C 
ATOM     41  H   LIG d   1       5.201  -2.160  -2.265  0.00  0.00     0.025 H 
ATOM     42  H   LIG d   1       4.336  -1.327  -0.953  0.00  0.00     0.025 H 
ATOM     43  H   LIG d   1       3.460  -1.826  -2.420  0.00  0.00     0.025 H 
ENDBRANCH  39  40
BRANCH  39  44
ATOM     44  C   LIG d   1       6.166  -0.107  -3.192  0.00  0.00    -0.044 C 
ATOM     45  H   LIG d   1       6.620   0.867  -3.009  0.00  0.00     0.025 H 
ATOM     46  H   LIG d   1       6.734  -0.876  -2.669  0.00  0.00     0.025 H 
ATOM     47  H   LIG d   1       6.171  -0.315  -4.262  0.00  0.00     0.025 H 
ENDBRANCH  39  44
BRANCH  39  48
ATOM     48  C   LIG d   1       4.554   1.014  -1.646  0.00  0.00    -0.044 C 
ATOM     49  H   LIG d   1       4.680   0.602  -0.645  0.00  0.00     0.025 H 
ATOM     50  H   LIG d   1       5.302   1.787  -1.819  0.00  0.00     0.025 H 
ATOM     51  H   LIG d   1       3.557   1.446  -1.738  0.00  0.00     0.025 H 
ENDBRANCH  39  48
ENDBRANCH  37  39
ENDBRANCH   3  37
TORSDOF 15
ENDMDL
MODEL 4
REMARK VINA RESULT:      -4.9      1.058      4.992
REMARK  15 active torsions:
REMARK  status: ('A' for Active; 'I' for Inactive)
REMARK    1  A    between atoms: C_1  and  C_2 
REMARK    2  A    between atoms: C_2  and  C_3 
REMARK    3  A    between atoms: C_2  and  C_4 
REMARK    4  A    between atoms: C_2  and  N_5 
REMARK    5  A    between atoms: N_5  and  C_6 
REMARK    6  A    between atoms: C_8  and  N_17 
REMARK    7  A    between atoms: C_10  and  N_12 
REMARK    8  A    between atoms: N_12  and  C_13 
REMARK    9  A    between atoms: C_13  and  C_14 
REMARK   10  A    between atoms: C_13  and  C_15 
REMARK   11  A    between atoms: C_13  and  C_16 
REMARK   12  A    between atoms: N_17  and  C_18 
REMARK   13  A    between atoms: C_18  and  C_19 
REMARK   14  A    between atoms: C_18  and  C_20 
REMARK   15  A    between atoms: C_18  and  C_21 
ROOT
ATOM      1  C   LIG d   1       4.034  -0.510  -5.010  0.00  0.00     0.221 A 
ATOM      2  N   LIG d   1       4.209   0.242  -6.091  0.00  0.00    -0.181 NA
ATOM      3  C   LIG d   1       4.449  -0.329  -7.267  0.00  0.00     0.221 A 
ATOM      4  N   LIG d   1       4.504  -1.654  -7.363  0.00  0.00    -0.181 NA
ATOM      5  C   LIG d   1       4.324  -2.406  -6.283  0.00  0.00     0.221 A 
ATOM      6  N   LIG d   1       4.089  -1.834  -5.106  0.00  0.00    -0.181 NA
ENDROOT
BRANCH   1   7
ATOM      7  N   LIG d   1       3.789   0.084  -3.788  0.00  0.00    -0.309 N 
ATOM      8  H   LIG d   1       3.006   0.644  -3.670  0.00  0.00     0.149 HD
BRANCH   7   9
ATOM      9  C   LIG d   1       4.712  -0.132  -2.670  0.00  0.00     0.026 C 
BRANCH   9  10
ATOM     10  C   LIG d   1       4.394  -1.468  -1.996  0.00  0.00    -0.044 C 
ATOM     11  H   LIG d   1       5.323  -1.990  -1.767  0.00  0.00     0.025 H 
ATOM     12  H   LIG d   1       3.841  -1.287  -1.075  0.00  0.00     0.025 H 
ATOM     13  H   LIG d   1       3.790  -2.078  -2.668  0.00  0.00     0.025 H 
ENDBRANCH   9  10
BRANCH   9  14
ATOM     14  C   LIG d   1       4.556   1.002  -1.655  0.00  0.00    -0.044 C 
ATOM     15  H   LIG d   1       5.473   1.590  -1.622  0.00  0.00     0.025 H 
ATOM     16  H   LIG d   1       3.725   1.643  -1.951  0.00  0.00     0.025 H 
ATOM     17  H   LIG d   1       4.357   0.582  -0.668  0.00  0.00     0.025 H 
ENDBRANCH   9  14
BRANCH   9  18
ATOM     18  C   LIG d   1       6.150  -0.153  -3.193  0.00  0.00    -0.044 C 
ATOM     19  H   LIG d   1       6.593  -1.129  -2.995  0.00  0.00     0.025 H 
ATOM     20  H   LIG d   1       6.149   0.034  -4.267  0.00  0.00     0.025 H 
ATOM     21  H   LIG d   1       6.731   0.619  -2.690  0.00  0.00     0.025 H 
ENDBRANCH   9  18
ENDBRANCH   7   9
ENDBRANCH   1   7
BRANCH   5  22
ATOM     22  N   LIG d   1       4.381  -3.781  -6.382  0.00  0.00    -0.309 N 
ATOM     23  H   LIG d   1       3.584  -4.285  -6.607  0.00  0.00     0.149 HD
BRANCH  22  24
ATOM     24  C   LIG d   1       5.648  -4.481  -6.148  0.00  0.00     0.026 C 
BRANCH  24  25
ATOM     25  C   LIG d   1       6.446  -3.742  -5.072  0.00  0.00    -0.044 C 
ATOM     26  H   LIG d   1       6.272  -2.670  -5.161  0.00  0.00     0.025 H 
ATOM     27  H   LIG d   1       6.127  -4.081  -4.086  0.00  0.00     0.025 H 
ATOM     28  H   LIG d   1       7.508  -3.949  -5.200  0.00  0.00     0.025 H 
ENDBRANCH  24  25
BRANCH  24  29
ATOM     29  C   LIG d   1       5.362  -5.909  -5.681  0.00  0.00    -0.044 C 
ATOM     30  H   LIG d   1       6.149  -6.574  -6.039  0.00  0.00     0.025 H 
ATOM     31  H   LIG d   1       5.333  -5.936  -4.591  0.00  0.00     0.025 H 
ATOM     32  H   LIG d   1       4.402  -6.236  -6.078  0.00  0.00     0.025 H 
ENDBRANCH  24  29
BRANCH  24  33
ATOM     33  C   LIG d   1       6.457  -4.520  -7.446  0.00  0.00    -0.044 C 
ATOM     34  H   LIG d   1       5.781  -4.436  -8.297  0.00  0.00     0.025 H 
ATOM     35  H   LIG d   1       7.163  -3.689  -7.458  0.00  0.00     0.025 H 
ATOM     36  H   LIG d   1       7.002  -5.461  -7.506  0.00  0.00     0.025 H 
ENDBRANCH  24  33
ENDBRANCH  22  24
ENDBRANCH   5  22
BRANCH   3  37
ATOM     37  N   LIG d   1       4.637   0.453  -8.389  0.00  0.00    -0.309 N 
ATOM     38  H   LIG d   1       5.535   0.679  -8.678  0.00  0.00     0.149 HD
BRANCH  37  39
ATOM     39  C   LIG d   1       3.480   0.940  -9.143  0.00  0.00     0.026 C 
BRANCH  39  40
ATOM     40  C   LIG d   1       3.900   1.239 -10.584  0.00  0.00    -0.044 C 
ATOM     41  H   LIG d   1       3.496   0.474 -11.246  0.00  0.00     0.025 H 
ATOM     42  H   LIG d   1       3.516   2.215 -10.879  0.00  0.00     0.025 H 
ATOM     43  H   LIG d   1       4.988   1.240 -10.652  0.00  0.00     0.025 H 
ENDBRANCH  39  40
BRANCH  39  44
ATOM     44  C   LIG d   1       2.384  -0.127  -9.143  0.00  0.00    -0.044 C 
ATOM     45  H   LIG d   1       1.928  -0.179 -10.131  0.00  0.00     0.025 H 
ATOM     46  H   LIG d   1       2.819  -1.095  -8.892  0.00  0.00     0.025 H 
ATOM     47  H   LIG d   1       1.624   0.132  -8.405  0.00  0.00     0.025 H 
ENDBRANCH  39  44
BRANCH  39  48
ATOM     48  C   LIG d   1       2.948   2.218  -8.492  0.00  0.00    -0.044 C 
ATOM     49  H   LIG d   1       3.773   2.908  -8.316  0.00  0.00     0.025 H 
ATOM     50  H   LIG d   1       2.217   2.686  -9.154  0.00  0.00     0.025 H 
ATOM     51  H   LIG d   1       2.472   1.971  -7.543  0.00  0.00     0.025 H 
ENDBRANCH  39  48
ENDBRANCH  37  39
ENDBRANCH   3  37
TORSDOF 15
ENDMDL
MODEL 5
REMARK VINA RESULT:      -4.9      1.057      5.861
REMARK  15 active torsions:
REMARK  status: ('A' for Active; 'I' for Inactive)
REMARK    1  A    between atoms: C_1  and  C_2 
REMARK    2  A    between atoms: C_2  and  C_3 
REMARK    3  A    between atoms: C_2  and  C_4 
REMARK    4  A    between atoms: C_2  and  N_5 
REMARK    5  A    between atoms: N_5  and  C_6 
REMARK    6  A    between atoms: C_8  and  N_17 
REMARK    7  A    between atoms: C_10  and  N_12 
REMARK    8  A    between atoms: N_12  and  C_13 
REMARK    9  A    between atoms: C_13  and  C_14 
REMARK   10  A    between atoms: C_13  and  C_15 
REMARK   11  A    between atoms: C_13  and  C_16 
REMARK   12  A    between atoms: N_17  and  C_18 
REMARK   13  A    between atoms: C_18  and  C_19 
REMARK   14  A    between atoms: C_18  and  C_20 
REMARK   15  A    between atoms: C_18  and  C_21 
ROOT
ATOM      1  C   LIG d   1       4.444  -0.330  -7.268  0.00  0.00     0.221 A 
ATOM      2  N   LIG d   1       4.216   0.242  -6.091  0.00  0.00    -0.181 NA
ATOM      3  C   LIG d   1       4.031  -0.510  -5.010  0.00  0.00     0.221 A 
ATOM      4  N   LIG d   1       4.086  -1.834  -5.106  0.00  0.00    -0.181 NA
ATOM      5  C   LIG d   1       4.319  -2.407  -6.281  0.00  0.00     0.221 A 
ATOM      6  N   LIG d   1       4.499  -1.655  -7.363  0.00  0.00    -0.181 NA
ENDROOT
BRANCH   1   7
ATOM      7  N   LIG d   1       4.631   0.450  -8.391  0.00  0.00    -0.309 N 
ATOM      8  H   LIG d   1       5.529   0.675  -8.681  0.00  0.00     0.149 HD
BRANCH   7   9
ATOM      9  C   LIG d   1       3.473   0.940  -9.144  0.00  0.00     0.026 C 
BRANCH   9  10
ATOM     10  C   LIG d   1       3.891   1.239 -10.585  0.00  0.00    -0.044 C 
ATOM     11  H   LIG d   1       3.465   2.193 -10.897  0.00  0.00     0.025 H 
ATOM     12  H   LIG d   1       4.978   1.289 -10.644  0.00  0.00     0.025 H 
ATOM     13  H   LIG d   1       3.527   0.447 -11.239  0.00  0.00     0.025 H 
ENDBRANCH   9  10
BRANCH   9  14
ATOM     14  C   LIG d   1       2.945   2.219  -8.491  0.00  0.00    -0.044 C 
ATOM     15  H   LIG d   1       2.259   2.720  -9.174  0.00  0.00     0.025 H 
ATOM     16  H   LIG d   1       2.419   1.966  -7.570  0.00  0.00     0.025 H 
ATOM     17  H   LIG d   1       3.779   2.882  -8.262  0.00  0.00     0.025 H 
ENDBRANCH   9  14
BRANCH   9  18
ATOM     18  C   LIG d   1       2.375  -0.125  -9.141  0.00  0.00    -0.044 C 
ATOM     19  H   LIG d   1       2.044  -0.303  -8.118  0.00  0.00     0.025 H 
ATOM     20  H   LIG d   1       1.532   0.221  -9.740  0.00  0.00     0.025 H 
ATOM     21  H   LIG d   1       2.765  -1.050  -9.562  0.00  0.00     0.025 H 
ENDBRANCH   9  18
ENDBRANCH   7   9
ENDBRANCH   1   7
BRANCH   5  22
ATOM     22  N   LIG d   1       4.376  -3.782  -6.380  0.00  0.00    -0.309 N 
ATOM     23  H   LIG d   1       3.578  -4.286  -6.604  0.00  0.00     0.149 HD
BRANCH  22  24
ATOM     24  C   LIG d   1       5.643  -4.481  -6.148  0.00  0.00     0.026 C 
BRANCH  24  25
ATOM     25  C   LIG d   1       5.359  -5.910  -5.681  0.00  0.00    -0.044 C 
ATOM     26  H   LIG d   1       6.294  -6.467  -5.627  0.00  0.00     0.025 H 
ATOM     27  H   LIG d   1       4.894  -5.884  -4.695  0.00  0.00     0.025 H 
ATOM     28  H   LIG d   1       4.686  -6.395  -6.386  0.00  0.00     0.025 H 
ENDBRANCH  24  25
BRANCH  24  29
ATOM     29  C   LIG d   1       6.449  -4.520  -7.449  0.00  0.00    -0.044 C 
ATOM     30  H   LIG d   1       7.470  -4.193  -7.254  0.00  0.00     0.025 H 
ATOM     31  H   LIG d   1       6.462  -5.540  -7.837  0.00  0.00     0.025 H 
ATOM     32  H   LIG d   1       5.988  -3.859  -8.181  0.00  0.00     0.025 H 
ENDBRANCH  24  29
BRANCH  24  33
ATOM     33  C   LIG d   1       6.444  -3.742  -5.074  0.00  0.00    -0.044 C 
ATOM     34  H   LIG d   1       5.829  -3.620  -4.182  0.00  0.00     0.025 H 
ATOM     35  H   LIG d   1       7.334  -4.320  -4.825  0.00  0.00     0.025 H 
ATOM     36  H   LIG d   1       6.739  -2.763  -5.450  0.00  0.00     0.025 H 
ENDBRANCH  24  33
ENDBRANCH  22  24
ENDBRANCH   5  22
BRANCH   3  37
ATOM     37  N   LIG d   1       3.788   0.086  -3.789  0.00  0.00    -0.309 N 
ATOM     38  H   LIG d   1       3.006   0.647  -3.670  0.00  0.00     0.149 HD
BRANCH  37  39
ATOM     39  C   LIG d   1       4.710  -0.131  -2.672  0.00  0.00     0.026 C 
BRANCH  39  40
ATOM     40  C   LIG d   1       4.393  -1.468  -2.000  0.00  0.00    -0.044 C 
ATOM     41  H   LIG d   1       5.302  -2.067  -1.937  0.00  0.00     0.025 H 
ATOM     42  H   LIG d   1       4.006  -1.289  -0.998  0.00  0.00     0.025 H 
ATOM     43  H   LIG d   1       3.647  -2.002  -2.589  0.00  0.00     0.025 H 
ENDBRANCH  39  40
BRANCH  39  44
ATOM     44  C   LIG d   1       6.149  -0.151  -3.194  0.00  0.00    -0.044 C 
ATOM     45  H   LIG d   1       6.414   0.839  -3.565  0.00  0.00     0.025 H 
ATOM     46  H   LIG d   1       6.825  -0.430  -2.386  0.00  0.00     0.025 H 
ATOM     47  H   LIG d   1       6.231  -0.877  -4.004  0.00  0.00     0.025 H 
ENDBRANCH  39  44
BRANCH  39  48
ATOM     48  C   LIG d   1       4.553   1.001  -1.654  0.00  0.00    -0.044 C 
ATOM     49  H   LIG d   1       3.760   0.750  -0.951  0.00  0.00     0.025 H 
ATOM     50  H   LIG d   1       5.491   1.136  -1.114  0.00  0.00     0.025 H 
ATOM     51  H   LIG d   1       4.299   1.925  -2.174  0.00  0.00     0.025 H 
ENDBRANCH  39  48
ENDBRANCH  37  39
ENDBRANCH   3  37
TORSDOF 15
ENDMDL
MODEL 6
REMARK VINA RESULT:      -4.9      1.063      4.928
REMARK  15 active torsions:
REMARK  status: ('A' for Active; 'I' for Inactive)
REMARK    1  A    between atoms: C_1  and  C_2 
REMARK    2  A    between atoms: C_2  and  C_3 
REMARK    3  A    between atoms: C_2  and  C_4 
REMARK    4  A    between atoms: C_2  and  N_5 
REMARK    5  A    between atoms: N_5  and  C_6 
REMARK    6  A    between atoms: C_8  and  N_17 
REMARK    7  A    between atoms: C_10  and  N_12 
REMARK    8  A    between atoms: N_12  and  C_13 
REMARK    9  A    between atoms: C_13  and  C_14 
REMARK   10  A    between atoms: C_13  and  C_15 
REMARK   11  A    between atoms: C_13  and  C_16 
REMARK   12  A    between atoms: N_17  and  C_18 
REMARK   13  A    between atoms: C_18  and  C_19 
REMARK   14  A    between atoms: C_18  and  C_20 
REMARK   15  A    between atoms: C_18  and  C_21 
ROOT
ATOM      1  C   LIG d   1       4.452  -0.331  -7.271  0.00  0.00     0.221 A 
ATOM      2  N   LIG d   1       4.507  -1.655  -7.365  0.00  0.00    -0.181 NA
ATOM      3  C   LIG d   1       4.336  -2.406  -6.282  0.00  0.00     0.221 A 
ATOM      4  N   LIG d   1       4.098  -1.832  -5.107  0.00  0.00    -0.181 NA
ATOM      5  C   LIG d   1       4.038  -0.508  -5.014  0.00  0.00     0.221 A 
ATOM      6  N   LIG d   1       4.215   0.243  -6.096  0.00  0.00    -0.181 NA
ENDROOT
BRANCH   1   7
ATOM      7  N   LIG d   1       4.635   0.449  -8.396  0.00  0.00    -0.309 N 
ATOM      8  H   LIG d   1       5.532   0.673  -8.689  0.00  0.00     0.149 HD
BRANCH   7   9
ATOM      9  C   LIG d   1       3.475   0.940  -9.144  0.00  0.00     0.026 C 
BRANCH   9  10
ATOM     10  C   LIG d   1       2.945   2.215  -8.486  0.00  0.00    -0.044 C 
ATOM     11  H   LIG d   1       2.098   1.967  -7.844  0.00  0.00     0.025 H 
ATOM     12  H   LIG d   1       3.734   2.669  -7.888  0.00  0.00     0.025 H 
ATOM     13  H   LIG d   1       2.624   2.914  -9.257  0.00  0.00     0.025 H 
ENDBRANCH   9  10
BRANCH   9  14
ATOM     14  C   LIG d   1       2.380  -0.129  -9.143  0.00  0.00    -0.044 C 
ATOM     15  H   LIG d   1       2.837  -1.118  -9.112  0.00  0.00     0.025 H 
ATOM     16  H   LIG d   1       1.744   0.004  -8.267  0.00  0.00     0.025 H 
ATOM     17  H   LIG d   1       1.778  -0.034 -10.047  0.00  0.00     0.025 H 
ENDBRANCH   9  14
BRANCH   9  18
ATOM     18  C   LIG d   1       3.889   1.243 -10.585  0.00  0.00    -0.044 C 
ATOM     19  H   LIG d   1       3.030   1.116 -11.244  0.00  0.00     0.025 H 
ATOM     20  H   LIG d   1       4.249   2.270 -10.651  0.00  0.00     0.025 H 
ATOM     21  H   LIG d   1       4.682   0.560 -10.887  0.00  0.00     0.025 H 
ENDBRANCH   9  18
ENDBRANCH   7   9
ENDBRANCH   1   7
BRANCH   5  22
ATOM     22  N   LIG d   1       3.792   0.088  -3.793  0.00  0.00    -0.309 N 
ATOM     23  H   LIG d   1       3.010   0.650  -3.677  0.00  0.00     0.149 HD
BRANCH  22  24
ATOM     24  C   LIG d   1       4.711  -0.131  -2.673  0.00  0.00     0.026 C 
BRANCH  24  25
ATOM     25  C   LIG d   1       6.150  -0.155  -3.192  0.00  0.00    -0.044 C 
ATOM     26  H   LIG d   1       6.144  -0.107  -4.281  0.00  0.00     0.025 H 
ATOM     27  H   LIG d   1       6.694   0.702  -2.794  0.00  0.00     0.025 H 
ATOM     28  H   LIG d   1       6.636  -1.075  -2.871  0.00  0.00     0.025 H 
ENDBRANCH  24  25
BRANCH  24  29
ATOM     29  C   LIG d   1       4.553   1.003  -1.657  0.00  0.00    -0.044 C 
ATOM     30  H   LIG d   1       4.517   1.958  -2.181  0.00  0.00     0.025 H 
ATOM     31  H   LIG d   1       3.628   0.862  -1.097  0.00  0.00     0.025 H 
ATOM     32  H   LIG d   1       5.399   0.996  -0.971  0.00  0.00     0.025 H 
ENDBRANCH  24  29
BRANCH  24  33
ATOM     33  C   LIG d   1       4.388  -1.467  -2.001  0.00  0.00    -0.044 C 
ATOM     34  H   LIG d   1       5.167  -1.707  -1.277  0.00  0.00     0.025 H 
ATOM     35  H   LIG d   1       3.428  -1.394  -1.491  0.00  0.00     0.025 H 
ATOM     36  H   LIG d   1       4.341  -2.251  -2.756  0.00  0.00     0.025 H 
ENDBRANCH  24  33
ENDBRANCH  22  24
ENDBRANCH   5  22
BRANCH   3  37
ATOM     37  N   LIG d   1       4.399  -3.782  -6.379  0.00  0.00    -0.309 N 
ATOM     38  H   LIG d   1       3.602  -4.290  -6.593  0.00  0.00     0.149 HD
BRANCH  37  39
ATOM     39  C   LIG d   1       5.671  -4.474  -6.159  0.00  0.00     0.026 C 
BRANCH  39  40
ATOM     40  C   LIG d   1       6.473  -4.494  -7.463  0.00  0.00    -0.044 C 
ATOM     41  H   LIG d   1       5.796  -4.640  -8.303  0.00  0.00     0.025 H 
ATOM     42  H   LIG d   1       6.999  -3.547  -7.580  0.00  0.00     0.025 H 
ATOM     43  H   LIG d   1       7.195  -5.310  -7.431  0.00  0.00     0.025 H 
ENDBRANCH  39  40
BRANCH  39  44
ATOM     44  C   LIG d   1       6.471  -3.741  -5.080  0.00  0.00    -0.044 C 
ATOM     45  H   LIG d   1       7.268  -3.164  -5.548  0.00  0.00     0.025 H 
ATOM     46  H   LIG d   1       5.811  -3.070  -4.530  0.00  0.00     0.025 H 
ATOM     47  H   LIG d   1       6.905  -4.469  -4.393  0.00  0.00     0.025 H 
ENDBRANCH  39  44
BRANCH  39  48
ATOM     48  C   LIG d   1       5.399  -5.909  -5.706  0.00  0.00    -0.044 C 
ATOM     49  H   LIG d   1       4.414  -6.220  -6.054  0.00  0.00     0.025 H 
ATOM     50  H   LIG d   1       6.158  -6.572  -6.123  0.00  0.00     0.025 H 
ATOM     51  H   LIG d   1       5.432  -5.959  -4.618  0.00  0.00     0.025 H 
ENDBRANCH  39  48
ENDBRANCH  37  39
ENDBRANCH   3  37
TORSDOF 15
ENDMDL
MODEL 7
REMARK VINA RESULT:      -4.9      1.058      1.918
REMARK  15 active torsions:
REMARK  status: ('A' for Active; 'I' for Inactive)
REMARK    1  A    between atoms: C_1  and  C_2 
REMARK    2  A    between atoms: C_2  and  C_3 
REMARK    3  A    between atoms: C_2  and  C_4 
REMARK    4  A    between atoms: C_2  and  N_5 
REMARK    5  A    between atoms: N_5  and  C_6 
REMARK    6  A    between atoms: C_8  and  N_17 
REMARK    7  A    between atoms: C_10  and  N_12 
REMARK    8  A    between atoms: N_12  and  C_13 
REMARK    9  A    between atoms: C_13  and  C_14 
REMARK   10  A    between atoms: C_13  and  C_15 
REMARK   11  A    between atoms: C_13  and  C_16 
REMARK   12  A    between atoms: N_17  and  C_18 
REMARK   13  A    between atoms: C_18  and  C_19 
REMARK   14  A    between atoms: C_18  and  C_20 
REMARK   15  A    between atoms: C_18  and  C_21 
ROOT
ATOM      1  C   LIG d   1       4.036  -0.509  -5.010  0.00  0.00     0.221 A 
ATOM      2  N   LIG d   1       4.096  -1.833  -5.103  0.00  0.00    -0.181 NA
ATOM      3  C   LIG d   1       4.326  -2.407  -6.279  0.00  0.00     0.221 A 
ATOM      4  N   LIG d   1       4.505  -1.656  -7.361  0.00  0.00    -0.181 NA
ATOM      5  C   LIG d   1       4.450  -0.332  -7.268  0.00  0.00     0.221 A 
ATOM      6  N   LIG d   1       4.215   0.242  -6.092  0.00  0.00    -0.181 NA
ENDROOT
BRANCH   1   7
ATOM      7  N   LIG d   1       3.792   0.087  -3.789  0.00  0.00    -0.309 N 
ATOM      8  H   LIG d   1       3.012   0.651  -3.672  0.00  0.00     0.149 HD
BRANCH   7   9
ATOM      9  C   LIG d   1       4.714  -0.130  -2.670  0.00  0.00     0.026 C 
BRANCH   9  10
ATOM     10  C   LIG d   1       6.152  -0.152  -3.192  0.00  0.00    -0.044 C 
ATOM     11  H   LIG d   1       6.836  -0.343  -2.364  0.00  0.00     0.025 H 
ATOM     12  H   LIG d   1       6.255  -0.939  -3.938  0.00  0.00     0.025 H 
ATOM     13  H   LIG d   1       6.388   0.811  -3.643  0.00  0.00     0.025 H 
ENDBRANCH   9  10
BRANCH   9  14
ATOM     14  C   LIG d   1       4.394  -1.468  -2.000  0.00  0.00    -0.044 C 
ATOM     15  H   LIG d   1       5.147  -2.205  -2.280  0.00  0.00     0.025 H 
ATOM     16  H   LIG d   1       4.395  -1.341  -0.917  0.00  0.00     0.025 H 
ATOM     17  H   LIG d   1       3.411  -1.812  -2.325  0.00  0.00     0.025 H 
ENDBRANCH   9  14
BRANCH   9  18
ATOM     18  C   LIG d   1       4.557   1.000  -1.652  0.00  0.00    -0.044 C 
ATOM     19  H   LIG d   1       4.835   0.639  -0.662  0.00  0.00     0.025 H 
ATOM     20  H   LIG d   1       5.204   1.833  -1.930  0.00  0.00     0.025 H 
ATOM     21  H   LIG d   1       3.520   1.335  -1.638  0.00  0.00     0.025 H 
ENDBRANCH   9  18
ENDBRANCH   7   9
ENDBRANCH   1   7
BRANCH   5  22
ATOM     22  N   LIG d   1       4.636   0.448  -8.391  0.00  0.00    -0.309 N 
ATOM     23  H   LIG d   1       5.534   0.669  -8.684  0.00  0.00     0.149 HD
BRANCH  22  24
ATOM     24  C   LIG d   1       3.477   0.940  -9.141  0.00  0.00     0.026 C 
BRANCH  24  25
ATOM     25  C   LIG d   1       2.953   2.219  -8.487  0.00  0.00    -0.044 C 
ATOM     26  H   LIG d   1       1.980   2.025  -8.037  0.00  0.00     0.025 H 
ATOM     27  H   LIG d   1       3.651   2.546  -7.716  0.00  0.00     0.025 H 
ATOM     28  H   LIG d   1       2.855   2.998  -9.242  0.00  0.00     0.025 H 
ENDBRANCH  24  25
BRANCH  24  29
ATOM     29  C   LIG d   1       3.894   1.237 -10.583  0.00  0.00    -0.044 C 
ATOM     30  H   LIG d   1       4.515   0.423 -10.958  0.00  0.00     0.025 H 
ATOM     31  H   LIG d   1       3.003   1.329 -11.207  0.00  0.00     0.025 H 
ATOM     32  H   LIG d   1       4.457   2.168 -10.614  0.00  0.00     0.025 H 
ENDBRANCH  24  29
BRANCH  24  33
ATOM     33  C   LIG d   1       2.377  -0.124  -9.136  0.00  0.00    -0.044 C 
ATOM     34  H   LIG d   1       1.406   0.358  -9.247  0.00  0.00     0.025 H 
ATOM     35  H   LIG d   1       2.538  -0.815  -9.964  0.00  0.00     0.025 H 
ATOM     36  H   LIG d   1       2.406  -0.671  -8.195  0.00  0.00     0.025 H 
ENDBRANCH  24  33
ENDBRANCH  22  24
ENDBRANCH   5  22
BRANCH   3  37
ATOM     37  N   LIG d   1       4.383  -3.783  -6.376  0.00  0.00    -0.309 N 
ATOM     38  H   LIG d   1       3.585  -4.287  -6.600  0.00  0.00     0.149 HD
BRANCH  37  39
ATOM     39  C   LIG d   1       5.648  -4.482  -6.143  0.00  0.00     0.026 C 
BRANCH  39  40
ATOM     40  C   LIG d   1       6.458  -4.519  -7.441  0.00  0.00    -0.044 C 
ATOM     41  H   LIG d   1       6.440  -5.528  -7.851  0.00  0.00     0.025 H 
ATOM     42  H   LIG d   1       6.023  -3.826  -8.160  0.00  0.00     0.025 H 
ATOM     43  H   LIG d   1       7.488  -4.229  -7.233  0.00  0.00     0.025 H 
ENDBRANCH  39  40
BRANCH  39  44
ATOM     44  C   LIG d   1       6.447  -3.746  -5.064  0.00  0.00    -0.044 C 
ATOM     45  H   LIG d   1       7.399  -4.253  -4.908  0.00  0.00     0.025 H 
ATOM     46  H   LIG d   1       6.629  -2.720  -5.384  0.00  0.00     0.025 H 
ATOM     47  H   LIG d   1       5.880  -3.741  -4.133  0.00  0.00     0.025 H 
ENDBRANCH  39  44
BRANCH  39  48
ATOM     48  C   LIG d   1       5.363  -5.912  -5.679  0.00  0.00    -0.044 C 
ATOM     49  H   LIG d   1       5.987  -6.607  -6.240  0.00  0.00     0.025 H 
ATOM     50  H   LIG d   1       5.586  -6.000  -4.615  0.00  0.00     0.025 H 
ATOM     51  H   LIG d   1       4.313  -6.147  -5.850  0.00  0.00     0.025 H 
ENDBRANCH  39  48
ENDBRANCH  37  39
ENDBRANCH   3  37
TORSDOF 15
ENDMDL
MODEL 8
REMARK VINA RESULT:      -4.5      1.096      4.755
REMARK  15 active torsions:
REMARK  status: ('A' for Active; 'I' for Inactive)
REMARK    1  A    between atoms: C_1  and  C_2 
REMARK    2  A    between atoms: C_2  and  C_3 
REMARK    3  A    between atoms: C_2  and  C_4 
REMARK    4  A    between atoms: C_2  and  N_5 
REMARK    5  A    between atoms: N_5  and  C_6 
REMARK    6  A    between atoms: C_8  and  N_17 
REMARK    7  A    between atoms: C_10  and  N_12 
REMARK    8  A    between atoms: N_12  and  C_13 
REMARK    9  A    between atoms: C_13  and  C_14 
REMARK   10  A    between atoms: C_13  and  C_15 
REMARK   11  A    between atoms: C_13  and  C_16 
REMARK   12  A    between atoms: N_17  and  C_18 
REMARK   13  A    between atoms: C_18  and  C_19 
REMARK   14  A    between atoms: C_18  and  C_20 
REMARK   15  A    between atoms: C_18  and  C_21 
ROOT
ATOM      1  C   LIG d   1       5.133  -0.455  -5.616  0.00  0.00     0.221 A 
ATOM      2  N   LIG d   1       5.112   0.361  -6.664  0.00  0.00    -0.181 NA
ATOM      3  C   LIG d   1       5.307  -0.123  -7.887  0.00  0.00     0.221 A 
ATOM      4  N   LIG d   1       5.511  -1.424  -8.062  0.00  0.00    -0.181 NA
ATOM      5  C   LIG d   1       5.526  -2.241  -7.014  0.00  0.00     0.221 A 
ATOM      6  N   LIG d   1       5.337  -1.757  -5.791  0.00  0.00    -0.181 NA
ENDROOT
BRANCH   1   7
ATOM      7  N   LIG d   1       4.936   0.048  -4.345  0.00  0.00    -0.309 N 
ATOM      8  H   LIG d   1       5.684   0.414  -3.848  0.00  0.00     0.149 HD
BRANCH   7   9
ATOM      9  C   LIG d   1       3.598   0.027  -3.748  0.00  0.00     0.026 C 
BRANCH   9  10
ATOM     10  C   LIG d   1       3.534   1.042  -2.605  0.00  0.00    -0.044 C 
ATOM     11  H   LIG d   1       4.363   0.867  -1.917  0.00  0.00     0.025 H 
ATOM     12  H   LIG d   1       3.605   2.050  -3.010  0.00  0.00     0.025 H 
ATOM     13  H   LIG d   1       2.590   0.928  -2.072  0.00  0.00     0.025 H 
ENDBRANCH   9  10
BRANCH   9  14
ATOM     14  C   LIG d   1       3.304  -1.372  -3.206  0.00  0.00    -0.044 C 
ATOM     15  H   LIG d   1       3.830  -2.114  -3.808  0.00  0.00     0.025 H 
ATOM     16  H   LIG d   1       3.641  -1.439  -2.171  0.00  0.00     0.025 H 
ATOM     17  H   LIG d   1       2.231  -1.563  -3.252  0.00  0.00     0.025 H 
ENDBRANCH   9  14
BRANCH   9  18
ATOM     18  C   LIG d   1       2.560   0.391  -4.812  0.00  0.00    -0.044 C 
ATOM     19  H   LIG d   1       1.958   1.229  -4.460  0.00  0.00     0.025 H 
ATOM     20  H   LIG d   1       3.068   0.671  -5.735  0.00  0.00     0.025 H 
ATOM     21  H   LIG d   1       1.914  -0.467  -4.997  0.00  0.00     0.025 H 
ENDBRANCH   9  18
ENDBRANCH   7   9
ENDBRANCH   1   7
BRANCH   5  22
ATOM     22  N   LIG d   1       5.738  -3.593  -7.196  0.00  0.00    -0.309 N 
ATOM     23  H   LIG d   1       6.618  -3.971  -7.043  0.00  0.00     0.149 HD
BRANCH  22  24
ATOM     24  C   LIG d   1       4.633  -4.457  -7.619  0.00  0.00     0.026 C 
BRANCH  24  25
ATOM     25  C   LIG d   1       3.597  -3.625  -8.377  0.00  0.00    -0.044 C 
ATOM     26  H   LIG d   1       3.297  -4.154  -9.281  0.00  0.00     0.025 H 
ATOM     27  H   LIG d   1       2.725  -3.465  -7.743  0.00  0.00     0.025 H 
ATOM     28  H   LIG d   1       4.032  -2.663  -8.647  0.00  0.00     0.025 H 
ENDBRANCH  24  25
BRANCH  24  29
ATOM     29  C   LIG d   1       5.170  -5.560  -8.533  0.00  0.00    -0.044 C 
ATOM     30  H   LIG d   1       4.536  -5.641  -9.417  0.00  0.00     0.025 H 
ATOM     31  H   LIG d   1       6.188  -5.314  -8.839  0.00  0.00     0.025 H 
ATOM     32  H   LIG d   1       5.171  -6.508  -7.998  0.00  0.00     0.025 H 
ENDBRANCH  24  29
BRANCH  24  33
ATOM     33  C   LIG d   1       3.978  -5.088  -6.388  0.00  0.00    -0.044 C 
ATOM     34  H   LIG d   1       4.734  -5.253  -5.620  0.00  0.00     0.025 H 
ATOM     35  H   LIG d   1       3.209  -4.418  -6.004  0.00  0.00     0.025 H 
ATOM     36  H   LIG d   1       3.527  -6.040  -6.665  0.00  0.00     0.025 H 
ENDBRANCH  24  33
ENDBRANCH  22  24
ENDBRANCH   5  22
BRANCH   3  37
ATOM     37  N   LIG d   1       5.291   0.727  -8.975  0.00  0.00    -0.309 N 
ATOM     38  H   LIG d   1       6.126   1.011  -9.380  0.00  0.00     0.149 HD
BRANCH  37  39
ATOM     39  C   LIG d   1       4.016   1.197  -9.519  0.00  0.00     0.026 C 
BRANCH  39  40
ATOM     40  C   LIG d   1       3.833   2.679  -9.183  0.00  0.00    -0.044 C 
ATOM     41  H   LIG d   1       3.977   3.276 -10.083  0.00  0.00     0.025 H 
ATOM     42  H   LIG d   1       2.828   2.842  -8.795  0.00  0.00     0.025 H 
ATOM     43  H   LIG d   1       4.566   2.974  -8.431  0.00  0.00     0.025 H 
ENDBRANCH  39  40
BRANCH  39  44
ATOM     44  C   LIG d   1       4.010   1.015 -11.038  0.00  0.00    -0.044 C 
ATOM     45  H   LIG d   1       5.033   0.890 -11.393  0.00  0.00     0.025 H 
ATOM     46  H   LIG d   1       3.425   0.132 -11.296  0.00  0.00     0.025 H 
ATOM     47  H   LIG d   1       3.567   1.894 -11.508  0.00  0.00     0.025 H 
ENDBRANCH  39  44
BRANCH  39  48
ATOM     48  C   LIG d   1       2.870   0.390  -8.904  0.00  0.00    -0.044 C 
ATOM     49  H   LIG d   1       3.116   0.138  -7.873  0.00  0.00     0.025 H 
ATOM     50  H   LIG d   1       1.955   0.983  -8.926  0.00  0.00     0.025 H 
ATOM     51  H   LIG d   1       2.723  -0.525  -9.478  0.00  0.00     0.025 H 
ENDBRANCH  39  48
ENDBRANCH  37  39
ENDBRANCH   3  37
TORSDOF 15
ENDMDL
MODEL 9
REMARK VINA RESULT:      -4.4      2.412      4.021
REMARK  15 active torsions:
REMARK  status: ('A' for Active; 'I' for Inactive)
REMARK    1  A    between atoms: C_1  and  C_2 
REMARK    2  A    between atoms: C_2  and  C_3 
REMARK    3  A    between atoms: C_2  and  C_4 
REMARK    4  A    between atoms: C_2  and  N_5 
REMARK    5  A    between atoms: N_5  and  C_6 
REMARK    6  A    between atoms: C_8  and  N_17 
REMARK    7  A    between atoms: C_10  and  N_12 
REMARK    8  A    between atoms: N_12  and  C_13 
REMARK    9  A    between atoms: C_13  and  C_14 
REMARK   10  A    between atoms: C_13  and  C_15 
REMARK   11  A    between atoms: C_13  and  C_16 
REMARK   12  A    between atoms: N_17  and  C_18 
REMARK   13  A    between atoms: C_18  and  C_19 
REMARK   14  A    between atoms: C_18  and  C_20 
REMARK   15  A    between atoms: C_18  and  C_21 
ROOT
ATOM      1  C   LIG d   1       4.836  -0.863  -5.531  0.00  0.00     0.221 A 
ATOM      2  N   LIG d   1       6.158  -0.753  -5.454  0.00  0.00    -0.181 NA
ATOM      3  C   LIG d   1       6.815  -0.006  -6.335  0.00  0.00     0.221 A 
ATOM      4  N   LIG d   1       6.149   0.642  -7.285  0.00  0.00    -0.181 NA
ATOM      5  C   LIG d   1       4.827   0.537  -7.358  0.00  0.00     0.221 A 
ATOM      6  N   LIG d   1       4.170  -0.215  -6.481  0.00  0.00    -0.181 NA
ENDROOT
BRANCH   1   7
ATOM      7  N   LIG d   1       4.154  -1.643  -4.619  0.00  0.00    -0.309 N 
ATOM      8  H   LIG d   1       3.937  -2.563  -4.836  0.00  0.00     0.149 HD
BRANCH   7   9
ATOM      9  C   LIG d   1       3.758  -1.082  -3.325  0.00  0.00     0.026 C 
BRANCH   9  10
ATOM     10  C   LIG d   1       4.707   0.058  -2.951  0.00  0.00    -0.044 C 
ATOM     11  H   LIG d   1       4.596   0.873  -3.668  0.00  0.00     0.025 H 
ATOM     12  H   LIG d   1       4.467   0.417  -1.951  0.00  0.00     0.025 H 
ATOM     13  H   LIG d   1       5.735  -0.305  -2.971  0.00  0.00     0.025 H 
ENDBRANCH   9  10
BRANCH   9  14
ATOM     14  C   LIG d   1       3.825  -2.173  -2.255  0.00  0.00    -0.044 C 
ATOM     15  H   LIG d   1       4.044  -3.132  -2.726  0.00  0.00     0.025 H 
ATOM     16  H   LIG d   1       4.612  -1.933  -1.539  0.00  0.00     0.025 H 
ATOM     17  H   LIG d   1       2.868  -2.234  -1.736  0.00  0.00     0.025 H 
ENDBRANCH   9  14
BRANCH   9  18
ATOM     18  C   LIG d   1       2.328  -0.546  -3.418  0.00  0.00    -0.044 C 
ATOM     19  H   LIG d   1       2.264   0.178  -4.229  0.00  0.00     0.025 H 
ATOM     20  H   LIG d   1       1.642  -1.372  -3.613  0.00  0.00     0.025 H 
ATOM     21  H   LIG d   1       2.059  -0.064  -2.479  0.00  0.00     0.025 H 
ENDBRANCH   9  18
ENDBRANCH   7   9
ENDBRANCH   1   7
BRANCH   5  22
ATOM     22  N   LIG d   1       4.134   1.210  -8.345  0.00  0.00    -0.309 N 
ATOM     23  H   LIG d   1       3.937   2.154  -8.241  0.00  0.00     0.149 HD
BRANCH  22  24
ATOM     24  C   LIG d   1       3.699   0.497  -9.549  0.00  0.00     0.026 C 
BRANCH  24  25
ATOM     25  C   LIG d   1       4.534  -0.773  -9.719  0.00  0.00    -0.044 C 
ATOM     26  H   LIG d   1       5.547  -0.593  -9.359  0.00  0.00     0.025 H 
ATOM     27  H   LIG d   1       4.083  -1.584  -9.145  0.00  0.00     0.025 H 
ATOM     28  H   LIG d   1       4.566  -1.048 -10.773  0.00  0.00     0.025 H 
ENDBRANCH  24  25
BRANCH  24  29
ATOM     29  C   LIG d   1       2.221   0.123  -9.412  0.00  0.00    -0.044 C 
ATOM     30  H   LIG d   1       1.990  -0.070  -8.364  0.00  0.00     0.025 H 
ATOM     31  H   LIG d   1       1.603   0.946  -9.774  0.00  0.00     0.025 H 
ATOM     32  H   LIG d   1       2.017  -0.771 -10.000  0.00  0.00     0.025 H 
ENDBRANCH  24  29
BRANCH  24  33
ATOM     33  C   LIG d   1       3.886   1.399 -10.771  0.00  0.00    -0.044 C 
ATOM     34  H   LIG d   1       3.116   1.174 -11.509  0.00  0.00     0.025 H 
ATOM     35  H   LIG d   1       3.805   2.442 -10.467  0.00  0.00     0.025 H 
ATOM     36  H   LIG d   1       4.869   1.221 -11.206  0.00  0.00     0.025 H 
ENDBRANCH  24  33
ENDBRANCH  22  24
ENDBRANCH   5  22
BRANCH   3  37
ATOM     37  N   LIG d   1       8.190   0.102  -6.259  0.00  0.00    -0.309 N 
ATOM     38  H   LIG d   1       8.753  -0.573  -6.669  0.00  0.00     0.149 HD
BRANCH  37  39
ATOM     39  C   LIG d   1       8.798   1.237  -5.560  0.00  0.00     0.026 C 
BRANCH  39  40
ATOM     40  C   LIG d   1       8.980   2.400  -6.538  0.00  0.00    -0.044 C 
ATOM     41  H   LIG d   1       9.897   2.254  -7.109  0.00  0.00     0.025 H 
ATOM     42  H   LIG d   1       8.130   2.440  -7.218  0.00  0.00     0.025 H 
ATOM     43  H   LIG d   1       9.045   3.335  -5.981  0.00  0.00     0.025 H 
ENDBRANCH  39  40
BRANCH  39  44
ATOM     44  C   LIG d   1       7.888   1.675  -4.411  0.00  0.00    -0.044 C 
ATOM     45  H   LIG d   1       7.175   2.415  -4.774  0.00  0.00     0.025 H 
ATOM     46  H   LIG d   1       7.349   0.811  -4.023  0.00  0.00     0.025 H 
ATOM     47  H   LIG d   1       8.493   2.113  -3.616  0.00  0.00     0.025 H 
ENDBRANCH  39  44
BRANCH  39  48
ATOM     48  C   LIG d   1      10.160   0.821  -5.002  0.00  0.00    -0.044 C 
ATOM     49  H   LIG d   1      10.041   0.465  -3.979  0.00  0.00     0.025 H 
ATOM     50  H   LIG d   1      10.578   0.024  -5.619  0.00  0.00     0.025 H 
ATOM     51  H   LIG d   1      10.834   1.678  -5.012  0.00  0.00     0.025 H 
ENDBRANCH  39  48
ENDBRANCH  37  39
ENDBRANCH   3  37
TORSDOF 15
ENDMDL
