MODEL 1
REMARK VINA RESULT:      -6.3      0.000      0.000
REMARK  8 active torsions:
REMARK  status: ('A' for Active; 'I' for Inactive)
REMARK    1  A    between atoms: C_1  and  C_2 
REMARK    2  A    between atoms: C_6  and  O_26 
REMARK    3  A    between atoms: C_12  and  C_13 
REMARK    4  A    between atoms: C_13  and  C_14 
REMARK       I    between atoms: C_14  and  N_16 
REMARK    5  A    between atoms: N_16  and  C_17 
REMARK    6  A    between atoms: N_16  and  C_18 
REMARK    7  A    between atoms: C_18  and  C_19 
REMARK    8  A    between atoms: C_19  and  C_20 
ROOT
ATOM      1  C   LIG d   1       5.807  -2.894  -7.751  0.00  0.00     0.056 C 
ATOM      2  H   LIG d   1       5.728  -3.931  -7.428  0.00  0.00     0.041 H 
ATOM      3  H   LIG d   1       6.779  -2.732  -8.217  0.00  0.00     0.041 H 
ENDROOT
BRANCH   1   4
ATOM      4  C   LIG d   1       5.666  -1.984  -6.557  0.00  0.00     0.049 A 
ATOM      5  C   LIG d   1       5.175  -2.467  -5.387  0.00  0.00    -0.029 A 
ATOM      6  C   LIG d   1       5.054  -1.547  -4.254  0.00  0.00     0.021 A 
ATOM      7  C   LIG d   1       5.449  -0.206  -4.421  0.00  0.00     0.143 A 
ATOM      8  C   LIG d   1       4.556  -1.983  -3.021  0.00  0.00    -0.047 A 
ATOM      9  C   LIG d   1       5.338   0.673  -3.353  0.00  0.00     0.023 A 
ATOM     10  O   LIG d   1       5.930   0.210  -5.612  0.00  0.00    -0.422 OA
ATOM     11  C   LIG d   1       4.843   0.225  -2.141  0.00  0.00     0.120 A 
ATOM     12  H   LIG d   1       5.638   1.704  -3.469  0.00  0.00     0.069 H 
ATOM     13  C   LIG d   1       4.455  -1.104  -1.982  0.00  0.00    -0.019 A 
ATOM     14  H   LIG d   1       4.070  -1.441  -1.031  0.00  0.00     0.065 H 
ATOM     15  C   LIG d   1       6.046  -0.629  -6.652  0.00  0.00     0.341 A 
ATOM     16  O   LIG d   1       6.490  -0.210  -7.706  0.00  0.00    -0.245 OA
ATOM     17  H   LIG d   1       4.254  -3.011  -2.893  0.00  0.00     0.063 H 
BRANCH   5  18
ATOM     18  C   LIG d   1       4.766  -3.912  -5.258  0.00  0.00    -0.038 C 
ATOM     19  H   LIG d   1       4.431  -4.282  -6.226  0.00  0.00     0.028 H 
ATOM     20  H   LIG d   1       5.618  -4.501  -4.919  0.00  0.00     0.028 H 
ATOM     21  H   LIG d   1       3.955  -3.997  -4.534  0.00  0.00     0.028 H 
ENDBRANCH   5  18
BRANCH  11  22
ATOM     22  O   LIG d   1       4.736   1.086  -1.097  0.00  0.00    -0.507 OA
ATOM     23  H   LIG d   1       4.718   2.017  -1.357  0.00  0.00     0.292 HD
ENDBRANCH  11  22
ENDBRANCH   1   4
BRANCH   1  24
ATOM     24  C   LIG d   1       4.717  -2.592  -8.746  0.00  0.00     0.220 C 
ATOM     25  O   LIG d   1       3.557  -2.582  -8.390  0.00  0.00    -0.275 OA
ATOM     26  N   LIG d   1       5.030  -2.333 -10.030  0.00  0.00    -0.304 N 
BRANCH  26  27
ATOM     27  C   LIG d   1       6.430  -2.344 -10.459  0.00  0.00     0.003 C 
ATOM     28  H   LIG d   1       6.990  -3.060  -9.859  0.00  0.00     0.043 H 
ATOM     29  H   LIG d   1       6.486  -2.629 -11.510  0.00  0.00     0.043 H 
ATOM     30  H   LIG d   1       6.857  -1.349 -10.329  0.00  0.00     0.043 H 
ENDBRANCH  26  27
BRANCH  26  31
ATOM     31  C   LIG d   1       3.969  -2.039 -10.998  0.00  0.00     0.020 C 
ATOM     32  H   LIG d   1       3.005  -2.043 -10.491  0.00  0.00     0.047 H 
ATOM     33  H   LIG d   1       3.972  -2.798 -11.781  0.00  0.00     0.047 H 
BRANCH  31  34
ATOM     34  C   LIG d   1       4.213  -0.663 -11.620  0.00  0.00     0.005 C 
ATOM     35  H   LIG d   1       3.545  -0.524 -12.470  0.00  0.00     0.034 H 
ATOM     36  H   LIG d   1       5.248  -0.594 -11.956  0.00  0.00     0.034 H 
BRANCH  34  37
ATOM     37  C   LIG d   1       3.947   0.407 -10.592  0.00  0.00     0.043 A 
ATOM     38  N   LIG d   1       4.873   1.309 -10.336  0.00  0.00    -0.260 NA
ATOM     39  C   LIG d   1       4.683   2.268  -9.450  0.00  0.00     0.028 A 
ATOM     40  C   LIG d   1       3.498   2.352  -8.745  0.00  0.00    -0.044 A 
ATOM     41  H   LIG d   1       5.464   2.992  -9.270  0.00  0.00     0.083 H 
ATOM     42  C   LIG d   1       2.499   1.421  -8.987  0.00  0.00    -0.059 A 
ATOM     43  H   LIG d   1       3.349   3.136  -8.017  0.00  0.00     0.063 H 
ATOM     44  C   LIG d   1       2.734   0.432  -9.930  0.00  0.00    -0.040 A 
ATOM     45  H   LIG d   1       1.561   1.465  -8.454  0.00  0.00     0.062 H 
ATOM     46  H   LIG d   1       1.979  -0.310 -10.144  0.00  0.00     0.064 H 
ENDBRANCH  34  37
ENDBRANCH  31  34
ENDBRANCH  26  31
ENDBRANCH   1  24
TORSDOF 8
ENDMDL
MODEL 2
REMARK VINA RESULT:      -6.2      5.687      8.228
REMARK  8 active torsions:
REMARK  status: ('A' for Active; 'I' for Inactive)
REMARK    1  A    between atoms: C_1  and  C_2 
REMARK    2  A    between atoms: C_6  and  O_26 
REMARK    3  A    between atoms: C_12  and  C_13 
REMARK    4  A    between atoms: C_13  and  C_14 
REMARK       I    between atoms: C_14  and  N_16 
REMARK    5  A    between atoms: N_16  and  C_17 
REMARK    6  A    between atoms: N_16  and  C_18 
REMARK    7  A    between atoms: C_18  and  C_19 
REMARK    8  A    between atoms: C_19  and  C_20 
ROOT
ATOM      1  C   LIG d   1       9.962   2.649  -4.813  0.00  0.00     0.056 C 
ATOM      2  H   LIG d   1      10.249   2.903  -3.793  0.00  0.00     0.041 H 
ATOM      3  H   LIG d   1      10.726   2.008  -5.255  0.00  0.00     0.041 H 
ENDROOT
BRANCH   1   4
ATOM      4  C   LIG d   1       9.833   3.911  -5.628  0.00  0.00     0.049 A 
ATOM      5  C   LIG d   1       9.713   5.113  -5.008  0.00  0.00    -0.029 A 
ATOM      6  C   LIG d   1       9.589   6.311  -5.839  0.00  0.00     0.021 A 
ATOM      7  C   LIG d   1       9.601   6.173  -7.240  0.00  0.00     0.143 A 
ATOM      8  C   LIG d   1       9.462   7.580  -5.260  0.00  0.00    -0.047 A 
ATOM      9  C   LIG d   1       9.484   7.304  -8.036  0.00  0.00     0.023 A 
ATOM     10  O   LIG d   1       9.725   4.949  -7.793  0.00  0.00    -0.422 OA
ATOM     11  C   LIG d   1       9.359   8.551  -7.447  0.00  0.00     0.120 A 
ATOM     12  H   LIG d   1       9.492   7.211  -9.111  0.00  0.00     0.069 H 
ATOM     13  C   LIG d   1       9.349   8.681  -6.059  0.00  0.00    -0.019 A 
ATOM     14  H   LIG d   1       9.250   9.659  -5.612  0.00  0.00     0.065 H 
ATOM     15  C   LIG d   1       9.842   3.846  -7.037  0.00  0.00     0.341 A 
ATOM     16  O   LIG d   1       9.957   2.763  -7.581  0.00  0.00    -0.245 OA
ATOM     17  H   LIG d   1       9.454   7.686  -4.186  0.00  0.00     0.063 H 
BRANCH   5  18
ATOM     18  C   LIG d   1       9.706   5.209  -3.503  0.00  0.00    -0.038 C 
ATOM     19  H   LIG d   1       9.495   4.229  -3.078  0.00  0.00     0.028 H 
ATOM     20  H   LIG d   1      10.681   5.553  -3.158  0.00  0.00     0.028 H 
ATOM     21  H   LIG d   1       8.939   5.916  -3.188  0.00  0.00     0.028 H 
ENDBRANCH   5  18
BRANCH  11  22
ATOM     22  O   LIG d   1       9.246   9.655  -8.226  0.00  0.00    -0.507 OA
ATOM     23  H   LIG d   1       9.266  10.487  -7.734  0.00  0.00     0.292 HD
ENDBRANCH  11  22
ENDBRANCH   1   4
BRANCH   1  24
ATOM     24  C   LIG d   1       8.643   1.922  -4.800  0.00  0.00     0.220 C 
ATOM     25  O   LIG d   1       7.619   2.528  -4.559  0.00  0.00    -0.275 OA
ATOM     26  N   LIG d   1       8.599   0.600  -5.054  0.00  0.00    -0.304 N 
BRANCH  26  27
ATOM     27  C   LIG d   1       9.835  -0.131  -5.346  0.00  0.00     0.003 C 
ATOM     28  H   LIG d   1       9.920  -0.985  -4.674  0.00  0.00     0.043 H 
ATOM     29  H   LIG d   1       9.814  -0.481  -6.377  0.00  0.00     0.043 H 
ATOM     30  H   LIG d   1      10.689   0.530  -5.203  0.00  0.00     0.043 H 
ENDBRANCH  26  27
BRANCH  26  31
ATOM     31  C   LIG d   1       7.315  -0.107  -5.041  0.00  0.00     0.020 C 
ATOM     32  H   LIG d   1       7.365  -0.963  -5.713  0.00  0.00     0.047 H 
ATOM     33  H   LIG d   1       6.526   0.569  -5.370  0.00  0.00     0.047 H 
BRANCH  31  34
ATOM     34  C   LIG d   1       7.014  -0.590  -3.621  0.00  0.00     0.005 C 
ATOM     35  H   LIG d   1       7.451   0.101  -2.900  0.00  0.00     0.034 H 
ATOM     36  H   LIG d   1       7.441  -1.583  -3.476  0.00  0.00     0.034 H 
BRANCH  34  37
ATOM     37  C   LIG d   1       5.522  -0.650  -3.416  0.00  0.00     0.043 A 
ATOM     38  N   LIG d   1       4.754   0.279  -3.949  0.00  0.00    -0.260 NA
ATOM     39  C   LIG d   1       3.443   0.264  -3.802  0.00  0.00     0.028 A 
ATOM     40  C   LIG d   1       2.826  -0.731  -3.068  0.00  0.00    -0.044 A 
ATOM     41  H   LIG d   1       2.845   1.040  -4.257  0.00  0.00     0.083 H 
ATOM     42  C   LIG d   1       3.602  -1.727  -2.492  0.00  0.00    -0.059 A 
ATOM     43  H   LIG d   1       1.753  -0.736  -2.947  0.00  0.00     0.063 H 
ATOM     44  C   LIG d   1       4.975  -1.681  -2.673  0.00  0.00    -0.040 A 
ATOM     45  H   LIG d   1       3.147  -2.519  -1.917  0.00  0.00     0.062 H 
ATOM     46  H   LIG d   1       5.610  -2.439  -2.240  0.00  0.00     0.064 H 
ENDBRANCH  34  37
ENDBRANCH  31  34
ENDBRANCH  26  31
ENDBRANCH   1  24
TORSDOF 8
ENDMDL
MODEL 3
REMARK VINA RESULT:      -6.2      5.945      8.247
REMARK  8 active torsions:
REMARK  status: ('A' for Active; 'I' for Inactive)
REMARK    1  A    between atoms: C_1  and  C_2 
REMARK    2  A    between atoms: C_6  and  O_26 
REMARK    3  A    between atoms: C_12  and  C_13 
REMARK    4  A    between atoms: C_13  and  C_14 
REMARK       I    between atoms: C_14  and  N_16 
REMARK    5  A    between atoms: N_16  and  C_17 
REMARK    6  A    between atoms: N_16  and  C_18 
REMARK    7  A    between atoms: C_18  and  C_19 
REMARK    8  A    between atoms: C_19  and  C_20 
ROOT
ATOM      1  C   LIG d   1       9.840   3.400  -5.279  0.00  0.00     0.056 C 
ATOM      2  H   LIG d   1      10.701   2.821  -5.614  0.00  0.00     0.041 H 
ATOM      3  H   LIG d   1       9.609   4.167  -6.019  0.00  0.00     0.041 H 
ENDROOT
BRANCH   1   4
ATOM      4  C   LIG d   1      10.158   4.055  -3.959  0.00  0.00     0.049 A 
ATOM      5  C   LIG d   1       9.787   5.341  -3.731  0.00  0.00    -0.029 A 
ATOM      6  C   LIG d   1      10.117   5.937  -2.435  0.00  0.00     0.021 A 
ATOM      7  C   LIG d   1      10.801   5.159  -1.482  0.00  0.00     0.143 A 
ATOM      8  C   LIG d   1       9.763   7.259  -2.138  0.00  0.00    -0.047 A 
ATOM      9  C   LIG d   1      11.119   5.716  -0.251  0.00  0.00     0.023 A 
ATOM     10  O   LIG d   1      11.140   3.885  -1.772  0.00  0.00    -0.422 OA
ATOM     11  C   LIG d   1      10.760   7.024   0.026  0.00  0.00     0.120 A 
ATOM     12  H   LIG d   1      11.643   5.129   0.488  0.00  0.00     0.069 H 
ATOM     13  C   LIG d   1      10.083   7.789  -0.921  0.00  0.00    -0.019 A 
ATOM     14  H   LIG d   1       9.809   8.808  -0.693  0.00  0.00     0.065 H 
ATOM     15  C   LIG d   1      10.837   3.332  -2.957  0.00  0.00     0.341 A 
ATOM     16  O   LIG d   1      11.159   2.178  -3.172  0.00  0.00    -0.245 OA
ATOM     17  H   LIG d   1       9.238   7.855  -2.868  0.00  0.00     0.063 H 
BRANCH   5  18
ATOM     18  C   LIG d   1       9.055   6.134  -4.784  0.00  0.00    -0.038 C 
ATOM     19  H   LIG d   1       9.770   6.728  -5.353  0.00  0.00     0.028 H 
ATOM     20  H   LIG d   1       8.534   5.451  -5.455  0.00  0.00     0.028 H 
ATOM     21  H   LIG d   1       8.333   6.795  -4.304  0.00  0.00     0.028 H 
ENDBRANCH   5  18
BRANCH  11  22
ATOM     22  O   LIG d   1      11.071   7.566   1.231  0.00  0.00    -0.507 OA
ATOM     23  H   LIG d   1      11.313   6.916   1.904  0.00  0.00     0.292 HD
ENDBRANCH  11  22
ENDBRANCH   1   4
BRANCH   1  24
ATOM     24  C   LIG d   1       8.653   2.486  -5.114  0.00  0.00     0.220 C 
ATOM     25  O   LIG d   1       7.655   2.885  -4.551  0.00  0.00    -0.275 OA
ATOM     26  N   LIG d   1       8.701   1.227  -5.592  0.00  0.00    -0.304 N 
BRANCH  26  27
ATOM     27  C   LIG d   1       9.905   0.747  -6.273  0.00  0.00     0.003 C 
ATOM     28  H   LIG d   1      10.643   0.439  -5.533  0.00  0.00     0.043 H 
ATOM     29  H   LIG d   1       9.650  -0.102  -6.906  0.00  0.00     0.043 H 
ATOM     30  H   LIG d   1      10.318   1.548  -6.886  0.00  0.00     0.043 H 
ENDBRANCH  26  27
BRANCH  26  31
ATOM     31  C   LIG d   1       7.546   0.339  -5.431  0.00  0.00     0.020 C 
ATOM     32  H   LIG d   1       7.471  -0.318  -6.297  0.00  0.00     0.047 H 
ATOM     33  H   LIG d   1       6.638   0.936  -5.348  0.00  0.00     0.047 H 
BRANCH  31  34
ATOM     34  C   LIG d   1       7.722  -0.502  -4.166  0.00  0.00     0.005 C 
ATOM     35  H   LIG d   1       8.568  -0.123  -3.592  0.00  0.00     0.034 H 
ATOM     36  H   LIG d   1       7.906  -1.540  -4.442  0.00  0.00     0.034 H 
BRANCH  34  37
ATOM     37  C   LIG d   1       6.471  -0.419  -3.329  0.00  0.00     0.043 A 
ATOM     38  N   LIG d   1       6.073   0.749  -2.866  0.00  0.00    -0.260 NA
ATOM     39  C   LIG d   1       4.981   0.872  -2.136  0.00  0.00     0.028 A 
ATOM     40  C   LIG d   1       4.217  -0.235  -1.819  0.00  0.00    -0.044 A 
ATOM     41  H   LIG d   1       4.685   1.846  -1.778  0.00  0.00     0.083 H 
ATOM     42  C   LIG d   1       4.603  -1.482  -2.288  0.00  0.00    -0.059 A 
ATOM     43  H   LIG d   1       3.326  -0.130  -1.217  0.00  0.00     0.063 H 
ATOM     44  C   LIG d   1       5.753  -1.569  -3.058  0.00  0.00    -0.040 A 
ATOM     45  H   LIG d   1       4.022  -2.363  -2.061  0.00  0.00     0.062 H 
ATOM     46  H   LIG d   1       6.083  -2.523  -3.441  0.00  0.00     0.064 H 
ENDBRANCH  34  37
ENDBRANCH  31  34
ENDBRANCH  26  31
ENDBRANCH   1  24
TORSDOF 8
ENDMDL
MODEL 4
REMARK VINA RESULT:      -6.1      5.696      8.314
REMARK  8 active torsions:
REMARK  status: ('A' for Active; 'I' for Inactive)
REMARK    1  A    between atoms: C_1  and  C_2 
REMARK    2  A    between atoms: C_6  and  O_26 
REMARK    3  A    between atoms: C_12  and  C_13 
REMARK    4  A    between atoms: C_13  and  C_14 
REMARK       I    between atoms: C_14  and  N_16 
REMARK    5  A    between atoms: N_16  and  C_17 
REMARK    6  A    between atoms: N_16  and  C_18 
REMARK    7  A    between atoms: C_18  and  C_19 
REMARK    8  A    between atoms: C_19  and  C_20 
ROOT
ATOM      1  C   LIG d   1      10.020   2.663  -4.764  0.00  0.00     0.056 C 
ATOM      2  H   LIG d   1      10.438   2.635  -3.758  0.00  0.00     0.041 H 
ATOM      3  H   LIG d   1      10.697   2.158  -5.453  0.00  0.00     0.041 H 
ENDROOT
BRANCH   1   4
ATOM      4  C   LIG d   1       9.844   4.097  -5.195  0.00  0.00     0.049 A 
ATOM      5  C   LIG d   1       9.834   4.415  -6.515  0.00  0.00    -0.029 A 
ATOM      6  C   LIG d   1       9.661   5.820  -6.887  0.00  0.00     0.021 A 
ATOM      7  C   LIG d   1       9.513   6.781  -5.870  0.00  0.00     0.143 A 
ATOM      8  C   LIG d   1       9.642   6.213  -8.231  0.00  0.00    -0.047 A 
ATOM      9  C   LIG d   1       9.349   8.116  -6.213  0.00  0.00     0.023 A 
ATOM     10  O   LIG d   1       9.531   6.398  -4.576  0.00  0.00    -0.422 OA
ATOM     11  C   LIG d   1       9.332   8.487  -7.547  0.00  0.00     0.120 A 
ATOM     12  H   LIG d   1       9.234   8.862  -5.442  0.00  0.00     0.069 H 
ATOM     13  C   LIG d   1       9.479   7.530  -8.550  0.00  0.00    -0.019 A 
ATOM     14  H   LIG d   1       9.464   7.832  -9.586  0.00  0.00     0.065 H 
ATOM     15  C   LIG d   1       9.685   5.111  -4.228  0.00  0.00     0.341 A 
ATOM     16  O   LIG d   1       9.690   4.812  -3.048  0.00  0.00    -0.245 OA
ATOM     17  H   LIG d   1       9.755   5.476  -9.012  0.00  0.00     0.063 H 
BRANCH   5  18
ATOM     18  C   LIG d   1       9.995   3.349  -7.569  0.00  0.00    -0.038 C 
ATOM     19  H   LIG d   1      10.450   3.784  -8.458  0.00  0.00     0.028 H 
ATOM     20  H   LIG d   1      10.635   2.554  -7.185  0.00  0.00     0.028 H 
ATOM     21  H   LIG d   1       9.018   2.938  -7.823  0.00  0.00     0.028 H 
ENDBRANCH   5  18
BRANCH  11  22
ATOM     22  O   LIG d   1       9.171   9.792  -7.881  0.00  0.00    -0.507 OA
ATOM     23  H   LIG d   1       9.749  10.396  -7.395  0.00  0.00     0.292 HD
ENDBRANCH  11  22
ENDBRANCH   1   4
BRANCH   1  24
ATOM     24  C   LIG d   1       8.683   1.968  -4.773  0.00  0.00     0.220 C 
ATOM     25  O   LIG d   1       7.671   2.597  -4.545  0.00  0.00    -0.275 OA
ATOM     26  N   LIG d   1       8.612   0.648  -5.033  0.00  0.00    -0.304 N 
BRANCH  26  27
ATOM     27  C   LIG d   1       9.834  -0.111  -5.310  0.00  0.00     0.003 C 
ATOM     28  H   LIG d   1      10.666   0.326  -4.759  0.00  0.00     0.043 H 
ATOM     29  H   LIG d   1       9.697  -1.146  -4.999  0.00  0.00     0.043 H 
ATOM     30  H   LIG d   1      10.048  -0.077  -6.378  0.00  0.00     0.043 H 
ENDBRANCH  26  27
BRANCH  26  31
ATOM     31  C   LIG d   1       7.312  -0.028  -5.042  0.00  0.00     0.020 C 
ATOM     32  H   LIG d   1       7.331  -0.842  -5.765  0.00  0.00     0.047 H 
ATOM     33  H   LIG d   1       6.534   0.685  -5.317  0.00  0.00     0.047 H 
BRANCH  31  34
ATOM     34  C   LIG d   1       7.019  -0.589  -3.649  0.00  0.00     0.005 C 
ATOM     35  H   LIG d   1       7.467   0.058  -2.894  0.00  0.00     0.034 H 
ATOM     36  H   LIG d   1       7.441  -1.591  -3.565  0.00  0.00     0.034 H 
BRANCH  34  37
ATOM     37  C   LIG d   1       5.529  -0.651  -3.435  0.00  0.00     0.043 A 
ATOM     38  N   LIG d   1       4.758   0.289  -3.944  0.00  0.00    -0.260 NA
ATOM     39  C   LIG d   1       3.448   0.273  -3.788  0.00  0.00     0.028 A 
ATOM     40  C   LIG d   1       2.835  -0.735  -3.068  0.00  0.00    -0.044 A 
ATOM     41  H   LIG d   1       2.848   1.058  -4.224  0.00  0.00     0.083 H 
ATOM     42  C   LIG d   1       3.613  -1.742  -2.517  0.00  0.00    -0.059 A 
ATOM     43  H   LIG d   1       1.763  -0.741  -2.940  0.00  0.00     0.063 H 
ATOM     44  C   LIG d   1       4.986  -1.694  -2.708  0.00  0.00    -0.040 A 
ATOM     45  H   LIG d   1       3.161  -2.545  -1.954  0.00  0.00     0.062 H 
ATOM     46  H   LIG d   1       5.622  -2.461  -2.293  0.00  0.00     0.064 H 
ENDBRANCH  34  37
ENDBRANCH  31  34
ENDBRANCH  26  31
ENDBRANCH   1  24
TORSDOF 8
ENDMDL
MODEL 5
REMARK VINA RESULT:      -6.0      5.271      7.328
REMARK  8 active torsions:
REMARK  status: ('A' for Active; 'I' for Inactive)
REMARK    1  A    between atoms: C_1  and  C_2 
REMARK    2  A    between atoms: C_6  and  O_26 
REMARK    3  A    between atoms: C_12  and  C_13 
REMARK    4  A    between atoms: C_13  and  C_14 
REMARK       I    between atoms: C_14  and  N_16 
REMARK    5  A    between atoms: N_16  and  C_17 
REMARK    6  A    between atoms: N_16  and  C_18 
REMARK    7  A    between atoms: C_18  and  C_19 
REMARK    8  A    between atoms: C_19  and  C_20 
ROOT
ATOM      1  C   LIG d   1       9.911   1.633  -6.306  0.00  0.00     0.056 C 
ATOM      2  H   LIG d   1      10.706   1.101  -5.785  0.00  0.00     0.041 H 
ATOM      3  H   LIG d   1      10.124   1.646  -7.375  0.00  0.00     0.041 H 
ENDROOT
BRANCH   1   4
ATOM      4  C   LIG d   1       9.833   3.048  -5.792  0.00  0.00     0.049 A 
ATOM      5  C   LIG d   1       9.953   3.297  -4.462  0.00  0.00    -0.029 A 
ATOM      6  C   LIG d   1       9.870   4.686  -4.008  0.00  0.00     0.021 A 
ATOM      7  C   LIG d   1       9.671   5.704  -4.960  0.00  0.00     0.143 A 
ATOM      8  C   LIG d   1       9.986   5.009  -2.651  0.00  0.00    -0.047 A 
ATOM      9  C   LIG d   1       9.591   7.023  -4.539  0.00  0.00     0.023 A 
ATOM     10  O   LIG d   1       9.561   5.388  -6.268  0.00  0.00    -0.422 OA
ATOM     11  C   LIG d   1       9.708   7.325  -3.193  0.00  0.00     0.120 A 
ATOM     12  H   LIG d   1       9.439   7.812  -5.260  0.00  0.00     0.069 H 
ATOM     13  C   LIG d   1       9.906   6.313  -2.255  0.00  0.00    -0.019 A 
ATOM     14  H   LIG d   1       9.995   6.561  -1.208  0.00  0.00     0.065 H 
ATOM     15  C   LIG d   1       9.640   4.117  -6.691  0.00  0.00     0.341 A 
ATOM     16  O   LIG d   1       9.540   3.880  -7.881  0.00  0.00    -0.245 OA
ATOM     17  H   LIG d   1      10.140   4.229  -1.920  0.00  0.00     0.063 H 
BRANCH   5  18
ATOM     18  C   LIG d   1      10.166   2.173  -3.481  0.00  0.00    -0.038 C 
ATOM     19  H   LIG d   1      10.592   2.571  -2.560  0.00  0.00     0.028 H 
ATOM     20  H   LIG d   1       9.211   1.695  -3.263  0.00  0.00     0.028 H 
ATOM     21  H   LIG d   1      10.850   1.439  -3.911  0.00  0.00     0.028 H 
ENDBRANCH   5  18
BRANCH  11  22
ATOM     22  O   LIG d   1       9.630   8.616  -2.782  0.00  0.00    -0.507 OA
ATOM     23  H   LIG d   1       9.981   8.767  -1.894  0.00  0.00     0.292 HD
ENDBRANCH  11  22
ENDBRANCH   1   4
BRANCH   1  24
ATOM     24  C   LIG d   1       8.597   0.937  -6.064  0.00  0.00     0.220 C 
ATOM     25  O   LIG d   1       7.555   1.535  -6.228  0.00  0.00    -0.275 OA
ATOM     26  N   LIG d   1       8.580  -0.350  -5.665  0.00  0.00    -0.304 N 
BRANCH  26  27
ATOM     27  C   LIG d   1       9.838  -1.073  -5.468  0.00  0.00     0.003 C 
ATOM     28  H   LIG d   1      10.158  -1.512  -6.413  0.00  0.00     0.043 H 
ATOM     29  H   LIG d   1      10.602  -0.382  -5.113  0.00  0.00     0.043 H 
ATOM     30  H   LIG d   1       9.692  -1.863  -4.732  0.00  0.00     0.043 H 
ENDBRANCH  26  27
BRANCH  26  31
ATOM     31  C   LIG d   1       7.301  -1.027  -5.430  0.00  0.00     0.020 C 
ATOM     32  H   LIG d   1       7.215  -1.882  -6.100  0.00  0.00     0.047 H 
ATOM     33  H   LIG d   1       6.483  -0.332  -5.620  0.00  0.00     0.047 H 
BRANCH  31  34
ATOM     34  C   LIG d   1       7.238  -1.507  -3.979  0.00  0.00     0.005 C 
ATOM     35  H   LIG d   1       8.197  -1.325  -3.493  0.00  0.00     0.034 H 
ATOM     36  H   LIG d   1       7.017  -2.575  -3.959  0.00  0.00     0.034 H 
BRANCH  34  37
ATOM     37  C   LIG d   1       6.154  -0.756  -3.249  0.00  0.00     0.043 A 
ATOM     38  N   LIG d   1       6.192   0.560  -3.201  0.00  0.00    -0.260 NA
ATOM     39  C   LIG d   1       5.263   1.260  -2.579  0.00  0.00     0.028 A 
ATOM     40  C   LIG d   1       4.213   0.629  -1.940  0.00  0.00    -0.044 A 
ATOM     41  H   LIG d   1       5.325   2.338  -2.565  0.00  0.00     0.083 H 
ATOM     42  C   LIG d   1       4.139  -0.756  -1.968  0.00  0.00    -0.059 A 
ATOM     43  H   LIG d   1       3.457   1.206  -1.428  0.00  0.00     0.063 H 
ATOM     44  C   LIG d   1       5.131  -1.457  -2.637  0.00  0.00    -0.040 A 
ATOM     45  H   LIG d   1       3.327  -1.277  -1.482  0.00  0.00     0.062 H 
ATOM     46  H   LIG d   1       5.105  -2.535  -2.679  0.00  0.00     0.064 H 
ENDBRANCH  34  37
ENDBRANCH  31  34
ENDBRANCH  26  31
ENDBRANCH   1  24
TORSDOF 8
ENDMDL
MODEL 6
REMARK VINA RESULT:      -6.0      5.606      7.811
REMARK  8 active torsions:
REMARK  status: ('A' for Active; 'I' for Inactive)
REMARK    1  A    between atoms: C_1  and  C_2 
REMARK    2  A    between atoms: C_6  and  O_26 
REMARK    3  A    between atoms: C_12  and  C_13 
REMARK    4  A    between atoms: C_13  and  C_14 
REMARK       I    between atoms: C_14  and  N_16 
REMARK    5  A    between atoms: N_16  and  C_17 
REMARK    6  A    between atoms: N_16  and  C_18 
REMARK    7  A    between atoms: C_18  and  C_19 
REMARK    8  A    between atoms: C_19  and  C_20 
ROOT
ATOM      1  C   LIG d   1      10.037   1.893  -5.890  0.00  0.00     0.056 C 
ATOM      2  H   LIG d   1      10.830   1.293  -5.444  0.00  0.00     0.041 H 
ATOM      3  H   LIG d   1      10.252   2.050  -6.948  0.00  0.00     0.041 H 
ENDROOT
BRANCH   1   4
ATOM      4  C   LIG d   1       9.960   3.226  -5.191  0.00  0.00     0.049 A 
ATOM      5  C   LIG d   1       9.861   4.370  -5.915  0.00  0.00    -0.029 A 
ATOM      6  C   LIG d   1       9.791   5.642  -5.193  0.00  0.00     0.021 A 
ATOM      7  C   LIG d   1       9.828   5.630  -3.786  0.00  0.00     0.143 A 
ATOM      8  C   LIG d   1       9.687   6.857  -5.882  0.00  0.00    -0.047 A 
ATOM      9  C   LIG d   1       9.762   6.831  -3.094  0.00  0.00     0.023 A 
ATOM     10  O   LIG d   1       9.926   4.457  -3.127  0.00  0.00    -0.422 OA
ATOM     11  C   LIG d   1       9.660   8.023  -3.791  0.00  0.00     0.120 A 
ATOM     12  H   LIG d   1       9.789   6.835  -2.015  0.00  0.00     0.069 H 
ATOM     13  C   LIG d   1       9.623   8.028  -5.184  0.00  0.00    -0.019 A 
ATOM     14  H   LIG d   1       9.544   8.965  -5.715  0.00  0.00     0.065 H 
ATOM     15  C   LIG d   1       9.988   3.288  -3.782  0.00  0.00     0.341 A 
ATOM     16  O   LIG d   1      10.071   2.253  -3.144  0.00  0.00    -0.245 OA
ATOM     17  H   LIG d   1       9.658   6.866  -6.961  0.00  0.00     0.063 H 
BRANCH   5  18
ATOM     18  C   LIG d   1       9.824   4.332  -7.421  0.00  0.00    -0.038 C 
ATOM     19  H   LIG d   1      10.750   4.747  -7.818  0.00  0.00     0.028 H 
ATOM     20  H   LIG d   1       9.717   3.300  -7.755  0.00  0.00     0.028 H 
ATOM     21  H   LIG d   1       8.979   4.920  -7.780  0.00  0.00     0.028 H 
ENDBRANCH   5  18
BRANCH  11  22
ATOM     22  O   LIG d   1       9.595   9.196  -3.112  0.00  0.00    -0.507 OA
ATOM     23  H   LIG d   1       9.052   9.870  -3.544  0.00  0.00     0.292 HD
ENDBRANCH  11  22
ENDBRANCH   1   4
BRANCH   1  24
ATOM     24  C   LIG d   1       8.721   1.174  -5.747  0.00  0.00     0.220 C 
ATOM     25  O   LIG d   1       7.679   1.789  -5.843  0.00  0.00    -0.275 OA
ATOM     26  N   LIG d   1       8.700  -0.153  -5.511  0.00  0.00    -0.304 N 
BRANCH  26  27
ATOM     27  C   LIG d   1       9.957  -0.896  -5.397  0.00  0.00     0.003 C 
ATOM     28  H   LIG d   1      10.528  -0.518  -4.549  0.00  0.00     0.043 H 
ATOM     29  H   LIG d   1       9.741  -1.953  -5.245  0.00  0.00     0.043 H 
ATOM     30  H   LIG d   1      10.537  -0.770  -6.310  0.00  0.00     0.043 H 
ENDBRANCH  26  27
BRANCH  26  31
ATOM     31  C   LIG d   1       7.420  -0.852  -5.372  0.00  0.00     0.020 C 
ATOM     32  H   LIG d   1       7.364  -1.657  -6.103  0.00  0.00     0.047 H 
ATOM     33  H   LIG d   1       6.602  -0.150  -5.541  0.00  0.00     0.047 H 
BRANCH  31  34
ATOM     34  C   LIG d   1       7.308  -1.434  -3.962  0.00  0.00     0.005 C 
ATOM     35  H   LIG d   1       8.242  -1.269  -3.424  0.00  0.00     0.034 H 
ATOM     36  H   LIG d   1       7.109  -2.505  -4.025  0.00  0.00     0.034 H 
BRANCH  34  37
ATOM     37  C   LIG d   1       6.180  -0.757  -3.226  0.00  0.00     0.043 A 
ATOM     38  N   LIG d   1       6.182   0.555  -3.097  0.00  0.00    -0.260 NA
ATOM     39  C   LIG d   1       5.213   1.192  -2.467  0.00  0.00     0.028 A 
ATOM     40  C   LIG d   1       4.159   0.497  -1.906  0.00  0.00    -0.044 A 
ATOM     41  H   LIG d   1       5.247   2.268  -2.386  0.00  0.00     0.083 H 
ATOM     42  C   LIG d   1       4.122  -0.885  -2.021  0.00  0.00    -0.059 A 
ATOM     43  H   LIG d   1       3.371   1.023  -1.387  0.00  0.00     0.063 H 
ATOM     44  C   LIG d   1       5.155  -1.519  -2.695  0.00  0.00    -0.040 A 
ATOM     45  H   LIG d   1       3.309  -1.454  -1.597  0.00  0.00     0.062 H 
ATOM     46  H   LIG d   1       5.159  -2.592  -2.804  0.00  0.00     0.064 H 
ENDBRANCH  34  37
ENDBRANCH  31  34
ENDBRANCH  26  31
ENDBRANCH   1  24
TORSDOF 8
ENDMDL
MODEL 7
REMARK VINA RESULT:      -5.8      2.733      7.130
REMARK  8 active torsions:
REMARK  status: ('A' for Active; 'I' for Inactive)
REMARK    1  A    between atoms: C_1  and  C_2 
REMARK    2  A    between atoms: C_6  and  O_26 
REMARK    3  A    between atoms: C_12  and  C_13 
REMARK    4  A    between atoms: C_13  and  C_14 
REMARK       I    between atoms: C_14  and  N_16 
REMARK    5  A    between atoms: N_16  and  C_17 
REMARK    6  A    between atoms: N_16  and  C_18 
REMARK    7  A    between atoms: C_18  and  C_19 
REMARK    8  A    between atoms: C_19  and  C_20 
ROOT
ATOM      1  C   LIG d   1       5.890   1.139  -8.448  0.00  0.00     0.056 C 
ATOM      2  H   LIG d   1       5.723   2.137  -8.043  0.00  0.00     0.041 H 
ATOM      3  H   LIG d   1       6.678   1.180  -9.200  0.00  0.00     0.041 H 
ENDROOT
BRANCH   1   4
ATOM      4  C   LIG d   1       4.617   0.636  -9.081  0.00  0.00     0.049 A 
ATOM      5  C   LIG d   1       4.664  -0.053 -10.250  0.00  0.00    -0.029 A 
ATOM      6  C   LIG d   1       3.404  -0.522 -10.829  0.00  0.00     0.021 A 
ATOM      7  C   LIG d   1       2.200  -0.243 -10.156  0.00  0.00     0.143 A 
ATOM      8  C   LIG d   1       3.385  -1.239 -12.032  0.00  0.00    -0.047 A 
ATOM      9  C   LIG d   1       1.000  -0.683 -10.697  0.00  0.00     0.023 A 
ATOM     10  O   LIG d   1       2.223   0.446  -8.996  0.00  0.00    -0.422 OA
ATOM     11  C   LIG d   1       1.000  -1.390 -11.887  0.00  0.00     0.120 A 
ATOM     12  H   LIG d   1       0.070  -0.476 -10.189  0.00  0.00     0.069 H 
ATOM     13  C   LIG d   1       2.196  -1.664 -12.548  0.00  0.00    -0.019 A 
ATOM     14  H   LIG d   1       2.182  -2.216 -13.476  0.00  0.00     0.065 H 
ATOM     15  C   LIG d   1       3.375   0.876  -8.458  0.00  0.00     0.341 A 
ATOM     16  O   LIG d   1       3.347   1.490  -7.407  0.00  0.00    -0.245 OA
ATOM     17  H   LIG d   1       4.309  -1.453 -12.548  0.00  0.00     0.063 H 
BRANCH   5  18
ATOM     18  C   LIG d   1       5.980  -0.328 -10.933  0.00  0.00    -0.038 C 
ATOM     19  H   LIG d   1       6.677   0.481 -10.717  0.00  0.00     0.028 H 
ATOM     20  H   LIG d   1       6.390  -1.269 -10.565  0.00  0.00     0.028 H 
ATOM     21  H   LIG d   1       5.823  -0.396 -12.010  0.00  0.00     0.028 H 
ENDBRANCH   5  18
BRANCH  11  22
ATOM     22  O   LIG d   1      -0.173  -1.821 -12.414  0.00  0.00    -0.507 OA
ATOM     23  H   LIG d   1      -0.954  -1.543 -11.915  0.00  0.00     0.292 HD
ENDBRANCH  11  22
ENDBRANCH   1   4
BRANCH   1  24
ATOM     24  C   LIG d   1       6.302   0.207  -7.339  0.00  0.00     0.220 C 
ATOM     25  O   LIG d   1       5.698  -0.830  -7.162  0.00  0.00    -0.275 OA
ATOM     26  N   LIG d   1       7.342   0.525  -6.543  0.00  0.00    -0.304 N 
BRANCH  26  27
ATOM     27  C   LIG d   1       8.072   1.777  -6.758  0.00  0.00     0.003 C 
ATOM     28  H   LIG d   1       9.091   1.555  -7.074  0.00  0.00     0.043 H 
ATOM     29  H   LIG d   1       7.572   2.361  -7.530  0.00  0.00     0.043 H 
ATOM     30  H   LIG d   1       8.097   2.346  -5.829  0.00  0.00     0.043 H 
ENDBRANCH  26  27
BRANCH  26  31
ATOM     31  C   LIG d   1       7.743  -0.382  -5.464  0.00  0.00     0.020 C 
ATOM     32  H   LIG d   1       8.717  -0.812  -5.695  0.00  0.00     0.047 H 
ATOM     33  H   LIG d   1       7.007  -1.180  -5.368  0.00  0.00     0.047 H 
BRANCH  31  34
ATOM     34  C   LIG d   1       7.828   0.396  -4.150  0.00  0.00     0.005 C 
ATOM     35  H   LIG d   1       8.023   1.448  -4.360  0.00  0.00     0.034 H 
ATOM     36  H   LIG d   1       8.635  -0.009  -3.539  0.00  0.00     0.034 H 
BRANCH  34  37
ATOM     37  C   LIG d   1       6.523   0.268  -3.406  0.00  0.00     0.043 A 
ATOM     38  N   LIG d   1       5.878   1.354  -3.031  0.00  0.00    -0.260 NA
ATOM     39  C   LIG d   1       4.730   1.292  -2.384  0.00  0.00     0.028 A 
ATOM     40  C   LIG d   1       4.165   0.072  -2.064  0.00  0.00    -0.044 A 
ATOM     41  H   LIG d   1       4.228   2.204  -2.096  0.00  0.00     0.083 H 
ATOM     42  C   LIG d   1       4.815  -1.094  -2.442  0.00  0.00    -0.059 A 
ATOM     43  H   LIG d   1       3.228   0.026  -1.530  0.00  0.00     0.063 H 
ATOM     44  C   LIG d   1       6.016  -0.988  -3.126  0.00  0.00    -0.040 A 
ATOM     45  H   LIG d   1       4.395  -2.061  -2.210  0.00  0.00     0.062 H 
ATOM     46  H   LIG d   1       6.549  -1.874  -3.436  0.00  0.00     0.064 H 
ENDBRANCH  34  37
ENDBRANCH  31  34
ENDBRANCH  26  31
ENDBRANCH   1  24
TORSDOF 8
ENDMDL
MODEL 8
REMARK VINA RESULT:      -5.7      5.442      8.428
REMARK  8 active torsions:
REMARK  status: ('A' for Active; 'I' for Inactive)
REMARK    1  A    between atoms: C_1  and  C_2 
REMARK    2  A    between atoms: C_6  and  O_26 
REMARK    3  A    between atoms: C_12  and  C_13 
REMARK    4  A    between atoms: C_13  and  C_14 
REMARK       I    between atoms: C_14  and  N_16 
REMARK    5  A    between atoms: N_16  and  C_17 
REMARK    6  A    between atoms: N_16  and  C_18 
REMARK    7  A    between atoms: C_18  and  C_19 
REMARK    8  A    between atoms: C_19  and  C_20 
ROOT
ATOM      1  C   LIG d   1      10.357   2.289  -5.511  0.00  0.00     0.056 C 
ATOM      2  H   LIG d   1      11.268   2.268  -4.915  0.00  0.00     0.041 H 
ATOM      3  H   LIG d   1      10.350   1.440  -6.194  0.00  0.00     0.041 H 
ENDROOT
BRANCH   1   4
ATOM      4  C   LIG d   1      10.304   3.571  -6.302  0.00  0.00     0.049 A 
ATOM      5  C   LIG d   1       9.559   3.642  -7.435  0.00  0.00    -0.029 A 
ATOM      6  C   LIG d   1       9.538   4.907  -8.172  0.00  0.00     0.021 A 
ATOM      7  C   LIG d   1      10.286   5.993  -7.682  0.00  0.00     0.143 A 
ATOM      8  C   LIG d   1       8.789   5.044  -9.347  0.00  0.00    -0.047 A 
ATOM      9  C   LIG d   1      10.272   7.196  -8.374  0.00  0.00     0.023 A 
ATOM     10  O   LIG d   1      11.005   5.857  -6.548  0.00  0.00    -0.422 OA
ATOM     11  C   LIG d   1       9.526   7.315  -9.534  0.00  0.00     0.120 A 
ATOM     12  H   LIG d   1      10.842   8.037  -8.007  0.00  0.00     0.069 H 
ATOM     13  C   LIG d   1       8.787   6.235 -10.014  0.00  0.00    -0.019 A 
ATOM     14  H   LIG d   1       8.210   6.340 -10.921  0.00  0.00     0.065 H 
ATOM     15  C   LIG d   1      11.026   4.702  -5.866  0.00  0.00     0.341 A 
ATOM     16  O   LIG d   1      11.685   4.626  -4.845  0.00  0.00    -0.245 OA
ATOM     17  H   LIG d   1       8.215   4.211  -9.723  0.00  0.00     0.063 H 
BRANCH   5  18
ATOM     18  C   LIG d   1       8.774   2.450  -7.920  0.00  0.00    -0.038 C 
ATOM     19  H   LIG d   1       9.203   1.539  -7.504  0.00  0.00     0.028 H 
ATOM     20  H   LIG d   1       7.737   2.543  -7.598  0.00  0.00     0.028 H 
ATOM     21  H   LIG d   1       8.814   2.407  -9.009  0.00  0.00     0.028 H 
ENDBRANCH   5  18
BRANCH  11  22
ATOM     22  O   LIG d   1       9.513   8.491 -10.209  0.00  0.00    -0.507 OA
ATOM     23  H   LIG d   1       8.911   9.151  -9.838  0.00  0.00     0.292 HD
ENDBRANCH  11  22
ENDBRANCH   1   4
BRANCH   1  24
ATOM     24  C   LIG d   1       9.159   2.211  -4.601  0.00  0.00     0.220 C 
ATOM     25  O   LIG d   1       8.833   3.176  -3.942  0.00  0.00    -0.275 OA
ATOM     26  N   LIG d   1       8.449   1.068  -4.519  0.00  0.00    -0.304 N 
BRANCH  26  27
ATOM     27  C   LIG d   1       8.841  -0.097  -5.315  0.00  0.00     0.003 C 
ATOM     28  H   LIG d   1       8.865   0.174  -6.370  0.00  0.00     0.043 H 
ATOM     29  H   LIG d   1       9.831  -0.432  -5.004  0.00  0.00     0.043 H 
ATOM     30  H   LIG d   1       8.120  -0.900  -5.163  0.00  0.00     0.043 H 
ENDBRANCH  26  27
BRANCH  26  31
ATOM     31  C   LIG d   1       7.283   0.992  -3.634  0.00  0.00     0.020 C 
ATOM     32  H   LIG d   1       6.450   1.531  -4.084  0.00  0.00     0.047 H 
ATOM     33  H   LIG d   1       7.529   1.441  -2.671  0.00  0.00     0.047 H 
BRANCH  31  34
ATOM     34  C   LIG d   1       6.893  -0.473  -3.429  0.00  0.00     0.005 C 
ATOM     35  H   LIG d   1       7.352  -0.848  -2.514  0.00  0.00     0.034 H 
ATOM     36  H   LIG d   1       7.240  -1.063  -4.277  0.00  0.00     0.034 H 
BRANCH  34  37
ATOM     37  C   LIG d   1       5.394  -0.583  -3.319  0.00  0.00     0.043 A 
ATOM     38  N   LIG d   1       4.631   0.339  -3.871  0.00  0.00    -0.260 NA
ATOM     39  C   LIG d   1       3.315   0.281  -3.806  0.00  0.00     0.028 A 
ATOM     40  C   LIG d   1       2.686  -0.753  -3.140  0.00  0.00    -0.044 A 
ATOM     41  H   LIG d   1       2.722   1.052  -4.275  0.00  0.00     0.083 H 
ATOM     42  C   LIG d   1       3.455  -1.743  -2.546  0.00  0.00    -0.059 A 
ATOM     43  H   LIG d   1       1.608  -0.794  -3.086  0.00  0.00     0.063 H 
ATOM     44  C   LIG d   1       4.836  -1.651  -2.641  0.00  0.00    -0.040 A 
ATOM     45  H   LIG d   1       2.991  -2.566  -2.024  0.00  0.00     0.062 H 
ATOM     46  H   LIG d   1       5.466  -2.403  -2.191  0.00  0.00     0.064 H 
ENDBRANCH  34  37
ENDBRANCH  31  34
ENDBRANCH  26  31
ENDBRANCH   1  24
TORSDOF 8
ENDMDL
MODEL 9
REMARK VINA RESULT:      -5.6      4.889      7.925
REMARK  8 active torsions:
REMARK  status: ('A' for Active; 'I' for Inactive)
REMARK    1  A    between atoms: C_1  and  C_2 
REMARK    2  A    between atoms: C_6  and  O_26 
REMARK    3  A    between atoms: C_12  and  C_13 
REMARK    4  A    between atoms: C_13  and  C_14 
REMARK       I    between atoms: C_14  and  N_16 
REMARK    5  A    between atoms: N_16  and  C_17 
REMARK    6  A    between atoms: N_16  and  C_18 
REMARK    7  A    between atoms: C_18  and  C_19 
REMARK    8  A    between atoms: C_19  and  C_20 
ROOT
ATOM      1  C   LIG d   1       9.166   1.205  -7.210  0.00  0.00     0.056 C 
ATOM      2  H   LIG d   1      10.203   0.980  -6.962  0.00  0.00     0.041 H 
ATOM      3  H   LIG d   1       8.784   0.448  -7.894  0.00  0.00     0.041 H 
ENDROOT
BRANCH   1   4
ATOM      4  C   LIG d   1       9.089   2.560  -7.867  0.00  0.00     0.049 A 
ATOM      5  C   LIG d   1       9.907   3.563  -7.456  0.00  0.00    -0.029 A 
ATOM      6  C   LIG d   1       9.797   4.863  -8.122  0.00  0.00     0.021 A 
ATOM      7  C   LIG d   1       8.856   5.021  -9.156  0.00  0.00     0.143 A 
ATOM      8  C   LIG d   1      10.612   5.937  -7.745  0.00  0.00    -0.047 A 
ATOM      9  C   LIG d   1       8.745   6.248  -9.793  0.00  0.00     0.023 A 
ATOM     10  O   LIG d   1       8.074   3.982  -9.517  0.00  0.00    -0.422 OA
ATOM     11  C   LIG d   1       9.558   7.300  -9.408  0.00  0.00     0.120 A 
ATOM     12  H   LIG d   1       8.026   6.382 -10.588  0.00  0.00     0.069 H 
ATOM     13  C   LIG d   1      10.489   7.137  -8.383  0.00  0.00    -0.019 A 
ATOM     14  H   LIG d   1      11.117   7.966  -8.092  0.00  0.00     0.065 H 
ATOM     15  C   LIG d   1       8.172   2.787  -8.913  0.00  0.00     0.341 A 
ATOM     16  O   LIG d   1       7.449   1.877  -9.276  0.00  0.00    -0.245 OA
ATOM     17  H   LIG d   1      11.334   5.816  -6.952  0.00  0.00     0.063 H 
BRANCH   5  18
ATOM     18  C   LIG d   1      10.901   3.345  -6.344  0.00  0.00    -0.038 C 
ATOM     19  H   LIG d   1      10.681   2.404  -5.840  0.00  0.00     0.028 H 
ATOM     20  H   LIG d   1      11.908   3.308  -6.759  0.00  0.00     0.028 H 
ATOM     21  H   LIG d   1      10.832   4.165  -5.628  0.00  0.00     0.028 H 
ENDBRANCH   5  18
BRANCH  11  22
ATOM     22  O   LIG d   1       9.449   8.500 -10.032  0.00  0.00    -0.507 OA
ATOM     23  H   LIG d   1      10.055   8.611 -10.777  0.00  0.00     0.292 HD
ENDBRANCH  11  22
ENDBRANCH   1   4
BRANCH   1  24
ATOM     24  C   LIG d   1       8.337   1.209  -5.952  0.00  0.00     0.220 C 
ATOM     25  O   LIG d   1       7.607   2.148  -5.709  0.00  0.00    -0.275 OA
ATOM     26  N   LIG d   1       8.407   0.171  -5.096  0.00  0.00    -0.304 N 
BRANCH  26  27
ATOM     27  C   LIG d   1       9.287  -0.962  -5.389  0.00  0.00     0.003 C 
ATOM     28  H   LIG d   1       8.798  -1.890  -5.093  0.00  0.00     0.043 H 
ATOM     29  H   LIG d   1       9.500  -0.990  -6.458  0.00  0.00     0.043 H 
ATOM     30  H   LIG d   1      10.219  -0.850  -4.836  0.00  0.00     0.043 H 
ENDBRANCH  26  27
BRANCH  26  31
ATOM     31  C   LIG d   1       7.600   0.175  -3.872  0.00  0.00     0.020 C 
ATOM     32  H   LIG d   1       6.849   0.962  -3.936  0.00  0.00     0.047 H 
ATOM     33  H   LIG d   1       8.246   0.357  -3.013  0.00  0.00     0.047 H 
BRANCH  31  34
ATOM     34  C   LIG d   1       6.908  -1.180  -3.713  0.00  0.00     0.005 C 
ATOM     35  H   LIG d   1       7.316  -1.697  -2.845  0.00  0.00     0.034 H 
ATOM     36  H   LIG d   1       7.076  -1.781  -4.607  0.00  0.00     0.034 H 
BRANCH  34  37
ATOM     37  C   LIG d   1       5.428  -0.969  -3.521  0.00  0.00     0.043 A 
ATOM     38  N   LIG d   1       4.838   0.064  -4.089  0.00  0.00    -0.260 NA
ATOM     39  C   LIG d   1       3.545   0.286  -3.955  0.00  0.00     0.028 A 
ATOM     40  C   LIG d   1       2.759  -0.560  -3.196  0.00  0.00    -0.044 A 
ATOM     41  H   LIG d   1       3.096   1.140  -4.439  0.00  0.00     0.083 H 
ATOM     42  C   LIG d   1       3.344  -1.658  -2.582  0.00  0.00    -0.059 A 
ATOM     43  H   LIG d   1       1.701  -0.372  -3.085  0.00  0.00     0.063 H 
ATOM     44  C   LIG d   1       4.705  -1.862  -2.752  0.00  0.00    -0.040 A 
ATOM     45  H   LIG d   1       2.754  -2.339  -1.987  0.00  0.00     0.062 H 
ATOM     46  H   LIG d   1       5.194  -2.705  -2.289  0.00  0.00     0.064 H 
ENDBRANCH  34  37
ENDBRANCH  31  34
ENDBRANCH  26  31
ENDBRANCH   1  24
TORSDOF 8
ENDMDL
MODEL 10
REMARK VINA RESULT:      -5.6      4.763      8.015
REMARK  8 active torsions:
REMARK  status: ('A' for Active; 'I' for Inactive)
REMARK    1  A    between atoms: C_1  and  C_2 
REMARK    2  A    between atoms: C_6  and  O_26 
REMARK    3  A    between atoms: C_12  and  C_13 
REMARK    4  A    between atoms: C_13  and  C_14 
REMARK       I    between atoms: C_14  and  N_16 
REMARK    5  A    between atoms: N_16  and  C_17 
REMARK    6  A    between atoms: N_16  and  C_18 
REMARK    7  A    between atoms: C_18  and  C_19 
REMARK    8  A    between atoms: C_19  and  C_20 
ROOT
ATOM      1  C   LIG d   1       7.140  -4.135  -5.972  0.00  0.00     0.056 C 
ATOM      2  H   LIG d   1       7.931  -3.569  -6.462  0.00  0.00     0.041 H 
ATOM      3  H   LIG d   1       6.517  -4.618  -6.726  0.00  0.00     0.041 H 
ENDROOT
BRANCH   1   4
ATOM      4  C   LIG d   1       6.293  -3.202  -5.145  0.00  0.00     0.049 A 
ATOM      5  C   LIG d   1       6.773  -1.983  -4.787  0.00  0.00    -0.029 A 
ATOM      6  C   LIG d   1       5.916  -1.110  -3.983  0.00  0.00     0.021 A 
ATOM      7  C   LIG d   1       4.636  -1.564  -3.614  0.00  0.00     0.143 A 
ATOM      8  C   LIG d   1       6.352   0.159  -3.583  0.00  0.00    -0.047 A 
ATOM      9  C   LIG d   1       3.816  -0.743  -2.852  0.00  0.00     0.023 A 
ATOM     10  O   LIG d   1       4.218  -2.787  -4.003  0.00  0.00    -0.422 OA
ATOM     11  C   LIG d   1       4.264   0.508  -2.464  0.00  0.00     0.120 A 
ATOM     12  H   LIG d   1       2.832  -1.080  -2.563  0.00  0.00     0.069 H 
ATOM     13  C   LIG d   1       5.533   0.953  -2.834  0.00  0.00    -0.019 A 
ATOM     14  H   LIG d   1       5.870   1.930  -2.525  0.00  0.00     0.065 H 
ATOM     15  C   LIG d   1       4.998  -3.591  -4.744  0.00  0.00     0.341 A 
ATOM     16  O   LIG d   1       4.577  -4.684  -5.076  0.00  0.00    -0.245 OA
ATOM     17  H   LIG d   1       7.334   0.507  -3.866  0.00  0.00     0.063 H 
BRANCH   5  18
ATOM     18  C   LIG d   1       8.151  -1.541  -5.208  0.00  0.00    -0.038 C 
ATOM     19  H   LIG d   1       8.169  -0.457  -5.312  0.00  0.00     0.028 H 
ATOM     20  H   LIG d   1       8.876  -1.845  -4.453  0.00  0.00     0.028 H 
ATOM     21  H   LIG d   1       8.406  -2.002  -6.163  0.00  0.00     0.028 H 
ENDBRANCH   5  18
BRANCH  11  22
ATOM     22  O   LIG d   1       3.462   1.310  -1.720  0.00  0.00    -0.507 OA
ATOM     23  H   LIG d   1       3.160   2.103  -2.184  0.00  0.00     0.292 HD
ENDBRANCH  11  22
ENDBRANCH   1   4
BRANCH   1  24
ATOM     24  C   LIG d   1       7.750  -5.184  -5.079  0.00  0.00     0.220 C 
ATOM     25  O   LIG d   1       8.403  -4.852  -4.112  0.00  0.00    -0.275 OA
ATOM     26  N   LIG d   1       7.572  -6.491  -5.355  0.00  0.00    -0.304 N 
BRANCH  26  27
ATOM     27  C   LIG d   1       6.783  -6.891  -6.522  0.00  0.00     0.003 C 
ATOM     28  H   LIG d   1       7.168  -7.832  -6.917  0.00  0.00     0.043 H 
ATOM     29  H   LIG d   1       5.741  -7.020  -6.230  0.00  0.00     0.043 H 
ATOM     30  H   LIG d   1       6.853  -6.120  -7.290  0.00  0.00     0.043 H 
ENDBRANCH  26  27
BRANCH  26  31
ATOM     31  C   LIG d   1       8.167  -7.511  -4.487  0.00  0.00     0.020 C 
ATOM     32  H   LIG d   1       7.954  -7.269  -3.446  0.00  0.00     0.047 H 
ATOM     33  H   LIG d   1       9.245  -7.536  -4.642  0.00  0.00     0.047 H 
BRANCH  31  34
ATOM     34  C   LIG d   1       7.571  -8.878  -4.825  0.00  0.00     0.005 C 
ATOM     35  H   LIG d   1       8.339  -9.509  -5.274  0.00  0.00     0.034 H 
ATOM     36  H   LIG d   1       6.747  -8.752  -5.528  0.00  0.00     0.034 H 
BRANCH  34  37
ATOM     37  C   LIG d   1       7.060  -9.529  -3.565  0.00  0.00     0.043 A 
ATOM     38  N   LIG d   1       5.954 -10.244  -3.603  0.00  0.00    -0.260 NA
ATOM     39  C   LIG d   1       5.473 -10.838  -2.528  0.00  0.00     0.028 A 
ATOM     40  C   LIG d   1       6.114 -10.719  -1.310  0.00  0.00    -0.044 A 
ATOM     41  H   LIG d   1       4.565 -11.419  -2.599  0.00  0.00     0.083 H 
ATOM     42  C   LIG d   1       7.282  -9.974  -1.229  0.00  0.00    -0.059 A 
ATOM     43  H   LIG d   1       5.713 -11.203  -0.431  0.00  0.00     0.063 H 
ATOM     44  C   LIG d   1       7.759  -9.371  -2.383  0.00  0.00    -0.040 A 
ATOM     45  H   LIG d   1       7.806  -9.868  -0.292  0.00  0.00     0.062 H 
ATOM     46  H   LIG d   1       8.665  -8.784  -2.358  0.00  0.00     0.064 H 
ENDBRANCH  34  37
ENDBRANCH  31  34
ENDBRANCH  26  31
ENDBRANCH   1  24
TORSDOF 8
ENDMDL
