MODEL 1
REMARK VINA RESULT:      -6.9      0.000      0.000
REMARK  7 active torsions:
REMARK  status: ('A' for Active; 'I' for Inactive)
REMARK    1  A    between atoms: C_1  and  C_2 
REMARK    2  A    between atoms: C_4  and  C_21 
REMARK    3  A    between atoms: C_6  and  O_8 
REMARK    4  A    between atoms: O_8  and  C_9 
REMARK    5  A    between atoms: C_9  and  C_11 
REMARK    6  A    between atoms: C_11  and  C_12 
REMARK    7  A    between atoms: C_11  and  C_16 
ROOT
ATOM      1  C   LIG d   1       4.079  -2.725  -7.986  0.00  0.00    -0.047 A 
ATOM      2  C   LIG d   1       3.170  -2.288  -8.931  0.00  0.00    -0.056 A 
ATOM      3  C   LIG d   1       2.631  -1.018  -8.839  0.00  0.00    -0.047 A 
ATOM      4  C   LIG d   1       3.000  -0.183  -7.802  0.00  0.00    -0.016 A 
ATOM      5  C   LIG d   1       3.913  -0.620  -6.852  0.00  0.00     0.132 A 
ATOM      6  C   LIG d   1       4.448  -1.897  -6.944  0.00  0.00    -0.016 A 
ATOM      7  H   LIG d   1       2.881  -2.938  -9.743  0.00  0.00     0.062 H 
ATOM      8  H   LIG d   1       2.579   0.809  -7.730  0.00  0.00     0.066 H 
ATOM      9  H   LIG d   1       5.155  -2.241  -6.204  0.00  0.00     0.066 H 
ENDROOT
BRANCH   5  10
ATOM     10  O   LIG d   1       4.277   0.200  -5.831  0.00  0.00    -0.424 OA
BRANCH  10  11
ATOM     11  C   LIG d   1       3.600   0.107  -4.676  0.00  0.00     0.347 C 
ATOM     12  O   LIG d   1       2.397   0.231  -4.668  0.00  0.00    -0.248 OA
BRANCH  11  13
ATOM     13  C   LIG d   1       4.338  -0.152  -3.388  0.00  0.00     0.309 C 
ATOM     14 BR   LIG d   1       6.264  -0.311  -3.757  0.00  0.00    -0.054 Br
BRANCH  13  15
ATOM     15  C   LIG d   1       4.099   1.007  -2.420  0.00  0.00     0.424 C 
ATOM     16  F   LIG d   1       4.288   2.221  -3.090  0.00  0.00    -0.168 F 
ATOM     17  F   LIG d   1       2.789   0.944  -1.931  0.00  0.00    -0.168 F 
ATOM     18  F   LIG d   1       5.000   0.918  -1.353  0.00  0.00    -0.168 F 
ENDBRANCH  13  15
BRANCH  13  19
ATOM     19  C   LIG d   1       3.831  -1.453  -2.762  0.00  0.00     0.424 C 
ATOM     20  F   LIG d   1       4.454  -1.649  -1.524  0.00  0.00    -0.168 F 
ATOM     21  F   LIG d   1       2.447  -1.375  -2.580  0.00  0.00    -0.168 F 
ATOM     22  F   LIG d   1       4.130  -2.525  -3.609  0.00  0.00    -0.168 F 
ENDBRANCH  13  19
ENDBRANCH  11  13
ENDBRANCH  10  11
ENDBRANCH   5  10
BRANCH   3  23
ATOM     23  C   LIG d   1       1.640  -0.544  -9.870  0.00  0.00    -0.040 C 
ATOM     24  H   LIG d   1       1.833  -1.047 -10.818  0.00  0.00     0.028 H 
ATOM     25  H   LIG d   1       0.628  -0.777  -9.536  0.00  0.00     0.028 H 
ATOM     26  H   LIG d   1       1.740   0.533 -10.002  0.00  0.00     0.028 H 
ENDBRANCH   3  23
BRANCH   1  27
ATOM     27  C   LIG d   1       4.665  -4.110  -8.090  0.00  0.00    -0.040 C 
ATOM     28  H   LIG d   1       5.451  -4.229  -7.343  0.00  0.00     0.028 H 
ATOM     29  H   LIG d   1       3.883  -4.849  -7.915  0.00  0.00     0.028 H 
ATOM     30  H   LIG d   1       5.085  -4.253  -9.085  0.00  0.00     0.028 H 
ENDBRANCH   1  27
TORSDOF 7
ENDMDL
MODEL 2
REMARK VINA RESULT:      -6.9      0.098      2.220
REMARK  7 active torsions:
REMARK  status: ('A' for Active; 'I' for Inactive)
REMARK    1  A    between atoms: C_1  and  C_2 
REMARK    2  A    between atoms: C_4  and  C_21 
REMARK    3  A    between atoms: C_6  and  O_8 
REMARK    4  A    between atoms: O_8  and  C_9 
REMARK    5  A    between atoms: C_9  and  C_11 
REMARK    6  A    between atoms: C_11  and  C_12 
REMARK    7  A    between atoms: C_11  and  C_16 
ROOT
ATOM      1  C   LIG d   1       2.583  -0.949  -8.885  0.00  0.00    -0.047 A 
ATOM      2  C   LIG d   1       3.147  -2.207  -8.985  0.00  0.00    -0.056 A 
ATOM      3  C   LIG d   1       4.053  -2.639  -8.034  0.00  0.00    -0.047 A 
ATOM      4  C   LIG d   1       4.397  -1.813  -6.980  0.00  0.00    -0.016 A 
ATOM      5  C   LIG d   1       3.832  -0.549  -6.879  0.00  0.00     0.132 A 
ATOM      6  C   LIG d   1       2.928  -0.118  -7.837  0.00  0.00    -0.016 A 
ATOM      7  H   LIG d   1       2.879  -2.854  -9.806  0.00  0.00     0.062 H 
ATOM      8  H   LIG d   1       5.104  -2.151  -6.237  0.00  0.00     0.066 H 
ATOM      9  H   LIG d   1       2.490   0.867  -7.763  0.00  0.00     0.066 H 
ENDROOT
BRANCH   5  10
ATOM     10  O   LIG d   1       4.169   0.264  -5.843  0.00  0.00    -0.424 OA
BRANCH  10  11
ATOM     11  C   LIG d   1       3.534   0.091  -4.673  0.00  0.00     0.347 C 
ATOM     12  O   LIG d   1       2.328   0.154  -4.625  0.00  0.00    -0.248 OA
BRANCH  11  13
ATOM     13  C   LIG d   1       4.325  -0.184  -3.420  0.00  0.00     0.309 C 
ATOM     14 BR   LIG d   1       6.234  -0.330  -3.869  0.00  0.00    -0.054 Br
BRANCH  13  15
ATOM     15  C   LIG d   1       4.121   0.961  -2.427  0.00  0.00     0.424 C 
ATOM     16  F   LIG d   1       2.792   0.967  -1.988  0.00  0.00    -0.168 F 
ATOM     17  F   LIG d   1       4.973   0.786  -1.331  0.00  0.00    -0.168 F 
ATOM     18  F   LIG d   1       4.410   2.178  -3.053  0.00  0.00    -0.168 F 
ENDBRANCH  13  15
BRANCH  13  19
ATOM     19  C   LIG d   1       3.848  -1.495  -2.793  0.00  0.00     0.424 C 
ATOM     20  F   LIG d   1       2.472  -1.423  -2.549  0.00  0.00    -0.168 F 
ATOM     21  F   LIG d   1       4.110  -2.554  -3.667  0.00  0.00    -0.168 F 
ATOM     22  F   LIG d   1       4.524  -1.708  -1.587  0.00  0.00    -0.168 F 
ENDBRANCH  13  19
ENDBRANCH  11  13
ENDBRANCH  10  11
ENDBRANCH   5  10
BRANCH   3  23
ATOM     23  C   LIG d   1       4.666  -4.011  -8.146  0.00  0.00    -0.040 C 
ATOM     24  H   LIG d   1       4.459  -4.576  -7.237  0.00  0.00     0.028 H 
ATOM     25  H   LIG d   1       4.236  -4.532  -9.003  0.00  0.00     0.028 H 
ATOM     26  H   LIG d   1       5.743  -3.918  -8.280  0.00  0.00     0.028 H 
ENDBRANCH   3  23
BRANCH   1  27
ATOM     27  C   LIG d   1       1.596  -0.481  -9.924  0.00  0.00    -0.040 C 
ATOM     28  H   LIG d   1       0.833  -1.246 -10.069  0.00  0.00     0.028 H 
ATOM     29  H   LIG d   1       1.126   0.443  -9.588  0.00  0.00     0.028 H 
ATOM     30  H   LIG d   1       2.116  -0.304 -10.865  0.00  0.00     0.028 H 
ENDBRANCH   1  27
TORSDOF 7
ENDMDL
MODEL 3
REMARK VINA RESULT:      -6.7      1.289      1.999
REMARK  7 active torsions:
REMARK  status: ('A' for Active; 'I' for Inactive)
REMARK    1  A    between atoms: C_1  and  C_2 
REMARK    2  A    between atoms: C_4  and  C_21 
REMARK    3  A    between atoms: C_6  and  O_8 
REMARK    4  A    between atoms: O_8  and  C_9 
REMARK    5  A    between atoms: C_9  and  C_11 
REMARK    6  A    between atoms: C_11  and  C_12 
REMARK    7  A    between atoms: C_11  and  C_16 
ROOT
ATOM      1  C   LIG d   1       5.181   0.757  -8.658  0.00  0.00    -0.047 A 
ATOM      2  C   LIG d   1       4.061   0.566  -9.447  0.00  0.00    -0.056 A 
ATOM      3  C   LIG d   1       2.977  -0.136  -8.954  0.00  0.00    -0.047 A 
ATOM      4  C   LIG d   1       3.010  -0.649  -7.671  0.00  0.00    -0.016 A 
ATOM      5  C   LIG d   1       4.133  -0.459  -6.878  0.00  0.00     0.132 A 
ATOM      6  C   LIG d   1       5.221   0.241  -7.377  0.00  0.00    -0.016 A 
ATOM      7  H   LIG d   1       4.033   0.968 -10.448  0.00  0.00     0.062 H 
ATOM      8  H   LIG d   1       2.162  -1.196  -7.286  0.00  0.00     0.066 H 
ATOM      9  H   LIG d   1       6.098   0.386  -6.764  0.00  0.00     0.066 H 
ENDROOT
BRANCH   5  10
ATOM     10  O   LIG d   1       4.167  -0.963  -5.616  0.00  0.00    -0.424 OA
BRANCH  10  11
ATOM     11  C   LIG d   1       3.906  -0.129  -4.597  0.00  0.00     0.347 C 
ATOM     12  O   LIG d   1       3.157   0.806  -4.758  0.00  0.00    -0.248 OA
BRANCH  11  13
ATOM     13  C   LIG d   1       4.547  -0.358  -3.253  0.00  0.00     0.309 C 
ATOM     14 BR   LIG d   1       6.472  -0.685  -3.492  0.00  0.00    -0.054 Br
BRANCH  13  15
ATOM     15  C   LIG d   1       4.346   0.878  -2.375  0.00  0.00     0.424 C 
ATOM     16  F   LIG d   1       4.951   1.984  -2.981  0.00  0.00    -0.168 F 
ATOM     17  F   LIG d   1       2.977   1.121  -2.218  0.00  0.00    -0.168 F 
ATOM     18  F   LIG d   1       4.927   0.658  -1.121  0.00  0.00    -0.168 F 
ENDBRANCH  13  15
BRANCH  13  19
ATOM     19  C   LIG d   1       3.904  -1.572  -2.581  0.00  0.00     0.424 C 
ATOM     20  F   LIG d   1       4.252  -2.732  -3.282  0.00  0.00    -0.168 F 
ATOM     21  F   LIG d   1       4.359  -1.672  -1.262  0.00  0.00    -0.168 F 
ATOM     22  F   LIG d   1       2.513  -1.425  -2.585  0.00  0.00    -0.168 F 
ENDBRANCH  13  19
ENDBRANCH  11  13
ENDBRANCH  10  11
ENDBRANCH   5  10
BRANCH   3  23
ATOM     23  C   LIG d   1       1.759  -0.341  -9.816  0.00  0.00    -0.040 C 
ATOM     24  H   LIG d   1       2.060  -0.402 -10.862  0.00  0.00     0.028 H 
ATOM     25  H   LIG d   1       1.261  -1.268  -9.527  0.00  0.00     0.028 H 
ATOM     26  H   LIG d   1       1.074   0.496  -9.682  0.00  0.00     0.028 H 
ENDBRANCH   3  23
BRANCH   1  27
ATOM     27  C   LIG d   1       6.362   1.522  -9.198  0.00  0.00    -0.040 C 
ATOM     28  H   LIG d   1       6.047   2.529  -9.473  0.00  0.00     0.028 H 
ATOM     29  H   LIG d   1       7.138   1.580  -8.435  0.00  0.00     0.028 H 
ATOM     30  H   LIG d   1       6.753   1.012 -10.078  0.00  0.00     0.028 H 
ENDBRANCH   1  27
TORSDOF 7
ENDMDL
MODEL 4
REMARK VINA RESULT:      -6.6      1.109      1.973
REMARK  7 active torsions:
REMARK  status: ('A' for Active; 'I' for Inactive)
REMARK    1  A    between atoms: C_1  and  C_2 
REMARK    2  A    between atoms: C_4  and  C_21 
REMARK    3  A    between atoms: C_6  and  O_8 
REMARK    4  A    between atoms: O_8  and  C_9 
REMARK    5  A    between atoms: C_9  and  C_11 
REMARK    6  A    between atoms: C_11  and  C_12 
REMARK    7  A    between atoms: C_11  and  C_16 
ROOT
ATOM      1  C   LIG d   1       2.526  -0.662  -9.035  0.00  0.00    -0.047 A 
ATOM      2  C   LIG d   1       2.810   0.601  -9.521  0.00  0.00    -0.056 A 
ATOM      3  C   LIG d   1       3.618   1.457  -8.795  0.00  0.00    -0.047 A 
ATOM      4  C   LIG d   1       4.144   1.051  -7.584  0.00  0.00    -0.016 A 
ATOM      5  C   LIG d   1       3.860  -0.216  -7.095  0.00  0.00     0.132 A 
ATOM      6  C   LIG d   1       3.045  -1.070  -7.822  0.00  0.00    -0.016 A 
ATOM      7  H   LIG d   1       2.401   0.919 -10.468  0.00  0.00     0.062 H 
ATOM      8  H   LIG d   1       4.776   1.720  -7.018  0.00  0.00     0.066 H 
ATOM      9  H   LIG d   1       2.819  -2.055  -7.441  0.00  0.00     0.066 H 
ENDROOT
BRANCH   5  10
ATOM     10  O   LIG d   1       4.377  -0.616  -5.903  0.00  0.00    -0.424 OA
BRANCH  10  11
ATOM     11  C   LIG d   1       3.740  -0.240  -4.782  0.00  0.00     0.347 C 
ATOM     12  O   LIG d   1       2.614   0.194  -4.843  0.00  0.00    -0.248 OA
BRANCH  11  13
ATOM     13  C   LIG d   1       4.431  -0.358  -3.448  0.00  0.00     0.309 C 
ATOM     14 BR   LIG d   1       6.368  -0.547  -3.727  0.00  0.00    -0.054 Br
BRANCH  13  15
ATOM     15  C   LIG d   1       4.155   0.896  -2.618  0.00  0.00     0.424 C 
ATOM     16  F   LIG d   1       4.276   2.029  -3.430  0.00  0.00    -0.168 F 
ATOM     17  F   LIG d   1       2.860   0.834  -2.094  0.00  0.00    -0.168 F 
ATOM     18  F   LIG d   1       5.079   0.974  -1.569  0.00  0.00    -0.168 F 
ENDBRANCH  13  15
BRANCH  13  19
ATOM     19  C   LIG d   1       3.901  -1.587  -2.707  0.00  0.00     0.424 C 
ATOM     20  F   LIG d   1       4.268  -2.745  -3.401  0.00  0.00    -0.168 F 
ATOM     21  F   LIG d   1       4.443  -1.626  -1.418  0.00  0.00    -0.168 F 
ATOM     22  F   LIG d   1       2.506  -1.516  -2.623  0.00  0.00    -0.168 F 
ENDBRANCH  13  19
ENDBRANCH  11  13
ENDBRANCH  10  11
ENDBRANCH   5  10
BRANCH   3  23
ATOM     23  C   LIG d   1       3.926   2.833  -9.327  0.00  0.00    -0.040 C 
ATOM     24  H   LIG d   1       3.402   3.579  -8.729  0.00  0.00     0.028 H 
ATOM     25  H   LIG d   1       5.000   3.012  -9.271  0.00  0.00     0.028 H 
ATOM     26  H   LIG d   1       3.599   2.902 -10.365  0.00  0.00     0.028 H 
ENDBRANCH   3  23
BRANCH   1  27
ATOM     27  C   LIG d   1       1.645  -1.593  -9.829  0.00  0.00    -0.040 C 
ATOM     28  H   LIG d   1       1.892  -2.626  -9.582  0.00  0.00     0.028 H 
ATOM     29  H   LIG d   1       0.600  -1.401  -9.584  0.00  0.00     0.028 H 
ATOM     30  H   LIG d   1       1.806  -1.426 -10.893  0.00  0.00     0.028 H 
ENDBRANCH   1  27
TORSDOF 7
ENDMDL
MODEL 5
REMARK VINA RESULT:      -6.5      1.288      2.560
REMARK  7 active torsions:
REMARK  status: ('A' for Active; 'I' for Inactive)
REMARK    1  A    between atoms: C_1  and  C_2 
REMARK    2  A    between atoms: C_4  and  C_21 
REMARK    3  A    between atoms: C_6  and  O_8 
REMARK    4  A    between atoms: O_8  and  C_9 
REMARK    5  A    between atoms: C_9  and  C_11 
REMARK    6  A    between atoms: C_11  and  C_12 
REMARK    7  A    between atoms: C_11  and  C_16 
ROOT
ATOM      1  C   LIG d   1       4.126  -2.451  -7.958  0.00  0.00    -0.047 A 
ATOM      2  C   LIG d   1       3.224  -2.118  -8.953  0.00  0.00    -0.056 A 
ATOM      3  C   LIG d   1       2.501  -0.943  -8.868  0.00  0.00    -0.047 A 
ATOM      4  C   LIG d   1       2.678  -0.098  -7.789  0.00  0.00    -0.016 A 
ATOM      5  C   LIG d   1       3.582  -0.430  -6.790  0.00  0.00     0.132 A 
ATOM      6  C   LIG d   1       4.302  -1.612  -6.875  0.00  0.00    -0.016 A 
ATOM      7  H   LIG d   1       3.086  -2.776  -9.797  0.00  0.00     0.062 H 
ATOM      8  H   LIG d   1       2.113   0.821  -7.723  0.00  0.00     0.066 H 
ATOM      9  H   LIG d   1       5.003  -1.875  -6.096  0.00  0.00     0.066 H 
ENDROOT
BRANCH   5  10
ATOM     10  O   LIG d   1       3.757   0.400  -5.727  0.00  0.00    -0.424 OA
BRANCH  10  11
ATOM     11  C   LIG d   1       4.755   0.126  -4.872  0.00  0.00     0.347 C 
ATOM     12  O   LIG d   1       5.898   0.105  -5.263  0.00  0.00    -0.248 OA
BRANCH  11  13
ATOM     13  C   LIG d   1       4.449  -0.154  -3.423  0.00  0.00     0.309 C 
ATOM     14 BR   LIG d   1       2.555  -0.647  -3.236  0.00  0.00    -0.054 Br
BRANCH  13  15
ATOM     15  C   LIG d   1       5.327  -1.306  -2.930  0.00  0.00     0.424 C 
ATOM     16  F   LIG d   1       5.339  -2.325  -3.888  0.00  0.00    -0.168 F 
ATOM     17  F   LIG d   1       6.631  -0.844  -2.724  0.00  0.00    -0.168 F 
ATOM     18  F   LIG d   1       4.812  -1.802  -1.727  0.00  0.00    -0.168 F 
ENDBRANCH  13  15
BRANCH  13  19
ATOM     19  C   LIG d   1       4.734   1.097  -2.590  0.00  0.00     0.424 C 
ATOM     20  F   LIG d   1       6.029   1.553  -2.861  0.00  0.00    -0.168 F 
ATOM     21  F   LIG d   1       3.811   2.096  -2.916  0.00  0.00    -0.168 F 
ATOM     22  F   LIG d   1       4.624   0.787  -1.230  0.00  0.00    -0.168 F 
ENDBRANCH  13  19
ENDBRANCH  11  13
ENDBRANCH  10  11
ENDBRANCH   5  10
BRANCH   3  23
ATOM     23  C   LIG d   1       1.520  -0.583  -9.953  0.00  0.00    -0.040 C 
ATOM     24  H   LIG d   1       2.053  -0.441 -10.893  0.00  0.00     0.028 H 
ATOM     25  H   LIG d   1       0.793  -1.388 -10.066  0.00  0.00     0.028 H 
ATOM     26  H   LIG d   1       1.003   0.338  -9.685  0.00  0.00     0.028 H 
ENDBRANCH   3  23
BRANCH   1  27
ATOM     27  C   LIG d   1       4.913  -3.733  -8.054  0.00  0.00    -0.040 C 
ATOM     28  H   LIG d   1       4.281  -4.570  -7.758  0.00  0.00     0.028 H 
ATOM     29  H   LIG d   1       5.249  -3.877  -9.081  0.00  0.00     0.028 H 
ATOM     30  H   LIG d   1       5.777  -3.678  -7.393  0.00  0.00     0.028 H 
ENDBRANCH   1  27
TORSDOF 7
ENDMDL
MODEL 6
REMARK VINA RESULT:      -6.3      3.642      5.370
REMARK  7 active torsions:
REMARK  status: ('A' for Active; 'I' for Inactive)
REMARK    1  A    between atoms: C_1  and  C_2 
REMARK    2  A    between atoms: C_4  and  C_21 
REMARK    3  A    between atoms: C_6  and  O_8 
REMARK    4  A    between atoms: O_8  and  C_9 
REMARK    5  A    between atoms: C_9  and  C_11 
REMARK    6  A    between atoms: C_11  and  C_12 
REMARK    7  A    between atoms: C_11  and  C_16 
ROOT
ATOM      1  C   LIG d   1       9.672   0.112  -5.092  0.00  0.00    -0.047 A 
ATOM      2  C   LIG d   1      10.290   1.159  -4.432  0.00  0.00    -0.056 A 
ATOM      3  C   LIG d   1       9.530   2.135  -3.816  0.00  0.00    -0.047 A 
ATOM      4  C   LIG d   1       8.150   2.067  -3.858  0.00  0.00    -0.016 A 
ATOM      5  C   LIG d   1       7.529   1.018  -4.520  0.00  0.00     0.132 A 
ATOM      6  C   LIG d   1       8.294   0.042  -5.142  0.00  0.00    -0.016 A 
ATOM      7  H   LIG d   1      11.368   1.213  -4.397  0.00  0.00     0.062 H 
ATOM      8  H   LIG d   1       7.557   2.830  -3.375  0.00  0.00     0.066 H 
ATOM      9  H   LIG d   1       7.812  -0.772  -5.661  0.00  0.00     0.066 H 
ENDROOT
BRANCH   5  10
ATOM     10  O   LIG d   1       6.171   0.949  -4.562  0.00  0.00    -0.424 OA
BRANCH  10  11
ATOM     11  C   LIG d   1       5.525   0.575  -3.446  0.00  0.00     0.347 C 
ATOM     12  O   LIG d   1       5.798   1.090  -2.388  0.00  0.00    -0.248 OA
BRANCH  11  13
ATOM     13  C   LIG d   1       4.458  -0.487  -3.514  0.00  0.00     0.309 C 
ATOM     14 BR   LIG d   1       4.418  -1.262  -5.322  0.00  0.00    -0.054 Br
BRANCH  13  15
ATOM     15  C   LIG d   1       4.765  -1.585  -2.496  0.00  0.00     0.424 C 
ATOM     16  F   LIG d   1       6.127  -1.904  -2.550  0.00  0.00    -0.168 F 
ATOM     17  F   LIG d   1       4.443  -1.134  -1.211  0.00  0.00    -0.168 F 
ATOM     18  F   LIG d   1       4.008  -2.723  -2.794  0.00  0.00    -0.168 F 
ENDBRANCH  13  15
BRANCH  13  19
ATOM     19  C   LIG d   1       3.097   0.136  -3.198  0.00  0.00     0.424 C 
ATOM     20  F   LIG d   1       2.180  -0.876  -2.893  0.00  0.00    -0.168 F 
ATOM     21  F   LIG d   1       3.220   0.998  -2.104  0.00  0.00    -0.168 F 
ATOM     22  F   LIG d   1       2.644   0.856  -4.309  0.00  0.00    -0.168 F 
ENDBRANCH  13  19
ENDBRANCH  11  13
ENDBRANCH  10  11
ENDBRANCH   5  10
BRANCH   3  23
ATOM     23  C   LIG d   1      10.206   3.274  -3.098  0.00  0.00    -0.040 C 
ATOM     24  H   LIG d   1      10.461   4.055  -3.814  0.00  0.00     0.028 H 
ATOM     25  H   LIG d   1       9.531   3.680  -2.344  0.00  0.00     0.028 H 
ATOM     26  H   LIG d   1      11.114   2.911  -2.615  0.00  0.00     0.028 H 
ENDBRANCH   3  23
BRANCH   1  27
ATOM     27  C   LIG d   1      10.505  -0.951  -5.763  0.00  0.00    -0.040 C 
ATOM     28  H   LIG d   1       9.920  -1.867  -5.853  0.00  0.00     0.028 H 
ATOM     29  H   LIG d   1      10.799  -0.608  -6.755  0.00  0.00     0.028 H 
ATOM     30  H   LIG d   1      11.395  -1.145  -5.166  0.00  0.00     0.028 H 
ENDBRANCH   1  27
TORSDOF 7
ENDMDL
MODEL 7
REMARK VINA RESULT:      -6.3      1.975      2.500
REMARK  7 active torsions:
REMARK  status: ('A' for Active; 'I' for Inactive)
REMARK    1  A    between atoms: C_1  and  C_2 
REMARK    2  A    between atoms: C_4  and  C_21 
REMARK    3  A    between atoms: C_6  and  O_8 
REMARK    4  A    between atoms: O_8  and  C_9 
REMARK    5  A    between atoms: C_9  and  C_11 
REMARK    6  A    between atoms: C_11  and  C_12 
REMARK    7  A    between atoms: C_11  and  C_16 
ROOT
ATOM      1  C   LIG d   1       5.856  -0.302  -8.577  0.00  0.00    -0.047 A 
ATOM      2  C   LIG d   1       5.254   0.718  -9.290  0.00  0.00    -0.056 A 
ATOM      3  C   LIG d   1       4.061   1.261  -8.849  0.00  0.00    -0.047 A 
ATOM      4  C   LIG d   1       3.469   0.786  -7.694  0.00  0.00    -0.016 A 
ATOM      5  C   LIG d   1       4.072  -0.238  -6.978  0.00  0.00     0.132 A 
ATOM      6  C   LIG d   1       5.265  -0.785  -7.425  0.00  0.00    -0.016 A 
ATOM      7  H   LIG d   1       5.716   1.091 -10.191  0.00  0.00     0.062 H 
ATOM      8  H   LIG d   1       2.538   1.212  -7.350  0.00  0.00     0.066 H 
ATOM      9  H   LIG d   1       5.734  -1.585  -6.872  0.00  0.00     0.066 H 
ENDROOT
BRANCH   5  10
ATOM     10  O   LIG d   1       3.490  -0.706  -5.842  0.00  0.00    -0.424 OA
BRANCH  10  11
ATOM     11  C   LIG d   1       3.778  -0.088  -4.686  0.00  0.00     0.347 C 
ATOM     12  O   LIG d   1       3.381   1.037  -4.487  0.00  0.00    -0.248 OA
BRANCH  11  13
ATOM     13  C   LIG d   1       4.595  -0.795  -3.635  0.00  0.00     0.309 C 
ATOM     14 BR   LIG d   1       4.922  -2.651  -4.199  0.00  0.00    -0.054 Br
BRANCH  13  15
ATOM     15  C   LIG d   1       5.931  -0.074  -3.457  0.00  0.00     0.424 C 
ATOM     16  F   LIG d   1       6.870  -0.958  -2.913  0.00  0.00    -0.168 F 
ATOM     17  F   LIG d   1       6.386   0.381  -4.700  0.00  0.00    -0.168 F 
ATOM     18  F   LIG d   1       5.763   1.015  -2.595  0.00  0.00    -0.168 F 
ENDBRANCH  13  15
BRANCH  13  19
ATOM     19  C   LIG d   1       3.833  -0.793  -2.309  0.00  0.00     0.424 C 
ATOM     20  F   LIG d   1       4.504  -1.599  -1.384  0.00  0.00    -0.168 F 
ATOM     21  F   LIG d   1       3.755   0.514  -1.817  0.00  0.00    -0.168 F 
ATOM     22  F   LIG d   1       2.542  -1.292  -2.512  0.00  0.00    -0.168 F 
ENDBRANCH  13  19
ENDBRANCH  11  13
ENDBRANCH  10  11
ENDBRANCH   5  10
BRANCH   3  23
ATOM     23  C   LIG d   1       3.408   2.373  -9.628  0.00  0.00    -0.040 C 
ATOM     24  H   LIG d   1       2.522   1.989 -10.136  0.00  0.00     0.028 H 
ATOM     25  H   LIG d   1       3.116   3.173  -8.946  0.00  0.00     0.028 H 
ATOM     26  H   LIG d   1       4.110   2.762 -10.365  0.00  0.00     0.028 H 
ENDBRANCH   3  23
BRANCH   1  27
ATOM     27  C   LIG d   1       7.156  -0.893  -9.060  0.00  0.00    -0.040 C 
ATOM     28  H   LIG d   1       7.239  -1.923  -8.712  0.00  0.00     0.028 H 
ATOM     29  H   LIG d   1       7.180  -0.875 -10.150  0.00  0.00     0.028 H 
ATOM     30  H   LIG d   1       7.988  -0.309  -8.668  0.00  0.00     0.028 H 
ENDBRANCH   1  27
TORSDOF 7
ENDMDL
MODEL 8
REMARK VINA RESULT:      -6.3      3.656      5.554
REMARK  7 active torsions:
REMARK  status: ('A' for Active; 'I' for Inactive)
REMARK    1  A    between atoms: C_1  and  C_2 
REMARK    2  A    between atoms: C_4  and  C_21 
REMARK    3  A    between atoms: C_6  and  O_8 
REMARK    4  A    between atoms: O_8  and  C_9 
REMARK    5  A    between atoms: C_9  and  C_11 
REMARK    6  A    between atoms: C_11  and  C_12 
REMARK    7  A    between atoms: C_11  and  C_16 
ROOT
ATOM      1  C   LIG d   1       9.514   2.209  -3.821  0.00  0.00    -0.047 A 
ATOM      2  C   LIG d   1      10.298   1.241  -4.422  0.00  0.00    -0.056 A 
ATOM      3  C   LIG d   1       9.705   0.175  -5.073  0.00  0.00    -0.047 A 
ATOM      4  C   LIG d   1       8.328   0.075  -5.125  0.00  0.00    -0.016 A 
ATOM      5  C   LIG d   1       7.540   1.046  -4.522  0.00  0.00     0.132 A 
ATOM      6  C   LIG d   1       8.138   2.111  -3.866  0.00  0.00    -0.016 A 
ATOM      7  H   LIG d   1      11.374   1.319  -4.383  0.00  0.00     0.062 H 
ATOM      8  H   LIG d   1       7.866  -0.758  -5.635  0.00  0.00     0.066 H 
ATOM      9  H   LIG d   1       7.526   2.865  -3.392  0.00  0.00     0.066 H 
ENDROOT
BRANCH   5  10
ATOM     10  O   LIG d   1       6.185   0.948  -4.573  0.00  0.00    -0.424 OA
BRANCH  10  11
ATOM     11  C   LIG d   1       5.538   0.578  -3.456  0.00  0.00     0.347 C 
ATOM     12  O   LIG d   1       5.815   1.092  -2.398  0.00  0.00    -0.248 OA
BRANCH  11  13
ATOM     13  C   LIG d   1       4.466  -0.480  -3.522  0.00  0.00     0.309 C 
ATOM     14 BR   LIG d   1       4.414  -1.248  -5.332  0.00  0.00    -0.054 Br
BRANCH  13  15
ATOM     15  C   LIG d   1       4.775  -1.583  -2.509  0.00  0.00     0.424 C 
ATOM     16  F   LIG d   1       4.023  -2.722  -2.817  0.00  0.00    -0.168 F 
ATOM     17  F   LIG d   1       6.138  -1.896  -2.561  0.00  0.00    -0.168 F 
ATOM     18  F   LIG d   1       4.446  -1.141  -1.223  0.00  0.00    -0.168 F 
ENDBRANCH  13  15
BRANCH  13  19
ATOM     19  C   LIG d   1       3.110   0.148  -3.197  0.00  0.00     0.424 C 
ATOM     20  F   LIG d   1       2.187  -0.862  -2.904  0.00  0.00    -0.168 F 
ATOM     21  F   LIG d   1       3.240   0.994  -2.091  0.00  0.00    -0.168 F 
ATOM     22  F   LIG d   1       2.661   0.885  -4.298  0.00  0.00    -0.168 F 
ENDBRANCH  13  19
ENDBRANCH  11  13
ENDBRANCH  10  11
ENDBRANCH   5  10
BRANCH   3  23
ATOM     23  C   LIG d   1      10.562  -0.878  -5.727  0.00  0.00    -0.040 C 
ATOM     24  H   LIG d   1      11.185  -1.359  -4.972  0.00  0.00     0.028 H 
ATOM     25  H   LIG d   1       9.923  -1.624  -6.199  0.00  0.00     0.028 H 
ATOM     26  H   LIG d   1      11.197  -0.413  -6.481  0.00  0.00     0.028 H 
ENDBRANCH   3  23
BRANCH   1  27
ATOM     27  C   LIG d   1      10.164   3.370  -3.112  0.00  0.00    -0.040 C 
ATOM     28  H   LIG d   1       9.472   4.213  -3.086  0.00  0.00     0.028 H 
ATOM     29  H   LIG d   1      10.419   3.077  -2.093  0.00  0.00     0.028 H 
ATOM     30  H   LIG d   1      11.069   3.660  -3.644  0.00  0.00     0.028 H 
ENDBRANCH   1  27
TORSDOF 7
ENDMDL
MODEL 9
REMARK VINA RESULT:      -6.2      1.899      3.144
REMARK  7 active torsions:
REMARK  status: ('A' for Active; 'I' for Inactive)
REMARK    1  A    between atoms: C_1  and  C_2 
REMARK    2  A    between atoms: C_4  and  C_21 
REMARK    3  A    between atoms: C_6  and  O_8 
REMARK    4  A    between atoms: O_8  and  C_9 
REMARK    5  A    between atoms: C_9  and  C_11 
REMARK    6  A    between atoms: C_11  and  C_12 
REMARK    7  A    between atoms: C_11  and  C_16 
ROOT
ATOM      1  C   LIG d   1       2.552  -0.262  -9.296  0.00  0.00    -0.047 A 
ATOM      2  C   LIG d   1       3.769   0.007  -9.895  0.00  0.00    -0.056 A 
ATOM      3  C   LIG d   1       4.856   0.372  -9.122  0.00  0.00    -0.047 A 
ATOM      4  C   LIG d   1       4.729   0.469  -7.749  0.00  0.00    -0.016 A 
ATOM      5  C   LIG d   1       3.508   0.200  -7.147  0.00  0.00     0.132 A 
ATOM      6  C   LIG d   1       2.418  -0.161  -7.925  0.00  0.00    -0.016 A 
ATOM      7  H   LIG d   1       3.871  -0.069 -10.966  0.00  0.00     0.062 H 
ATOM      8  H   LIG d   1       5.578   0.753  -7.147  0.00  0.00     0.066 H 
ATOM      9  H   LIG d   1       1.466  -0.366  -7.459  0.00  0.00     0.066 H 
ENDROOT
BRANCH   5  10
ATOM     10  O   LIG d   1       3.381   0.294  -5.797  0.00  0.00    -0.424 OA
BRANCH  10  11
ATOM     11  C   LIG d   1       4.006  -0.621  -5.040  0.00  0.00     0.347 C 
ATOM     12  O   LIG d   1       4.293  -1.698  -5.507  0.00  0.00    -0.248 OA
BRANCH  11  13
ATOM     13  C   LIG d   1       4.352  -0.305  -3.607  0.00  0.00     0.309 C 
ATOM     14 BR   LIG d   1       3.543   1.416  -3.102  0.00  0.00    -0.054 Br
BRANCH  13  15
ATOM     15  C   LIG d   1       3.811  -1.408  -2.697  0.00  0.00     0.424 C 
ATOM     16  F   LIG d   1       4.233  -2.655  -3.174  0.00  0.00    -0.168 F 
ATOM     17  F   LIG d   1       4.293  -1.219  -1.397  0.00  0.00    -0.168 F 
ATOM     18  F   LIG d   1       2.413  -1.362  -2.687  0.00  0.00    -0.168 F 
ENDBRANCH  13  15
BRANCH  13  19
ATOM     19  C   LIG d   1       5.871  -0.217  -3.456  0.00  0.00     0.424 C 
ATOM     20  F   LIG d   1       6.385  -1.485  -3.164  0.00  0.00    -0.168 F 
ATOM     21  F   LIG d   1       6.433   0.250  -4.648  0.00  0.00    -0.168 F 
ATOM     22  F   LIG d   1       6.186   0.664  -2.416  0.00  0.00    -0.168 F 
ENDBRANCH  13  19
ENDBRANCH  11  13
ENDBRANCH  10  11
ENDBRANCH   5  10
BRANCH   3  23
ATOM     23  C   LIG d   1       6.181   0.665  -9.778  0.00  0.00    -0.040 C 
ATOM     24  H   LIG d   1       6.826  -0.211  -9.700  0.00  0.00     0.028 H 
ATOM     25  H   LIG d   1       6.021   0.905 -10.829  0.00  0.00     0.028 H 
ATOM     26  H   LIG d   1       6.654   1.511  -9.280  0.00  0.00     0.028 H 
ENDBRANCH   3  23
BRANCH   1  27
ATOM     27  C   LIG d   1       1.369  -0.659 -10.141  0.00  0.00    -0.040 C 
ATOM     28  H   LIG d   1       1.460  -0.208 -11.129  0.00  0.00     0.028 H 
ATOM     29  H   LIG d   1       1.340  -1.745 -10.238  0.00  0.00     0.028 H 
ATOM     30  H   LIG d   1       0.451  -0.313  -9.666  0.00  0.00     0.028 H 
ENDBRANCH   1  27
TORSDOF 7
ENDMDL
