MODEL 1
REMARK VINA RESULT:      -6.8      0.000      0.000
REMARK  6 active torsions:
REMARK  status: ('A' for Active; 'I' for Inactive)
REMARK    1  A    between atoms: C_1  and  C_2 
REMARK    2  A    between atoms: C_2  and  C_3 
REMARK    3  A    between atoms: C_7  and  N_9 
REMARK    4  A    between atoms: C_14  and  C_26 
REMARK    5  A    between atoms: C_15  and  C_25 
REMARK    6  A    between atoms: C_20  and  C_24 
ROOT
ATOM      1  N   LIG d   1       5.693  -6.088  -6.125  0.00  0.00    -0.293 NA
ATOM      2  C   LIG d   1       4.848  -5.414  -5.129  0.00  0.00     0.044 C 
ATOM      3  C   LIG d   1       5.424  -4.055  -4.816  0.00  0.00     0.013 A 
ATOM      4  C   LIG d   1       4.632  -3.123  -4.204  0.00  0.00    -0.043 A 
ATOM      5  C   LIG d   1       5.144  -1.857  -3.908  0.00  0.00     0.022 A 
ATOM      6  C   LIG d   1       4.313  -0.846  -3.248  0.00  0.00    -0.030 A 
ATOM      7  C   LIG d   1       4.878   0.362  -2.983  0.00  0.00     0.037 A 
ATOM      8  C   LIG d   1       6.220   0.596  -3.342  0.00  0.00     0.340 A 
ATOM      9  O   LIG d   1       6.708   1.685  -3.097  0.00  0.00    -0.245 OA
ATOM     10  O   LIG d   1       6.982  -0.325  -3.940  0.00  0.00    -0.422 OA
ATOM     11  C   LIG d   1       6.478  -1.542  -4.227  0.00  0.00     0.146 A 
ATOM     12  C   LIG d   1       7.266  -2.499  -4.847  0.00  0.00     0.035 A 
ATOM     13  C   LIG d   1       6.742  -3.749  -5.142  0.00  0.00     0.134 A 
ATOM     14  O   LIG d   1       7.537  -4.668  -5.754  0.00  0.00    -0.473 OA
ATOM     15  C   LIG d   1       7.106  -6.030  -5.716  0.00  0.00     0.157 C 
ATOM     16  H   LIG d   1       4.814  -6.012  -4.219  0.00  0.00     0.051 H 
ATOM     17  H   LIG d   1       3.840  -5.298  -5.527  0.00  0.00     0.051 H 
ATOM     18  H   LIG d   1       3.610  -3.365  -3.954  0.00  0.00     0.063 H 
ATOM     19  H   LIG d   1       7.209  -6.418  -4.702  0.00  0.00     0.091 H 
ATOM     20  H   LIG d   1       7.710  -6.624  -6.401  0.00  0.00     0.091 H 
ENDROOT
BRANCH   1  21
ATOM     21  C   LIG d   1       5.281  -7.409  -6.318  0.00  0.00     0.033 A 
ATOM     22  C   LIG d   1       4.940  -7.852  -7.589  0.00  0.00    -0.041 A 
ATOM     23  C   LIG d   1       4.534  -9.159  -7.777  0.00  0.00    -0.060 A 
ATOM     24  H   LIG d   1       4.992  -7.177  -8.430  0.00  0.00     0.064 H 
ATOM     25  C   LIG d   1       4.467 -10.026  -6.701  0.00  0.00    -0.059 A 
ATOM     26  H   LIG d   1       4.268  -9.505  -8.765  0.00  0.00     0.062 H 
ATOM     27  C   LIG d   1       4.806  -9.587  -5.434  0.00  0.00    -0.046 A 
ATOM     28  H   LIG d   1       4.149 -11.047  -6.850  0.00  0.00     0.062 H 
ATOM     29  C   LIG d   1       5.218  -8.283  -5.240  0.00  0.00    -0.037 A 
ATOM     30  H   LIG d   1       5.488  -7.942  -4.251  0.00  0.00     0.064 H 
BRANCH  27  31
ATOM     31  C   LIG d   1       4.732 -10.534  -4.264  0.00  0.00    -0.030 C 
ATOM     32  H   LIG d   1       4.557 -11.547  -4.627  0.00  0.00     0.031 H 
ATOM     33  H   LIG d   1       5.669 -10.503  -3.711  0.00  0.00     0.031 H 
BRANCH  31  34
ATOM     34  C   LIG d   1       3.583 -10.118  -3.344  0.00  0.00    -0.061 C 
ATOM     35  H   LIG d   1       3.688  -9.065  -3.083  0.00  0.00     0.023 H 
ATOM     36  H   LIG d   1       2.633 -10.271  -3.856  0.00  0.00     0.023 H 
ATOM     37  H   LIG d   1       3.607 -10.721  -2.436  0.00  0.00     0.023 H 
ENDBRANCH  31  34
ENDBRANCH  27  31
ENDBRANCH   1  21
BRANCH  12  38
ATOM     38  C   LIG d   1       8.696  -2.181  -5.203  0.00  0.00    -0.033 C 
ATOM     39  H   LIG d   1       9.184  -3.077  -5.586  0.00  0.00     0.028 H 
ATOM     40  H   LIG d   1       8.716  -1.403  -5.966  0.00  0.00     0.028 H 
ATOM     41  H   LIG d   1       9.224  -1.833  -4.314  0.00  0.00     0.028 H 
ENDBRANCH  12  38
BRANCH   6  42
ATOM     42  C   LIG d   1       2.881  -1.134  -2.880  0.00  0.00    -0.039 C 
ATOM     43  H   LIG d   1       2.345  -1.492  -3.760  0.00  0.00     0.028 H 
ATOM     44  H   LIG d   1       2.851  -1.895  -2.101  0.00  0.00     0.028 H 
ATOM     45  H   LIG d   1       2.409  -0.221  -2.515  0.00  0.00     0.028 H 
ENDBRANCH   6  42
BRANCH   7  46
ATOM     46  C   LIG d   1       4.074   1.444  -2.312  0.00  0.00    -0.033 C 
ATOM     47  H   LIG d   1       4.708   2.313  -2.136  0.00  0.00     0.028 H 
ATOM     48  H   LIG d   1       3.240   1.728  -2.953  0.00  0.00     0.028 H 
ATOM     49  H   LIG d   1       3.691   1.075  -1.360  0.00  0.00     0.028 H 
ENDBRANCH   7  46
TORSDOF 6
ENDMDL
MODEL 2
REMARK VINA RESULT:      -6.6      5.054     10.313
REMARK  6 active torsions:
REMARK  status: ('A' for Active; 'I' for Inactive)
REMARK    1  A    between atoms: C_1  and  C_2 
REMARK    2  A    between atoms: C_2  and  C_3 
REMARK    3  A    between atoms: C_7  and  N_9 
REMARK    4  A    between atoms: C_14  and  C_26 
REMARK    5  A    between atoms: C_15  and  C_25 
REMARK    6  A    between atoms: C_20  and  C_24 
ROOT
ATOM      1  N   LIG d   1       9.808   3.186  -4.870  0.00  0.00    -0.293 NA
ATOM      2  C   LIG d   1       8.506   3.143  -4.190  0.00  0.00     0.044 C 
ATOM      3  C   LIG d   1       7.889   1.777  -4.365  0.00  0.00     0.013 A 
ATOM      4  C   LIG d   1       6.871   1.397  -3.536  0.00  0.00    -0.043 A 
ATOM      5  C   LIG d   1       6.288   0.135  -3.677  0.00  0.00     0.022 A 
ATOM      6  C   LIG d   1       5.192  -0.290  -2.802  0.00  0.00    -0.030 A 
ATOM      7  C   LIG d   1       4.668  -1.528  -3.001  0.00  0.00     0.037 A 
ATOM      8  C   LIG d   1       5.183  -2.346  -4.025  0.00  0.00     0.340 A 
ATOM      9  O   LIG d   1       4.700  -3.452  -4.187  0.00  0.00    -0.245 OA
ATOM     10  O   LIG d   1       6.180  -1.960  -4.828  0.00  0.00    -0.422 OA
ATOM     11  C   LIG d   1       6.740  -0.743  -4.680  0.00  0.00     0.146 A 
ATOM     12  C   LIG d   1       7.773  -0.341  -5.512  0.00  0.00     0.035 A 
ATOM     13  C   LIG d   1       8.347   0.912  -5.355  0.00  0.00     0.134 A 
ATOM     14  O   LIG d   1       9.362   1.279  -6.182  0.00  0.00    -0.473 OA
ATOM     15  C   LIG d   1       9.681   2.671  -6.243  0.00  0.00     0.157 C 
ATOM     16  H   LIG d   1       7.846   3.896  -4.622  0.00  0.00     0.051 H 
ATOM     17  H   LIG d   1       8.643   3.347  -3.129  0.00  0.00     0.051 H 
ATOM     18  H   LIG d   1       6.520   2.071  -2.768  0.00  0.00     0.063 H 
ATOM     19  H   LIG d   1       8.886   3.206  -6.762  0.00  0.00     0.091 H 
ATOM     20  H   LIG d   1      10.624   2.808  -6.773  0.00  0.00     0.091 H 
ENDROOT
BRANCH   1  21
ATOM     21  C   LIG d   1      10.332   4.481  -4.867  0.00  0.00     0.033 A 
ATOM     22  C   LIG d   1      11.644   4.699  -4.468  0.00  0.00    -0.041 A 
ATOM     23  C   LIG d   1      12.159   5.981  -4.466  0.00  0.00    -0.060 A 
ATOM     24  H   LIG d   1      12.261   3.868  -4.160  0.00  0.00     0.064 H 
ATOM     25  C   LIG d   1      11.370   7.046  -4.861  0.00  0.00    -0.059 A 
ATOM     26  H   LIG d   1      13.180   6.152  -4.157  0.00  0.00     0.062 H 
ATOM     27  C   LIG d   1      10.062   6.832  -5.258  0.00  0.00    -0.046 A 
ATOM     28  H   LIG d   1      11.774   8.047  -4.859  0.00  0.00     0.062 H 
ATOM     29  C   LIG d   1       9.543   5.552  -5.267  0.00  0.00    -0.037 A 
ATOM     30  H   LIG d   1       8.523   5.384  -5.582  0.00  0.00     0.064 H 
BRANCH  27  31
ATOM     31  C   LIG d   1       9.206   7.995  -5.687  0.00  0.00    -0.030 C 
ATOM     32  H   LIG d   1       8.171   7.810  -5.398  0.00  0.00     0.031 H 
ATOM     33  H   LIG d   1       9.561   8.904  -5.205  0.00  0.00     0.031 H 
BRANCH  31  34
ATOM     34  C   LIG d   1       9.289   8.156  -7.206  0.00  0.00    -0.061 C 
ATOM     35  H   LIG d   1       9.012   9.174  -7.480  0.00  0.00     0.023 H 
ATOM     36  H   LIG d   1      10.308   7.956  -7.537  0.00  0.00     0.023 H 
ATOM     37  H   LIG d   1       8.607   7.453  -7.684  0.00  0.00     0.023 H 
ENDBRANCH  31  34
ENDBRANCH  27  31
ENDBRANCH   1  21
BRANCH  12  38
ATOM     38  C   LIG d   1       8.276  -1.268  -6.589  0.00  0.00    -0.033 C 
ATOM     39  H   LIG d   1       7.451  -1.881  -6.956  0.00  0.00     0.028 H 
ATOM     40  H   LIG d   1       8.684  -0.681  -7.412  0.00  0.00     0.028 H 
ATOM     41  H   LIG d   1       9.053  -1.913  -6.181  0.00  0.00     0.028 H 
ENDBRANCH  12  38
BRANCH   6  42
ATOM     42  C   LIG d   1       4.668   0.614  -1.716  0.00  0.00    -0.039 C 
ATOM     43  H   LIG d   1       4.333   1.554  -2.155  0.00  0.00     0.028 H 
ATOM     44  H   LIG d   1       3.832   0.130  -1.212  0.00  0.00     0.028 H 
ATOM     45  H   LIG d   1       5.461   0.812  -0.994  0.00  0.00     0.028 H 
ENDBRANCH   6  42
BRANCH   7  46
ATOM     46  C   LIG d   1       3.543  -2.023  -2.130  0.00  0.00    -0.033 C 
ATOM     47  H   LIG d   1       3.726  -1.728  -1.096  0.00  0.00     0.028 H 
ATOM     48  H   LIG d   1       2.602  -1.591  -2.470  0.00  0.00     0.028 H 
ATOM     49  H   LIG d   1       3.487  -3.111  -2.191  0.00  0.00     0.028 H 
ENDBRANCH   7  46
TORSDOF 6
ENDMDL
MODEL 3
REMARK VINA RESULT:      -6.6      4.812      7.685
REMARK  6 active torsions:
REMARK  status: ('A' for Active; 'I' for Inactive)
REMARK    1  A    between atoms: C_1  and  C_2 
REMARK    2  A    between atoms: C_2  and  C_3 
REMARK    3  A    between atoms: C_7  and  N_9 
REMARK    4  A    between atoms: C_14  and  C_26 
REMARK    5  A    between atoms: C_15  and  C_25 
REMARK    6  A    between atoms: C_20  and  C_24 
ROOT
ATOM      1  N   LIG d   1       6.410   0.754  -4.416  0.00  0.00    -0.293 NA
ATOM      2  C   LIG d   1       7.464   1.224  -3.506  0.00  0.00     0.044 C 
ATOM      3  C   LIG d   1       8.379   2.172  -4.241  0.00  0.00     0.013 A 
ATOM      4  C   LIG d   1       9.198   2.997  -3.522  0.00  0.00    -0.043 A 
ATOM      5  C   LIG d   1      10.051   3.886  -4.182  0.00  0.00     0.022 A 
ATOM      6  C   LIG d   1      10.941   4.774  -3.429  0.00  0.00    -0.030 A 
ATOM      7  C   LIG d   1      11.749   5.607  -4.137  0.00  0.00     0.037 A 
ATOM      8  C   LIG d   1      11.708   5.587  -5.545  0.00  0.00     0.340 A 
ATOM      9  O   LIG d   1      12.440   6.341  -6.160  0.00  0.00    -0.245 OA
ATOM     10  O   LIG d   1      10.901   4.774  -6.235  0.00  0.00    -0.422 OA
ATOM     11  C   LIG d   1      10.078   3.925  -5.588  0.00  0.00     0.146 A 
ATOM     12  C   LIG d   1       9.241   3.081  -6.302  0.00  0.00     0.035 A 
ATOM     13  C   LIG d   1       8.394   2.210  -5.633  0.00  0.00     0.134 A 
ATOM     14  O   LIG d   1       7.580   1.397  -6.358  0.00  0.00    -0.473 OA
ATOM     15  C   LIG d   1       7.001   0.281  -5.678  0.00  0.00     0.157 C 
ATOM     16  H   LIG d   1       8.040   0.371  -3.146  0.00  0.00     0.051 H 
ATOM     17  H   LIG d   1       7.010   1.740  -2.660  0.00  0.00     0.051 H 
ATOM     18  H   LIG d   1       9.183   2.964  -2.442  0.00  0.00     0.063 H 
ATOM     19  H   LIG d   1       7.774  -0.459  -5.465  0.00  0.00     0.091 H 
ATOM     20  H   LIG d   1       6.226  -0.166  -6.300  0.00  0.00     0.091 H 
ENDROOT
BRANCH   1  21
ATOM     21  C   LIG d   1       5.642  -0.247  -3.816  0.00  0.00     0.033 A 
ATOM     22  C   LIG d   1       5.016  -0.009  -2.600  0.00  0.00    -0.041 A 
ATOM     23  C   LIG d   1       4.257  -1.001  -2.010  0.00  0.00    -0.060 A 
ATOM     24  H   LIG d   1       5.121   0.950  -2.116  0.00  0.00     0.064 H 
ATOM     25  C   LIG d   1       4.120  -2.230  -2.629  0.00  0.00    -0.059 A 
ATOM     26  H   LIG d   1       3.769  -0.817  -1.064  0.00  0.00     0.062 H 
ATOM     27  C   LIG d   1       4.743  -2.471  -3.840  0.00  0.00    -0.046 A 
ATOM     28  H   LIG d   1       3.526  -3.004  -2.166  0.00  0.00     0.062 H 
ATOM     29  C   LIG d   1       5.499  -1.481  -4.438  0.00  0.00    -0.037 A 
ATOM     30  H   LIG d   1       5.982  -1.668  -5.386  0.00  0.00     0.064 H 
BRANCH  27  31
ATOM     31  C   LIG d   1       4.592  -3.811  -4.511  0.00  0.00    -0.030 C 
ATOM     32  H   LIG d   1       4.399  -4.575  -3.758  0.00  0.00     0.031 H 
ATOM     33  H   LIG d   1       3.760  -3.775  -5.213  0.00  0.00     0.031 H 
BRANCH  31  34
ATOM     34  C   LIG d   1       5.880  -4.152  -5.264  0.00  0.00    -0.061 C 
ATOM     35  H   LIG d   1       5.659  -4.280  -6.323  0.00  0.00     0.023 H 
ATOM     36  H   LIG d   1       6.599  -3.342  -5.139  0.00  0.00     0.023 H 
ATOM     37  H   LIG d   1       6.300  -5.076  -4.866  0.00  0.00     0.023 H 
ENDBRANCH  31  34
ENDBRANCH  27  31
ENDBRANCH   1  21
BRANCH  12  38
ATOM     38  C   LIG d   1       9.249   3.112  -7.809  0.00  0.00    -0.033 C 
ATOM     39  H   LIG d   1       8.229   3.002  -8.181  0.00  0.00     0.028 H 
ATOM     40  H   LIG d   1       9.659   4.061  -8.152  0.00  0.00     0.028 H 
ATOM     41  H   LIG d   1       9.862   2.293  -8.187  0.00  0.00     0.028 H 
ENDBRANCH  12  38
BRANCH   6  42
ATOM     42  C   LIG d   1      10.955   4.767  -1.923  0.00  0.00    -0.039 C 
ATOM     43  H   LIG d   1      11.180   5.770  -1.557  0.00  0.00     0.028 H 
ATOM     44  H   LIG d   1       9.980   4.455  -1.551  0.00  0.00     0.028 H 
ATOM     45  H   LIG d   1      11.718   4.073  -1.569  0.00  0.00     0.028 H 
ENDBRANCH   6  42
BRANCH   7  46
ATOM     46  C   LIG d   1      12.681   6.548  -3.419  0.00  0.00    -0.033 C 
ATOM     47  H   LIG d   1      13.098   6.050  -2.544  0.00  0.00     0.028 H 
ATOM     48  H   LIG d   1      13.489   6.840  -4.089  0.00  0.00     0.028 H 
ATOM     49  H   LIG d   1      12.131   7.435  -3.105  0.00  0.00     0.028 H 
ENDBRANCH   7  46
TORSDOF 6
ENDMDL
MODEL 4
REMARK VINA RESULT:      -6.4      5.837      8.840
REMARK  6 active torsions:
REMARK  status: ('A' for Active; 'I' for Inactive)
REMARK    1  A    between atoms: C_1  and  C_2 
REMARK    2  A    between atoms: C_2  and  C_3 
REMARK    3  A    between atoms: C_7  and  N_9 
REMARK    4  A    between atoms: C_14  and  C_26 
REMARK    5  A    between atoms: C_15  and  C_25 
REMARK    6  A    between atoms: C_20  and  C_24 
ROOT
ATOM      1  N   LIG d   1       7.772   1.634  -4.754  0.00  0.00    -0.293 NA
ATOM      2  C   LIG d   1       8.519   2.311  -3.684  0.00  0.00     0.044 C 
ATOM      3  C   LIG d   1       9.185   3.546  -4.237  0.00  0.00     0.013 A 
ATOM      4  C   LIG d   1       9.625   4.508  -3.370  0.00  0.00    -0.043 A 
ATOM      5  C   LIG d   1      10.241   5.663  -3.861  0.00  0.00     0.022 A 
ATOM      6  C   LIG d   1      10.725   6.702  -2.948  0.00  0.00    -0.030 A 
ATOM      7  C   LIG d   1      11.321   7.795  -3.494  0.00  0.00     0.037 A 
ATOM      8  C   LIG d   1      11.456   7.888  -4.893  0.00  0.00     0.340 A 
ATOM      9  O   LIG d   1      11.992   8.876  -5.363  0.00  0.00    -0.245 OA
ATOM     10  O   LIG d   1      11.020   6.939  -5.728  0.00  0.00    -0.422 OA
ATOM     11  C   LIG d   1      10.422   5.833  -5.246  0.00  0.00     0.146 A 
ATOM     12  C   LIG d   1       9.970   4.847  -6.110  0.00  0.00     0.035 A 
ATOM     13  C   LIG d   1       9.353   3.710  -5.609  0.00  0.00     0.134 A 
ATOM     14  O   LIG d   1       8.915   2.761  -6.480  0.00  0.00    -0.473 OA
ATOM     15  C   LIG d   1       8.625   1.469  -5.942  0.00  0.00     0.157 C 
ATOM     16  H   LIG d   1       9.278   1.636  -3.289  0.00  0.00     0.051 H 
ATOM     17  H   LIG d   1       7.834   2.594  -2.885  0.00  0.00     0.051 H 
ATOM     18  H   LIG d   1       9.492   4.377  -2.306  0.00  0.00     0.063 H 
ATOM     19  H   LIG d   1       9.554   0.973  -5.660  0.00  0.00     0.091 H 
ATOM     20  H   LIG d   1       8.101   0.872  -6.688  0.00  0.00     0.091 H 
ENDROOT
BRANCH   1  21
ATOM     21  C   LIG d   1       7.278   0.403  -4.317  0.00  0.00     0.033 A 
ATOM     22  C   LIG d   1       7.855  -0.778  -4.765  0.00  0.00    -0.041 A 
ATOM     23  C   LIG d   1       7.363  -1.993  -4.331  0.00  0.00    -0.060 A 
ATOM     24  H   LIG d   1       8.688  -0.746  -5.452  0.00  0.00     0.064 H 
ATOM     25  C   LIG d   1       6.298  -2.035  -3.451  0.00  0.00    -0.059 A 
ATOM     26  H   LIG d   1       7.812  -2.912  -4.678  0.00  0.00     0.062 H 
ATOM     27  C   LIG d   1       5.720  -0.862  -3.003  0.00  0.00    -0.046 A 
ATOM     28  H   LIG d   1       5.915  -2.987  -3.113  0.00  0.00     0.062 H 
ATOM     29  C   LIG d   1       6.210   0.357  -3.429  0.00  0.00    -0.037 A 
ATOM     30  H   LIG d   1       5.761   1.275  -3.075  0.00  0.00     0.064 H 
BRANCH  27  31
ATOM     31  C   LIG d   1       4.558  -0.912  -2.044  0.00  0.00    -0.030 C 
ATOM     32  H   LIG d   1       4.933  -0.966  -1.022  0.00  0.00     0.031 H 
ATOM     33  H   LIG d   1       3.951  -0.016  -2.163  0.00  0.00     0.031 H 
BRANCH  31  34
ATOM     34  C   LIG d   1       3.706  -2.148  -2.341  0.00  0.00    -0.061 C 
ATOM     35  H   LIG d   1       4.255  -2.819  -3.001  0.00  0.00     0.023 H 
ATOM     36  H   LIG d   1       3.478  -2.664  -1.407  0.00  0.00     0.023 H 
ATOM     37  H   LIG d   1       2.778  -1.842  -2.823  0.00  0.00     0.023 H 
ENDBRANCH  31  34
ENDBRANCH  27  31
ENDBRANCH   1  21
BRANCH  12  38
ATOM     38  C   LIG d   1      10.147   5.012  -7.598  0.00  0.00    -0.033 C 
ATOM     39  H   LIG d   1       9.514   5.826  -7.952  0.00  0.00     0.028 H 
ATOM     40  H   LIG d   1      11.190   5.243  -7.816  0.00  0.00     0.028 H 
ATOM     41  H   LIG d   1       9.866   4.088  -8.103  0.00  0.00     0.028 H 
ENDBRANCH  12  38
BRANCH   6  42
ATOM     42  C   LIG d   1      10.561   6.567  -1.457  0.00  0.00    -0.039 C 
ATOM     43  H   LIG d   1      10.493   7.558  -1.007  0.00  0.00     0.028 H 
ATOM     44  H   LIG d   1       9.653   6.006  -1.239  0.00  0.00     0.028 H 
ATOM     45  H   LIG d   1      11.421   6.040  -1.043  0.00  0.00     0.028 H 
ENDBRANCH   6  42
BRANCH   7  46
ATOM     46  C   LIG d   1      11.833   8.901  -2.608  0.00  0.00    -0.033 C 
ATOM     47  H   LIG d   1      11.075   9.681  -2.526  0.00  0.00     0.028 H 
ATOM     48  H   LIG d   1      12.052   8.501  -1.619  0.00  0.00     0.028 H 
ATOM     49  H   LIG d   1      12.741   9.321  -3.040  0.00  0.00     0.028 H 
ENDBRANCH   7  46
TORSDOF 6
ENDMDL
MODEL 5
REMARK VINA RESULT:      -6.0      9.069     13.480
REMARK  6 active torsions:
REMARK  status: ('A' for Active; 'I' for Inactive)
REMARK    1  A    between atoms: C_1  and  C_2 
REMARK    2  A    between atoms: C_2  and  C_3 
REMARK    3  A    between atoms: C_7  and  N_9 
REMARK    4  A    between atoms: C_14  and  C_26 
REMARK    5  A    between atoms: C_15  and  C_25 
REMARK    6  A    between atoms: C_20  and  C_24 
ROOT
ATOM      1  N   LIG d   1       9.993   5.901  -2.142  0.00  0.00    -0.293 NA
ATOM      2  C   LIG d   1      10.347   6.670  -3.344  0.00  0.00     0.044 C 
ATOM      3  C   LIG d   1      10.054   5.847  -4.574  0.00  0.00     0.013 A 
ATOM      4  C   LIG d   1       9.965   6.472  -5.786  0.00  0.00    -0.043 A 
ATOM      5  C   LIG d   1       9.690   5.730  -6.938  0.00  0.00     0.022 A 
ATOM      6  C   LIG d   1       9.596   6.381  -8.247  0.00  0.00    -0.030 A 
ATOM      7  C   LIG d   1       9.334   5.596  -9.326  0.00  0.00     0.037 A 
ATOM      8  C   LIG d   1       9.168   4.208  -9.153  0.00  0.00     0.340 A 
ATOM      9  O   LIG d   1       8.933   3.522 -10.132  0.00  0.00    -0.245 OA
ATOM     10  O   LIG d   1       9.258   3.610  -7.961  0.00  0.00    -0.422 OA
ATOM     11  C   LIG d   1       9.517   4.336  -6.855  0.00  0.00     0.146 A 
ATOM     12  C   LIG d   1       9.611   3.718  -5.617  0.00  0.00     0.035 A 
ATOM     13  C   LIG d   1       9.876   4.469  -4.481  0.00  0.00     0.134 A 
ATOM     14  O   LIG d   1       9.959   3.837  -3.280  0.00  0.00    -0.473 OA
ATOM     15  C   LIG d   1      10.580   4.553  -2.210  0.00  0.00     0.157 C 
ATOM     16  H   LIG d   1      11.408   6.916  -3.317  0.00  0.00     0.051 H 
ATOM     17  H   LIG d   1       9.761   7.588  -3.373  0.00  0.00     0.051 H 
ATOM     18  H   LIG d   1      10.102   7.542  -5.852  0.00  0.00     0.063 H 
ATOM     19  H   LIG d   1      11.652   4.630  -2.394  0.00  0.00     0.091 H 
ATOM     20  H   LIG d   1      10.405   4.030  -1.270  0.00  0.00     0.091 H 
ENDROOT
BRANCH   1  21
ATOM     21  C   LIG d   1      10.401   6.568  -0.984  0.00  0.00     0.033 A 
ATOM     22  C   LIG d   1      10.857   5.845   0.111  0.00  0.00    -0.041 A 
ATOM     23  C   LIG d   1      11.259   6.508   1.254  0.00  0.00    -0.060 A 
ATOM     24  H   LIG d   1      10.896   4.767   0.068  0.00  0.00     0.064 H 
ATOM     25  C   LIG d   1      11.209   7.888   1.309  0.00  0.00    -0.059 A 
ATOM     26  H   LIG d   1      11.614   5.947   2.106  0.00  0.00     0.062 H 
ATOM     27  C   LIG d   1      10.755   8.611   0.221  0.00  0.00    -0.046 A 
ATOM     28  H   LIG d   1      11.524   8.404   2.204  0.00  0.00     0.062 H 
ATOM     29  C   LIG d   1      10.356   7.955  -0.927  0.00  0.00    -0.037 A 
ATOM     30  H   LIG d   1      10.006   8.520  -1.779  0.00  0.00     0.064 H 
BRANCH  27  31
ATOM     31  C   LIG d   1      10.701  10.116   0.285  0.00  0.00    -0.030 C 
ATOM     32  H   LIG d   1      10.219  10.423   1.213  0.00  0.00     0.031 H 
ATOM     33  H   LIG d   1      11.713  10.517   0.252  0.00  0.00     0.031 H 
BRANCH  31  34
ATOM     34  C   LIG d   1       9.902  10.648  -0.906  0.00  0.00    -0.061 C 
ATOM     35  H   LIG d   1       8.840  10.651  -0.659  0.00  0.00     0.023 H 
ATOM     36  H   LIG d   1      10.224  11.665  -1.134  0.00  0.00     0.023 H 
ATOM     37  H   LIG d   1      10.072  10.010  -1.772  0.00  0.00     0.023 H 
ENDBRANCH  31  34
ENDBRANCH  27  31
ENDBRANCH   1  21
BRANCH  12  38
ATOM     38  C   LIG d   1       9.424   2.227  -5.505  0.00  0.00    -0.033 C 
ATOM     39  H   LIG d   1       8.440   2.014  -5.084  0.00  0.00     0.028 H 
ATOM     40  H   LIG d   1       9.499   1.775  -6.494  0.00  0.00     0.028 H 
ATOM     41  H   LIG d   1      10.193   1.810  -4.855  0.00  0.00     0.028 H 
ENDBRANCH  12  38
BRANCH   6  42
ATOM     42  C   LIG d   1       9.778   7.869  -8.392  0.00  0.00    -0.039 C 
ATOM     43  H   LIG d   1       9.118   8.242  -9.176  0.00  0.00     0.028 H 
ATOM     44  H   LIG d   1       9.536   8.359  -7.450  0.00  0.00     0.028 H 
ATOM     45  H   LIG d   1      10.814   8.085  -8.657  0.00  0.00     0.028 H 
ENDBRANCH   6  42
BRANCH   7  46
ATOM     46  C   LIG d   1       9.219   6.208 -10.698  0.00  0.00    -0.033 C 
ATOM     47  H   LIG d   1       8.175   6.446 -10.903  0.00  0.00     0.028 H 
ATOM     48  H   LIG d   1       9.815   7.119 -10.740  0.00  0.00     0.028 H 
ATOM     49  H   LIG d   1       9.583   5.500 -11.443  0.00  0.00     0.028 H 
ENDBRANCH   7  46
TORSDOF 6
ENDMDL
MODEL 6
REMARK VINA RESULT:      -6.0      7.057     10.556
REMARK  6 active torsions:
REMARK  status: ('A' for Active; 'I' for Inactive)
REMARK    1  A    between atoms: C_1  and  C_2 
REMARK    2  A    between atoms: C_2  and  C_3 
REMARK    3  A    between atoms: C_7  and  N_9 
REMARK    4  A    between atoms: C_14  and  C_26 
REMARK    5  A    between atoms: C_15  and  C_25 
REMARK    6  A    between atoms: C_20  and  C_24 
ROOT
ATOM      1  N   LIG d   1       8.893   3.520  -4.334  0.00  0.00    -0.293 NA
ATOM      2  C   LIG d   1       9.649   3.648  -3.080  0.00  0.00     0.044 C 
ATOM      3  C   LIG d   1       9.942   5.104  -2.814  0.00  0.00     0.013 A 
ATOM      4  C   LIG d   1      10.308   5.489  -1.554  0.00  0.00    -0.043 A 
ATOM      5  C   LIG d   1      10.581   6.833  -1.284  0.00  0.00     0.022 A 
ATOM      6  C   LIG d   1      10.980   7.264   0.058  0.00  0.00    -0.030 A 
ATOM      7  C   LIG d   1      11.237   8.586   0.246  0.00  0.00     0.037 A 
ATOM      8  C   LIG d   1      11.116   9.480  -0.836  0.00  0.00     0.340 A 
ATOM      9  O   LIG d   1      11.350  10.660  -0.646  0.00  0.00    -0.245 OA
ATOM     10  O   LIG d   1      10.756   9.089  -2.063  0.00  0.00    -0.422 OA
ATOM     11  C   LIG d   1      10.490   7.791  -2.311  0.00  0.00     0.146 A 
ATOM     12  C   LIG d   1      10.117   7.383  -3.583  0.00  0.00     0.035 A 
ATOM     13  C   LIG d   1       9.842   6.047  -3.833  0.00  0.00     0.134 A 
ATOM     14  O   LIG d   1       9.474   5.675  -5.089  0.00  0.00    -0.473 OA
ATOM     15  C   LIG d   1       9.553   4.284  -5.405  0.00  0.00     0.157 C 
ATOM     16  H   LIG d   1      10.587   3.099  -3.164  0.00  0.00     0.051 H 
ATOM     17  H   LIG d   1       9.061   3.240  -2.258  0.00  0.00     0.051 H 
ATOM     18  H   LIG d   1      10.383   4.754  -0.766  0.00  0.00     0.063 H 
ATOM     19  H   LIG d   1      10.598   3.983  -5.478  0.00  0.00     0.091 H 
ATOM     20  H   LIG d   1       9.049   4.095  -6.353  0.00  0.00     0.091 H 
ENDROOT
BRANCH   1  21
ATOM     21  C   LIG d   1       8.745   2.178  -4.693  0.00  0.00     0.033 A 
ATOM     22  C   LIG d   1       9.488   1.653  -5.742  0.00  0.00    -0.041 A 
ATOM     23  C   LIG d   1       9.339   0.325  -6.095  0.00  0.00    -0.060 A 
ATOM     24  H   LIG d   1      10.182   2.281  -6.281  0.00  0.00     0.064 H 
ATOM     25  C   LIG d   1       8.452  -0.480  -5.404  0.00  0.00    -0.059 A 
ATOM     26  H   LIG d   1       9.917  -0.085  -6.910  0.00  0.00     0.062 H 
ATOM     27  C   LIG d   1       7.710   0.040  -4.360  0.00  0.00    -0.046 A 
ATOM     28  H   LIG d   1       8.338  -1.517  -5.682  0.00  0.00     0.062 H 
ATOM     29  C   LIG d   1       7.858   1.365  -3.999  0.00  0.00    -0.037 A 
ATOM     30  H   LIG d   1       7.281   1.770  -3.179  0.00  0.00     0.064 H 
BRANCH  27  31
ATOM     31  C   LIG d   1       6.744  -0.841  -3.611  0.00  0.00    -0.030 C 
ATOM     32  H   LIG d   1       6.211  -1.478  -4.316  0.00  0.00     0.031 H 
ATOM     33  H   LIG d   1       7.292  -1.461  -2.902  0.00  0.00     0.031 H 
BRANCH  31  34
ATOM     34  C   LIG d   1       5.740   0.032  -2.854  0.00  0.00    -0.061 C 
ATOM     35  H   LIG d   1       4.727  -0.246  -3.142  0.00  0.00     0.023 H 
ATOM     36  H   LIG d   1       5.867  -0.116  -1.781  0.00  0.00     0.023 H 
ATOM     37  H   LIG d   1       5.913   1.080  -3.099  0.00  0.00     0.023 H 
ENDBRANCH  31  34
ENDBRANCH  27  31
ENDBRANCH   1  21
BRANCH  12  38
ATOM     38  C   LIG d   1      10.008   8.394  -4.695  0.00  0.00    -0.033 C 
ATOM     39  H   LIG d   1      10.187   7.903  -5.652  0.00  0.00     0.028 H 
ATOM     40  H   LIG d   1       9.010   8.831  -4.693  0.00  0.00     0.028 H 
ATOM     41  H   LIG d   1      10.749   9.180  -4.547  0.00  0.00     0.028 H 
ENDBRANCH  12  38
BRANCH   6  42
ATOM     42  C   LIG d   1      11.098   6.278   1.190  0.00  0.00    -0.039 C 
ATOM     43  H   LIG d   1      11.067   5.263   0.793  0.00  0.00     0.028 H 
ATOM     44  H   LIG d   1      12.040   6.435   1.714  0.00  0.00     0.028 H 
ATOM     45  H   LIG d   1      10.269   6.421   1.884  0.00  0.00     0.028 H 
ENDBRANCH   6  42
BRANCH   7  46
ATOM     46  C   LIG d   1      11.646   9.092   1.605  0.00  0.00    -0.033 C 
ATOM     47  H   LIG d   1      10.914   9.818   1.958  0.00  0.00     0.028 H 
ATOM     48  H   LIG d   1      11.697   8.257   2.303  0.00  0.00     0.028 H 
ATOM     49  H   LIG d   1      12.625   9.568   1.536  0.00  0.00     0.028 H 
ENDBRANCH   7  46
TORSDOF 6
ENDMDL
MODEL 7
REMARK VINA RESULT:      -6.0      4.616      7.670
REMARK  6 active torsions:
REMARK  status: ('A' for Active; 'I' for Inactive)
REMARK    1  A    between atoms: C_1  and  C_2 
REMARK    2  A    between atoms: C_2  and  C_3 
REMARK    3  A    between atoms: C_7  and  N_9 
REMARK    4  A    between atoms: C_14  and  C_26 
REMARK    5  A    between atoms: C_15  and  C_25 
REMARK    6  A    between atoms: C_20  and  C_24 
ROOT
ATOM      1  N   LIG d   1       6.663  -1.342  -3.891  0.00  0.00    -0.293 NA
ATOM      2  C   LIG d   1       7.050  -2.716  -3.540  0.00  0.00     0.044 C 
ATOM      3  C   LIG d   1       8.486  -2.953  -3.935  0.00  0.00     0.013 A 
ATOM      4  C   LIG d   1       9.158  -4.013  -3.393  0.00  0.00    -0.043 A 
ATOM      5  C   LIG d   1      10.491  -4.249  -3.742  0.00  0.00     0.022 A 
ATOM      6  C   LIG d   1      11.227  -5.382  -3.176  0.00  0.00    -0.030 A 
ATOM      7  C   LIG d   1      12.518  -5.555  -3.566  0.00  0.00     0.037 A 
ATOM      8  C   LIG d   1      13.093  -4.658  -4.487  0.00  0.00     0.340 A 
ATOM      9  O   LIG d   1      14.251  -4.831  -4.823  0.00  0.00    -0.245 OA
ATOM     10  O   LIG d   1      12.423  -3.626  -5.009  0.00  0.00    -0.422 OA
ATOM     11  C   LIG d   1      11.140  -3.403  -4.661  0.00  0.00     0.146 A 
ATOM     12  C   LIG d   1      10.443  -2.333  -5.202  0.00  0.00     0.035 A 
ATOM     13  C   LIG d   1       9.123  -2.107  -4.839  0.00  0.00     0.134 A 
ATOM     14  O   LIG d   1       8.465  -1.048  -5.381  0.00  0.00    -0.473 OA
ATOM     15  C   LIG d   1       7.039  -1.048  -5.283  0.00  0.00     0.157 C 
ATOM     16  H   LIG d   1       6.407  -3.420  -4.070  0.00  0.00     0.051 H 
ATOM     17  H   LIG d   1       6.940  -2.861  -2.466  0.00  0.00     0.051 H 
ATOM     18  H   LIG d   1       8.660  -4.665  -2.691  0.00  0.00     0.063 H 
ATOM     19  H   LIG d   1       6.627  -1.813  -5.942  0.00  0.00     0.091 H 
ATOM     20  H   LIG d   1       6.652  -0.070  -5.568  0.00  0.00     0.091 H 
ENDROOT
BRANCH   1  21
ATOM     21  C   LIG d   1       5.296  -1.140  -3.688  0.00  0.00     0.033 A 
ATOM     22  C   LIG d   1       4.673  -1.673  -2.567  0.00  0.00    -0.041 A 
ATOM     23  C   LIG d   1       3.321  -1.470  -2.369  0.00  0.00    -0.060 A 
ATOM     24  H   LIG d   1       5.244  -2.244  -1.851  0.00  0.00     0.064 H 
ATOM     25  C   LIG d   1       2.588  -0.737  -3.284  0.00  0.00    -0.059 A 
ATOM     26  H   LIG d   1       2.835  -1.884  -1.497  0.00  0.00     0.062 H 
ATOM     27  C   LIG d   1       3.205  -0.206  -4.402  0.00  0.00    -0.046 A 
ATOM     28  H   LIG d   1       1.531  -0.581  -3.127  0.00  0.00     0.062 H 
ATOM     29  C   LIG d   1       4.558  -0.400  -4.603  0.00  0.00    -0.037 A 
ATOM     30  H   LIG d   1       5.041   0.019  -5.474  0.00  0.00     0.064 H 
BRANCH  27  31
ATOM     31  C   LIG d   1       2.403   0.591  -5.398  0.00  0.00    -0.030 C 
ATOM     32  H   LIG d   1       1.350   0.324  -5.313  0.00  0.00     0.031 H 
ATOM     33  H   LIG d   1       2.526   1.654  -5.195  0.00  0.00     0.031 H 
BRANCH  31  34
ATOM     34  C   LIG d   1       2.895   0.281  -6.813  0.00  0.00    -0.061 C 
ATOM     35  H   LIG d   1       2.339   0.882  -7.532  0.00  0.00     0.023 H 
ATOM     36  H   LIG d   1       3.957   0.517  -6.888  0.00  0.00     0.023 H 
ATOM     37  H   LIG d   1       2.742  -0.776  -7.028  0.00  0.00     0.023 H 
ENDBRANCH  31  34
ENDBRANCH  27  31
ENDBRANCH   1  21
BRANCH  12  38
ATOM     38  C   LIG d   1      11.121  -1.413  -6.183  0.00  0.00    -0.033 C 
ATOM     39  H   LIG d   1      11.876  -0.820  -5.665  0.00  0.00     0.028 H 
ATOM     40  H   LIG d   1      11.598  -2.002  -6.965  0.00  0.00     0.028 H 
ATOM     41  H   LIG d   1      10.382  -0.747  -6.629  0.00  0.00     0.028 H 
ENDBRANCH  12  38
BRANCH   6  42
ATOM     42  C   LIG d   1      10.577  -6.320  -2.193  0.00  0.00    -0.039 C 
ATOM     43  H   LIG d   1      10.490  -7.311  -2.638  0.00  0.00     0.028 H 
ATOM     44  H   LIG d   1      11.185  -6.379  -1.290  0.00  0.00     0.028 H 
ATOM     45  H   LIG d   1       9.584  -5.949  -1.938  0.00  0.00     0.028 H 
ENDBRANCH   6  42
BRANCH   7  46
ATOM     46  C   LIG d   1      13.329  -6.699  -3.015  0.00  0.00    -0.033 C 
ATOM     47  H   LIG d   1      12.694  -7.324  -2.385  0.00  0.00     0.028 H 
ATOM     48  H   LIG d   1      13.723  -7.295  -3.837  0.00  0.00     0.028 H 
ATOM     49  H   LIG d   1      14.155  -6.306  -2.421  0.00  0.00     0.028 H 
ENDBRANCH   7  46
TORSDOF 6
ENDMDL
MODEL 8
REMARK VINA RESULT:      -5.9      5.770      8.218
REMARK  6 active torsions:
REMARK  status: ('A' for Active; 'I' for Inactive)
REMARK    1  A    between atoms: C_1  and  C_2 
REMARK    2  A    between atoms: C_2  and  C_3 
REMARK    3  A    between atoms: C_7  and  N_9 
REMARK    4  A    between atoms: C_14  and  C_26 
REMARK    5  A    between atoms: C_15  and  C_25 
REMARK    6  A    between atoms: C_20  and  C_24 
ROOT
ATOM      1  N   LIG d   1       5.295  -1.650  -6.462  0.00  0.00    -0.293 NA
ATOM      2  C   LIG d   1       4.235  -1.340  -7.430  0.00  0.00     0.044 C 
ATOM      3  C   LIG d   1       4.836  -1.184  -8.805  0.00  0.00     0.013 A 
ATOM      4  C   LIG d   1       4.018  -1.250  -9.899  0.00  0.00    -0.043 A 
ATOM      5  C   LIG d   1       4.554  -1.113 -11.183  0.00  0.00     0.022 A 
ATOM      6  C   LIG d   1       3.694  -1.176 -12.367  0.00  0.00    -0.030 A 
ATOM      7  C   LIG d   1       4.283  -1.027 -13.584  0.00  0.00     0.037 A 
ATOM      8  C   LIG d   1       5.673  -0.817 -13.664  0.00  0.00     0.340 A 
ATOM      9  O   LIG d   1       6.181  -0.686 -14.763  0.00  0.00    -0.245 OA
ATOM     10  O   LIG d   1       6.460  -0.755 -12.585  0.00  0.00    -0.422 OA
ATOM     11  C   LIG d   1       5.934  -0.894 -11.352  0.00  0.00     0.146 A 
ATOM     12  C   LIG d   1       6.749  -0.830 -10.231  0.00  0.00     0.035 A 
ATOM     13  C   LIG d   1       6.203  -0.976  -8.964  0.00  0.00     0.134 A 
ATOM     14  O   LIG d   1       7.025  -0.912  -7.883  0.00  0.00    -0.473 OA
ATOM     15  C   LIG d   1       6.411  -0.702  -6.609  0.00  0.00     0.157 C 
ATOM     16  H   LIG d   1       3.742  -0.411  -7.143  0.00  0.00     0.051 H 
ATOM     17  H   LIG d   1       3.505  -2.149  -7.442  0.00  0.00     0.051 H 
ATOM     18  H   LIG d   1       2.958  -1.414  -9.771  0.00  0.00     0.063 H 
ATOM     19  H   LIG d   1       6.033   0.319  -6.550  0.00  0.00     0.091 H 
ATOM     20  H   LIG d   1       7.142  -0.870  -5.818  0.00  0.00     0.091 H 
ENDROOT
BRANCH   1  21
ATOM     21  C   LIG d   1       4.799  -1.641  -5.156  0.00  0.00     0.033 A 
ATOM     22  C   LIG d   1       4.690  -2.829  -4.445  0.00  0.00    -0.041 A 
ATOM     23  C   LIG d   1       4.199  -2.816  -3.154  0.00  0.00    -0.060 A 
ATOM     24  H   LIG d   1       4.988  -3.761  -4.901  0.00  0.00     0.064 H 
ATOM     25  C   LIG d   1       3.817  -1.623  -2.569  0.00  0.00    -0.059 A 
ATOM     26  H   LIG d   1       4.113  -3.739  -2.600  0.00  0.00     0.062 H 
ATOM     27  C   LIG d   1       3.924  -0.438  -3.275  0.00  0.00    -0.046 A 
ATOM     28  H   LIG d   1       3.434  -1.615  -1.560  0.00  0.00     0.062 H 
ATOM     29  C   LIG d   1       4.419  -0.443  -4.564  0.00  0.00    -0.037 A 
ATOM     30  H   LIG d   1       4.507   0.484  -5.114  0.00  0.00     0.064 H 
BRANCH  27  31
ATOM     31  C   LIG d   1       3.507   0.860  -2.634  0.00  0.00    -0.030 C 
ATOM     32  H   LIG d   1       3.479   1.646  -3.389  0.00  0.00     0.031 H 
ATOM     33  H   LIG d   1       2.517   0.746  -2.193  0.00  0.00     0.031 H 
BRANCH  31  34
ATOM     34  C   LIG d   1       4.511   1.237  -1.543  0.00  0.00    -0.061 C 
ATOM     35  H   LIG d   1       4.486   0.489  -0.751  0.00  0.00     0.023 H 
ATOM     36  H   LIG d   1       5.513   1.280  -1.971  0.00  0.00     0.023 H 
ATOM     37  H   LIG d   1       4.250   2.211  -1.130  0.00  0.00     0.023 H 
ENDBRANCH  31  34
ENDBRANCH  27  31
ENDBRANCH   1  21
BRANCH  12  38
ATOM     38  C   LIG d   1       8.230  -0.602 -10.390  0.00  0.00    -0.033 C 
ATOM     39  H   LIG d   1       8.427   0.468 -10.472  0.00  0.00     0.028 H 
ATOM     40  H   LIG d   1       8.754  -1.001  -9.522  0.00  0.00     0.028 H 
ATOM     41  H   LIG d   1       8.581  -1.105 -11.291  0.00  0.00     0.028 H 
ENDBRANCH  12  38
BRANCH   6  42
ATOM     42  C   LIG d   1       2.210  -1.403 -12.242  0.00  0.00    -0.039 C 
ATOM     43  H   LIG d   1       1.690  -0.841 -13.018  0.00  0.00     0.028 H 
ATOM     44  H   LIG d   1       1.994  -2.464 -12.354  0.00  0.00     0.028 H 
ATOM     45  H   LIG d   1       1.873  -1.065 -11.261  0.00  0.00     0.028 H 
ENDBRANCH   6  42
BRANCH   7  46
ATOM     46  C   LIG d   1       3.452  -1.087 -14.839  0.00  0.00    -0.033 C 
ATOM     47  H   LIG d   1       3.613  -0.182 -15.426  0.00  0.00     0.028 H 
ATOM     48  H   LIG d   1       3.744  -1.957 -15.426  0.00  0.00     0.028 H 
ATOM     49  H   LIG d   1       2.397  -1.165 -14.574  0.00  0.00     0.028 H 
ENDBRANCH   7  46
TORSDOF 6
ENDMDL
MODEL 9
REMARK VINA RESULT:      -5.8      6.217      8.332
REMARK  6 active torsions:
REMARK  status: ('A' for Active; 'I' for Inactive)
REMARK    1  A    between atoms: C_1  and  C_2 
REMARK    2  A    between atoms: C_2  and  C_3 
REMARK    3  A    between atoms: C_7  and  N_9 
REMARK    4  A    between atoms: C_14  and  C_26 
REMARK    5  A    between atoms: C_15  and  C_25 
REMARK    6  A    between atoms: C_20  and  C_24 
ROOT
ATOM      1  N   LIG d   1       6.581  -9.655  -2.861  0.00  0.00    -0.293 NA
ATOM      2  C   LIG d   1       7.361 -10.548  -1.993  0.00  0.00     0.044 C 
ATOM      3  C   LIG d   1       8.569  -9.813  -1.467  0.00  0.00     0.013 A 
ATOM      4  C   LIG d   1       9.229 -10.313  -0.380  0.00  0.00    -0.043 A 
ATOM      5  C   LIG d   1      10.348  -9.647   0.127  0.00  0.00     0.022 A 
ATOM      6  C   LIG d   1      11.073 -10.169   1.288  0.00  0.00    -0.030 A 
ATOM      7  C   LIG d   1      12.158  -9.473   1.722  0.00  0.00     0.037 A 
ATOM      8  C   LIG d   1      12.543  -8.296   1.051  0.00  0.00     0.340 A 
ATOM      9  O   LIG d   1      13.518  -7.687   1.455  0.00  0.00    -0.245 OA
ATOM     10  O   LIG d   1      11.887  -7.819  -0.012  0.00  0.00    -0.422 OA
ATOM     11  C   LIG d   1      10.805  -8.466  -0.489  0.00  0.00     0.146 A 
ATOM     12  C   LIG d   1      10.124  -7.973  -1.591  0.00  0.00     0.035 A 
ATOM     13  C   LIG d   1       9.009  -8.642  -2.077  0.00  0.00     0.134 A 
ATOM     14  O   LIG d   1       8.357  -8.134  -3.157  0.00  0.00    -0.473 OA
ATOM     15  C   LIG d   1       7.462  -9.009  -3.848  0.00  0.00     0.157 C 
ATOM     16  H   LIG d   1       7.686 -11.417  -2.565  0.00  0.00     0.051 H 
ATOM     17  H   LIG d   1       6.741 -10.874  -1.157  0.00  0.00     0.051 H 
ATOM     18  H   LIG d   1       8.883 -11.222   0.091  0.00  0.00     0.063 H 
ATOM     19  H   LIG d   1       8.032  -9.769  -4.382  0.00  0.00     0.091 H 
ATOM     20  H   LIG d   1       6.862  -8.435  -4.554  0.00  0.00     0.091 H 
ENDROOT
BRANCH   1  21
ATOM     21  C   LIG d   1       5.546 -10.349  -3.493  0.00  0.00     0.033 A 
ATOM     22  C   LIG d   1       4.247 -10.250  -3.012  0.00  0.00    -0.041 A 
ATOM     23  C   LIG d   1       3.226 -10.937  -3.639  0.00  0.00    -0.060 A 
ATOM     24  H   LIG d   1       4.035  -9.636  -2.149  0.00  0.00     0.064 H 
ATOM     25  C   LIG d   1       3.496 -11.723  -4.744  0.00  0.00    -0.059 A 
ATOM     26  H   LIG d   1       2.215 -10.861  -3.266  0.00  0.00     0.062 H 
ATOM     27  C   LIG d   1       4.789 -11.824  -5.225  0.00  0.00    -0.046 A 
ATOM     28  H   LIG d   1       2.696 -12.259  -5.233  0.00  0.00     0.062 H 
ATOM     29  C   LIG d   1       5.813 -11.136  -4.606  0.00  0.00    -0.037 A 
ATOM     30  H   LIG d   1       6.823 -11.211  -4.985  0.00  0.00     0.064 H 
BRANCH  27  31
ATOM     31  C   LIG d   1       5.079 -12.682  -6.430  0.00  0.00    -0.030 C 
ATOM     32  H   LIG d   1       5.241 -12.045  -7.299  0.00  0.00     0.031 H 
ATOM     33  H   LIG d   1       5.971 -13.278  -6.244  0.00  0.00     0.031 H 
BRANCH  31  34
ATOM     34  C   LIG d   1       3.891 -13.611  -6.692  0.00  0.00    -0.061 C 
ATOM     35  H   LIG d   1       3.512 -13.993  -5.745  0.00  0.00     0.023 H 
ATOM     36  H   LIG d   1       3.103 -13.056  -7.202  0.00  0.00     0.023 H 
ATOM     37  H   LIG d   1       4.212 -14.443  -7.318  0.00  0.00     0.023 H 
ENDBRANCH  31  34
ENDBRANCH  27  31
ENDBRANCH   1  21
BRANCH  12  38
ATOM     38  C   LIG d   1      10.592  -6.708  -2.262  0.00  0.00    -0.033 C 
ATOM     39  H   LIG d   1      10.402  -5.857  -1.606  0.00  0.00     0.028 H 
ATOM     40  H   LIG d   1      11.661  -6.778  -2.463  0.00  0.00     0.028 H 
ATOM     41  H   LIG d   1      10.053  -6.571  -3.199  0.00  0.00     0.028 H 
ENDBRANCH  12  38
BRANCH   6  42
ATOM     42  C   LIG d   1      10.629 -11.431   1.980  0.00  0.00    -0.039 C 
ATOM     43  H   LIG d   1      11.071 -12.294   1.481  0.00  0.00     0.028 H 
ATOM     44  H   LIG d   1      10.952 -11.409   3.021  0.00  0.00     0.028 H 
ATOM     45  H   LIG d   1       9.542 -11.506   1.939  0.00  0.00     0.028 H 
ENDBRANCH   6  42
BRANCH   7  46
ATOM     46  C   LIG d   1      12.940  -9.956   2.915  0.00  0.00    -0.033 C 
ATOM     47  H   LIG d   1      13.894  -9.429   2.962  0.00  0.00     0.028 H 
ATOM     48  H   LIG d   1      12.373  -9.763   3.824  0.00  0.00     0.028 H 
ATOM     49  H   LIG d   1      13.122 -11.027   2.820  0.00  0.00     0.028 H 
ENDBRANCH   7  46
TORSDOF 6
ENDMDL
