MODEL 1
REMARK VINA RESULT:      -7.6      0.000      0.000
REMARK  7 active torsions:
REMARK  status: ('A' for Active; 'I' for Inactive)
REMARK    1  A    between atoms: C_1  and  N_2 
REMARK       I    between atoms: N_5  and  C_8 
REMARK    2  A    between atoms: C_8  and  C_10 
REMARK    3  A    between atoms: C_10  and  C_11 
REMARK    4  A    between atoms: C_11  and  C_12 
REMARK    5  A    between atoms: C_22  and  N_25 
REMARK    6  A    between atoms: N_25  and  C_26 
REMARK    7  A    between atoms: C_26  and  C_27 
ROOT
ATOM      1  C   LIG d   1       6.631   0.040  -8.187  0.00  0.00     0.000 C 
ATOM      2  H   LIG d   1       6.517  -0.974  -8.569  0.00  0.00     0.087 H 
ATOM      3  C   LIG d   1       7.096   0.975  -9.315  0.00  0.00     0.082 C 
ATOM      4  N   LIG d   1       5.993   1.401 -10.165  0.00  0.00    -0.292 NA
ATOM      5  C   LIG d   1       4.749   1.130  -9.967  0.00  0.00     0.008 C 
ATOM      6  O   LIG d   1       3.807   1.606 -10.809  0.00  0.00    -0.860 OA
ATOM      7  C   LIG d   1       4.358   0.286  -8.801  0.00  0.00     0.010 C 
ATOM      8  H   LIG d   1       4.363  -0.768  -9.079  0.00  0.00     0.091 H 
ATOM      9  N   LIG d   1       5.349   0.540  -7.719  0.00  0.00     0.245 N 
ATOM     10  C   LIG d   1       4.771  -0.073  -6.527  0.00  0.00    -0.015 C 
ATOM     11  C   LIG d   1       3.235   0.054  -6.696  0.00  0.00     0.054 C 
ATOM     12  H   LIG d   1       2.764  -0.927  -6.635  0.00  0.00     0.051 H 
ATOM     13  C   LIG d   1       3.029   0.653  -8.128  0.00  0.00     0.015 C 
ATOM     14  H   LIG d   1       7.563   1.856  -8.875  0.00  0.00     0.056 H 
ATOM     15  H   LIG d   1       7.832   0.453  -9.926  0.00  0.00     0.056 H 
ATOM     16  H   LIG d   1       5.058  -1.123  -6.466  0.00  0.00     0.083 H 
ATOM     17  H   LIG d   1       5.096   0.460  -5.634  0.00  0.00     0.083 H 
ATOM     18  H   LIG d   1       2.900   1.735  -8.083  0.00  0.00     0.034 H 
ATOM     19  H   LIG d   1       2.189   0.184  -8.640  0.00  0.00     0.034 H 
ATOM     20  H   LIG d   1       5.417   1.534  -7.565  0.00  0.00     0.204 HD
ENDROOT
BRANCH   1  21
ATOM     21  C   LIG d   1       7.647   0.056  -7.044  0.00  0.00     0.000 C 
ATOM     22  H   LIG d   1       8.475  -0.612  -7.284  0.00  0.00     0.033 H 
ATOM     23  H   LIG d   1       7.165  -0.278  -6.125  0.00  0.00     0.033 H 
BRANCH  21  24
ATOM     24  C   LIG d   1       8.178   1.478  -6.853  0.00  0.00     0.029 C 
ATOM     25  H   LIG d   1       7.524   2.182  -7.366  0.00  0.00     0.036 H 
ATOM     26  H   LIG d   1       9.184   1.549  -7.266  0.00  0.00     0.036 H 
BRANCH  24  27
ATOM     27  C   LIG d   1       8.215   1.807  -5.383  0.00  0.00     0.216 C 
ATOM     28  N   LIG d   1       9.328   2.337  -4.839  0.00  0.00    -0.299 N 
ATOM     29  C   LIG d   1       9.386   2.666  -3.407  0.00  0.00     0.028 C 
ATOM     30  C   LIG d   1      10.519   2.601  -5.662  0.00  0.00     0.028 C 
ATOM     31  C   LIG d   1       9.875   4.110  -3.259  0.00  0.00     0.015 C 
ATOM     32  H   LIG d   1      10.079   1.992  -2.904  0.00  0.00     0.048 H 
ATOM     33  H   LIG d   1       8.392   2.569  -2.968  0.00  0.00     0.048 H 
ATOM     34  N   LIG d   1      11.142   4.273  -3.985  0.00  0.00    -0.302 N 
ATOM     35  H   LIG d   1      10.029   4.336  -2.203  0.00  0.00     0.044 H 
ATOM     36  H   LIG d   1       9.130   4.791  -3.671  0.00  0.00     0.044 H 
ATOM     37  C   LIG d   1      10.963   4.048  -5.425  0.00  0.00     0.015 C 
ATOM     38  H   LIG d   1      10.202   4.730  -5.808  0.00  0.00     0.044 H 
ATOM     39  H   LIG d   1      11.906   4.229  -5.941  0.00  0.00     0.044 H 
ATOM     40  H   LIG d   1      11.320   1.920  -5.376  0.00  0.00     0.048 H 
ATOM     41  H   LIG d   1      10.273   2.461  -6.715  0.00  0.00     0.048 H 
ATOM     42  O   LIG d   1       7.243   1.596  -4.689  0.00  0.00    -0.276 OA
BRANCH  34  43
ATOM     43  C   LIG d   1      11.731   5.593  -3.726  0.00  0.00    -0.013 C 
ATOM     44  H   LIG d   1      11.101   6.366  -4.166  0.00  0.00     0.039 H 
ATOM     45  H   LIG d   1      11.806   5.754  -2.651  0.00  0.00     0.039 H 
ATOM     46  H   LIG d   1      12.726   5.640  -4.171  0.00  0.00     0.039 H 
ENDBRANCH  34  43
ENDBRANCH  24  27
ENDBRANCH  21  24
ENDBRANCH   1  21
BRANCH  11  47
ATOM     47  N   LIG d   1       2.680   0.950  -5.674  0.00  0.00    -0.304 N 
ATOM     48  H   LIG d   1       3.401   1.531  -5.273  0.00  0.00     0.123 HD
BRANCH  47  49
ATOM     49  C   LIG d   1       1.978   0.189  -4.631  0.00  0.00     0.022 C 
ATOM     50  H   LIG d   1       1.153   0.784  -4.241  0.00  0.00     0.047 H 
ATOM     51  H   LIG d   1       1.590  -0.737  -5.057  0.00  0.00     0.047 H 
BRANCH  49  52
ATOM     52  C   LIG d   1       2.936  -0.135  -3.514  0.00  0.00    -0.034 A 
ATOM     53  C   LIG d   1       3.198  -1.451  -3.186  0.00  0.00    -0.057 A 
ATOM     54  C   LIG d   1       4.081  -1.748  -2.165  0.00  0.00    -0.061 A 
ATOM     55  H   LIG d   1       2.716  -2.250  -3.732  0.00  0.00     0.062 H 
ATOM     56  C   LIG d   1       4.694  -0.726  -1.465  0.00  0.00    -0.062 A 
ATOM     57  H   LIG d   1       4.288  -2.777  -1.912  0.00  0.00     0.062 H 
ATOM     58  C   LIG d   1       4.429   0.591  -1.788  0.00  0.00    -0.061 A 
ATOM     59  H   LIG d   1       5.382  -0.958  -0.663  0.00  0.00     0.062 H 
ATOM     60  C   LIG d   1       3.549   0.887  -2.813  0.00  0.00    -0.057 A 
ATOM     61  H   LIG d   1       4.908   1.389  -1.240  0.00  0.00     0.062 H 
ATOM     62  H   LIG d   1       3.342   1.916  -3.066  0.00  0.00     0.062 H 
ENDBRANCH  49  52
ENDBRANCH  47  49
ENDBRANCH  11  47
TORSDOF 7
ENDMDL
MODEL 2
REMARK VINA RESULT:      -7.1      4.311      6.248
REMARK  7 active torsions:
REMARK  status: ('A' for Active; 'I' for Inactive)
REMARK    1  A    between atoms: C_1  and  N_2 
REMARK       I    between atoms: N_5  and  C_8 
REMARK    2  A    between atoms: C_8  and  C_10 
REMARK    3  A    between atoms: C_10  and  C_11 
REMARK    4  A    between atoms: C_11  and  C_12 
REMARK    5  A    between atoms: C_22  and  N_25 
REMARK    6  A    between atoms: N_25  and  C_26 
REMARK    7  A    between atoms: C_26  and  C_27 
ROOT
ATOM      1  C   LIG d   1       2.963  -0.675 -10.985  0.00  0.00     0.000 C 
ATOM      2  H   LIG d   1       2.445   0.209 -11.357  0.00  0.00     0.087 H 
ATOM      3  C   LIG d   1       4.278  -0.875 -11.755  0.00  0.00     0.082 C 
ATOM      4  N   LIG d   1       5.344  -0.019 -11.253  0.00  0.00    -0.292 NA
ATOM      5  C   LIG d   1       5.261   0.753 -10.224  0.00  0.00     0.008 C 
ATOM      6  O   LIG d   1       6.328   1.481  -9.833  0.00  0.00    -0.860 OA
ATOM      7  C   LIG d   1       3.977   0.834  -9.468  0.00  0.00     0.010 C 
ATOM      8  H   LIG d   1       3.342   1.615  -9.887  0.00  0.00     0.091 H 
ATOM      9  N   LIG d   1       3.311  -0.492  -9.585  0.00  0.00     0.245 N 
ATOM     10  C   LIG d   1       2.224  -0.456  -8.611  0.00  0.00    -0.015 C 
ATOM     11  C   LIG d   1       2.730   0.451  -7.458  0.00  0.00     0.054 C 
ATOM     12  H   LIG d   1       2.036   1.276  -7.292  0.00  0.00     0.051 H 
ATOM     13  C   LIG d   1       4.107   1.008  -7.950  0.00  0.00     0.015 C 
ATOM     14  H   LIG d   1       4.588  -1.916 -11.662  0.00  0.00     0.056 H 
ATOM     15  H   LIG d   1       4.109  -0.650 -12.807  0.00  0.00     0.056 H 
ATOM     16  H   LIG d   1       1.328  -0.029  -9.061  0.00  0.00     0.083 H 
ATOM     17  H   LIG d   1       2.019  -1.458  -8.237  0.00  0.00     0.083 H 
ATOM     18  H   LIG d   1       4.931   0.413  -7.557  0.00  0.00     0.034 H 
ATOM     19  H   LIG d   1       4.230   2.059  -7.687  0.00  0.00     0.034 H 
ATOM     20  H   LIG d   1       3.962  -1.211  -9.309  0.00  0.00     0.204 HD
ENDROOT
BRANCH   1  21
ATOM     21  C   LIG d   1       2.072  -1.908 -11.145  0.00  0.00     0.000 C 
ATOM     22  H   LIG d   1       1.406  -1.767 -11.996  0.00  0.00     0.033 H 
ATOM     23  H   LIG d   1       1.481  -2.049 -10.240  0.00  0.00     0.033 H 
BRANCH  21  24
ATOM     24  C   LIG d   1       2.945  -3.141 -11.380  0.00  0.00     0.029 C 
ATOM     25  H   LIG d   1       3.992  -2.843 -11.423  0.00  0.00     0.036 H 
ATOM     26  H   LIG d   1       2.662  -3.613 -12.322  0.00  0.00     0.036 H 
BRANCH  24  27
ATOM     27  C   LIG d   1       2.748  -4.120 -10.251  0.00  0.00     0.216 C 
ATOM     28  N   LIG d   1       3.732  -4.320  -9.353  0.00  0.00    -0.299 N 
ATOM     29  C   LIG d   1       3.560  -5.270  -8.243  0.00  0.00     0.028 C 
ATOM     30  C   LIG d   1       5.008  -3.596  -9.456  0.00  0.00     0.028 C 
ATOM     31  C   LIG d   1       3.923  -4.561  -6.934  0.00  0.00     0.015 C 
ATOM     32  H   LIG d   1       4.218  -6.127  -8.390  0.00  0.00     0.048 H 
ATOM     33  H   LIG d   1       2.522  -5.603  -8.204  0.00  0.00     0.048 H 
ATOM     34  N   LIG d   1       5.267  -3.980  -7.052  0.00  0.00    -0.302 N 
ATOM     35  H   LIG d   1       3.907  -5.280  -6.115  0.00  0.00     0.044 H 
ATOM     36  H   LIG d   1       3.200  -3.769  -6.738  0.00  0.00     0.044 H 
ATOM     37  C   LIG d   1       5.313  -2.952  -8.100  0.00  0.00     0.015 C 
ATOM     38  H   LIG d   1       4.571  -2.182  -7.887  0.00  0.00     0.044 H 
ATOM     39  H   LIG d   1       6.307  -2.503  -8.125  0.00  0.00     0.044 H 
ATOM     40  H   LIG d   1       5.804  -4.291  -9.720  0.00  0.00     0.048 H 
ATOM     41  H   LIG d   1       4.927  -2.821 -10.219  0.00  0.00     0.048 H 
ATOM     42  O   LIG d   1       1.702  -4.727 -10.150  0.00  0.00    -0.276 OA
BRANCH  34  43
ATOM     43  C   LIG d   1       5.722  -3.441  -5.764  0.00  0.00    -0.013 C 
ATOM     44  H   LIG d   1       4.992  -2.720  -5.393  0.00  0.00     0.039 H 
ATOM     45  H   LIG d   1       5.827  -4.254  -5.045  0.00  0.00     0.039 H 
ATOM     46  H   LIG d   1       6.685  -2.946  -5.896  0.00  0.00     0.039 H 
ENDBRANCH  34  43
ENDBRANCH  24  27
ENDBRANCH  21  24
ENDBRANCH   1  21
BRANCH  11  47
ATOM     47  N   LIG d   1       2.895  -0.331  -6.227  0.00  0.00    -0.304 N 
ATOM     48  H   LIG d   1       2.444  -1.230  -6.306  0.00  0.00     0.123 HD
BRANCH  47  49
ATOM     49  C   LIG d   1       2.393   0.408  -5.061  0.00  0.00     0.022 C 
ATOM     50  H   LIG d   1       2.536   1.477  -5.220  0.00  0.00     0.047 H 
ATOM     51  H   LIG d   1       1.331   0.200  -4.929  0.00  0.00     0.047 H 
BRANCH  49  52
ATOM     52  C   LIG d   1       3.147  -0.022  -3.830  0.00  0.00    -0.034 A 
ATOM     53  C   LIG d   1       3.275  -1.365  -3.531  0.00  0.00    -0.057 A 
ATOM     54  C   LIG d   1       3.971  -1.760  -2.404  0.00  0.00    -0.061 A 
ATOM     55  H   LIG d   1       2.835  -2.107  -4.181  0.00  0.00     0.062 H 
ATOM     56  C   LIG d   1       4.531  -0.810  -1.570  0.00  0.00    -0.062 A 
ATOM     57  H   LIG d   1       4.074  -2.809  -2.173  0.00  0.00     0.062 H 
ATOM     58  C   LIG d   1       4.398   0.534  -1.865  0.00  0.00    -0.061 A 
ATOM     59  H   LIG d   1       5.072  -1.118  -0.687  0.00  0.00     0.062 H 
ATOM     60  C   LIG d   1       3.706   0.929  -2.995  0.00  0.00    -0.057 A 
ATOM     61  H   LIG d   1       4.835   1.276  -1.213  0.00  0.00     0.062 H 
ATOM     62  H   LIG d   1       3.603   1.978  -3.226  0.00  0.00     0.062 H 
ENDBRANCH  49  52
ENDBRANCH  47  49
ENDBRANCH  11  47
TORSDOF 7
ENDMDL
MODEL 3
REMARK VINA RESULT:      -7.1      3.890      6.502
REMARK  7 active torsions:
REMARK  status: ('A' for Active; 'I' for Inactive)
REMARK    1  A    between atoms: C_1  and  N_2 
REMARK       I    between atoms: N_5  and  C_8 
REMARK    2  A    between atoms: C_8  and  C_10 
REMARK    3  A    between atoms: C_10  and  C_11 
REMARK    4  A    between atoms: C_11  and  C_12 
REMARK    5  A    between atoms: C_22  and  N_25 
REMARK    6  A    between atoms: N_25  and  C_26 
REMARK    7  A    between atoms: C_26  and  C_27 
ROOT
ATOM      1  C   LIG d   1      10.363   5.160  -3.767  0.00  0.00     0.000 C 
ATOM      2  H   LIG d   1      11.386   4.807  -3.893  0.00  0.00     0.087 H 
ATOM      3  C   LIG d   1      10.192   6.526  -4.451  0.00  0.00     0.082 C 
ATOM      4  N   LIG d   1       9.989   6.399  -5.889  0.00  0.00    -0.292 NA
ATOM      5  C   LIG d   1       9.861   5.288  -6.530  0.00  0.00     0.008 C 
ATOM      6  O   LIG d   1       9.646   5.294  -7.862  0.00  0.00    -0.860 OA
ATOM      7  C   LIG d   1       9.951   3.997  -5.788  0.00  0.00     0.010 C 
ATOM      8  H   LIG d   1      10.985   3.654  -5.751  0.00  0.00     0.091 H 
ATOM      9  N   LIG d   1       9.439   4.241  -4.411  0.00  0.00     0.245 N 
ATOM     10  C   LIG d   1       9.279   2.913  -3.827  0.00  0.00    -0.015 C 
ATOM     11  C   LIG d   1       8.919   1.978  -5.011  0.00  0.00     0.054 C 
ATOM     12  H   LIG d   1       9.629   1.153  -5.073  0.00  0.00     0.051 H 
ATOM     13  C   LIG d   1       9.034   2.874  -6.290  0.00  0.00     0.015 C 
ATOM     14  H   LIG d   1       9.332   7.035  -4.017  0.00  0.00     0.056 H 
ATOM     15  H   LIG d   1      11.084   7.125  -4.272  0.00  0.00     0.056 H 
ATOM     16  H   LIG d   1      10.211   2.590  -3.363  0.00  0.00     0.083 H 
ATOM     17  H   LIG d   1       8.473   2.918  -3.094  0.00  0.00     0.083 H 
ATOM     18  H   LIG d   1       8.060   3.266  -6.580  0.00  0.00     0.034 H 
ATOM     19  H   LIG d   1       9.496   2.333  -7.116  0.00  0.00     0.034 H 
ATOM     20  H   LIG d   1       8.530   4.674  -4.473  0.00  0.00     0.204 HD
ENDROOT
BRANCH   1  21
ATOM     21  C   LIG d   1      10.030   5.278  -2.279  0.00  0.00     0.000 C 
ATOM     22  H   LIG d   1      10.924   5.070  -1.689  0.00  0.00     0.033 H 
ATOM     23  H   LIG d   1       9.251   4.560  -2.023  0.00  0.00     0.033 H 
BRANCH  21  24
ATOM     24  C   LIG d   1       9.538   6.694  -1.976  0.00  0.00     0.029 C 
ATOM     25  H   LIG d   1       8.461   6.677  -1.814  0.00  0.00     0.036 H 
ATOM     26  H   LIG d   1       9.769   7.347  -2.819  0.00  0.00     0.036 H 
BRANCH  24  27
ATOM     27  C   LIG d   1      10.225   7.211  -0.738  0.00  0.00     0.216 C 
ATOM     28  N   LIG d   1      10.768   8.444  -0.734  0.00  0.00    -0.299 N 
ATOM     29  C   LIG d   1      11.443   8.968   0.462  0.00  0.00     0.028 C 
ATOM     30  C   LIG d   1      10.703   9.302  -1.928  0.00  0.00     0.028 C 
ATOM     31  C   LIG d   1      10.864  10.350   0.782  0.00  0.00     0.015 C 
ATOM     32  H   LIG d   1      12.512   9.055   0.272  0.00  0.00     0.048 H 
ATOM     33  H   LIG d   1      11.271   8.296   1.304  0.00  0.00     0.048 H 
ATOM     34  N   LIG d   1      10.958  11.205  -0.409  0.00  0.00    -0.302 N 
ATOM     35  H   LIG d   1      11.427  10.801   1.600  0.00  0.00     0.044 H 
ATOM     36  H   LIG d   1       9.818  10.248   1.074  0.00  0.00     0.044 H 
ATOM     37  C   LIG d   1      10.153  10.670  -1.514  0.00  0.00     0.015 C 
ATOM     38  H   LIG d   1       9.117  10.563  -1.191  0.00  0.00     0.044 H 
ATOM     39  H   LIG d   1      10.200  11.354  -2.363  0.00  0.00     0.044 H 
ATOM     40  H   LIG d   1      11.702   9.420  -2.349  0.00  0.00     0.048 H 
ATOM     41  H   LIG d   1      10.042   8.849  -2.667  0.00  0.00     0.048 H 
ATOM     42  O   LIG d   1      10.288   6.517   0.255  0.00  0.00    -0.276 OA
BRANCH  34  43
ATOM     43  C   LIG d   1      10.573  12.587  -0.097  0.00  0.00    -0.013 C 
ATOM     44  H   LIG d   1       9.707  12.868  -0.697  0.00  0.00     0.039 H 
ATOM     45  H   LIG d   1      10.323  12.666   0.961  0.00  0.00     0.039 H 
ATOM     46  H   LIG d   1      11.404  13.256  -0.324  0.00  0.00     0.039 H 
ENDBRANCH  34  43
ENDBRANCH  24  27
ENDBRANCH  21  24
ENDBRANCH   1  21
BRANCH  11  47
ATOM     47  N   LIG d   1       7.552   1.463  -4.859  0.00  0.00    -0.304 N 
ATOM     48  H   LIG d   1       6.989   2.090  -4.304  0.00  0.00     0.123 HD
BRANCH  47  49
ATOM     49  C   LIG d   1       7.559   0.113  -4.282  0.00  0.00     0.022 C 
ATOM     50  H   LIG d   1       7.541  -0.625  -5.084  0.00  0.00     0.047 H 
ATOM     51  H   LIG d   1       8.461  -0.022  -3.684  0.00  0.00     0.047 H 
BRANCH  49  52
ATOM     52  C   LIG d   1       6.345  -0.066  -3.407  0.00  0.00    -0.034 A 
ATOM     53  C   LIG d   1       5.844  -1.332  -3.171  0.00  0.00    -0.057 A 
ATOM     54  C   LIG d   1       4.733  -1.497  -2.365  0.00  0.00    -0.061 A 
ATOM     55  H   LIG d   1       6.323  -2.194  -3.612  0.00  0.00     0.062 H 
ATOM     56  C   LIG d   1       4.118  -0.393  -1.804  0.00  0.00    -0.062 A 
ATOM     57  H   LIG d   1       4.344  -2.486  -2.177  0.00  0.00     0.062 H 
ATOM     58  C   LIG d   1       4.615   0.873  -2.045  0.00  0.00    -0.061 A 
ATOM     59  H   LIG d   1       3.247  -0.521  -1.177  0.00  0.00     0.062 H 
ATOM     60  C   LIG d   1       5.729   1.037  -2.847  0.00  0.00    -0.057 A 
ATOM     61  H   LIG d   1       4.134   1.735  -1.606  0.00  0.00     0.062 H 
ATOM     62  H   LIG d   1       6.118   2.026  -3.035  0.00  0.00     0.062 H 
ENDBRANCH  49  52
ENDBRANCH  47  49
ENDBRANCH  11  47
TORSDOF 7
ENDMDL
MODEL 4
REMARK VINA RESULT:      -6.9      3.295      5.294
REMARK  7 active torsions:
REMARK  status: ('A' for Active; 'I' for Inactive)
REMARK    1  A    between atoms: C_1  and  N_2 
REMARK       I    between atoms: N_5  and  C_8 
REMARK    2  A    between atoms: C_8  and  C_10 
REMARK    3  A    between atoms: C_10  and  C_11 
REMARK    4  A    between atoms: C_11  and  C_12 
REMARK    5  A    between atoms: C_22  and  N_25 
REMARK    6  A    between atoms: N_25  and  C_26 
REMARK    7  A    between atoms: C_26  and  C_27 
ROOT
ATOM      1  C   LIG d   1      10.424   4.736  -6.158  0.00  0.00     0.000 C 
ATOM      2  H   LIG d   1      11.358   4.231  -6.404  0.00  0.00     0.087 H 
ATOM      3  C   LIG d   1      10.139   5.840  -7.190  0.00  0.00     0.082 C 
ATOM      4  N   LIG d   1       9.549   5.309  -8.412  0.00  0.00    -0.292 NA
ATOM      5  C   LIG d   1       9.201   4.084  -8.603  0.00  0.00     0.008 C 
ATOM      6  O   LIG d   1       8.634   3.712  -9.771  0.00  0.00    -0.860 OA
ATOM      7  C   LIG d   1       9.429   3.079  -7.524  0.00  0.00     0.010 C 
ATOM      8  H   LIG d   1      10.417   2.631  -7.628  0.00  0.00     0.091 H 
ATOM      9  N   LIG d   1       9.319   3.794  -6.223  0.00  0.00     0.245 N 
ATOM     10  C   LIG d   1       9.262   2.739  -5.216  0.00  0.00    -0.015 C 
ATOM     11  C   LIG d   1       8.552   1.544  -5.905  0.00  0.00     0.054 C 
ATOM     12  H   LIG d   1       9.181   0.654  -5.862  0.00  0.00     0.051 H 
ATOM     13  C   LIG d   1       8.359   1.986  -7.394  0.00  0.00     0.015 C 
ATOM     14  H   LIG d   1       9.452   6.564  -6.752  0.00  0.00     0.056 H 
ATOM     15  H   LIG d   1      11.072   6.343  -7.437  0.00  0.00     0.056 H 
ATOM     16  H   LIG d   1      10.268   2.454  -4.910  0.00  0.00     0.083 H 
ATOM     17  H   LIG d   1       8.685   3.072  -4.354  0.00  0.00     0.083 H 
ATOM     18  H   LIG d   1       7.362   2.396  -7.553  0.00  0.00     0.034 H 
ATOM     19  H   LIG d   1       8.555   1.165  -8.083  0.00  0.00     0.034 H 
ATOM     20  H   LIG d   1       8.448   4.303  -6.202  0.00  0.00     0.204 HD
ENDROOT
BRANCH   1  21
ATOM     21  C   LIG d   1      10.512   5.343  -4.757  0.00  0.00     0.000 C 
ATOM     22  H   LIG d   1      11.493   5.798  -4.619  0.00  0.00     0.033 H 
ATOM     23  H   LIG d   1      10.366   4.560  -4.013  0.00  0.00     0.033 H 
BRANCH  21  24
ATOM     24  C   LIG d   1       9.428   6.410  -4.594  0.00  0.00     0.029 C 
ATOM     25  H   LIG d   1       8.682   6.064  -3.880  0.00  0.00     0.036 H 
ATOM     26  H   LIG d   1       8.952   6.594  -5.557  0.00  0.00     0.036 H 
BRANCH  24  27
ATOM     27  C   LIG d   1      10.051   7.687  -4.091  0.00  0.00     0.216 C 
ATOM     28  N   LIG d   1       9.982   8.001  -2.783  0.00  0.00    -0.299 N 
ATOM     29  C   LIG d   1      10.582   9.242  -2.271  0.00  0.00     0.028 C 
ATOM     30  C   LIG d   1       9.301   7.113  -1.828  0.00  0.00     0.028 C 
ATOM     31  C   LIG d   1      11.477   8.893  -1.077  0.00  0.00     0.015 C 
ATOM     32  H   LIG d   1       9.796   9.925  -1.952  0.00  0.00     0.048 H 
ATOM     33  H   LIG d   1      11.182   9.708  -3.053  0.00  0.00     0.048 H 
ATOM     34  N   LIG d   1      10.699   8.128  -0.093  0.00  0.00    -0.302 N 
ATOM     35  H   LIG d   1      11.844   9.811  -0.617  0.00  0.00     0.044 H 
ATOM     36  H   LIG d   1      12.322   8.294  -1.417  0.00  0.00     0.044 H 
ATOM     37  C   LIG d   1      10.246   6.847  -0.651  0.00  0.00     0.015 C 
ATOM     38  H   LIG d   1      11.108   6.277  -0.998  0.00  0.00     0.044 H 
ATOM     39  H   LIG d   1       9.720   6.281   0.118  0.00  0.00     0.044 H 
ATOM     40  H   LIG d   1       8.391   7.592  -1.466  0.00  0.00     0.048 H 
ATOM     41  H   LIG d   1       9.053   6.171  -2.318  0.00  0.00     0.048 H 
ATOM     42  O   LIG d   1      10.616   8.431  -4.864  0.00  0.00    -0.276 OA
BRANCH  34  43
ATOM     43  C   LIG d   1      11.468   7.922   1.141  0.00  0.00    -0.013 C 
ATOM     44  H   LIG d   1      10.783   7.768   1.975  0.00  0.00     0.039 H 
ATOM     45  H   LIG d   1      12.108   7.048   1.030  0.00  0.00     0.039 H 
ATOM     46  H   LIG d   1      12.084   8.801   1.336  0.00  0.00     0.039 H 
ENDBRANCH  34  43
ENDBRANCH  24  27
ENDBRANCH  21  24
ENDBRANCH   1  21
BRANCH  11  47
ATOM     47  N   LIG d   1       7.255   1.283  -5.268  0.00  0.00    -0.304 N 
ATOM     48  H   LIG d   1       6.545   1.903  -5.628  0.00  0.00     0.123 HD
BRANCH  47  49
ATOM     49  C   LIG d   1       7.355   1.391  -3.806  0.00  0.00     0.022 C 
ATOM     50  H   LIG d   1       8.325   1.016  -3.480  0.00  0.00     0.047 H 
ATOM     51  H   LIG d   1       7.251   2.435  -3.512  0.00  0.00     0.047 H 
BRANCH  49  52
ATOM     52  C   LIG d   1       6.261   0.575  -3.167  0.00  0.00    -0.034 A 
ATOM     53  C   LIG d   1       6.266  -0.801  -3.284  0.00  0.00    -0.057 A 
ATOM     54  C   LIG d   1       5.265  -1.550  -2.692  0.00  0.00    -0.061 A 
ATOM     55  H   LIG d   1       7.056  -1.294  -3.833  0.00  0.00     0.062 H 
ATOM     56  C   LIG d   1       4.254  -0.919  -1.993  0.00  0.00    -0.062 A 
ATOM     57  H   LIG d   1       5.272  -2.625  -2.781  0.00  0.00     0.062 H 
ATOM     58  C   LIG d   1       4.244   0.458  -1.881  0.00  0.00    -0.061 A 
ATOM     59  H   LIG d   1       3.469  -1.503  -1.534  0.00  0.00     0.062 H 
ATOM     60  C   LIG d   1       5.248   1.207  -2.468  0.00  0.00    -0.057 A 
ATOM     61  H   LIG d   1       3.453   0.951  -1.335  0.00  0.00     0.062 H 
ATOM     62  H   LIG d   1       5.241   2.282  -2.380  0.00  0.00     0.062 H 
ENDBRANCH  49  52
ENDBRANCH  47  49
ENDBRANCH  11  47
TORSDOF 7
ENDMDL
MODEL 5
REMARK VINA RESULT:      -6.8      4.917      9.280
REMARK  7 active torsions:
REMARK  status: ('A' for Active; 'I' for Inactive)
REMARK    1  A    between atoms: C_1  and  N_2 
REMARK       I    between atoms: N_5  and  C_8 
REMARK    2  A    between atoms: C_8  and  C_10 
REMARK    3  A    between atoms: C_10  and  C_11 
REMARK    4  A    between atoms: C_11  and  C_12 
REMARK    5  A    between atoms: C_22  and  N_25 
REMARK    6  A    between atoms: N_25  and  C_26 
REMARK    7  A    between atoms: C_26  and  C_27 
ROOT
ATOM      1  C   LIG d   1       3.371  -1.483 -10.293  0.00  0.00     0.000 C 
ATOM      2  H   LIG d   1       3.885  -0.634 -10.743  0.00  0.00     0.087 H 
ATOM      3  C   LIG d   1       4.156  -2.776 -10.566  0.00  0.00     0.082 C 
ATOM      4  N   LIG d   1       5.274  -2.943  -9.646  0.00  0.00    -0.292 NA
ATOM      5  C   LIG d   1       5.542  -2.174  -8.647  0.00  0.00     0.008 C 
ATOM      6  O   LIG d   1       6.591  -2.446  -7.843  0.00  0.00    -0.860 OA
ATOM      7  C   LIG d   1       4.684  -0.981  -8.388  0.00  0.00     0.010 C 
ATOM      8  H   LIG d   1       5.066  -0.117  -8.932  0.00  0.00     0.091 H 
ATOM      9  N   LIG d   1       3.309  -1.317  -8.850  0.00  0.00     0.245 N 
ATOM     10  C   LIG d   1       2.463  -0.251  -8.321  0.00  0.00    -0.015 C 
ATOM     11  C   LIG d   1       3.127   0.185  -6.988  0.00  0.00     0.054 C 
ATOM     12  H   LIG d   1       3.345   1.253  -7.004  0.00  0.00     0.051 H 
ATOM     13  C   LIG d   1       4.463  -0.628  -6.912  0.00  0.00     0.015 C 
ATOM     14  H   LIG d   1       3.484  -3.627 -10.463  0.00  0.00     0.056 H 
ATOM     15  H   LIG d   1       4.538  -2.749 -11.585  0.00  0.00     0.056 H 
ATOM     16  H   LIG d   1       2.432   0.587  -9.018  0.00  0.00     0.083 H 
ATOM     17  H   LIG d   1       1.457  -0.625  -8.135  0.00  0.00     0.083 H 
ATOM     18  H   LIG d   1       4.338  -1.527  -6.309  0.00  0.00     0.034 H 
ATOM     19  H   LIG d   1       5.280  -0.016  -6.530  0.00  0.00     0.034 H 
ATOM     20  H   LIG d   1       3.026  -2.188  -8.427  0.00  0.00     0.204 HD
ENDROOT
BRANCH   1  21
ATOM     21  C   LIG d   1       1.957  -1.601 -10.866  0.00  0.00     0.000 C 
ATOM     22  H   LIG d   1       1.858  -0.941 -11.727  0.00  0.00     0.033 H 
ATOM     23  H   LIG d   1       1.232  -1.317 -10.103  0.00  0.00     0.033 H 
BRANCH  21  24
ATOM     24  C   LIG d   1       1.702  -3.046 -11.299  0.00  0.00     0.029 C 
ATOM     25  H   LIG d   1       1.655  -3.686 -10.419  0.00  0.00     0.036 H 
ATOM     26  H   LIG d   1       2.511  -3.379 -11.949  0.00  0.00     0.036 H 
BRANCH  24  27
ATOM     27  C   LIG d   1       0.395  -3.123 -12.046  0.00  0.00     0.216 C 
ATOM     28  N   LIG d   1      -0.437  -4.164 -11.845  0.00  0.00    -0.299 N 
ATOM     29  C   LIG d   1      -1.716  -4.258 -12.563  0.00  0.00     0.028 C 
ATOM     30  C   LIG d   1      -0.088  -5.237 -10.901  0.00  0.00     0.028 C 
ATOM     31  C   LIG d   1      -2.831  -4.506 -11.542  0.00  0.00     0.015 C 
ATOM     32  H   LIG d   1      -1.678  -5.086 -13.271  0.00  0.00     0.048 H 
ATOM     33  H   LIG d   1      -1.907  -3.325 -13.095  0.00  0.00     0.048 H 
ATOM     34  N   LIG d   1      -2.490  -5.677 -10.723  0.00  0.00    -0.302 N 
ATOM     35  H   LIG d   1      -3.770  -4.687 -12.065  0.00  0.00     0.044 H 
ATOM     36  H   LIG d   1      -2.936  -3.631 -10.899  0.00  0.00     0.044 H 
ATOM     37  C   LIG d   1      -1.267  -5.445  -9.945  0.00  0.00     0.015 C 
ATOM     38  H   LIG d   1      -1.394  -4.558  -9.324  0.00  0.00     0.044 H 
ATOM     39  H   LIG d   1      -1.072  -6.310  -9.309  0.00  0.00     0.044 H 
ATOM     40  H   LIG d   1       0.107  -6.158 -11.449  0.00  0.00     0.048 H 
ATOM     41  H   LIG d   1       0.798  -4.951 -10.333  0.00  0.00     0.048 H 
ATOM     42  O   LIG d   1       0.092  -2.247 -12.829  0.00  0.00    -0.276 OA
BRANCH  34  43
ATOM     43  C   LIG d   1      -3.609  -6.052  -9.849  0.00  0.00    -0.013 C 
ATOM     44  H   LIG d   1      -4.514  -5.540 -10.177  0.00  0.00     0.039 H 
ATOM     45  H   LIG d   1      -3.764  -7.130  -9.897  0.00  0.00     0.039 H 
ATOM     46  H   LIG d   1      -3.381  -5.763  -8.823  0.00  0.00     0.039 H 
ENDBRANCH  34  43
ENDBRANCH  24  27
ENDBRANCH  21  24
ENDBRANCH   1  21
BRANCH  11  47
ATOM     47  N   LIG d   1       2.255  -0.141  -5.853  0.00  0.00    -0.304 N 
ATOM     48  H   LIG d   1       1.293  -0.218  -6.146  0.00  0.00     0.123 HD
BRANCH  47  49
ATOM     49  C   LIG d   1       2.399   0.849  -4.777  0.00  0.00     0.022 C 
ATOM     50  H   LIG d   1       2.941   1.718  -5.154  0.00  0.00     0.047 H 
ATOM     51  H   LIG d   1       1.412   1.158  -4.434  0.00  0.00     0.047 H 
BRANCH  49  52
ATOM     52  C   LIG d   1       3.163   0.239  -3.631  0.00  0.00    -0.034 A 
ATOM     53  C   LIG d   1       3.901   1.044  -2.785  0.00  0.00    -0.057 A 
ATOM     54  C   LIG d   1       4.598   0.485  -1.730  0.00  0.00    -0.061 A 
ATOM     55  H   LIG d   1       3.930   2.113  -2.944  0.00  0.00     0.062 H 
ATOM     56  C   LIG d   1       4.564  -0.882  -1.528  0.00  0.00    -0.062 A 
ATOM     57  H   LIG d   1       5.171   1.115  -1.067  0.00  0.00     0.062 H 
ATOM     58  C   LIG d   1       3.832  -1.689  -2.378  0.00  0.00    -0.061 A 
ATOM     59  H   LIG d   1       5.112  -1.320  -0.706  0.00  0.00     0.062 H 
ATOM     60  C   LIG d   1       3.131  -1.128  -3.430  0.00  0.00    -0.057 A 
ATOM     61  H   LIG d   1       3.806  -2.757  -2.220  0.00  0.00     0.062 H 
ATOM     62  H   LIG d   1       2.558  -1.759  -4.093  0.00  0.00     0.062 H 
ENDBRANCH  49  52
ENDBRANCH  47  49
ENDBRANCH  11  47
TORSDOF 7
ENDMDL
MODEL 6
REMARK VINA RESULT:      -6.5      4.846      7.225
REMARK  7 active torsions:
REMARK  status: ('A' for Active; 'I' for Inactive)
REMARK    1  A    between atoms: C_1  and  N_2 
REMARK       I    between atoms: N_5  and  C_8 
REMARK    2  A    between atoms: C_8  and  C_10 
REMARK    3  A    between atoms: C_10  and  C_11 
REMARK    4  A    between atoms: C_11  and  C_12 
REMARK    5  A    between atoms: C_22  and  N_25 
REMARK    6  A    between atoms: N_25  and  C_26 
REMARK    7  A    between atoms: C_26  and  C_27 
ROOT
ATOM      1  C   LIG d   1       3.422  -4.914  -9.493  0.00  0.00     0.000 C 
ATOM      2  H   LIG d   1       4.418  -4.917  -9.934  0.00  0.00     0.087 H 
ATOM      3  C   LIG d   1       2.721  -6.252  -9.774  0.00  0.00     0.082 C 
ATOM      4  N   LIG d   1       3.144  -7.298  -8.852  0.00  0.00    -0.292 NA
ATOM      5  C   LIG d   1       3.933  -7.134  -7.846  0.00  0.00     0.008 C 
ATOM      6  O   LIG d   1       4.232  -8.174  -7.040  0.00  0.00    -0.860 OA
ATOM      7  C   LIG d   1       4.511  -5.784  -7.580  0.00  0.00     0.010 C 
ATOM      8  H   LIG d   1       5.453  -5.666  -8.115  0.00  0.00     0.091 H 
ATOM      9  N   LIG d   1       3.520  -4.777  -8.049  0.00  0.00     0.245 N 
ATOM     10  C   LIG d   1       3.993  -3.504  -7.514  0.00  0.00    -0.015 C 
ATOM     11  C   LIG d   1       4.697  -3.851  -6.176  0.00  0.00     0.054 C 
ATOM     12  H   LIG d   1       5.725  -3.488  -6.182  0.00  0.00     0.051 H 
ATOM     13  C   LIG d   1       4.687  -5.414  -6.101  0.00  0.00     0.015 C 
ATOM     14  H   LIG d   1       1.643  -6.115  -9.680  0.00  0.00     0.056 H 
ATOM     15  H   LIG d   1       2.949  -6.565 -10.792  0.00  0.00     0.056 H 
ATOM     16  H   LIG d   1       4.702  -3.045  -8.204  0.00  0.00     0.083 H 
ATOM     17  H   LIG d   1       3.153  -2.835  -7.334  0.00  0.00     0.083 H 
ATOM     18  H   LIG d   1       3.846  -5.771  -5.507  0.00  0.00     0.034 H 
ATOM     19  H   LIG d   1       5.629  -5.801  -5.712  0.00  0.00     0.034 H 
ATOM     20  H   LIG d   1       2.624  -4.984  -7.635  0.00  0.00     0.204 HD
ENDROOT
BRANCH   1  21
ATOM     21  C   LIG d   1       2.597  -3.762 -10.071  0.00  0.00     0.000 C 
ATOM     22  H   LIG d   1       2.690  -2.889  -9.426  0.00  0.00     0.033 H 
ATOM     23  H   LIG d   1       1.551  -4.060 -10.132  0.00  0.00     0.033 H 
BRANCH  21  24
ATOM     24  C   LIG d   1       3.112  -3.419 -11.470  0.00  0.00     0.029 C 
ATOM     25  H   LIG d   1       2.303  -2.990 -12.060  0.00  0.00     0.036 H 
ATOM     26  H   LIG d   1       3.475  -4.325 -11.956  0.00  0.00     0.036 H 
BRANCH  24  27
ATOM     27  C   LIG d   1       4.238  -2.423 -11.361  0.00  0.00     0.216 C 
ATOM     28  N   LIG d   1       3.967  -1.114 -11.197  0.00  0.00    -0.299 N 
ATOM     29  C   LIG d   1       5.051  -0.126 -11.089  0.00  0.00     0.028 C 
ATOM     30  C   LIG d   1       2.579  -0.634 -11.123  0.00  0.00     0.028 C 
ATOM     31  C   LIG d   1       4.807   0.729  -9.841  0.00  0.00     0.015 C 
ATOM     32  H   LIG d   1       5.056   0.511 -11.973  0.00  0.00     0.048 H 
ATOM     33  H   LIG d   1       6.008  -0.640 -10.998  0.00  0.00     0.048 H 
ATOM     34  N   LIG d   1       3.452   1.296  -9.896  0.00  0.00    -0.302 N 
ATOM     35  H   LIG d   1       5.539   1.536  -9.804  0.00  0.00     0.044 H 
ATOM     36  H   LIG d   1       4.905   0.109  -8.950  0.00  0.00     0.044 H 
ATOM     37  C   LIG d   1       2.432   0.240  -9.874  0.00  0.00     0.015 C 
ATOM     38  H   LIG d   1       2.563  -0.374  -8.982  0.00  0.00     0.044 H 
ATOM     39  H   LIG d   1       1.440   0.694  -9.861  0.00  0.00     0.044 H 
ATOM     40  H   LIG d   1       2.346  -0.047 -12.012  0.00  0.00     0.048 H 
ATOM     41  H   LIG d   1       1.901  -1.485 -11.056  0.00  0.00     0.048 H 
ATOM     42  O   LIG d   1       5.390  -2.801 -11.421  0.00  0.00    -0.276 OA
BRANCH  34  43
ATOM     43  C   LIG d   1       3.240   2.258  -8.807  0.00  0.00    -0.013 C 
ATOM     44  H   LIG d   1       3.554   1.814  -7.862  0.00  0.00     0.039 H 
ATOM     45  H   LIG d   1       3.824   3.158  -8.997  0.00  0.00     0.039 H 
ATOM     46  H   LIG d   1       2.182   2.517  -8.752  0.00  0.00     0.039 H 
ENDBRANCH  34  43
ENDBRANCH  24  27
ENDBRANCH  21  24
ENDBRANCH   1  21
BRANCH  11  47
ATOM     47  N   LIG d   1       3.959  -3.273  -5.046  0.00  0.00    -0.304 N 
ATOM     48  H   LIG d   1       3.365  -2.516  -5.351  0.00  0.00     0.123 HD
BRANCH  47  49
ATOM     49  C   LIG d   1       4.877  -2.827  -3.989  0.00  0.00     0.022 C 
ATOM     50  H   LIG d   1       4.883  -3.558  -3.181  0.00  0.00     0.047 H 
ATOM     51  H   LIG d   1       5.883  -2.731  -4.400  0.00  0.00     0.047 H 
BRANCH  49  52
ATOM     52  C   LIG d   1       4.421  -1.493  -3.457  0.00  0.00    -0.034 A 
ATOM     53  C   LIG d   1       4.850  -1.060  -2.217  0.00  0.00    -0.057 A 
ATOM     54  C   LIG d   1       4.436   0.166  -1.731  0.00  0.00    -0.061 A 
ATOM     55  H   LIG d   1       5.514  -1.677  -1.629  0.00  0.00     0.062 H 
ATOM     56  C   LIG d   1       3.584   0.954  -2.482  0.00  0.00    -0.062 A 
ATOM     57  H   LIG d   1       4.774   0.506  -0.764  0.00  0.00     0.062 H 
ATOM     58  C   LIG d   1       3.150   0.519  -3.720  0.00  0.00    -0.061 A 
ATOM     59  H   LIG d   1       3.257   1.911  -2.101  0.00  0.00     0.062 H 
ATOM     60  C   LIG d   1       3.569  -0.705  -4.208  0.00  0.00    -0.057 A 
ATOM     61  H   LIG d   1       2.485   1.135  -4.306  0.00  0.00     0.062 H 
ATOM     62  H   LIG d   1       3.230  -1.044  -5.175  0.00  0.00     0.062 H 
ENDBRANCH  49  52
ENDBRANCH  47  49
ENDBRANCH  11  47
TORSDOF 7
ENDMDL
MODEL 7
REMARK VINA RESULT:      -6.5      2.048      2.753
REMARK  7 active torsions:
REMARK  status: ('A' for Active; 'I' for Inactive)
REMARK    1  A    between atoms: C_1  and  N_2 
REMARK       I    between atoms: N_5  and  C_8 
REMARK    2  A    between atoms: C_8  and  C_10 
REMARK    3  A    between atoms: C_10  and  C_11 
REMARK    4  A    between atoms: C_11  and  C_12 
REMARK    5  A    between atoms: C_22  and  N_25 
REMARK    6  A    between atoms: N_25  and  C_26 
REMARK    7  A    between atoms: C_26  and  C_27 
ROOT
ATOM      1  C   LIG d   1       7.878   0.456  -7.482  0.00  0.00     0.000 C 
ATOM      2  H   LIG d   1       8.278  -0.109  -8.324  0.00  0.00     0.087 H 
ATOM      3  C   LIG d   1       6.894   1.523  -7.988  0.00  0.00     0.082 C 
ATOM      4  N   LIG d   1       5.575   0.967  -8.262  0.00  0.00    -0.292 NA
ATOM      5  C   LIG d   1       5.212  -0.247  -8.025  0.00  0.00     0.008 C 
ATOM      6  O   LIG d   1       3.950  -0.643  -8.294  0.00  0.00    -0.860 OA
ATOM      7  C   LIG d   1       6.197  -1.210  -7.452  0.00  0.00     0.010 C 
ATOM      8  H   LIG d   1       6.741  -1.713  -8.251  0.00  0.00     0.091 H 
ATOM      9  N   LIG d   1       7.135  -0.428  -6.600  0.00  0.00     0.245 N 
ATOM     10  C   LIG d   1       7.885  -1.430  -5.848  0.00  0.00    -0.015 C 
ATOM     11  C   LIG d   1       6.907  -2.617  -5.647  0.00  0.00     0.054 C 
ATOM     12  H   LIG d   1       7.340  -3.536  -6.044  0.00  0.00     0.051 H 
ATOM     13  C   LIG d   1       5.628  -2.237  -6.465  0.00  0.00     0.015 C 
ATOM     14  H   LIG d   1       6.798   2.302  -7.232  0.00  0.00     0.056 H 
ATOM     15  H   LIG d   1       7.289   1.964  -8.902  0.00  0.00     0.056 H 
ATOM     16  H   LIG d   1       8.758  -1.753  -6.415  0.00  0.00     0.083 H 
ATOM     17  H   LIG d   1       8.189  -1.027  -4.882  0.00  0.00     0.083 H 
ATOM     18  H   LIG d   1       4.874  -1.784  -5.821  0.00  0.00     0.034 H 
ATOM     19  H   LIG d   1       5.220  -3.100  -6.991  0.00  0.00     0.034 H 
ATOM     20  H   LIG d   1       6.601   0.126  -5.948  0.00  0.00     0.204 HD
ENDROOT
BRANCH   1  21
ATOM     21  C   LIG d   1       9.020   1.123  -6.712  0.00  0.00     0.000 C 
ATOM     22  H   LIG d   1       9.780   1.465  -7.414  0.00  0.00     0.033 H 
ATOM     23  H   LIG d   1       9.460   0.405  -6.021  0.00  0.00     0.033 H 
BRANCH  21  24
ATOM     24  C   LIG d   1       8.476   2.318  -5.928  0.00  0.00     0.029 C 
ATOM     25  H   LIG d   1       7.415   2.170  -5.728  0.00  0.00     0.036 H 
ATOM     26  H   LIG d   1       8.612   3.229  -6.512  0.00  0.00     0.036 H 
BRANCH  24  27
ATOM     27  C   LIG d   1       9.220   2.444  -4.624  0.00  0.00     0.216 C 
ATOM     28  N   LIG d   1       9.841   3.598  -4.310  0.00  0.00    -0.299 N 
ATOM     29  C   LIG d   1      10.573   3.743  -3.043  0.00  0.00     0.028 C 
ATOM     30  C   LIG d   1       9.806   4.748  -5.228  0.00  0.00     0.028 C 
ATOM     31  C   LIG d   1      10.090   5.018  -2.344  0.00  0.00     0.015 C 
ATOM     32  H   LIG d   1      11.641   3.818  -3.243  0.00  0.00     0.048 H 
ATOM     33  H   LIG d   1      10.376   2.879  -2.406  0.00  0.00     0.048 H 
ATOM     34  N   LIG d   1      10.214   6.155  -3.266  0.00  0.00    -0.302 N 
ATOM     35  H   LIG d   1      10.697   5.199  -1.458  0.00  0.00     0.044 H 
ATOM     36  H   LIG d   1       9.046   4.899  -2.052  0.00  0.00     0.044 H 
ATOM     37  C   LIG d   1       9.353   5.983  -4.443  0.00  0.00     0.015 C 
ATOM     38  H   LIG d   1       8.319   5.851  -4.122  0.00  0.00     0.044 H 
ATOM     39  H   LIG d   1       9.426   6.866  -5.079  0.00  0.00     0.044 H 
ATOM     40  H   LIG d   1      10.801   4.919  -5.639  0.00  0.00     0.048 H 
ATOM     41  H   LIG d   1       9.102   4.549  -6.036  0.00  0.00     0.048 H 
ATOM     42  O   LIG d   1       9.260   1.506  -3.855  0.00  0.00    -0.276 OA
BRANCH  34  43
ATOM     43  C   LIG d   1       9.925   7.421  -2.582  0.00  0.00    -0.013 C 
ATOM     44  H   LIG d   1       9.202   7.247  -1.783  0.00  0.00     0.039 H 
ATOM     45  H   LIG d   1      10.844   7.825  -2.158  0.00  0.00     0.039 H 
ATOM     46  H   LIG d   1       9.510   8.134  -3.296  0.00  0.00     0.039 H 
ENDBRANCH  34  43
ENDBRANCH  24  27
ENDBRANCH  21  24
ENDBRANCH   1  21
BRANCH  11  47
ATOM     47  N   LIG d   1       6.585  -2.779  -4.223  0.00  0.00    -0.304 N 
ATOM     48  H   LIG d   1       5.596  -2.930  -4.092  0.00  0.00     0.123 HD
BRANCH  47  49
ATOM     49  C   LIG d   1       7.048  -1.623  -3.444  0.00  0.00     0.022 C 
ATOM     50  H   LIG d   1       7.568  -1.972  -2.552  0.00  0.00     0.047 H 
ATOM     51  H   LIG d   1       7.728  -1.025  -4.051  0.00  0.00     0.047 H 
BRANCH  49  52
ATOM     52  C   LIG d   1       5.864  -0.783  -3.038  0.00  0.00    -0.034 A 
ATOM     53  C   LIG d   1       4.679  -1.390  -2.671  0.00  0.00    -0.057 A 
ATOM     54  C   LIG d   1       3.594  -0.620  -2.294  0.00  0.00    -0.061 A 
ATOM     55  H   LIG d   1       4.600  -2.468  -2.673  0.00  0.00     0.062 H 
ATOM     56  C   LIG d   1       3.694   0.758  -2.295  0.00  0.00    -0.062 A 
ATOM     57  H   LIG d   1       2.670  -1.095  -2.003  0.00  0.00     0.062 H 
ATOM     58  C   LIG d   1       4.877   1.367  -2.668  0.00  0.00    -0.061 A 
ATOM     59  H   LIG d   1       2.845   1.361  -2.004  0.00  0.00     0.062 H 
ATOM     60  C   LIG d   1       5.963   0.596  -3.040  0.00  0.00    -0.057 A 
ATOM     61  H   LIG d   1       4.954   2.444  -2.669  0.00  0.00     0.062 H 
ATOM     62  H   LIG d   1       6.888   1.071  -3.331  0.00  0.00     0.062 H 
ENDBRANCH  49  52
ENDBRANCH  47  49
ENDBRANCH  11  47
TORSDOF 7
ENDMDL
MODEL 8
REMARK VINA RESULT:      -6.4      4.472      8.193
REMARK  7 active torsions:
REMARK  status: ('A' for Active; 'I' for Inactive)
REMARK    1  A    between atoms: C_1  and  N_2 
REMARK       I    between atoms: N_5  and  C_8 
REMARK    2  A    between atoms: C_8  and  C_10 
REMARK    3  A    between atoms: C_10  and  C_11 
REMARK    4  A    between atoms: C_11  and  C_12 
REMARK    5  A    between atoms: C_22  and  N_25 
REMARK    6  A    between atoms: N_25  and  C_26 
REMARK    7  A    between atoms: C_26  and  C_27 
ROOT
ATOM      1  C   LIG d   1       3.026  -2.655  -9.617  0.00  0.00     0.000 C 
ATOM      2  H   LIG d   1       3.960  -2.694 -10.178  0.00  0.00     0.087 H 
ATOM      3  C   LIG d   1       1.996  -3.604 -10.249  0.00  0.00     0.082 C 
ATOM      4  N   LIG d   1       2.201  -4.987  -9.842  0.00  0.00    -0.292 NA
ATOM      5  C   LIG d   1       3.068  -5.391  -8.979  0.00  0.00     0.008 C 
ATOM      6  O   LIG d   1       3.148  -6.700  -8.657  0.00  0.00    -0.860 OA
ATOM      7  C   LIG d   1       3.982  -4.402  -8.337  0.00  0.00     0.010 C 
ATOM      8  H   LIG d   1       4.888  -4.284  -8.932  0.00  0.00     0.091 H 
ATOM      9  N   LIG d   1       3.247  -3.110  -8.254  0.00  0.00     0.245 N 
ATOM     10  C   LIG d   1       4.058  -2.270  -7.377  0.00  0.00    -0.015 C 
ATOM     11  C   LIG d   1       4.735  -3.245  -6.378  0.00  0.00     0.054 C 
ATOM     12  H   LIG d   1       5.819  -3.129  -6.412  0.00  0.00     0.051 H 
ATOM     13  C   LIG d   1       4.339  -4.677  -6.871  0.00  0.00     0.015 C 
ATOM     14  H   LIG d   1       0.996  -3.292  -9.948  0.00  0.00     0.056 H 
ATOM     15  H   LIG d   1       2.073  -3.539 -11.334  0.00  0.00     0.056 H 
ATOM     16  H   LIG d   1       4.813  -1.739  -7.956  0.00  0.00     0.083 H 
ATOM     17  H   LIG d   1       3.425  -1.564  -6.841  0.00  0.00     0.083 H 
ATOM     18  H   LIG d   1       3.475  -5.052  -6.323  0.00  0.00     0.034 H 
ATOM     19  H   LIG d   1       5.177  -5.370  -6.796  0.00  0.00     0.034 H 
ATOM     20  H   LIG d   1       2.356  -3.269  -7.809  0.00  0.00     0.204 HD
ENDROOT
BRANCH   1  21
ATOM     21  C   LIG d   1       2.482  -1.225  -9.608  0.00  0.00     0.000 C 
ATOM     22  H   LIG d   1       3.264  -0.541  -9.277  0.00  0.00     0.033 H 
ATOM     23  H   LIG d   1       1.633  -1.164  -8.927  0.00  0.00     0.033 H 
BRANCH  21  24
ATOM     24  C   LIG d   1       2.033  -0.842 -11.019  0.00  0.00     0.029 C 
ATOM     25  H   LIG d   1       1.307  -0.032 -10.962  0.00  0.00     0.036 H 
ATOM     26  H   LIG d   1       1.576  -1.706 -11.502  0.00  0.00     0.036 H 
BRANCH  24  27
ATOM     27  C   LIG d   1       3.226  -0.391 -11.822  0.00  0.00     0.216 C 
ATOM     28  N   LIG d   1       3.566  -1.045 -12.950  0.00  0.00    -0.299 N 
ATOM     29  C   LIG d   1       4.726  -0.623 -13.748  0.00  0.00     0.028 C 
ATOM     30  C   LIG d   1       2.787  -2.203 -13.415  0.00  0.00     0.028 C 
ATOM     31  C   LIG d   1       4.283  -0.465 -15.206  0.00  0.00     0.015 C 
ATOM     32  H   LIG d   1       5.510  -1.377 -13.683  0.00  0.00     0.048 H 
ATOM     33  H   LIG d   1       5.100   0.331 -13.374  0.00  0.00     0.048 H 
ATOM     34  N   LIG d   1       3.638  -1.707 -15.656  0.00  0.00    -0.302 N 
ATOM     35  H   LIG d   1       5.152  -0.259 -15.830  0.00  0.00     0.044 H 
ATOM     36  H   LIG d   1       3.575   0.361 -15.284  0.00  0.00     0.044 H 
ATOM     37  C   LIG d   1       2.419  -1.983 -14.886  0.00  0.00     0.015 C 
ATOM     38  H   LIG d   1       1.737  -1.136 -14.968  0.00  0.00     0.044 H 
ATOM     39  H   LIG d   1       1.936  -2.878 -15.279  0.00  0.00     0.044 H 
ATOM     40  H   LIG d   1       3.384  -3.110 -13.318  0.00  0.00     0.048 H 
ATOM     41  H   LIG d   1       1.877  -2.294 -12.820  0.00  0.00     0.048 H 
ATOM     42  O   LIG d   1       3.881   0.561 -11.453  0.00  0.00    -0.276 OA
BRANCH  34  43
ATOM     43  C   LIG d   1       3.354  -1.660 -17.096  0.00  0.00    -0.013 C 
ATOM     44  H   LIG d   1       2.390  -1.176 -17.261  0.00  0.00     0.039 H 
ATOM     45  H   LIG d   1       4.135  -1.095 -17.603  0.00  0.00     0.039 H 
ATOM     46  H   LIG d   1       3.323  -2.675 -17.493  0.00  0.00     0.039 H 
ENDBRANCH  34  43
ENDBRANCH  24  27
ENDBRANCH  21  24
ENDBRANCH   1  21
BRANCH  11  47
ATOM     47  N   LIG d   1       4.239  -3.008  -5.017  0.00  0.00    -0.304 N 
ATOM     48  H   LIG d   1       3.628  -2.206  -4.989  0.00  0.00     0.123 HD
BRANCH  47  49
ATOM     49  C   LIG d   1       5.352  -2.854  -4.070  0.00  0.00     0.022 C 
ATOM     50  H   LIG d   1       5.310  -3.652  -3.328  0.00  0.00     0.047 H 
ATOM     51  H   LIG d   1       6.298  -2.910  -4.609  0.00  0.00     0.047 H 
BRANCH  49  52
ATOM     52  C   LIG d   1       5.244  -1.519  -3.379  0.00  0.00    -0.034 A 
ATOM     53  C   LIG d   1       4.372  -1.358  -2.320  0.00  0.00    -0.057 A 
ATOM     54  C   LIG d   1       4.276  -0.134  -1.683  0.00  0.00    -0.061 A 
ATOM     55  H   LIG d   1       3.768  -2.189  -1.985  0.00  0.00     0.062 H 
ATOM     56  C   LIG d   1       5.046   0.930  -2.114  0.00  0.00    -0.062 A 
ATOM     57  H   LIG d   1       3.598  -0.009  -0.853  0.00  0.00     0.062 H 
ATOM     58  C   LIG d   1       5.913   0.770  -3.178  0.00  0.00    -0.061 A 
ATOM     59  H   LIG d   1       4.968   1.888  -1.619  0.00  0.00     0.062 H 
ATOM     60  C   LIG d   1       6.013  -0.455  -3.811  0.00  0.00    -0.057 A 
ATOM     61  H   LIG d   1       6.514   1.603  -3.514  0.00  0.00     0.062 H 
ATOM     62  H   LIG d   1       6.691  -0.579  -4.641  0.00  0.00     0.062 H 
ENDBRANCH  49  52
ENDBRANCH  47  49
ENDBRANCH  11  47
TORSDOF 7
ENDMDL
MODEL 9
REMARK VINA RESULT:      -6.4      3.736      5.237
REMARK  7 active torsions:
REMARK  status: ('A' for Active; 'I' for Inactive)
REMARK    1  A    between atoms: C_1  and  N_2 
REMARK       I    between atoms: N_5  and  C_8 
REMARK    2  A    between atoms: C_8  and  C_10 
REMARK    3  A    between atoms: C_10  and  C_11 
REMARK    4  A    between atoms: C_11  and  C_12 
REMARK    5  A    between atoms: C_22  and  N_25 
REMARK    6  A    between atoms: N_25  and  C_26 
REMARK    7  A    between atoms: C_26  and  C_27 
ROOT
ATOM      1  C   LIG d   1       9.977   4.799  -5.710  0.00  0.00     0.000 C 
ATOM      2  H   LIG d   1      11.029   4.886  -5.441  0.00  0.00     0.087 H 
ATOM      3  C   LIG d   1       9.776   5.207  -7.178  0.00  0.00     0.082 C 
ATOM      4  N   LIG d   1      10.116   4.131  -8.099  0.00  0.00    -0.292 NA
ATOM      5  C   LIG d   1      10.452   2.934  -7.758  0.00  0.00     0.008 C 
ATOM      6  O   LIG d   1      10.717   2.008  -8.703  0.00  0.00    -0.860 OA
ATOM      7  C   LIG d   1      10.544   2.581  -6.312  0.00  0.00     0.010 C 
ATOM      8  H   LIG d   1      11.548   2.782  -5.937  0.00  0.00     0.091 H 
ATOM      9  N   LIG d   1       9.546   3.416  -5.588  0.00  0.00     0.245 N 
ATOM     10  C   LIG d   1       9.472   2.840  -4.249  0.00  0.00    -0.015 C 
ATOM     11  C   LIG d   1       9.749   1.325  -4.432  0.00  0.00     0.054 C 
ATOM     12  H   LIG d   1      10.591   1.015  -3.812  0.00  0.00     0.051 H 
ATOM     13  C   LIG d   1      10.113   1.155  -5.945  0.00  0.00     0.015 C 
ATOM     14  H   LIG d   1       8.732   5.484  -7.329  0.00  0.00     0.056 H 
ATOM     15  H   LIG d   1      10.404   6.070  -7.395  0.00  0.00     0.056 H 
ATOM     16  H   LIG d   1      10.229   3.286  -3.604  0.00  0.00     0.083 H 
ATOM     17  H   LIG d   1       8.479   2.992  -3.827  0.00  0.00     0.083 H 
ATOM     18  H   LIG d   1       9.242   0.850  -6.524  0.00  0.00     0.034 H 
ATOM     19  H   LIG d   1      10.935   0.452  -6.081  0.00  0.00     0.034 H 
ATOM     20  H   LIG d   1       8.647   3.309  -6.031  0.00  0.00     0.204 HD
ENDROOT
BRANCH   1  21
ATOM     21  C   LIG d   1       9.131   5.692  -4.800  0.00  0.00     0.000 C 
ATOM     22  H   LIG d   1       8.654   5.081  -4.033  0.00  0.00     0.033 H 
ATOM     23  H   LIG d   1       8.365   6.193  -5.393  0.00  0.00     0.033 H 
BRANCH  21  24
ATOM     24  C   LIG d   1      10.027   6.738  -4.136  0.00  0.00     0.029 C 
ATOM     25  H   LIG d   1       9.602   7.730  -4.287  0.00  0.00     0.036 H 
ATOM     26  H   LIG d   1      11.022   6.698  -4.579  0.00  0.00     0.036 H 
BRANCH  24  27
ATOM     27  C   LIG d   1      10.123   6.453  -2.659  0.00  0.00     0.216 C 
ATOM     28  N   LIG d   1      11.211   5.833  -2.162  0.00  0.00    -0.299 N 
ATOM     29  C   LIG d   1      11.326   5.544  -0.725  0.00  0.00     0.028 C 
ATOM     30  C   LIG d   1      12.316   5.424  -3.043  0.00  0.00     0.028 C 
ATOM     31  C   LIG d   1      12.677   6.070  -0.229  0.00  0.00     0.015 C 
ATOM     32  H   LIG d   1      11.270   4.469  -0.561  0.00  0.00     0.048 H 
ATOM     33  H   LIG d   1      10.519   6.043  -0.186  0.00  0.00     0.048 H 
ATOM     34  N   LIG d   1      13.752   5.513  -1.062  0.00  0.00    -0.302 N 
ATOM     35  H   LIG d   1      12.826   5.769   0.808  0.00  0.00     0.044 H 
ATOM     36  H   LIG d   1      12.691   7.158  -0.297  0.00  0.00     0.044 H 
ATOM     37  C   LIG d   1      13.628   5.955  -2.457  0.00  0.00     0.015 C 
ATOM     38  H   LIG d   1      13.629   7.045  -2.494  0.00  0.00     0.044 H 
ATOM     39  H   LIG d   1      14.468   5.570  -3.036  0.00  0.00     0.044 H 
ATOM     40  H   LIG d   1      12.355   4.337  -3.103  0.00  0.00     0.048 H 
ATOM     41  H   LIG d   1      12.164   5.844  -4.038  0.00  0.00     0.048 H 
ATOM     42  O   LIG d   1       9.221   6.782  -1.918  0.00  0.00    -0.276 OA
BRANCH  34  43
ATOM     43  C   LIG d   1      15.071   5.853  -0.515  0.00  0.00    -0.013 C 
ATOM     44  H   LIG d   1      15.188   6.937  -0.494  0.00  0.00     0.039 H 
ATOM     45  H   LIG d   1      15.159   5.459   0.497  0.00  0.00     0.039 H 
ATOM     46  H   LIG d   1      15.849   5.417  -1.144  0.00  0.00     0.039 H 
ENDBRANCH  34  43
ENDBRANCH  24  27
ENDBRANCH  21  24
ENDBRANCH   1  21
BRANCH  11  47
ATOM     47  N   LIG d   1       8.553   0.542  -4.095  0.00  0.00    -0.304 N 
ATOM     48  H   LIG d   1       8.351  -0.137  -4.813  0.00  0.00     0.123 HD
BRANCH  47  49
ATOM     49  C   LIG d   1       7.398   1.420  -3.861  0.00  0.00     0.022 C 
ATOM     50  H   LIG d   1       7.695   2.246  -3.216  0.00  0.00     0.047 H 
ATOM     51  H   LIG d   1       7.042   1.812  -4.814  0.00  0.00     0.047 H 
BRANCH  49  52
ATOM     52  C   LIG d   1       6.296   0.634  -3.197  0.00  0.00    -0.034 A 
ATOM     53  C   LIG d   1       6.271  -0.743  -3.299  0.00  0.00    -0.057 A 
ATOM     54  C   LIG d   1       5.263  -1.464  -2.686  0.00  0.00    -0.061 A 
ATOM     55  H   LIG d   1       7.042  -1.258  -3.854  0.00  0.00     0.062 H 
ATOM     56  C   LIG d   1       4.275  -0.805  -1.979  0.00  0.00    -0.062 A 
ATOM     57  H   LIG d   1       5.247  -2.541  -2.763  0.00  0.00     0.062 H 
ATOM     58  C   LIG d   1       4.297   0.573  -1.882  0.00  0.00    -0.061 A 
ATOM     59  H   LIG d   1       3.485  -1.368  -1.503  0.00  0.00     0.062 H 
ATOM     60  C   LIG d   1       5.307   1.294  -2.491  0.00  0.00    -0.057 A 
ATOM     61  H   LIG d   1       3.524   1.088  -1.330  0.00  0.00     0.062 H 
ATOM     62  H   LIG d   1       5.324   2.370  -2.415  0.00  0.00     0.062 H 
ENDBRANCH  49  52
ENDBRANCH  47  49
ENDBRANCH  11  47
TORSDOF 7
ENDMDL
