MODEL 1
REMARK VINA RESULT:      -6.0      0.000      0.000
REMARK  7 active torsions:
REMARK  status: ('A' for Active; 'I' for Inactive)
REMARK    1  A    between atoms: C_1  and  C_2 
REMARK    2  A    between atoms: C_2  and  C_3 
REMARK       I    between atoms: C_3  and  N_5 
REMARK       I    between atoms: N_5  and  C_6 
REMARK       I    between atoms: C_6  and  N_7 
REMARK       I    between atoms: C_6  and  N_8 
REMARK    3  A    between atoms: N_8  and  C_9 
REMARK    4  A    between atoms: C_11  and  C_22 
REMARK    5  A    between atoms: C_15  and  O_19 
REMARK    6  A    between atoms: O_19  and  C_20 
REMARK    7  A    between atoms: C_20  and  C_21 
ROOT
ATOM      1  C   LIG d   1       3.447   0.066  -7.705  0.00  0.00     0.293 A 
ATOM      2  N   LIG d   1       4.613   0.210  -8.332  0.00  0.00    -0.203 NA
ATOM      3  C   LIG d   1       4.733  -0.009  -9.625  0.00  0.00     0.052 A 
ATOM      4  C   LIG d   1       3.593  -0.405 -10.346  0.00  0.00     0.022 A 
ATOM      5  C   LIG d   1       3.638  -0.659 -11.726  0.00  0.00    -0.047 A 
ATOM      6  C   LIG d   1       2.508  -1.040 -12.380  0.00  0.00    -0.019 A 
ATOM      7  C   LIG d   1       1.296  -1.184 -11.695  0.00  0.00     0.122 A 
ATOM      8  C   LIG d   1       1.218  -0.942 -10.342  0.00  0.00     0.006 A 
ATOM      9  C   LIG d   1       2.367  -0.549  -9.645  0.00  0.00     0.081 A 
ATOM     10  N   LIG d   1       2.348  -0.307  -8.327  0.00  0.00    -0.198 NA
ATOM     11  H   LIG d   1       4.568  -0.551 -12.266  0.00  0.00     0.063 H 
ATOM     12  H   LIG d   1       2.547  -1.235 -13.442  0.00  0.00     0.065 H 
ATOM     13  H   LIG d   1       0.278  -1.055  -9.823  0.00  0.00     0.068 H 
ENDROOT
BRANCH   1  14
ATOM     14  N   LIG d   1       3.390   0.314  -6.341  0.00  0.00    -0.210 N 
ATOM     15  C   LIG d   1       3.874  -0.610  -5.458  0.00  0.00     0.419 C 
ATOM     16  N   LIG d   1       3.928  -0.325  -4.164  0.00  0.00    -0.002 NA
ATOM     17  N   LIG d   1       4.300  -1.823  -5.907  0.00  0.00    -0.128 NA
ATOM     18  C   LIG d   1       3.413   0.817  -3.710  0.00  0.00     0.310 C 
ATOM     19  O   LIG d   1       2.990   1.644  -4.493  0.00  0.00    -0.254 OA
ATOM     20  H   LIG d   1       4.337  -2.001  -6.860  0.00  0.00     0.306 HD
ATOM     21  H   LIG d   1       3.007   1.143  -6.014  0.00  0.00     0.268 HD
BRANCH  18  22
ATOM     22  C   LIG d   1       3.357   1.081  -2.228  0.00  0.00     0.040 C 
ATOM     23  H   LIG d   1       2.592   0.451  -1.775  0.00  0.00     0.037 H 
ATOM     24  H   LIG d   1       3.114   2.129  -2.055  0.00  0.00     0.037 H 
BRANCH  22  25
ATOM     25  C   LIG d   1       4.716   0.762  -1.601  0.00  0.00    -0.056 C 
ATOM     26  H   LIG d   1       4.566   0.267  -0.642  0.00  0.00     0.024 H 
ATOM     27  H   LIG d   1       5.276   0.104  -2.265  0.00  0.00     0.024 H 
ATOM     28  H   LIG d   1       5.273   1.686  -1.451  0.00  0.00     0.024 H 
ENDBRANCH  22  25
ENDBRANCH  18  22
ENDBRANCH   1  14
BRANCH   3  29
ATOM     29  C   LIG d   1       6.061   0.160 -10.316  0.00  0.00    -0.021 C 
ATOM     30  H   LIG d   1       6.852   0.228  -9.570  0.00  0.00     0.029 H 
ATOM     31  H   LIG d   1       6.245  -0.696 -10.964  0.00  0.00     0.029 H 
ATOM     32  H   LIG d   1       6.046   1.071 -10.914  0.00  0.00     0.029 H 
ENDBRANCH   3  29
BRANCH   7  33
ATOM     33  O   LIG d   1       0.184  -1.566 -12.375  0.00  0.00    -0.492 OA
BRANCH  33  34
ATOM     34  C   LIG d   1       0.256  -2.796 -13.098  0.00  0.00     0.087 C 
ATOM     35  H   LIG d   1      -0.496  -2.800 -13.887  0.00  0.00     0.069 H 
ATOM     36  H   LIG d   1       1.247  -2.900 -13.541  0.00  0.00     0.069 H 
BRANCH  34  37
ATOM     37  C   LIG d   1       0.000  -3.964 -12.144  0.00  0.00    -0.031 C 
ATOM     38  H   LIG d   1      -0.100  -3.586 -11.127  0.00  0.00     0.026 H 
ATOM     39  H   LIG d   1      -0.917  -4.477 -12.433  0.00  0.00     0.026 H 
ATOM     40  H   LIG d   1       0.836  -4.662 -12.191  0.00  0.00     0.026 H 
ENDBRANCH  34  37
ENDBRANCH  33  34
ENDBRANCH   7  33
TORSDOF 7
ENDMDL
MODEL 2
REMARK VINA RESULT:      -5.7      6.515     10.000
REMARK  7 active torsions:
REMARK  status: ('A' for Active; 'I' for Inactive)
REMARK    1  A    between atoms: C_1  and  C_2 
REMARK    2  A    between atoms: C_2  and  C_3 
REMARK       I    between atoms: C_3  and  N_5 
REMARK       I    between atoms: N_5  and  C_6 
REMARK       I    between atoms: C_6  and  N_7 
REMARK       I    between atoms: C_6  and  N_8 
REMARK    3  A    between atoms: N_8  and  C_9 
REMARK    4  A    between atoms: C_11  and  C_22 
REMARK    5  A    between atoms: C_15  and  O_19 
REMARK    6  A    between atoms: O_19  and  C_20 
REMARK    7  A    between atoms: C_20  and  C_21 
ROOT
ATOM      1  C   LIG d   1       7.876   2.057  -4.319  0.00  0.00     0.293 A 
ATOM      2  N   LIG d   1       8.174   2.198  -5.609  0.00  0.00    -0.203 NA
ATOM      3  C   LIG d   1       9.244   2.856  -6.002  0.00  0.00     0.052 A 
ATOM      4  C   LIG d   1      10.084   3.417  -5.023  0.00  0.00     0.022 A 
ATOM      5  C   LIG d   1      11.243   4.133  -5.361  0.00  0.00    -0.047 A 
ATOM      6  C   LIG d   1      12.023   4.657  -4.378  0.00  0.00    -0.019 A 
ATOM      7  C   LIG d   1      11.686   4.493  -3.029  0.00  0.00     0.122 A 
ATOM      8  C   LIG d   1      10.555   3.796  -2.665  0.00  0.00     0.006 A 
ATOM      9  C   LIG d   1       9.734   3.247  -3.658  0.00  0.00     0.081 A 
ATOM     10  N   LIG d   1       8.621   2.564  -3.359  0.00  0.00    -0.198 NA
ATOM     11  H   LIG d   1      11.514   4.266  -6.398  0.00  0.00     0.063 H 
ATOM     12  H   LIG d   1      12.913   5.208  -4.641  0.00  0.00     0.065 H 
ATOM     13  H   LIG d   1      10.304   3.674  -1.622  0.00  0.00     0.068 H 
ENDROOT
BRANCH   1  14
ATOM     14  N   LIG d   1       6.732   1.351  -3.973  0.00  0.00    -0.210 N 
ATOM     15  C   LIG d   1       6.818   0.025  -3.655  0.00  0.00     0.419 C 
ATOM     16  N   LIG d   1       5.748  -0.621  -3.211  0.00  0.00    -0.002 NA
ATOM     17  N   LIG d   1       8.002  -0.633  -3.793  0.00  0.00    -0.128 NA
ATOM     18  C   LIG d   1       4.566  -0.008  -3.177  0.00  0.00     0.310 C 
ATOM     19  O   LIG d   1       4.487   1.173  -3.451  0.00  0.00    -0.254 OA
ATOM     20  H   LIG d   1       8.803  -0.144  -4.039  0.00  0.00     0.306 HD
ATOM     21  H   LIG d   1       5.872   1.798  -3.958  0.00  0.00     0.268 HD
BRANCH  18  22
ATOM     22  C   LIG d   1       3.328  -0.779  -2.798  0.00  0.00     0.040 C 
ATOM     23  H   LIG d   1       2.666  -0.851  -3.660  0.00  0.00     0.037 H 
ATOM     24  H   LIG d   1       2.814  -0.265  -1.986  0.00  0.00     0.037 H 
BRANCH  22  25
ATOM     25  C   LIG d   1       3.725  -2.185  -2.341  0.00  0.00    -0.056 C 
ATOM     26  H   LIG d   1       3.940  -2.172  -1.272  0.00  0.00     0.024 H 
ATOM     27  H   LIG d   1       2.904  -2.876  -2.537  0.00  0.00     0.024 H 
ATOM     28  H   LIG d   1       4.610  -2.509  -2.887  0.00  0.00     0.024 H 
ENDBRANCH  22  25
ENDBRANCH  18  22
ENDBRANCH   1  14
BRANCH   3  29
ATOM     29  C   LIG d   1       9.563   3.004  -7.467  0.00  0.00    -0.021 C 
ATOM     30  H   LIG d   1       8.925   2.338  -8.047  0.00  0.00     0.029 H 
ATOM     31  H   LIG d   1       9.388   4.035  -7.775  0.00  0.00     0.029 H 
ATOM     32  H   LIG d   1      10.609   2.748  -7.639  0.00  0.00     0.029 H 
ENDBRANCH   3  29
BRANCH   7  33
ATOM     33  O   LIG d   1      12.483   5.028  -2.069  0.00  0.00    -0.492 OA
BRANCH  33  34
ATOM     34  C   LIG d   1      11.960   6.135  -1.333  0.00  0.00     0.087 C 
ATOM     35  H   LIG d   1      12.616   6.997  -1.455  0.00  0.00     0.069 H 
ATOM     36  H   LIG d   1      10.965   6.381  -1.704  0.00  0.00     0.069 H 
BRANCH  34  37
ATOM     37  C   LIG d   1      11.874   5.765   0.149  0.00  0.00    -0.031 C 
ATOM     38  H   LIG d   1      12.793   6.064   0.652  0.00  0.00     0.026 H 
ATOM     39  H   LIG d   1      11.028   6.281   0.604  0.00  0.00     0.026 H 
ATOM     40  H   LIG d   1      11.739   4.689   0.248  0.00  0.00     0.026 H 
ENDBRANCH  34  37
ENDBRANCH  33  34
ENDBRANCH   7  33
TORSDOF 7
ENDMDL
MODEL 3
REMARK VINA RESULT:      -5.6      6.153      7.583
REMARK  7 active torsions:
REMARK  status: ('A' for Active; 'I' for Inactive)
REMARK    1  A    between atoms: C_1  and  C_2 
REMARK    2  A    between atoms: C_2  and  C_3 
REMARK       I    between atoms: C_3  and  N_5 
REMARK       I    between atoms: N_5  and  C_6 
REMARK       I    between atoms: C_6  and  N_7 
REMARK       I    between atoms: C_6  and  N_8 
REMARK    3  A    between atoms: N_8  and  C_9 
REMARK    4  A    between atoms: C_11  and  C_22 
REMARK    5  A    between atoms: C_15  and  O_19 
REMARK    6  A    between atoms: O_19  and  C_20 
REMARK    7  A    between atoms: C_20  and  C_21 
ROOT
ATOM      1  C   LIG d   1       7.223   1.171  -3.674  0.00  0.00     0.293 A 
ATOM      2  N   LIG d   1       6.102   1.480  -3.026  0.00  0.00    -0.203 NA
ATOM      3  C   LIG d   1       5.130   0.605  -2.872  0.00  0.00     0.052 A 
ATOM      4  C   LIG d   1       5.294  -0.682  -3.413  0.00  0.00     0.022 A 
ATOM      5  C   LIG d   1       4.305  -1.670  -3.293  0.00  0.00    -0.047 A 
ATOM      6  C   LIG d   1       4.511  -2.901  -3.834  0.00  0.00    -0.019 A 
ATOM      7  C   LIG d   1       5.699  -3.198  -4.511  0.00  0.00     0.122 A 
ATOM      8  C   LIG d   1       6.690  -2.251  -4.645  0.00  0.00     0.006 A 
ATOM      9  C   LIG d   1       6.502  -0.975  -4.098  0.00  0.00     0.081 A 
ATOM     10  N   LIG d   1       7.431  -0.016  -4.205  0.00  0.00    -0.198 NA
ATOM     11  H   LIG d   1       3.383  -1.453  -2.773  0.00  0.00     0.063 H 
ATOM     12  H   LIG d   1       3.747  -3.659  -3.740  0.00  0.00     0.065 H 
ATOM     13  H   LIG d   1       7.604  -2.491  -5.168  0.00  0.00     0.068 H 
ENDROOT
BRANCH   1  14
ATOM     14  N   LIG d   1       8.208   2.140  -3.799  0.00  0.00    -0.210 N 
ATOM     15  C   LIG d   1       8.544   2.617  -5.035  0.00  0.00     0.419 C 
ATOM     16  N   LIG d   1       9.400   3.624  -5.146  0.00  0.00    -0.002 NA
ATOM     17  N   LIG d   1       8.002   2.057  -6.151  0.00  0.00    -0.128 NA
ATOM     18  C   LIG d   1      10.013   4.101  -4.064  0.00  0.00     0.310 C 
ATOM     19  O   LIG d   1       9.710   3.686  -2.963  0.00  0.00    -0.254 OA
ATOM     20  H   LIG d   1       7.315   1.376  -6.068  0.00  0.00     0.306 HD
ATOM     21  H   LIG d   1       8.658   2.479  -3.010  0.00  0.00     0.268 HD
BRANCH  18  22
ATOM     22  C   LIG d   1      11.081   5.155  -4.206  0.00  0.00     0.040 C 
ATOM     23  H   LIG d   1      11.044   5.576  -5.211  0.00  0.00     0.037 H 
ATOM     24  H   LIG d   1      12.059   4.706  -4.035  0.00  0.00     0.037 H 
BRANCH  22  25
ATOM     25  C   LIG d   1      10.841   6.264  -3.180  0.00  0.00    -0.056 C 
ATOM     26  H   LIG d   1      10.240   7.054  -3.632  0.00  0.00     0.024 H 
ATOM     27  H   LIG d   1      10.312   5.854  -2.319  0.00  0.00     0.024 H 
ATOM     28  H   LIG d   1      11.797   6.674  -2.857  0.00  0.00     0.024 H 
ENDBRANCH  22  25
ENDBRANCH  18  22
ENDBRANCH   1  14
BRANCH   3  29
ATOM     29  C   LIG d   1       3.869   0.976  -2.135  0.00  0.00    -0.021 C 
ATOM     30  H   LIG d   1       3.110   1.293  -2.849  0.00  0.00     0.029 H 
ATOM     31  H   LIG d   1       3.506   0.111  -1.578  0.00  0.00     0.029 H 
ATOM     32  H   LIG d   1       4.080   1.791  -1.442  0.00  0.00     0.029 H 
ENDBRANCH   3  29
BRANCH   7  33
ATOM     33  O   LIG d   1       5.876  -4.436  -5.040  0.00  0.00    -0.492 OA
BRANCH  33  34
ATOM     34  C   LIG d   1       4.717  -5.095  -5.553  0.00  0.00     0.087 C 
ATOM     35  H   LIG d   1       3.859  -4.867  -4.921  0.00  0.00     0.069 H 
ATOM     36  H   LIG d   1       4.522  -4.750  -6.568  0.00  0.00     0.069 H 
BRANCH  34  37
ATOM     37  C   LIG d   1       4.954  -6.607  -5.566  0.00  0.00    -0.031 C 
ATOM     38  H   LIG d   1       5.777  -6.850  -4.894  0.00  0.00     0.026 H 
ATOM     39  H   LIG d   1       4.051  -7.120  -5.235  0.00  0.00     0.026 H 
ATOM     40  H   LIG d   1       5.204  -6.927  -6.577  0.00  0.00     0.026 H 
ENDBRANCH  34  37
ENDBRANCH  33  34
ENDBRANCH   7  33
TORSDOF 7
ENDMDL
MODEL 4
REMARK VINA RESULT:      -5.5      6.691      8.369
REMARK  7 active torsions:
REMARK  status: ('A' for Active; 'I' for Inactive)
REMARK    1  A    between atoms: C_1  and  C_2 
REMARK    2  A    between atoms: C_2  and  C_3 
REMARK       I    between atoms: C_3  and  N_5 
REMARK       I    between atoms: N_5  and  C_6 
REMARK       I    between atoms: C_6  and  N_7 
REMARK       I    between atoms: C_6  and  N_8 
REMARK    3  A    between atoms: N_8  and  C_9 
REMARK    4  A    between atoms: C_11  and  C_22 
REMARK    5  A    between atoms: C_15  and  O_19 
REMARK    6  A    between atoms: O_19  and  C_20 
REMARK    7  A    between atoms: C_20  and  C_21 
ROOT
ATOM      1  C   LIG d   1       7.946   2.135  -4.260  0.00  0.00     0.293 A 
ATOM      2  N   LIG d   1       8.803   2.550  -3.330  0.00  0.00    -0.203 NA
ATOM      3  C   LIG d   1       9.895   3.214  -3.644  0.00  0.00     0.052 A 
ATOM      4  C   LIG d   1      10.149   3.484  -5.000  0.00  0.00     0.022 A 
ATOM      5  C   LIG d   1      11.291   4.185  -5.416  0.00  0.00    -0.047 A 
ATOM      6  C   LIG d   1      11.493   4.422  -6.741  0.00  0.00    -0.019 A 
ATOM      7  C   LIG d   1      10.576   3.974  -7.698  0.00  0.00     0.122 A 
ATOM      8  C   LIG d   1       9.445   3.283  -7.322  0.00  0.00     0.006 A 
ATOM      9  C   LIG d   1       9.215   3.026  -5.965  0.00  0.00     0.081 A 
ATOM     10  N   LIG d   1       8.134   2.353  -5.545  0.00  0.00    -0.198 NA
ATOM     11  H   LIG d   1      12.007   4.537  -4.687  0.00  0.00     0.063 H 
ATOM     12  H   LIG d   1      12.374   4.961  -7.058  0.00  0.00     0.065 H 
ATOM     13  H   LIG d   1       8.743   2.942  -8.068  0.00  0.00     0.068 H 
ENDROOT
BRANCH   1  14
ATOM     14  N   LIG d   1       6.814   1.440  -3.861  0.00  0.00    -0.210 N 
ATOM     15  C   LIG d   1       6.888   0.097  -3.615  0.00  0.00     0.419 C 
ATOM     16  N   LIG d   1       5.837  -0.545  -3.121  0.00  0.00    -0.002 NA
ATOM     17  N   LIG d   1       8.038  -0.581  -3.879  0.00  0.00    -0.128 NA
ATOM     18  C   LIG d   1       4.679   0.094  -2.964  0.00  0.00     0.310 C 
ATOM     19  O   LIG d   1       4.612   1.289  -3.173  0.00  0.00    -0.254 OA
ATOM     20  H   LIG d   1       8.831  -0.099  -4.162  0.00  0.00     0.306 HD
ATOM     21  H   LIG d   1       5.970   1.906  -3.756  0.00  0.00     0.268 HD
BRANCH  18  22
ATOM     22  C   LIG d   1       3.453  -0.666  -2.527  0.00  0.00     0.040 C 
ATOM     23  H   LIG d   1       2.674  -0.564  -3.282  0.00  0.00     0.037 H 
ATOM     24  H   LIG d   1       3.096  -0.265  -1.579  0.00  0.00     0.037 H 
BRANCH  22  25
ATOM     25  C   LIG d   1       3.806  -2.145  -2.355  0.00  0.00    -0.056 C 
ATOM     26  H   LIG d   1       4.042  -2.578  -3.328  0.00  0.00     0.024 H 
ATOM     27  H   LIG d   1       4.670  -2.238  -1.698  0.00  0.00     0.024 H 
ATOM     28  H   LIG d   1       2.959  -2.673  -1.918  0.00  0.00     0.024 H 
ENDBRANCH  22  25
ENDBRANCH  18  22
ENDBRANCH   1  14
BRANCH   3  29
ATOM     29  C   LIG d   1      10.852   3.675  -2.575  0.00  0.00    -0.021 C 
ATOM     30  H   LIG d   1      11.378   4.565  -2.917  0.00  0.00     0.029 H 
ATOM     31  H   LIG d   1      10.296   3.907  -1.666  0.00  0.00     0.029 H 
ATOM     32  H   LIG d   1      11.572   2.884  -2.367  0.00  0.00     0.029 H 
ENDBRANCH   3  29
BRANCH   7  33
ATOM     33  O   LIG d   1      10.804   4.224  -9.013  0.00  0.00    -0.492 OA
BRANCH  33  34
ATOM     34  C   LIG d   1       9.709   4.732  -9.777  0.00  0.00     0.087 C 
ATOM     35  H   LIG d   1       9.918   4.609 -10.840  0.00  0.00     0.069 H 
ATOM     36  H   LIG d   1       8.802   4.184  -9.520  0.00  0.00     0.069 H 
BRANCH  34  37
ATOM     37  C   LIG d   1       9.513   6.216  -9.464  0.00  0.00    -0.031 C 
ATOM     38  H   LIG d   1       8.467   6.401  -9.223  0.00  0.00     0.026 H 
ATOM     39  H   LIG d   1      10.136   6.494  -8.613  0.00  0.00     0.026 H 
ATOM     40  H   LIG d   1       9.797   6.811 -10.331  0.00  0.00     0.026 H 
ENDBRANCH  34  37
ENDBRANCH  33  34
ENDBRANCH   7  33
TORSDOF 7
ENDMDL
MODEL 5
REMARK VINA RESULT:      -5.5      6.154      8.388
REMARK  7 active torsions:
REMARK  status: ('A' for Active; 'I' for Inactive)
REMARK    1  A    between atoms: C_1  and  C_2 
REMARK    2  A    between atoms: C_2  and  C_3 
REMARK       I    between atoms: C_3  and  N_5 
REMARK       I    between atoms: N_5  and  C_6 
REMARK       I    between atoms: C_6  and  N_7 
REMARK       I    between atoms: C_6  and  N_8 
REMARK    3  A    between atoms: N_8  and  C_9 
REMARK    4  A    between atoms: C_11  and  C_22 
REMARK    5  A    between atoms: C_15  and  O_19 
REMARK    6  A    between atoms: O_19  and  C_20 
REMARK    7  A    between atoms: C_20  and  C_21 
ROOT
ATOM      1  C   LIG d   1       9.065   3.121  -3.918  0.00  0.00     0.293 A 
ATOM      2  N   LIG d   1       9.373   3.226  -5.208  0.00  0.00    -0.203 NA
ATOM      3  C   LIG d   1       8.864   2.411  -6.109  0.00  0.00     0.052 A 
ATOM      4  C   LIG d   1       7.975   1.410  -5.680  0.00  0.00     0.022 A 
ATOM      5  C   LIG d   1       7.391   0.502  -6.577  0.00  0.00    -0.047 A 
ATOM      6  C   LIG d   1       6.536  -0.449  -6.114  0.00  0.00    -0.019 A 
ATOM      7  C   LIG d   1       6.229  -0.537  -4.752  0.00  0.00     0.122 A 
ATOM      8  C   LIG d   1       6.785   0.338  -3.846  0.00  0.00     0.006 A 
ATOM      9  C   LIG d   1       7.669   1.327  -4.297  0.00  0.00     0.081 A 
ATOM     10  N   LIG d   1       8.242   2.201  -3.458  0.00  0.00    -0.198 NA
ATOM     11  H   LIG d   1       7.619   0.559  -7.632  0.00  0.00     0.063 H 
ATOM     12  H   LIG d   1       6.089  -1.147  -6.807  0.00  0.00     0.065 H 
ATOM     13  H   LIG d   1       6.541   0.263  -2.797  0.00  0.00     0.068 H 
ENDROOT
BRANCH   1  14
ATOM     14  N   LIG d   1       9.636   4.012  -3.021  0.00  0.00    -0.210 N 
ATOM     15  C   LIG d   1      10.843   3.726  -2.449  0.00  0.00     0.419 C 
ATOM     16  N   LIG d   1      11.445   4.627  -1.685  0.00  0.00    -0.002 NA
ATOM     17  N   LIG d   1      11.428   2.514  -2.662  0.00  0.00    -0.128 NA
ATOM     18  C   LIG d   1      10.827   5.769  -1.388  0.00  0.00     0.310 C 
ATOM     19  O   LIG d   1       9.758   6.032  -1.902  0.00  0.00    -0.254 OA
ATOM     20  H   LIG d   1      11.029   1.886  -3.285  0.00  0.00     0.306 HD
ATOM     21  H   LIG d   1       9.179   4.839  -2.801  0.00  0.00     0.268 HD
BRANCH  18  22
ATOM     22  C   LIG d   1      11.454   6.735  -0.416  0.00  0.00     0.040 C 
ATOM     23  H   LIG d   1      11.056   7.734  -0.588  0.00  0.00     0.037 H 
ATOM     24  H   LIG d   1      12.534   6.744  -0.560  0.00  0.00     0.037 H 
BRANCH  22  25
ATOM     25  C   LIG d   1      11.133   6.297   1.015  0.00  0.00    -0.056 C 
ATOM     26  H   LIG d   1      10.151   6.678   1.299  0.00  0.00     0.024 H 
ATOM     27  H   LIG d   1      11.129   5.209   1.070  0.00  0.00     0.024 H 
ATOM     28  H   LIG d   1      11.887   6.693   1.694  0.00  0.00     0.024 H 
ENDBRANCH  22  25
ENDBRANCH  18  22
ENDBRANCH   1  14
BRANCH   3  29
ATOM     29  C   LIG d   1       9.227   2.547  -7.565  0.00  0.00    -0.021 C 
ATOM     30  H   LIG d   1       8.507   1.999  -8.172  0.00  0.00     0.029 H 
ATOM     31  H   LIG d   1       9.213   3.600  -7.846  0.00  0.00     0.029 H 
ATOM     32  H   LIG d   1      10.225   2.142  -7.730  0.00  0.00     0.029 H 
ENDBRANCH   3  29
BRANCH   7  33
ATOM     33  O   LIG d   1       5.372  -1.498  -4.319  0.00  0.00    -0.492 OA
BRANCH  33  34
ATOM     34  C   LIG d   1       5.326  -1.741  -2.912  0.00  0.00     0.087 C 
ATOM     35  H   LIG d   1       5.974  -2.582  -2.666  0.00  0.00     0.069 H 
ATOM     36  H   LIG d   1       5.666  -0.853  -2.379  0.00  0.00     0.069 H 
BRANCH  34  37
ATOM     37  C   LIG d   1       3.890  -2.064  -2.497  0.00  0.00    -0.031 C 
ATOM     38  H   LIG d   1       3.349  -2.474  -3.350  0.00  0.00     0.026 H 
ATOM     39  H   LIG d   1       3.900  -2.796  -1.689  0.00  0.00     0.026 H 
ATOM     40  H   LIG d   1       3.395  -1.155  -2.157  0.00  0.00     0.026 H 
ENDBRANCH  34  37
ENDBRANCH  33  34
ENDBRANCH   7  33
TORSDOF 7
ENDMDL
MODEL 6
REMARK VINA RESULT:      -5.3      5.567      8.619
REMARK  7 active torsions:
REMARK  status: ('A' for Active; 'I' for Inactive)
REMARK    1  A    between atoms: C_1  and  C_2 
REMARK    2  A    between atoms: C_2  and  C_3 
REMARK       I    between atoms: C_3  and  N_5 
REMARK       I    between atoms: N_5  and  C_6 
REMARK       I    between atoms: C_6  and  N_7 
REMARK       I    between atoms: C_6  and  N_8 
REMARK    3  A    between atoms: N_8  and  C_9 
REMARK    4  A    between atoms: C_11  and  C_22 
REMARK    5  A    between atoms: C_15  and  O_19 
REMARK    6  A    between atoms: O_19  and  C_20 
REMARK    7  A    between atoms: C_20  and  C_21 
ROOT
ATOM      1  C   LIG d   1       5.164  -3.838  -4.965  0.00  0.00     0.293 A 
ATOM      2  N   LIG d   1       4.326  -3.428  -4.016  0.00  0.00    -0.203 NA
ATOM      3  C   LIG d   1       4.483  -2.270  -3.409  0.00  0.00     0.052 A 
ATOM      4  C   LIG d   1       5.568  -1.458  -3.784  0.00  0.00     0.022 A 
ATOM      5  C   LIG d   1       5.805  -0.212  -3.184  0.00  0.00    -0.047 A 
ATOM      6  C   LIG d   1       6.869   0.537  -3.581  0.00  0.00    -0.019 A 
ATOM      7  C   LIG d   1       7.735   0.081  -4.581  0.00  0.00     0.122 A 
ATOM      8  C   LIG d   1       7.531  -1.137  -5.189  0.00  0.00     0.006 A 
ATOM      9  C   LIG d   1       6.442  -1.928  -4.798  0.00  0.00     0.081 A 
ATOM     10  N   LIG d   1       6.200  -3.124  -5.353  0.00  0.00    -0.198 NA
ATOM     11  H   LIG d   1       5.144   0.152  -2.411  0.00  0.00     0.063 H 
ATOM     12  H   LIG d   1       7.049   1.496  -3.117  0.00  0.00     0.065 H 
ATOM     13  H   LIG d   1       8.204  -1.480  -5.961  0.00  0.00     0.068 H 
ENDROOT
BRANCH   1  14
ATOM     14  N   LIG d   1       4.941  -5.069  -5.565  0.00  0.00    -0.210 N 
ATOM     15  C   LIG d   1       4.192  -5.147  -6.705  0.00  0.00     0.419 C 
ATOM     16  N   LIG d   1       4.076  -6.303  -7.344  0.00  0.00    -0.002 NA
ATOM     17  N   LIG d   1       3.566  -4.037  -7.186  0.00  0.00    -0.128 NA
ATOM     18  C   LIG d   1       4.598  -7.411  -6.818  0.00  0.00     0.310 C 
ATOM     19  O   LIG d   1       5.271  -7.344  -5.809  0.00  0.00    -0.254 OA
ATOM     20  H   LIG d   1       3.716  -3.175  -6.767  0.00  0.00     0.306 HD
ATOM     21  H   LIG d   1       5.315  -5.874  -5.175  0.00  0.00     0.268 HD
BRANCH  18  22
ATOM     22  C   LIG d   1       4.353  -8.744  -7.476  0.00  0.00     0.040 C 
ATOM     23  H   LIG d   1       4.956  -8.820  -8.380  0.00  0.00     0.037 H 
ATOM     24  H   LIG d   1       3.298  -8.834  -7.734  0.00  0.00     0.037 H 
BRANCH  22  25
ATOM     25  C   LIG d   1       4.740  -9.867  -6.510  0.00  0.00    -0.056 C 
ATOM     26  H   LIG d   1       5.641 -10.363  -6.872  0.00  0.00     0.024 H 
ATOM     27  H   LIG d   1       4.929  -9.446  -5.522  0.00  0.00     0.024 H 
ATOM     28  H   LIG d   1       3.927 -10.589  -6.448  0.00  0.00     0.024 H 
ENDBRANCH  22  25
ENDBRANCH  18  22
ENDBRANCH   1  14
BRANCH   3  29
ATOM     29  C   LIG d   1       3.522  -1.824  -2.338  0.00  0.00    -0.021 C 
ATOM     30  H   LIG d   1       2.752  -1.193  -2.780  0.00  0.00     0.029 H 
ATOM     31  H   LIG d   1       3.058  -2.698  -1.879  0.00  0.00     0.029 H 
ATOM     32  H   LIG d   1       4.062  -1.260  -1.577  0.00  0.00     0.029 H 
ENDBRANCH   3  29
BRANCH   7  33
ATOM     33  O   LIG d   1       8.790   0.850  -4.956  0.00  0.00    -0.492 OA
BRANCH  33  34
ATOM     34  C   LIG d   1       8.503   2.002  -5.752  0.00  0.00     0.087 C 
ATOM     35  H   LIG d   1       8.947   1.881  -6.740  0.00  0.00     0.069 H 
ATOM     36  H   LIG d   1       7.423   2.115  -5.851  0.00  0.00     0.069 H 
BRANCH  34  37
ATOM     37  C   LIG d   1       9.087   3.245  -5.079  0.00  0.00    -0.031 C 
ATOM     38  H   LIG d   1       8.485   3.503  -4.208  0.00  0.00     0.026 H 
ATOM     39  H   LIG d   1      10.111   3.042  -4.764  0.00  0.00     0.026 H 
ATOM     40  H   LIG d   1       9.082   4.076  -5.783  0.00  0.00     0.026 H 
ENDBRANCH  34  37
ENDBRANCH  33  34
ENDBRANCH   7  33
TORSDOF 7
ENDMDL
MODEL 7
REMARK VINA RESULT:      -5.2      5.415      8.061
REMARK  7 active torsions:
REMARK  status: ('A' for Active; 'I' for Inactive)
REMARK    1  A    between atoms: C_1  and  C_2 
REMARK    2  A    between atoms: C_2  and  C_3 
REMARK       I    between atoms: C_3  and  N_5 
REMARK       I    between atoms: N_5  and  C_6 
REMARK       I    between atoms: C_6  and  N_7 
REMARK       I    between atoms: C_6  and  N_8 
REMARK    3  A    between atoms: N_8  and  C_9 
REMARK    4  A    between atoms: C_11  and  C_22 
REMARK    5  A    between atoms: C_15  and  O_19 
REMARK    6  A    between atoms: O_19  and  C_20 
REMARK    7  A    between atoms: C_20  and  C_21 
ROOT
ATOM      1  C   LIG d   1       4.642  -5.319  -5.939  0.00  0.00     0.293 A 
ATOM      2  N   LIG d   1       4.301  -5.087  -7.205  0.00  0.00    -0.203 NA
ATOM      3  C   LIG d   1       4.129  -3.863  -7.660  0.00  0.00     0.052 A 
ATOM      4  C   LIG d   1       4.313  -2.786  -6.775  0.00  0.00     0.022 A 
ATOM      5  C   LIG d   1       4.147  -1.454  -7.183  0.00  0.00    -0.047 A 
ATOM      6  C   LIG d   1       4.336  -0.446  -6.289  0.00  0.00    -0.019 A 
ATOM      7  C   LIG d   1       4.694  -0.719  -4.964  0.00  0.00     0.122 A 
ATOM      8  C   LIG d   1       4.864  -2.015  -4.533  0.00  0.00     0.006 A 
ATOM      9  C   LIG d   1       4.675  -3.071  -5.433  0.00  0.00     0.081 A 
ATOM     10  N   LIG d   1       4.823  -4.351  -5.064  0.00  0.00    -0.198 NA
ATOM     11  H   LIG d   1       3.871  -1.229  -8.203  0.00  0.00     0.063 H 
ATOM     12  H   LIG d   1       4.207   0.579  -6.606  0.00  0.00     0.065 H 
ATOM     13  H   LIG d   1       5.142  -2.216  -3.509  0.00  0.00     0.068 H 
ENDROOT
BRANCH   1  14
ATOM     14  N   LIG d   1       4.808  -6.632  -5.525  0.00  0.00    -0.210 N 
ATOM     15  C   LIG d   1       6.059  -7.182  -5.484  0.00  0.00     0.419 C 
ATOM     16  N   LIG d   1       6.233  -8.396  -4.978  0.00  0.00    -0.002 NA
ATOM     17  N   LIG d   1       7.125  -6.485  -5.964  0.00  0.00    -0.128 NA
ATOM     18  C   LIG d   1       5.178  -9.121  -4.607  0.00  0.00     0.310 C 
ATOM     19  O   LIG d   1       4.066  -8.633  -4.634  0.00  0.00    -0.254 OA
ATOM     20  H   LIG d   1       7.012  -5.568  -6.259  0.00  0.00     0.306 HD
ATOM     21  H   LIG d   1       4.038  -7.160  -5.264  0.00  0.00     0.268 HD
BRANCH  18  22
ATOM     22  C   LIG d   1       5.366 -10.547  -4.156  0.00  0.00     0.040 C 
ATOM     23  H   LIG d   1       6.314 -10.638  -3.627  0.00  0.00     0.037 H 
ATOM     24  H   LIG d   1       5.369 -11.205  -5.024  0.00  0.00     0.037 H 
BRANCH  22  25
ATOM     25  C   LIG d   1       4.220 -10.939  -3.220  0.00  0.00    -0.056 C 
ATOM     26  H   LIG d   1       3.267 -10.741  -3.711  0.00  0.00     0.024 H 
ATOM     27  H   LIG d   1       4.292 -12.001  -2.984  0.00  0.00     0.024 H 
ATOM     28  H   LIG d   1       4.284 -10.357  -2.302  0.00  0.00     0.024 H 
ENDBRANCH  22  25
ENDBRANCH  18  22
ENDBRANCH   1  14
BRANCH   3  29
ATOM     29  C   LIG d   1       3.743  -3.622  -9.097  0.00  0.00    -0.021 C 
ATOM     30  H   LIG d   1       4.524  -4.007  -9.752  0.00  0.00     0.029 H 
ATOM     31  H   LIG d   1       2.804  -4.133  -9.312  0.00  0.00     0.029 H 
ATOM     32  H   LIG d   1       3.620  -2.552  -9.265  0.00  0.00     0.029 H 
ENDBRANCH   3  29
BRANCH   7  33
ATOM     33  O   LIG d   1       4.876   0.308  -4.094  0.00  0.00    -0.492 OA
BRANCH  33  34
ATOM     34  C   LIG d   1       5.270  -0.030  -2.763  0.00  0.00     0.087 C 
ATOM     35  H   LIG d   1       5.029  -1.075  -2.566  0.00  0.00     0.069 H 
ATOM     36  H   LIG d   1       6.344   0.121  -2.654  0.00  0.00     0.069 H 
BRANCH  34  37
ATOM     37  C   LIG d   1       4.526   0.862  -1.769  0.00  0.00    -0.031 C 
ATOM     38  H   LIG d   1       3.913   1.581  -2.314  0.00  0.00     0.026 H 
ATOM     39  H   LIG d   1       3.886   0.247  -1.135  0.00  0.00     0.026 H 
ATOM     40  H   LIG d   1       5.246   1.396  -1.149  0.00  0.00     0.026 H 
ENDBRANCH  34  37
ENDBRANCH  33  34
ENDBRANCH   7  33
TORSDOF 7
ENDMDL
MODEL 8
REMARK VINA RESULT:      -5.1      8.197     10.054
REMARK  7 active torsions:
REMARK  status: ('A' for Active; 'I' for Inactive)
REMARK    1  A    between atoms: C_1  and  C_2 
REMARK    2  A    between atoms: C_2  and  C_3 
REMARK       I    between atoms: C_3  and  N_5 
REMARK       I    between atoms: N_5  and  C_6 
REMARK       I    between atoms: C_6  and  N_7 
REMARK       I    between atoms: C_6  and  N_8 
REMARK    3  A    between atoms: N_8  and  C_9 
REMARK    4  A    between atoms: C_11  and  C_22 
REMARK    5  A    between atoms: C_15  and  O_19 
REMARK    6  A    between atoms: O_19  and  C_20 
REMARK    7  A    between atoms: C_20  and  C_21 
ROOT
ATOM      1  C   LIG d   1       9.990   4.417  -3.046  0.00  0.00     0.293 A 
ATOM      2  N   LIG d   1       9.292   3.285  -2.973  0.00  0.00    -0.203 NA
ATOM      3  C   LIG d   1       8.922   2.632  -4.055  0.00  0.00     0.052 A 
ATOM      4  C   LIG d   1       9.281   3.155  -5.310  0.00  0.00     0.022 A 
ATOM      5  C   LIG d   1       8.924   2.518  -6.508  0.00  0.00    -0.047 A 
ATOM      6  C   LIG d   1       9.294   3.064  -7.698  0.00  0.00    -0.019 A 
ATOM      7  C   LIG d   1      10.028   4.255  -7.745  0.00  0.00     0.122 A 
ATOM      8  C   LIG d   1      10.393   4.904  -6.587  0.00  0.00     0.006 A 
ATOM      9  C   LIG d   1      10.024   4.363  -5.349  0.00  0.00     0.081 A 
ATOM     10  N   LIG d   1      10.349   4.957  -4.192  0.00  0.00    -0.198 NA
ATOM     11  H   LIG d   1       8.358   1.598  -6.486  0.00  0.00     0.063 H 
ATOM     12  H   LIG d   1       9.017   2.572  -8.619  0.00  0.00     0.065 H 
ATOM     13  H   LIG d   1      10.960   5.821  -6.634  0.00  0.00     0.068 H 
ENDROOT
BRANCH   1  14
ATOM     14  N   LIG d   1      10.348   5.055  -1.867  0.00  0.00    -0.210 N 
ATOM     15  C   LIG d   1       9.836   6.289  -1.576  0.00  0.00     0.419 C 
ATOM     16  N   LIG d   1      10.084   6.848  -0.399  0.00  0.00    -0.002 NA
ATOM     17  N   LIG d   1       9.074   6.944  -2.494  0.00  0.00    -0.128 NA
ATOM     18  C   LIG d   1      10.916   6.258   0.458  0.00  0.00     0.310 C 
ATOM     19  O   LIG d   1      11.366   5.157   0.206  0.00  0.00    -0.254 OA
ATOM     20  H   LIG d   1       8.825   6.502  -3.321  0.00  0.00     0.306 HD
ATOM     21  H   LIG d   1      10.960   4.626  -1.250  0.00  0.00     0.268 HD
BRANCH  18  22
ATOM     22  C   LIG d   1      11.299   6.955   1.738  0.00  0.00     0.040 C 
ATOM     23  H   LIG d   1      10.767   7.903   1.809  0.00  0.00     0.037 H 
ATOM     24  H   LIG d   1      12.373   7.140   1.743  0.00  0.00     0.037 H 
BRANCH  22  25
ATOM     25  C   LIG d   1      10.927   6.071   2.930  0.00  0.00    -0.056 C 
ATOM     26  H   LIG d   1       9.990   6.421   3.363  0.00  0.00     0.024 H 
ATOM     27  H   LIG d   1      10.809   5.040   2.595  0.00  0.00     0.024 H 
ATOM     28  H   LIG d   1      11.716   6.121   3.680  0.00  0.00     0.024 H 
ENDBRANCH  22  25
ENDBRANCH  18  22
ENDBRANCH   1  14
BRANCH   3  29
ATOM     29  C   LIG d   1       8.133   1.352  -3.950  0.00  0.00    -0.021 C 
ATOM     30  H   LIG d   1       7.741   1.249  -2.939  0.00  0.00     0.029 H 
ATOM     31  H   LIG d   1       7.306   1.376  -4.660  0.00  0.00     0.029 H 
ATOM     32  H   LIG d   1       8.782   0.506  -4.177  0.00  0.00     0.029 H 
ENDBRANCH   3  29
BRANCH   7  33
ATOM     33  O   LIG d   1      10.382   4.776  -8.948  0.00  0.00    -0.492 OA
BRANCH  33  34
ATOM     34  C   LIG d   1       9.397   4.751  -9.983  0.00  0.00     0.087 C 
ATOM     35  H   LIG d   1       9.889   4.787 -10.955  0.00  0.00     0.069 H 
ATOM     36  H   LIG d   1       8.812   3.834  -9.905  0.00  0.00     0.069 H 
BRANCH  34  37
ATOM     37  C   LIG d   1       8.472   5.960  -9.834  0.00  0.00    -0.031 C 
ATOM     38  H   LIG d   1       7.470   5.693 -10.169  0.00  0.00     0.026 H 
ATOM     39  H   LIG d   1       8.436   6.265  -8.788  0.00  0.00     0.026 H 
ATOM     40  H   LIG d   1       8.850   6.784 -10.439  0.00  0.00     0.026 H 
ENDBRANCH  34  37
ENDBRANCH  33  34
ENDBRANCH   7  33
TORSDOF 7
ENDMDL
MODEL 9
REMARK VINA RESULT:      -4.9      6.987      9.974
REMARK  7 active torsions:
REMARK  status: ('A' for Active; 'I' for Inactive)
REMARK    1  A    between atoms: C_1  and  C_2 
REMARK    2  A    between atoms: C_2  and  C_3 
REMARK       I    between atoms: C_3  and  N_5 
REMARK       I    between atoms: N_5  and  C_6 
REMARK       I    between atoms: C_6  and  N_7 
REMARK       I    between atoms: C_6  and  N_8 
REMARK    3  A    between atoms: N_8  and  C_9 
REMARK    4  A    between atoms: C_11  and  C_22 
REMARK    5  A    between atoms: C_15  and  O_19 
REMARK    6  A    between atoms: O_19  and  C_20 
REMARK    7  A    between atoms: C_20  and  C_21 
ROOT
ATOM      1  C   LIG d   1       8.627   1.970  -4.380  0.00  0.00     0.293 A 
ATOM      2  N   LIG d   1       8.514   2.443  -5.620  0.00  0.00    -0.203 NA
ATOM      3  C   LIG d   1       9.536   2.988  -6.246  0.00  0.00     0.052 A 
ATOM      4  C   LIG d   1      10.770   3.066  -5.575  0.00  0.00     0.022 A 
ATOM      5  C   LIG d   1      11.906   3.633  -6.174  0.00  0.00    -0.047 A 
ATOM      6  C   LIG d   1      13.077   3.686  -5.484  0.00  0.00    -0.019 A 
ATOM      7  C   LIG d   1      13.167   3.181  -4.182  0.00  0.00     0.122 A 
ATOM      8  C   LIG d   1      12.071   2.618  -3.566  0.00  0.00     0.006 A 
ATOM      9  C   LIG d   1      10.852   2.552  -4.255  0.00  0.00     0.081 A 
ATOM     10  N   LIG d   1       9.754   2.020  -3.701  0.00  0.00    -0.198 NA
ATOM     11  H   LIG d   1      11.850   4.026  -7.178  0.00  0.00     0.063 H 
ATOM     12  H   LIG d   1      13.949   4.123  -5.947  0.00  0.00     0.065 H 
ATOM     13  H   LIG d   1      12.150   2.230  -2.562  0.00  0.00     0.068 H 
ENDROOT
BRANCH   1  14
ATOM     14  N   LIG d   1       7.510   1.407  -3.779  0.00  0.00    -0.210 N 
ATOM     15  C   LIG d   1       7.354   0.050  -3.765  0.00  0.00     0.419 C 
ATOM     16  N   LIG d   1       6.350  -0.495  -3.090  0.00  0.00    -0.002 NA
ATOM     17  N   LIG d   1       8.227  -0.744  -4.445  0.00  0.00    -0.128 NA
ATOM     18  C   LIG d   1       5.435   0.283  -2.514  0.00  0.00     0.310 C 
ATOM     19  O   LIG d   1       5.575   1.490  -2.516  0.00  0.00    -0.254 OA
ATOM     20  H   LIG d   1       9.006  -0.353  -4.870  0.00  0.00     0.306 HD
ATOM     21  H   LIG d   1       6.842   1.977  -3.368  0.00  0.00     0.268 HD
BRANCH  18  22
ATOM     22  C   LIG d   1       4.226  -0.335  -1.860  0.00  0.00     0.040 C 
ATOM     23  H   LIG d   1       3.329   0.199  -2.175  0.00  0.00     0.037 H 
ATOM     24  H   LIG d   1       4.326  -0.269  -0.776  0.00  0.00     0.037 H 
BRANCH  22  25
ATOM     25  C   LIG d   1       4.117  -1.804  -2.275  0.00  0.00    -0.056 C 
ATOM     26  H   LIG d   1       4.967  -2.358  -1.875  0.00  0.00     0.024 H 
ATOM     27  H   LIG d   1       3.192  -2.225  -1.881  0.00  0.00     0.024 H 
ATOM     28  H   LIG d   1       4.115  -1.876  -3.362  0.00  0.00     0.024 H 
ENDBRANCH  22  25
ENDBRANCH  18  22
ENDBRANCH   1  14
BRANCH   3  29
ATOM     29  C   LIG d   1       9.388   3.517  -7.649  0.00  0.00    -0.021 C 
ATOM     30  H   LIG d   1       8.703   2.879  -8.207  0.00  0.00     0.029 H 
ATOM     31  H   LIG d   1       8.993   4.533  -7.614  0.00  0.00     0.029 H 
ATOM     32  H   LIG d   1      10.361   3.524  -8.139  0.00  0.00     0.029 H 
ENDBRANCH   3  29
BRANCH   7  33
ATOM     33  O   LIG d   1      14.349   3.247  -3.518  0.00  0.00    -0.492 OA
BRANCH  33  34
ATOM     34  C   LIG d   1      14.970   2.008  -3.171  0.00  0.00     0.087 C 
ATOM     35  H   LIG d   1      15.580   2.143  -2.278  0.00  0.00     0.069 H 
ATOM     36  H   LIG d   1      14.202   1.259  -2.976  0.00  0.00     0.069 H 
BRANCH  34  37
ATOM     37  C   LIG d   1      15.856   1.540  -4.328  0.00  0.00    -0.031 C 
ATOM     38  H   LIG d   1      16.778   2.120  -4.336  0.00  0.00     0.026 H 
ATOM     39  H   LIG d   1      16.093   0.484  -4.201  0.00  0.00     0.026 H 
ATOM     40  H   LIG d   1      15.328   1.684  -5.270  0.00  0.00     0.026 H 
ENDBRANCH  34  37
ENDBRANCH  33  34
ENDBRANCH   7  33
TORSDOF 7
ENDMDL
MODEL 10
REMARK VINA RESULT:      -4.8      6.511     10.743
REMARK  7 active torsions:
REMARK  status: ('A' for Active; 'I' for Inactive)
REMARK    1  A    between atoms: C_1  and  C_2 
REMARK    2  A    between atoms: C_2  and  C_3 
REMARK       I    between atoms: C_3  and  N_5 
REMARK       I    between atoms: N_5  and  C_6 
REMARK       I    between atoms: C_6  and  N_7 
REMARK       I    between atoms: C_6  and  N_8 
REMARK    3  A    between atoms: N_8  and  C_9 
REMARK    4  A    between atoms: C_11  and  C_22 
REMARK    5  A    between atoms: C_15  and  O_19 
REMARK    6  A    between atoms: O_19  and  C_20 
REMARK    7  A    between atoms: C_20  and  C_21 
ROOT
ATOM      1  C   LIG d   1       9.065   2.026  -4.368  0.00  0.00     0.293 A 
ATOM      2  N   LIG d   1       9.136   2.623  -5.556  0.00  0.00    -0.203 NA
ATOM      3  C   LIG d   1       9.597   3.849  -5.686  0.00  0.00     0.052 A 
ATOM      4  C   LIG d   1      10.022   4.532  -4.533  0.00  0.00     0.022 A 
ATOM      5  C   LIG d   1      10.525   5.841  -4.588  0.00  0.00    -0.047 A 
ATOM      6  C   LIG d   1      10.923   6.459  -3.444  0.00  0.00    -0.019 A 
ATOM      7  C   LIG d   1      10.838   5.808  -2.208  0.00  0.00     0.122 A 
ATOM      8  C   LIG d   1      10.349   4.524  -2.120  0.00  0.00     0.006 A 
ATOM      9  C   LIG d   1       9.932   3.865  -3.283  0.00  0.00     0.081 A 
ATOM     10  N   LIG d   1       9.443   2.617  -3.254  0.00  0.00    -0.198 NA
ATOM     11  H   LIG d   1      10.596   6.354  -5.536  0.00  0.00     0.063 H 
ATOM     12  H   LIG d   1      11.310   7.467  -3.490  0.00  0.00     0.065 H 
ATOM     13  H   LIG d   1      10.289   4.029  -1.162  0.00  0.00     0.068 H 
ENDROOT
BRANCH   1  14
ATOM     14  N   LIG d   1       8.569   0.732  -4.301  0.00  0.00    -0.210 N 
ATOM     15  C   LIG d   1       7.291   0.512  -3.872  0.00  0.00     0.419 C 
ATOM     16  N   LIG d   1       6.776  -0.710  -3.919  0.00  0.00    -0.002 NA
ATOM     17  N   LIG d   1       6.545   1.547  -3.395  0.00  0.00    -0.128 NA
ATOM     18  C   LIG d   1       7.538  -1.740  -4.283  0.00  0.00     0.310 C 
ATOM     19  O   LIG d   1       8.672  -1.547  -4.674  0.00  0.00    -0.254 OA
ATOM     20  H   LIG d   1       6.890   2.453  -3.436  0.00  0.00     0.306 HD
ATOM     21  H   LIG d   1       9.129  -0.016  -4.560  0.00  0.00     0.268 HD
BRANCH  18  22
ATOM     22  C   LIG d   1       6.992  -3.143  -4.211  0.00  0.00     0.040 C 
ATOM     23  H   LIG d   1       6.399  -3.256  -3.304  0.00  0.00     0.037 H 
ATOM     24  H   LIG d   1       7.818  -3.853  -4.196  0.00  0.00     0.037 H 
BRANCH  22  25
ATOM     25  C   LIG d   1       6.111  -3.410  -5.434  0.00  0.00    -0.056 C 
ATOM     26  H   LIG d   1       5.474  -2.544  -5.618  0.00  0.00     0.024 H 
ATOM     27  H   LIG d   1       6.742  -3.588  -6.304  0.00  0.00     0.024 H 
ATOM     28  H   LIG d   1       5.490  -4.286  -5.250  0.00  0.00     0.024 H 
ENDBRANCH  22  25
ENDBRANCH  18  22
ENDBRANCH   1  14
BRANCH   3  29
ATOM     29  C   LIG d   1       9.668   4.506  -7.040  0.00  0.00    -0.021 C 
ATOM     30  H   LIG d   1      10.688   4.839  -7.229  0.00  0.00     0.029 H 
ATOM     31  H   LIG d   1       9.371   3.791  -7.807  0.00  0.00     0.029 H 
ATOM     32  H   LIG d   1       8.996   5.364  -7.064  0.00  0.00     0.029 H 
ENDBRANCH   3  29
BRANCH   7  33
ATOM     33  O   LIG d   1      11.243   6.451  -1.083  0.00  0.00    -0.492 OA
BRANCH  33  34
ATOM     34  C   LIG d   1      11.818   5.651  -0.048  0.00  0.00     0.087 C 
ATOM     35  H   LIG d   1      11.741   4.597  -0.317  0.00  0.00     0.069 H 
ATOM     36  H   LIG d   1      12.868   5.917   0.077  0.00  0.00     0.069 H 
BRANCH  34  37
ATOM     37  C   LIG d   1      11.070   5.899   1.263  0.00  0.00    -0.031 C 
ATOM     38  H   LIG d   1      10.030   5.594   1.150  0.00  0.00     0.026 H 
ATOM     39  H   LIG d   1      11.533   5.319   2.062  0.00  0.00     0.026 H 
ATOM     40  H   LIG d   1      11.112   6.959   1.511  0.00  0.00     0.026 H 
ENDBRANCH  34  37
ENDBRANCH  33  34
ENDBRANCH   7  33
TORSDOF 7
ENDMDL
