MODEL 1
REMARK VINA RESULT:      -6.6      0.000      0.000
REMARK  7 active torsions:
REMARK  status: ('A' for Active; 'I' for Inactive)
REMARK    1  A    between atoms: C_1  and  C_2 
REMARK    2  A    between atoms: C_2  and  C_3 
REMARK    3  A    between atoms: C_2  and  C_4 
REMARK    4  A    between atoms: C_2  and  C_5 
REMARK       I    between atoms: C_5  and  N_7 
REMARK    5  A    between atoms: N_7  and  C_8 
REMARK    6  A    between atoms: C_16  and  C_17 
REMARK    7  A    between atoms: C_17  and  C_19 
ROOT
ATOM      1  C   LIG d   1       4.458  -1.590  -6.253  0.00  0.00     0.091 A 
ATOM      2  C   LIG d   1       4.509  -0.803  -7.491  0.00  0.00     0.043 A 
ATOM      3  C   LIG d   1       4.014   0.446  -7.866  0.00  0.00    -0.035 A 
ATOM      4  C   LIG d   1       4.239   0.913  -9.132  0.00  0.00     0.019 A 
ATOM      5  C   LIG d   1       4.956   0.150 -10.044  0.00  0.00    -0.044 A 
ATOM      6  C   LIG d   1       5.460  -1.083  -9.689  0.00  0.00    -0.018 A 
ATOM      7  C   LIG d   1       5.240  -1.578  -8.408  0.00  0.00     0.138 A 
ATOM      8  O   LIG d   1       5.592  -2.727  -7.798  0.00  0.00    -0.450 OA
ATOM      9  C   LIG d   1       5.142  -2.758  -6.523  0.00  0.00     0.197 A 
ATOM     10 BR   LIG d   1       3.568   2.605  -9.644  0.00  0.00    -0.050 Br
ATOM     11  H   LIG d   1       3.455   1.043  -7.161  0.00  0.00     0.064 H 
ATOM     12  H   LIG d   1       5.126   0.530 -11.041  0.00  0.00     0.063 H 
ATOM     13  H   LIG d   1       6.015  -1.667 -10.408  0.00  0.00     0.066 H 
ENDROOT
BRANCH   1  14
ATOM     14  N   LIG d   1       3.844  -1.234  -5.059  0.00  0.00    -0.281 N 
ATOM     15  C   LIG d   1       4.432  -0.343  -4.238  0.00  0.00     0.223 C 
ATOM     16  O   LIG d   1       5.530   0.098  -4.507  0.00  0.00    -0.275 OA
ATOM     17  H   LIG d   1       2.991  -1.627  -4.817  0.00  0.00     0.155 HD
BRANCH  15  18
ATOM     18  C   LIG d   1       3.725   0.110  -2.986  0.00  0.00     0.039 C 
BRANCH  18  19
ATOM     19  C   LIG d   1       2.367  -0.589  -2.886  0.00  0.00    -0.052 C 
ATOM     20  H   LIG d   1       2.189  -0.889  -1.853  0.00  0.00     0.024 H 
ATOM     21  H   LIG d   1       1.582   0.095  -3.205  0.00  0.00     0.024 H 
ATOM     22  H   LIG d   1       2.364  -1.471  -3.527  0.00  0.00     0.024 H 
ENDBRANCH  18  19
BRANCH  18  23
ATOM     23  C   LIG d   1       4.573  -0.247  -1.764  0.00  0.00    -0.052 C 
ATOM     24  H   LIG d   1       5.409   0.449  -1.686  0.00  0.00     0.024 H 
ATOM     25  H   LIG d   1       3.961  -0.179  -0.864  0.00  0.00     0.024 H 
ATOM     26  H   LIG d   1       4.954  -1.263  -1.869  0.00  0.00     0.024 H 
ENDBRANCH  18  23
BRANCH  18  27
ATOM     27  C   LIG d   1       3.516   1.625  -3.038  0.00  0.00    -0.052 C 
ATOM     28  H   LIG d   1       3.675   1.979  -4.057  0.00  0.00     0.024 H 
ATOM     29  H   LIG d   1       2.500   1.862  -2.724  0.00  0.00     0.024 H 
ATOM     30  H   LIG d   1       4.225   2.112  -2.369  0.00  0.00     0.024 H 
ENDBRANCH  18  27
ENDBRANCH  15  18
ENDBRANCH   1  14
BRANCH   9  31
ATOM     31  C   LIG d   1       5.341  -3.822  -5.610  0.00  0.00     0.230 C 
ATOM     32  O   LIG d   1       4.422  -4.576  -5.344  0.00  0.00    -0.283 OA
BRANCH  31  33
ATOM     33  C   LIG d   1       6.664  -4.017  -4.977  0.00  0.00     0.025 A 
ATOM     34  C   LIG d   1       7.388  -5.187  -5.214  0.00  0.00    -0.049 A 
ATOM     35  C   LIG d   1       8.620  -5.363  -4.621  0.00  0.00    -0.043 A 
ATOM     36  H   LIG d   1       6.984  -5.953  -5.859  0.00  0.00     0.062 H 
ATOM     37  C   LIG d   1       9.140  -4.382  -3.793  0.00  0.00     0.041 A 
ATOM     38  H   LIG d   1       9.181  -6.267  -4.803  0.00  0.00     0.063 H 
ATOM     39  C   LIG d   1       8.426  -3.220  -3.553  0.00  0.00    -0.043 A 
ATOM     40 CL   LIG d   1      10.692  -4.610  -3.049  0.00  0.00    -0.084 Cl
ATOM     41  C   LIG d   1       7.194  -3.029  -4.145  0.00  0.00    -0.049 A 
ATOM     42  H   LIG d   1       8.836  -2.458  -2.907  0.00  0.00     0.063 H 
ATOM     43  H   LIG d   1       6.641  -2.121  -3.962  0.00  0.00     0.062 H 
ENDBRANCH  31  33
ENDBRANCH   9  31
TORSDOF 7
ENDMDL
MODEL 2
REMARK VINA RESULT:      -6.5      3.981      5.900
REMARK  7 active torsions:
REMARK  status: ('A' for Active; 'I' for Inactive)
REMARK    1  A    between atoms: C_1  and  C_2 
REMARK    2  A    between atoms: C_2  and  C_3 
REMARK    3  A    between atoms: C_2  and  C_4 
REMARK    4  A    between atoms: C_2  and  C_5 
REMARK       I    between atoms: C_5  and  N_7 
REMARK    5  A    between atoms: N_7  and  C_8 
REMARK    6  A    between atoms: C_16  and  C_17 
REMARK    7  A    between atoms: C_17  and  C_19 
ROOT
ATOM      1  C   LIG d   1       5.512  -1.075  -6.080  0.00  0.00     0.091 A 
ATOM      2  C   LIG d   1       6.932  -1.412  -6.242  0.00  0.00     0.043 A 
ATOM      3  C   LIG d   1       7.910  -1.919  -5.387  0.00  0.00    -0.035 A 
ATOM      4  C   LIG d   1       9.177  -2.130  -5.856  0.00  0.00     0.019 A 
ATOM      5  C   LIG d   1       9.494  -1.841  -7.177  0.00  0.00    -0.044 A 
ATOM      6  C   LIG d   1       8.538  -1.347  -8.039  0.00  0.00    -0.018 A 
ATOM      7  C   LIG d   1       7.244  -1.122  -7.582  0.00  0.00     0.138 A 
ATOM      8  O   LIG d   1       6.133  -0.646  -8.177  0.00  0.00    -0.450 OA
ATOM      9  C   LIG d   1       5.095  -0.608  -7.311  0.00  0.00     0.197 A 
ATOM     10 BR   LIG d   1      10.507  -2.817  -4.700  0.00  0.00    -0.050 Br
ATOM     11  H   LIG d   1       7.669  -2.145  -4.359  0.00  0.00     0.064 H 
ATOM     12  H   LIG d   1      10.499  -2.011  -7.535  0.00  0.00     0.063 H 
ATOM     13  H   LIG d   1       8.797  -1.125  -9.063  0.00  0.00     0.066 H 
ENDROOT
BRANCH   1  14
ATOM     14  N   LIG d   1       4.749  -1.195  -4.926  0.00  0.00    -0.281 N 
ATOM     15  C   LIG d   1       4.791  -0.231  -3.987  0.00  0.00     0.223 C 
ATOM     16  O   LIG d   1       5.546   0.710  -4.116  0.00  0.00    -0.275 OA
ATOM     17  H   LIG d   1       4.185  -1.974  -4.797  0.00  0.00     0.155 HD
BRANCH  15  18
ATOM     18  C   LIG d   1       3.897  -0.317  -2.776  0.00  0.00     0.039 C 
BRANCH  18  19
ATOM     19  C   LIG d   1       2.442  -0.460  -3.226  0.00  0.00    -0.052 C 
ATOM     20  H   LIG d   1       1.804   0.154  -2.591  0.00  0.00     0.024 H 
ATOM     21  H   LIG d   1       2.347  -0.133  -4.261  0.00  0.00     0.024 H 
ATOM     22  H   LIG d   1       2.137  -1.504  -3.145  0.00  0.00     0.024 H 
ENDBRANCH  18  19
BRANCH  18  23
ATOM     23  C   LIG d   1       4.293  -1.534  -1.937  0.00  0.00    -0.052 C 
ATOM     24  H   LIG d   1       3.410  -1.934  -1.438  0.00  0.00     0.024 H 
ATOM     25  H   LIG d   1       4.721  -2.299  -2.585  0.00  0.00     0.024 H 
ATOM     26  H   LIG d   1       5.029  -1.237  -1.190  0.00  0.00     0.024 H 
ENDBRANCH  18  23
BRANCH  18  27
ATOM     27  C   LIG d   1       4.050   0.953  -1.937  0.00  0.00    -0.052 C 
ATOM     28  H   LIG d   1       5.014   0.938  -1.428  0.00  0.00     0.024 H 
ATOM     29  H   LIG d   1       3.994   1.826  -2.586  0.00  0.00     0.024 H 
ATOM     30  H   LIG d   1       3.250   0.999  -1.198  0.00  0.00     0.024 H 
ENDBRANCH  18  27
ENDBRANCH  15  18
ENDBRANCH   1  14
BRANCH   9  31
ATOM     31  C   LIG d   1       3.787  -0.160  -7.618  0.00  0.00     0.230 C 
ATOM     32  O   LIG d   1       3.322   0.805  -7.038  0.00  0.00    -0.283 OA
BRANCH  31  33
ATOM     33  C   LIG d   1       2.985  -0.865  -8.642  0.00  0.00     0.025 A 
ATOM     34  C   LIG d   1       3.168  -2.232  -8.856  0.00  0.00    -0.049 A 
ATOM     35  C   LIG d   1       2.418  -2.884  -9.812  0.00  0.00    -0.043 A 
ATOM     36  H   LIG d   1       3.896  -2.779  -8.275  0.00  0.00     0.062 H 
ATOM     37  C   LIG d   1       1.484  -2.184 -10.559  0.00  0.00     0.041 A 
ATOM     38  H   LIG d   1       2.559  -3.941  -9.979  0.00  0.00     0.063 H 
ATOM     39  C   LIG d   1       1.298  -0.828 -10.351  0.00  0.00    -0.043 A 
ATOM     40 CL   LIG d   1       0.543  -3.010 -11.761  0.00  0.00    -0.084 Cl
ATOM     41  C   LIG d   1       2.039  -0.166  -9.394  0.00  0.00    -0.049 A 
ATOM     42  H   LIG d   1       0.569  -0.287 -10.936  0.00  0.00     0.063 H 
ATOM     43  H   LIG d   1       1.889   0.890  -9.229  0.00  0.00     0.062 H 
ENDBRANCH  31  33
ENDBRANCH   9  31
TORSDOF 7
ENDMDL
MODEL 3
REMARK VINA RESULT:      -6.5      3.337      3.969
REMARK  7 active torsions:
REMARK  status: ('A' for Active; 'I' for Inactive)
REMARK    1  A    between atoms: C_1  and  C_2 
REMARK    2  A    between atoms: C_2  and  C_3 
REMARK    3  A    between atoms: C_2  and  C_4 
REMARK    4  A    between atoms: C_2  and  C_5 
REMARK       I    between atoms: C_5  and  N_7 
REMARK    5  A    between atoms: N_7  and  C_8 
REMARK    6  A    between atoms: C_16  and  C_17 
REMARK    7  A    between atoms: C_17  and  C_19 
ROOT
ATOM      1  C   LIG d   1       7.645  -0.516  -4.251  0.00  0.00     0.091 A 
ATOM      2  C   LIG d   1       8.450   0.609  -4.743  0.00  0.00     0.043 A 
ATOM      3  C   LIG d   1       8.483   1.974  -4.457  0.00  0.00    -0.035 A 
ATOM      4  C   LIG d   1       9.377   2.781  -5.104  0.00  0.00     0.019 A 
ATOM      5  C   LIG d   1      10.250   2.250  -6.044  0.00  0.00    -0.044 A 
ATOM      6  C   LIG d   1      10.238   0.902  -6.333  0.00  0.00    -0.018 A 
ATOM      7  C   LIG d   1       9.334   0.064  -5.690  0.00  0.00     0.138 A 
ATOM      8  O   LIG d   1       9.090  -1.259  -5.777  0.00  0.00    -0.450 OA
ATOM      9  C   LIG d   1       8.096  -1.626  -4.937  0.00  0.00     0.197 A 
ATOM     10 BR   LIG d   1       9.424   4.632  -4.720  0.00  0.00    -0.050 Br
ATOM     11  H   LIG d   1       7.805   2.393  -3.728  0.00  0.00     0.064 H 
ATOM     12  H   LIG d   1      10.952   2.898  -6.548  0.00  0.00     0.063 H 
ATOM     13  H   LIG d   1      10.921   0.500  -7.067  0.00  0.00     0.066 H 
ENDROOT
BRANCH   1  14
ATOM     14  N   LIG d   1       6.636  -0.471  -3.299  0.00  0.00    -0.281 N 
ATOM     15  C   LIG d   1       5.375  -0.173  -3.667  0.00  0.00     0.223 C 
ATOM     16  O   LIG d   1       5.132   0.122  -4.819  0.00  0.00    -0.275 OA
ATOM     17  H   LIG d   1       6.839  -0.654  -2.368  0.00  0.00     0.155 HD
BRANCH  15  18
ATOM     18  C   LIG d   1       4.263  -0.210  -2.649  0.00  0.00     0.039 C 
BRANCH  18  19
ATOM     19  C   LIG d   1       2.916  -0.059  -3.358  0.00  0.00    -0.052 C 
ATOM     20  H   LIG d   1       2.172   0.305  -2.651  0.00  0.00     0.024 H 
ATOM     21  H   LIG d   1       3.015   0.650  -4.179  0.00  0.00     0.024 H 
ATOM     22  H   LIG d   1       2.602  -1.027  -3.751  0.00  0.00     0.024 H 
ENDBRANCH  18  19
BRANCH  18  23
ATOM     23  C   LIG d   1       4.300  -1.545  -1.904  0.00  0.00    -0.052 C 
ATOM     24  H   LIG d   1       5.322  -1.759  -1.589  0.00  0.00     0.024 H 
ATOM     25  H   LIG d   1       3.655  -1.490  -1.026  0.00  0.00     0.024 H 
ATOM     26  H   LIG d   1       3.950  -2.340  -2.562  0.00  0.00     0.024 H 
ENDBRANCH  18  23
BRANCH  18  27
ATOM     27  C   LIG d   1       4.446   0.936  -1.652  0.00  0.00    -0.052 C 
ATOM     28  H   LIG d   1       4.986   0.574  -0.777  0.00  0.00     0.024 H 
ATOM     29  H   LIG d   1       5.012   1.740  -2.122  0.00  0.00     0.024 H 
ATOM     30  H   LIG d   1       3.469   1.310  -1.346  0.00  0.00     0.024 H 
ENDBRANCH  18  27
ENDBRANCH  15  18
ENDBRANCH   1  14
BRANCH   9  31
ATOM     31  C   LIG d   1       7.596  -2.943  -4.784  0.00  0.00     0.230 C 
ATOM     32  O   LIG d   1       6.511  -3.240  -5.251  0.00  0.00    -0.283 OA
BRANCH  31  33
ATOM     33  C   LIG d   1       8.391  -3.957  -4.057  0.00  0.00     0.025 A 
ATOM     34  C   LIG d   1       9.046  -3.615  -2.872  0.00  0.00    -0.049 A 
ATOM     35  C   LIG d   1       9.786  -4.564  -2.199  0.00  0.00    -0.043 A 
ATOM     36  H   LIG d   1       8.974  -2.610  -2.484  0.00  0.00     0.062 H 
ATOM     37  C   LIG d   1       9.880  -5.854  -2.696  0.00  0.00     0.041 A 
ATOM     38  H   LIG d   1      10.293  -4.301  -1.283  0.00  0.00     0.063 H 
ATOM     39  C   LIG d   1       9.233  -6.198  -3.871  0.00  0.00    -0.043 A 
ATOM     40 CL   LIG d   1      10.814  -7.044  -1.844  0.00  0.00    -0.084 Cl
ATOM     41  C   LIG d   1       8.485  -5.259  -4.551  0.00  0.00    -0.049 A 
ATOM     42  H   LIG d   1       9.310  -7.205  -4.254  0.00  0.00     0.063 H 
ATOM     43  H   LIG d   1       7.977  -5.530  -5.464  0.00  0.00     0.062 H 
ENDBRANCH  31  33
ENDBRANCH   9  31
TORSDOF 7
ENDMDL
MODEL 4
REMARK VINA RESULT:      -6.3      4.293      7.605
REMARK  7 active torsions:
REMARK  status: ('A' for Active; 'I' for Inactive)
REMARK    1  A    between atoms: C_1  and  C_2 
REMARK    2  A    between atoms: C_2  and  C_3 
REMARK    3  A    between atoms: C_2  and  C_4 
REMARK    4  A    between atoms: C_2  and  C_5 
REMARK       I    between atoms: C_5  and  N_7 
REMARK    5  A    between atoms: N_7  and  C_8 
REMARK    6  A    between atoms: C_16  and  C_17 
REMARK    7  A    between atoms: C_17  and  C_19 
ROOT
ATOM      1  C   LIG d   1       4.300  -0.374  -7.650  0.00  0.00     0.091 A 
ATOM      2  C   LIG d   1       3.889  -0.436  -6.242  0.00  0.00     0.043 A 
ATOM      3  C   LIG d   1       4.208  -1.277  -5.177  0.00  0.00    -0.035 A 
ATOM      4  C   LIG d   1       3.640  -1.065  -3.951  0.00  0.00     0.019 A 
ATOM      5  C   LIG d   1       2.746  -0.019  -3.763  0.00  0.00    -0.044 A 
ATOM      6  C   LIG d   1       2.425   0.828  -4.803  0.00  0.00    -0.018 A 
ATOM      7  C   LIG d   1       2.989   0.628  -6.058  0.00  0.00     0.138 A 
ATOM      8  O   LIG d   1       2.854   1.271  -7.235  0.00  0.00    -0.450 OA
ATOM      9  C   LIG d   1       3.620   0.698  -8.192  0.00  0.00     0.197 A 
ATOM     10 BR   LIG d   1       4.070  -2.204  -2.504  0.00  0.00    -0.050 Br
ATOM     11  H   LIG d   1       4.902  -2.093  -5.317  0.00  0.00     0.064 H 
ATOM     12  H   LIG d   1       2.304   0.137  -2.791  0.00  0.00     0.063 H 
ATOM     13  H   LIG d   1       1.728   1.637  -4.645  0.00  0.00     0.066 H 
ENDROOT
BRANCH   1  14
ATOM     14  N   LIG d   1       5.186  -1.221  -8.302  0.00  0.00    -0.281 N 
ATOM     15  C   LIG d   1       4.756  -2.402  -8.787  0.00  0.00     0.223 C 
ATOM     16  O   LIG d   1       3.612  -2.756  -8.595  0.00  0.00    -0.275 OA
ATOM     17  H   LIG d   1       6.115  -0.962  -8.409  0.00  0.00     0.155 HD
BRANCH  15  18
ATOM     18  C   LIG d   1       5.696  -3.282  -9.571  0.00  0.00     0.039 C 
BRANCH  18  19
ATOM     19  C   LIG d   1       6.153  -4.450  -8.695  0.00  0.00    -0.052 C 
ATOM     20  H   LIG d   1       6.557  -5.241  -9.326  0.00  0.00     0.024 H 
ATOM     21  H   LIG d   1       6.925  -4.106  -8.006  0.00  0.00     0.024 H 
ATOM     22  H   LIG d   1       5.305  -4.833  -8.128  0.00  0.00     0.024 H 
ENDBRANCH  18  19
BRANCH  18  23
ATOM     23  C   LIG d   1       4.974  -3.824 -10.806  0.00  0.00    -0.052 C 
ATOM     24  H   LIG d   1       5.523  -3.537 -11.704  0.00  0.00     0.024 H 
ATOM     25  H   LIG d   1       4.919  -4.911 -10.748  0.00  0.00     0.024 H 
ATOM     26  H   LIG d   1       3.966  -3.411 -10.850  0.00  0.00     0.024 H 
ENDBRANCH  18  23
BRANCH  18  27
ATOM     27  C   LIG d   1       6.914  -2.465 -10.010  0.00  0.00    -0.052 C 
ATOM     28  H   LIG d   1       7.672  -3.135 -10.417  0.00  0.00     0.024 H 
ATOM     29  H   LIG d   1       6.614  -1.747 -10.772  0.00  0.00     0.024 H 
ATOM     30  H   LIG d   1       7.323  -1.934  -9.151  0.00  0.00     0.024 H 
ENDBRANCH  18  27
ENDBRANCH  15  18
ENDBRANCH   1  14
BRANCH   9  31
ATOM     31  C   LIG d   1       3.708   1.131  -9.538  0.00  0.00     0.230 C 
ATOM     32  O   LIG d   1       4.137   2.242  -9.793  0.00  0.00    -0.283 OA
BRANCH  31  33
ATOM     33  C   LIG d   1       3.278   0.234 -10.633  0.00  0.00     0.025 A 
ATOM     34  C   LIG d   1       2.034  -0.397 -10.574  0.00  0.00    -0.049 A 
ATOM     35  C   LIG d   1       1.639  -1.232 -11.597  0.00  0.00    -0.043 A 
ATOM     36  H   LIG d   1       1.383  -0.232  -9.728  0.00  0.00     0.062 H 
ATOM     37  C   LIG d   1       2.474  -1.445 -12.683  0.00  0.00     0.041 A 
ATOM     38  H   LIG d   1       0.677  -1.721 -11.553  0.00  0.00     0.063 H 
ATOM     39  C   LIG d   1       3.709  -0.822 -12.746  0.00  0.00    -0.043 A 
ATOM     40 CL   LIG d   1       1.970  -2.498 -13.967  0.00  0.00    -0.084 Cl
ATOM     41  C   LIG d   1       4.113   0.020 -11.731  0.00  0.00    -0.049 A 
ATOM     42  H   LIG d   1       4.356  -0.992 -13.594  0.00  0.00     0.063 H 
ATOM     43  H   LIG d   1       5.074   0.509 -11.785  0.00  0.00     0.062 H 
ENDBRANCH  31  33
ENDBRANCH   9  31
TORSDOF 7
ENDMDL
MODEL 5
REMARK VINA RESULT:      -6.2      3.921      6.490
REMARK  7 active torsions:
REMARK  status: ('A' for Active; 'I' for Inactive)
REMARK    1  A    between atoms: C_1  and  C_2 
REMARK    2  A    between atoms: C_2  and  C_3 
REMARK    3  A    between atoms: C_2  and  C_4 
REMARK    4  A    between atoms: C_2  and  C_5 
REMARK       I    between atoms: C_5  and  N_7 
REMARK    5  A    between atoms: N_7  and  C_8 
REMARK    6  A    between atoms: C_16  and  C_17 
REMARK    7  A    between atoms: C_17  and  C_19 
ROOT
ATOM      1  C   LIG d   1       4.928  -1.359  -6.833  0.00  0.00     0.091 A 
ATOM      2  C   LIG d   1       4.732  -1.250  -5.382  0.00  0.00     0.043 A 
ATOM      3  C   LIG d   1       4.625  -0.176  -4.498  0.00  0.00    -0.035 A 
ATOM      4  C   LIG d   1       4.438  -0.413  -3.164  0.00  0.00     0.019 A 
ATOM      5  C   LIG d   1       4.358  -1.714  -2.686  0.00  0.00    -0.044 A 
ATOM      6  C   LIG d   1       4.454  -2.788  -3.546  0.00  0.00    -0.018 A 
ATOM      7  C   LIG d   1       4.647  -2.570  -4.906  0.00  0.00     0.138 A 
ATOM      8  O   LIG d   1       4.786  -3.403  -5.956  0.00  0.00    -0.450 OA
ATOM      9  C   LIG d   1       4.954  -2.712  -7.106  0.00  0.00     0.197 A 
ATOM     10 BR   LIG d   1       4.293   1.040  -1.962  0.00  0.00    -0.050 Br
ATOM     11  H   LIG d   1       4.687   0.838  -4.864  0.00  0.00     0.064 H 
ATOM     12  H   LIG d   1       4.212  -1.888  -1.630  0.00  0.00     0.063 H 
ATOM     13  H   LIG d   1       4.391  -3.795  -3.163  0.00  0.00     0.066 H 
ENDROOT
BRANCH   1  14
ATOM     14  N   LIG d   1       5.066  -0.317  -7.741  0.00  0.00    -0.281 N 
ATOM     15  C   LIG d   1       3.973   0.314  -8.211  0.00  0.00     0.223 C 
ATOM     16  O   LIG d   1       2.867  -0.069  -7.896  0.00  0.00    -0.275 OA
ATOM     17  H   LIG d   1       5.949  -0.045  -8.036  0.00  0.00     0.155 HD
BRANCH  15  18
ATOM     18  C   LIG d   1       4.125   1.502  -9.127  0.00  0.00     0.039 C 
BRANCH  18  19
ATOM     19  C   LIG d   1       3.797   1.086 -10.563  0.00  0.00    -0.052 C 
ATOM     20  H   LIG d   1       4.674   1.233 -11.193  0.00  0.00     0.024 H 
ATOM     21  H   LIG d   1       3.511   0.034 -10.579  0.00  0.00     0.024 H 
ATOM     22  H   LIG d   1       2.973   1.693 -10.937  0.00  0.00     0.024 H 
ENDBRANCH  18  19
BRANCH  18  23
ATOM     23  C   LIG d   1       3.168   2.611  -8.687  0.00  0.00    -0.052 C 
ATOM     24  H   LIG d   1       3.353   2.857  -7.641  0.00  0.00     0.024 H 
ATOM     25  H   LIG d   1       3.330   3.497  -9.302  0.00  0.00     0.024 H 
ATOM     26  H   LIG d   1       2.139   2.271  -8.803  0.00  0.00     0.024 H 
ENDBRANCH  18  23
BRANCH  18  27
ATOM     27  C   LIG d   1       5.566   2.016  -9.062  0.00  0.00    -0.052 C 
ATOM     28  H   LIG d   1       6.254   1.188  -9.234  0.00  0.00     0.024 H 
ATOM     29  H   LIG d   1       5.714   2.778  -9.826  0.00  0.00     0.024 H 
ATOM     30  H   LIG d   1       5.753   2.446  -8.079  0.00  0.00     0.024 H 
ENDBRANCH  18  27
ENDBRANCH  15  18
ENDBRANCH   1  14
BRANCH   9  31
ATOM     31  C   LIG d   1       5.128  -3.287  -8.389  0.00  0.00     0.230 C 
ATOM     32  O   LIG d   1       6.075  -4.024  -8.602  0.00  0.00    -0.283 OA
BRANCH  31  33
ATOM     33  C   LIG d   1       4.163  -2.991  -9.470  0.00  0.00     0.025 A 
ATOM     34  C   LIG d   1       2.793  -3.140  -9.246  0.00  0.00    -0.049 A 
ATOM     35  C   LIG d   1       1.898  -2.863 -10.257  0.00  0.00    -0.043 A 
ATOM     36  H   LIG d   1       2.435  -3.472  -8.283  0.00  0.00     0.062 H 
ATOM     37  C   LIG d   1       2.355  -2.437 -11.494  0.00  0.00     0.041 A 
ATOM     38  H   LIG d   1       0.838  -2.978 -10.085  0.00  0.00     0.063 H 
ATOM     39  C   LIG d   1       3.713  -2.289 -11.722  0.00  0.00    -0.043 A 
ATOM     40 CL   LIG d   1       1.223  -2.091 -12.763  0.00  0.00    -0.084 Cl
ATOM     41  C   LIG d   1       4.619  -2.557 -10.716  0.00  0.00    -0.049 A 
ATOM     42  H   LIG d   1       4.064  -1.957 -12.688  0.00  0.00     0.063 H 
ATOM     43  H   LIG d   1       5.676  -2.435 -10.894  0.00  0.00     0.062 H 
ENDBRANCH  31  33
ENDBRANCH   9  31
TORSDOF 7
ENDMDL
MODEL 6
REMARK VINA RESULT:      -6.2      4.082      5.401
REMARK  7 active torsions:
REMARK  status: ('A' for Active; 'I' for Inactive)
REMARK    1  A    between atoms: C_1  and  C_2 
REMARK    2  A    between atoms: C_2  and  C_3 
REMARK    3  A    between atoms: C_2  and  C_4 
REMARK    4  A    between atoms: C_2  and  C_5 
REMARK       I    between atoms: C_5  and  N_7 
REMARK    5  A    between atoms: N_7  and  C_8 
REMARK    6  A    between atoms: C_16  and  C_17 
REMARK    7  A    between atoms: C_17  and  C_19 
ROOT
ATOM      1  C   LIG d   1       6.502  -0.139  -5.495  0.00  0.00     0.091 A 
ATOM      2  C   LIG d   1       7.485   0.921  -5.750  0.00  0.00     0.043 A 
ATOM      3  C   LIG d   1       8.131   1.858  -4.943  0.00  0.00    -0.035 A 
ATOM      4  C   LIG d   1       9.021   2.734  -5.500  0.00  0.00     0.019 A 
ATOM      5  C   LIG d   1       9.284   2.697  -6.862  0.00  0.00    -0.044 A 
ATOM      6  C   LIG d   1       8.662   1.773  -7.675  0.00  0.00    -0.018 A 
ATOM      7  C   LIG d   1       7.750   0.875  -7.130  0.00  0.00     0.138 A 
ATOM      8  O   LIG d   1       6.999  -0.106  -7.667  0.00  0.00    -0.450 OA
ATOM      9  C   LIG d   1       6.252  -0.721  -6.722  0.00  0.00     0.197 A 
ATOM     10 BR   LIG d   1       9.897   4.006  -4.408  0.00  0.00    -0.050 Br
ATOM     11  H   LIG d   1       7.929   1.892  -3.882  0.00  0.00     0.064 H 
ATOM     12  H   LIG d   1       9.988   3.395  -7.290  0.00  0.00     0.063 H 
ATOM     13  H   LIG d   1       8.873   1.754  -8.733  0.00  0.00     0.066 H 
ENDROOT
BRANCH   1  14
ATOM     14  N   LIG d   1       5.936  -0.480  -4.273  0.00  0.00    -0.281 N 
ATOM     15  C   LIG d   1       4.695  -0.059  -3.964  0.00  0.00     0.223 C 
ATOM     16  O   LIG d   1       4.096   0.675  -4.723  0.00  0.00    -0.275 OA
ATOM     17  H   LIG d   1       6.436  -1.023  -3.643  0.00  0.00     0.155 HD
BRANCH  15  18
ATOM     18  C   LIG d   1       4.047  -0.502  -2.678  0.00  0.00     0.039 C 
BRANCH  18  19
ATOM     19  C   LIG d   1       2.527  -0.530  -2.854  0.00  0.00    -0.052 C 
ATOM     20  H   LIG d   1       2.048  -0.545  -1.876  0.00  0.00     0.024 H 
ATOM     21  H   LIG d   1       2.209   0.358  -3.401  0.00  0.00     0.024 H 
ATOM     22  H   LIG d   1       2.243  -1.422  -3.412  0.00  0.00     0.024 H 
ENDBRANCH  18  19
BRANCH  18  23
ATOM     23  C   LIG d   1       4.543  -1.902  -2.313  0.00  0.00    -0.052 C 
ATOM     24  H   LIG d   1       4.837  -2.432  -3.220  0.00  0.00     0.024 H 
ATOM     25  H   LIG d   1       5.402  -1.822  -1.647  0.00  0.00     0.024 H 
ATOM     26  H   LIG d   1       3.746  -2.453  -1.814  0.00  0.00     0.024 H 
ENDBRANCH  18  23
BRANCH  18  27
ATOM     27  C   LIG d   1       4.413   0.476  -1.558  0.00  0.00    -0.052 C 
ATOM     28  H   LIG d   1       5.325   1.009  -1.826  0.00  0.00     0.024 H 
ATOM     29  H   LIG d   1       3.601   1.189  -1.420  0.00  0.00     0.024 H 
ATOM     30  H   LIG d   1       4.573  -0.076  -0.632  0.00  0.00     0.024 H 
ENDBRANCH  18  27
ENDBRANCH  15  18
ENDBRANCH   1  14
BRANCH   9  31
ATOM     31  C   LIG d   1       5.355  -1.792  -6.954  0.00  0.00     0.230 C 
ATOM     32  O   LIG d   1       5.496  -2.844  -6.356  0.00  0.00    -0.283 OA
BRANCH  31  33
ATOM     33  C   LIG d   1       4.249  -1.634  -7.922  0.00  0.00     0.025 A 
ATOM     34  C   LIG d   1       3.984  -2.641  -8.853  0.00  0.00    -0.049 A 
ATOM     35  C   LIG d   1       2.952  -2.488  -9.754  0.00  0.00    -0.043 A 
ATOM     36  H   LIG d   1       4.587  -3.537  -8.868  0.00  0.00     0.062 H 
ATOM     37  C   LIG d   1       2.178  -1.339  -9.737  0.00  0.00     0.041 A 
ATOM     38  H   LIG d   1       2.746  -3.266 -10.475  0.00  0.00     0.063 H 
ATOM     39  C   LIG d   1       2.436  -0.337  -8.816  0.00  0.00    -0.043 A 
ATOM     40 CL   LIG d   1       0.880  -1.153 -10.874  0.00  0.00    -0.084 Cl
ATOM     41  C   LIG d   1       3.463  -0.481  -7.906  0.00  0.00    -0.049 A 
ATOM     42  H   LIG d   1       1.830   0.556  -8.807  0.00  0.00     0.063 H 
ATOM     43  H   LIG d   1       3.659   0.298  -7.185  0.00  0.00     0.062 H 
ENDBRANCH  31  33
ENDBRANCH   9  31
TORSDOF 7
ENDMDL
MODEL 7
REMARK VINA RESULT:      -6.2      3.897      4.737
REMARK  7 active torsions:
REMARK  status: ('A' for Active; 'I' for Inactive)
REMARK    1  A    between atoms: C_1  and  C_2 
REMARK    2  A    between atoms: C_2  and  C_3 
REMARK    3  A    between atoms: C_2  and  C_4 
REMARK    4  A    between atoms: C_2  and  C_5 
REMARK       I    between atoms: C_5  and  N_7 
REMARK    5  A    between atoms: N_7  and  C_8 
REMARK    6  A    between atoms: C_16  and  C_17 
REMARK    7  A    between atoms: C_17  and  C_19 
ROOT
ATOM      1  C   LIG d   1       7.758  -0.138  -4.131  0.00  0.00     0.091 A 
ATOM      2  C   LIG d   1       8.525   1.020  -4.608  0.00  0.00     0.043 A 
ATOM      3  C   LIG d   1       8.463   2.391  -4.360  0.00  0.00    -0.035 A 
ATOM      4  C   LIG d   1       9.346   3.232  -4.978  0.00  0.00     0.019 A 
ATOM      5  C   LIG d   1      10.301   2.729  -5.852  0.00  0.00    -0.044 A 
ATOM      6  C   LIG d   1      10.383   1.376  -6.103  0.00  0.00    -0.018 A 
ATOM      7  C   LIG d   1       9.492   0.503  -5.488  0.00  0.00     0.138 A 
ATOM      8  O   LIG d   1       9.329  -0.833  -5.551  0.00  0.00    -0.450 OA
ATOM      9  C   LIG d   1       8.310  -1.237  -4.758  0.00  0.00     0.197 A 
ATOM     10 BR   LIG d   1       9.265   5.092  -4.645  0.00  0.00    -0.050 Br
ATOM     11  H   LIG d   1       7.722   2.788  -3.682  0.00  0.00     0.064 H 
ATOM     12  H   LIG d   1      10.993   3.404  -6.334  0.00  0.00     0.063 H 
ATOM     13  H   LIG d   1      11.129   0.997  -6.785  0.00  0.00     0.066 H 
ENDROOT
BRANCH   1  14
ATOM     14  N   LIG d   1       6.694  -0.128  -3.239  0.00  0.00    -0.281 N 
ATOM     15  C   LIG d   1       5.432  -0.026  -3.697  0.00  0.00     0.223 C 
ATOM     16  O   LIG d   1       5.226   0.124  -4.883  0.00  0.00    -0.275 OA
ATOM     17  H   LIG d   1       6.860  -0.194  -2.285  0.00  0.00     0.155 HD
BRANCH  15  18
ATOM     18  C   LIG d   1       4.273  -0.104  -2.736  0.00  0.00     0.039 C 
BRANCH  18  19
ATOM     19  C   LIG d   1       4.342   1.069  -1.756  0.00  0.00    -0.052 C 
ATOM     20  H   LIG d   1       5.153   0.904  -1.048  0.00  0.00     0.024 H 
ATOM     21  H   LIG d   1       4.523   1.992  -2.307  0.00  0.00     0.024 H 
ATOM     22  H   LIG d   1       3.398   1.148  -1.216  0.00  0.00     0.024 H 
ENDBRANCH  18  19
BRANCH  18  23
ATOM     23  C   LIG d   1       2.958  -0.039  -3.516  0.00  0.00    -0.052 C 
ATOM     24  H   LIG d   1       3.168   0.169  -4.566  0.00  0.00     0.024 H 
ATOM     25  H   LIG d   1       2.439  -0.995  -3.434  0.00  0.00     0.024 H 
ATOM     26  H   LIG d   1       2.331   0.752  -3.107  0.00  0.00     0.024 H 
ENDBRANCH  18  23
BRANCH  18  27
ATOM     27  C   LIG d   1       4.341  -1.421  -1.959  0.00  0.00    -0.052 C 
ATOM     28  H   LIG d   1       4.854  -2.171  -2.562  0.00  0.00     0.024 H 
ATOM     29  H   LIG d   1       4.886  -1.266  -1.029  0.00  0.00     0.024 H 
ATOM     30  H   LIG d   1       3.331  -1.764  -1.736  0.00  0.00     0.024 H 
ENDBRANCH  18  27
ENDBRANCH  15  18
ENDBRANCH   1  14
BRANCH   9  31
ATOM     31  C   LIG d   1       7.878  -2.576  -4.596  0.00  0.00     0.230 C 
ATOM     32  O   LIG d   1       8.399  -3.286  -3.754  0.00  0.00    -0.283 OA
BRANCH  31  33
ATOM     33  C   LIG d   1       6.797  -3.113  -5.451  0.00  0.00     0.025 A 
ATOM     34  C   LIG d   1       6.968  -3.185  -6.835  0.00  0.00    -0.049 A 
ATOM     35  C   LIG d   1       5.956  -3.686  -7.626  0.00  0.00    -0.043 A 
ATOM     36  H   LIG d   1       7.890  -2.849  -7.284  0.00  0.00     0.062 H 
ATOM     37  C   LIG d   1       4.772  -4.118  -7.050  0.00  0.00     0.041 A 
ATOM     38  H   LIG d   1       6.087  -3.742  -8.696  0.00  0.00     0.063 H 
ATOM     39  C   LIG d   1       4.596  -4.048  -5.678  0.00  0.00    -0.043 A 
ATOM     40 CL   LIG d   1       3.502  -4.747  -8.052  0.00  0.00    -0.084 Cl
ATOM     41  C   LIG d   1       5.604  -3.554  -4.875  0.00  0.00    -0.049 A 
ATOM     42  H   LIG d   1       3.671  -4.386  -5.235  0.00  0.00     0.063 H 
ATOM     43  H   LIG d   1       5.468  -3.505  -3.806  0.00  0.00     0.062 H 
ENDBRANCH  31  33
ENDBRANCH   9  31
TORSDOF 7
ENDMDL
MODEL 8
REMARK VINA RESULT:      -6.0      4.337      7.341
REMARK  7 active torsions:
REMARK  status: ('A' for Active; 'I' for Inactive)
REMARK    1  A    between atoms: C_1  and  C_2 
REMARK    2  A    between atoms: C_2  and  C_3 
REMARK    3  A    between atoms: C_2  and  C_4 
REMARK    4  A    between atoms: C_2  and  C_5 
REMARK       I    between atoms: C_5  and  N_7 
REMARK    5  A    between atoms: N_7  and  C_8 
REMARK    6  A    between atoms: C_16  and  C_17 
REMARK    7  A    between atoms: C_17  and  C_19 
ROOT
ATOM      1  C   LIG d   1       4.801  -0.111  -7.404  0.00  0.00     0.091 A 
ATOM      2  C   LIG d   1       4.162  -0.294  -6.095  0.00  0.00     0.043 A 
ATOM      3  C   LIG d   1       4.505  -0.997  -4.940  0.00  0.00    -0.035 A 
ATOM      4  C   LIG d   1       3.673  -0.966  -3.855  0.00  0.00     0.019 A 
ATOM      5  C   LIG d   1       2.490  -0.240  -3.898  0.00  0.00    -0.044 A 
ATOM      6  C   LIG d   1       2.139   0.468  -5.028  0.00  0.00    -0.018 A 
ATOM      7  C   LIG d   1       2.969   0.447  -6.144  0.00  0.00     0.138 A 
ATOM      8  O   LIG d   1       2.880   1.018  -7.361  0.00  0.00    -0.450 OA
ATOM      9  C   LIG d   1       3.951   0.703  -8.125  0.00  0.00     0.197 A 
ATOM     10 BR   LIG d   1       4.133  -1.919  -2.288  0.00  0.00    -0.050 Br
ATOM     11  H   LIG d   1       5.423  -1.565  -4.901  0.00  0.00     0.064 H 
ATOM     12  H   LIG d   1       1.841  -0.224  -3.035  0.00  0.00     0.063 H 
ATOM     13  H   LIG d   1       1.216   1.028  -5.050  0.00  0.00     0.066 H 
ENDROOT
BRANCH   1  14
ATOM     14  N   LIG d   1       6.008  -0.651  -7.829  0.00  0.00    -0.281 N 
ATOM     15  C   LIG d   1       7.163  -0.012  -7.563  0.00  0.00     0.223 C 
ATOM     16  O   LIG d   1       7.146   1.068  -7.012  0.00  0.00    -0.275 OA
ATOM     17  H   LIG d   1       6.019  -1.489  -8.318  0.00  0.00     0.155 HD
BRANCH  15  18
ATOM     18  C   LIG d   1       8.478  -0.641  -7.947  0.00  0.00     0.039 C 
BRANCH  18  19
ATOM     19  C   LIG d   1       8.963  -1.544  -6.812  0.00  0.00    -0.052 C 
ATOM     20  H   LIG d   1       8.176  -2.251  -6.549  0.00  0.00     0.024 H 
ATOM     21  H   LIG d   1       9.848  -2.091  -7.135  0.00  0.00     0.024 H 
ATOM     22  H   LIG d   1       9.210  -0.935  -5.942  0.00  0.00     0.024 H 
ENDBRANCH  18  19
BRANCH  18  23
ATOM     23  C   LIG d   1       8.294  -1.473  -9.217  0.00  0.00    -0.052 C 
ATOM     24  H   LIG d   1       7.655  -2.330  -9.001  0.00  0.00     0.024 H 
ATOM     25  H   LIG d   1       7.829  -0.860  -9.990  0.00  0.00     0.024 H 
ATOM     26  H   LIG d   1       9.265  -1.824  -9.567  0.00  0.00     0.024 H 
ENDBRANCH  18  23
BRANCH  18  27
ATOM     27  C   LIG d   1       9.514   0.457  -8.203  0.00  0.00    -0.052 C 
ATOM     28  H   LIG d   1      10.199   0.514  -7.356  0.00  0.00     0.024 H 
ATOM     29  H   LIG d   1      10.073   0.225  -9.109  0.00  0.00     0.024 H 
ATOM     30  H   LIG d   1       9.006   1.414  -8.323  0.00  0.00     0.024 H 
ENDBRANCH  18  27
ENDBRANCH  15  18
ENDBRANCH   1  14
BRANCH   9  31
ATOM     31  C   LIG d   1       4.166   1.140  -9.455  0.00  0.00     0.230 C 
ATOM     32  O   LIG d   1       4.741   2.194  -9.664  0.00  0.00    -0.283 OA
BRANCH  31  33
ATOM     33  C   LIG d   1       3.692   0.319 -10.590  0.00  0.00     0.025 A 
ATOM     34  C   LIG d   1       4.500   0.145 -11.715  0.00  0.00    -0.049 A 
ATOM     35  C   LIG d   1       4.053  -0.622 -12.770  0.00  0.00    -0.043 A 
ATOM     36  H   LIG d   1       5.473   0.612 -11.760  0.00  0.00     0.062 H 
ATOM     37  C   LIG d   1       2.804  -1.220 -12.714  0.00  0.00     0.041 A 
ATOM     38  H   LIG d   1       4.677  -0.756 -13.641  0.00  0.00     0.063 H 
ATOM     39  C   LIG d   1       1.998  -1.051 -11.601  0.00  0.00    -0.043 A 
ATOM     40 CL   LIG d   1       2.247  -2.184 -14.046  0.00  0.00    -0.084 Cl
ATOM     41  C   LIG d   1       2.437  -0.291 -10.537  0.00  0.00    -0.049 A 
ATOM     42  H   LIG d   1       1.026  -1.520 -11.563  0.00  0.00     0.063 H 
ATOM     43  H   LIG d   1       1.810  -0.164  -9.667  0.00  0.00     0.062 H 
ENDBRANCH  31  33
ENDBRANCH   9  31
TORSDOF 7
ENDMDL
MODEL 9
REMARK VINA RESULT:      -5.9      3.593      4.282
REMARK  7 active torsions:
REMARK  status: ('A' for Active; 'I' for Inactive)
REMARK    1  A    between atoms: C_1  and  C_2 
REMARK    2  A    between atoms: C_2  and  C_3 
REMARK    3  A    between atoms: C_2  and  C_4 
REMARK    4  A    between atoms: C_2  and  C_5 
REMARK       I    between atoms: C_5  and  N_7 
REMARK    5  A    between atoms: N_7  and  C_8 
REMARK    6  A    between atoms: C_16  and  C_17 
REMARK    7  A    between atoms: C_17  and  C_19 
ROOT
ATOM      1  C   LIG d   1       6.614   0.285  -5.431  0.00  0.00     0.091 A 
ATOM      2  C   LIG d   1       7.814   1.106  -5.223  0.00  0.00     0.043 A 
ATOM      3  C   LIG d   1       8.186   2.052  -4.269  0.00  0.00    -0.035 A 
ATOM      4  C   LIG d   1       9.410   2.656  -4.354  0.00  0.00     0.019 A 
ATOM      5  C   LIG d   1      10.282   2.334  -5.386  0.00  0.00    -0.044 A 
ATOM      6  C   LIG d   1       9.934   1.395  -6.334  0.00  0.00    -0.018 A 
ATOM      7  C   LIG d   1       8.693   0.771  -6.268  0.00  0.00     0.138 A 
ATOM      8  O   LIG d   1       8.090  -0.153  -7.042  0.00  0.00    -0.450 OA
ATOM      9  C   LIG d   1       6.861  -0.457  -6.569  0.00  0.00     0.197 A 
ATOM     10 BR   LIG d   1       9.918   3.940  -3.062  0.00  0.00    -0.050 Br
ATOM     11  H   LIG d   1       7.512   2.307  -3.464  0.00  0.00     0.064 H 
ATOM     12  H   LIG d   1      11.245   2.818  -5.443  0.00  0.00     0.063 H 
ATOM     13  H   LIG d   1      10.620   1.153  -7.132  0.00  0.00     0.066 H 
ENDROOT
BRANCH   1  14
ATOM     14  N   LIG d   1       5.467   0.264  -4.648  0.00  0.00    -0.281 N 
ATOM     15  C   LIG d   1       5.436  -0.468  -3.518  0.00  0.00     0.223 C 
ATOM     16  O   LIG d   1       6.384  -1.163  -3.219  0.00  0.00    -0.275 OA
ATOM     17  H   LIG d   1       4.689   0.778  -4.915  0.00  0.00     0.155 HD
BRANCH  15  18
ATOM     18  C   LIG d   1       4.224  -0.421  -2.623  0.00  0.00     0.039 C 
BRANCH  18  19
ATOM     19  C   LIG d   1       4.043  -1.776  -1.937  0.00  0.00    -0.052 C 
ATOM     20  H   LIG d   1       3.136  -2.253  -2.308  0.00  0.00     0.024 H 
ATOM     21  H   LIG d   1       4.901  -2.411  -2.154  0.00  0.00     0.024 H 
ATOM     22  H   LIG d   1       3.962  -1.631  -0.860  0.00  0.00     0.024 H 
ENDBRANCH  18  19
BRANCH  18  23
ATOM     23  C   LIG d   1       4.417   0.665  -1.562  0.00  0.00    -0.052 C 
ATOM     24  H   LIG d   1       5.147   0.328  -0.825  0.00  0.00     0.024 H 
ATOM     25  H   LIG d   1       4.777   1.578  -2.037  0.00  0.00     0.024 H 
ATOM     26  H   LIG d   1       3.466   0.863  -1.067  0.00  0.00     0.024 H 
ENDBRANCH  18  23
BRANCH  18  27
ATOM     27  C   LIG d   1       2.983  -0.102  -3.459  0.00  0.00    -0.052 C 
ATOM     28  H   LIG d   1       2.250   0.413  -2.839  0.00  0.00     0.024 H 
ATOM     29  H   LIG d   1       3.264   0.536  -4.297  0.00  0.00     0.024 H 
ATOM     30  H   LIG d   1       2.552  -1.029  -3.837  0.00  0.00     0.024 H 
ENDBRANCH  18  27
ENDBRANCH  15  18
ENDBRANCH   1  14
BRANCH   9  31
ATOM     31  C   LIG d   1       5.967  -1.390  -7.149  0.00  0.00     0.230 C 
ATOM     32  O   LIG d   1       5.196  -1.033  -8.021  0.00  0.00    -0.283 OA
BRANCH  31  33
ATOM     33  C   LIG d   1       5.969  -2.798  -6.695  0.00  0.00     0.025 A 
ATOM     34  C   LIG d   1       6.902  -3.699  -7.210  0.00  0.00    -0.049 A 
ATOM     35  C   LIG d   1       6.899  -5.010  -6.783  0.00  0.00    -0.043 A 
ATOM     36  H   LIG d   1       7.625  -3.370  -7.942  0.00  0.00     0.062 H 
ATOM     37  C   LIG d   1       5.972  -5.434  -5.845  0.00  0.00     0.041 A 
ATOM     38  H   LIG d   1       7.621  -5.708  -7.181  0.00  0.00     0.063 H 
ATOM     39  C   LIG d   1       5.043  -4.544  -5.331  0.00  0.00    -0.043 A 
ATOM     40 CL   LIG d   1       5.973  -7.086  -5.312  0.00  0.00    -0.084 Cl
ATOM     41  C   LIG d   1       5.040  -3.229  -5.746  0.00  0.00    -0.049 A 
ATOM     42  H   LIG d   1       4.323  -4.880  -4.599  0.00  0.00     0.063 H 
ATOM     43  H   LIG d   1       4.319  -2.536  -5.340  0.00  0.00     0.062 H 
ENDBRANCH  31  33
ENDBRANCH   9  31
TORSDOF 7
ENDMDL
MODEL 10
REMARK VINA RESULT:      -5.8      4.157      5.247
REMARK  7 active torsions:
REMARK  status: ('A' for Active; 'I' for Inactive)
REMARK    1  A    between atoms: C_1  and  C_2 
REMARK    2  A    between atoms: C_2  and  C_3 
REMARK    3  A    between atoms: C_2  and  C_4 
REMARK    4  A    between atoms: C_2  and  C_5 
REMARK       I    between atoms: C_5  and  N_7 
REMARK    5  A    between atoms: N_7  and  C_8 
REMARK    6  A    between atoms: C_16  and  C_17 
REMARK    7  A    between atoms: C_17  and  C_19 
ROOT
ATOM      1  C   LIG d   1       6.404  -0.037  -6.979  0.00  0.00     0.091 A 
ATOM      2  C   LIG d   1       5.344   0.269  -7.948  0.00  0.00     0.043 A 
ATOM      3  C   LIG d   1       4.088  -0.278  -8.214  0.00  0.00    -0.035 A 
ATOM      4  C   LIG d   1       3.317   0.250  -9.213  0.00  0.00     0.019 A 
ATOM      5  C   LIG d   1       3.778   1.323  -9.963  0.00  0.00    -0.044 A 
ATOM      6  C   LIG d   1       5.013   1.882  -9.709  0.00  0.00    -0.018 A 
ATOM      7  C   LIG d   1       5.815   1.359  -8.700  0.00  0.00     0.138 A 
ATOM      8  O   LIG d   1       7.041   1.683  -8.246  0.00  0.00    -0.450 OA
ATOM      9  C   LIG d   1       7.412   0.873  -7.228  0.00  0.00     0.197 A 
ATOM     10 BR   LIG d   1       1.615  -0.489  -9.578  0.00  0.00    -0.050 Br
ATOM     11  H   LIG d   1       3.726  -1.114  -7.635  0.00  0.00     0.064 H 
ATOM     12  H   LIG d   1       3.160   1.730 -10.750  0.00  0.00     0.063 H 
ATOM     13  H   LIG d   1       5.360   2.716 -10.300  0.00  0.00     0.066 H 
ENDROOT
BRANCH   1  14
ATOM     14  N   LIG d   1       6.395  -1.037  -6.016  0.00  0.00    -0.281 N 
ATOM     15  C   LIG d   1       5.840  -0.806  -4.810  0.00  0.00     0.223 C 
ATOM     16  O   LIG d   1       5.409   0.295  -4.541  0.00  0.00    -0.275 OA
ATOM     17  H   LIG d   1       6.788  -1.902  -6.212  0.00  0.00     0.155 HD
BRANCH  15  18
ATOM     18  C   LIG d   1       5.751  -1.918  -3.796  0.00  0.00     0.039 C 
BRANCH  18  19
ATOM     19  C   LIG d   1       7.158  -2.299  -3.331  0.00  0.00    -0.052 C 
ATOM     20  H   LIG d   1       7.680  -1.407  -2.985  0.00  0.00     0.024 H 
ATOM     21  H   LIG d   1       7.089  -3.017  -2.514  0.00  0.00     0.024 H 
ATOM     22  H   LIG d   1       7.708  -2.743  -4.160  0.00  0.00     0.024 H 
ENDBRANCH  18  19
BRANCH  18  23
ATOM     23  C   LIG d   1       4.927  -1.449  -2.596  0.00  0.00    -0.052 C 
ATOM     24  H   LIG d   1       4.150  -2.182  -2.380  0.00  0.00     0.024 H 
ATOM     25  H   LIG d   1       5.577  -1.343  -1.727  0.00  0.00     0.024 H 
ATOM     26  H   LIG d   1       4.466  -0.488  -2.825  0.00  0.00     0.024 H 
ENDBRANCH  18  23
BRANCH  18  27
ATOM     27  C   LIG d   1       5.078  -3.137  -4.433  0.00  0.00    -0.052 C 
ATOM     28  H   LIG d   1       5.318  -4.028  -3.852  0.00  0.00     0.024 H 
ATOM     29  H   LIG d   1       3.999  -2.989  -4.446  0.00  0.00     0.024 H 
ATOM     30  H   LIG d   1       5.440  -3.260  -5.453  0.00  0.00     0.024 H 
ENDBRANCH  18  27
ENDBRANCH  15  18
ENDBRANCH   1  14
BRANCH   9  31
ATOM     31  C   LIG d   1       8.642   0.946  -6.529  0.00  0.00     0.230 C 
ATOM     32  O   LIG d   1       9.441   0.029  -6.606  0.00  0.00    -0.283 OA
BRANCH  31  33
ATOM     33  C   LIG d   1       8.955   2.133  -5.705  0.00  0.00     0.025 A 
ATOM     34  C   LIG d   1       9.417   3.304  -6.310  0.00  0.00    -0.049 A 
ATOM     35  C   LIG d   1       9.707   4.407  -5.537  0.00  0.00    -0.043 A 
ATOM     36  H   LIG d   1       9.547   3.345  -7.381  0.00  0.00     0.062 H 
ATOM     37  C   LIG d   1       9.542   4.357  -4.162  0.00  0.00     0.041 A 
ATOM     38  H   LIG d   1      10.064   5.313  -6.004  0.00  0.00     0.063 H 
ATOM     39  C   LIG d   1       9.085   3.198  -3.556  0.00  0.00    -0.043 A 
ATOM     40 CL   LIG d   1       9.910   5.750  -3.194  0.00  0.00    -0.084 Cl
ATOM     41  C   LIG d   1       8.786   2.089  -4.320  0.00  0.00    -0.049 A 
ATOM     42  H   LIG d   1       8.958   3.164  -2.484  0.00  0.00     0.063 H 
ATOM     43  H   LIG d   1       8.424   1.188  -3.847  0.00  0.00     0.062 H 
ENDBRANCH  31  33
ENDBRANCH   9  31
TORSDOF 7
ENDMDL
