MODEL 1
REMARK VINA RESULT:      -6.1      0.000      0.000
REMARK  7 active torsions:
REMARK  status: ('A' for Active; 'I' for Inactive)
REMARK    1  A    between atoms: C_1  and  C_2 
REMARK    2  A    between atoms: C_2  and  C_4 
REMARK    3  A    between atoms: C_2  and  C_8 
REMARK    4  A    between atoms: C_4  and  C_5 
REMARK    5  A    between atoms: C_5  and  C_6 
REMARK    6  A    between atoms: C_14  and  C_31 
REMARK    7  A    between atoms: C_25  and  C_30 
ROOT
ATOM      1  C   LIG d   1       4.467  -0.161 -10.247  0.00  0.00    -0.033 C 
ATOM      2  H   LIG d   1       5.398   0.366 -10.416  0.00  0.00     0.031 H 
ATOM      3  C   LIG d   1       3.252   0.785 -10.412  0.00  0.00    -0.049 C 
ATOM      4  C   LIG d   1       2.754   1.121  -8.980  0.00  0.00    -0.049 C 
ATOM      5  C   LIG d   1       3.928   0.683  -8.093  0.00  0.00    -0.032 C 
ATOM      6  H   LIG d   1       4.734   1.439  -8.213  0.00  0.00     0.031 H 
ATOM      7  C   LIG d   1       4.384  -0.624  -8.775  0.00  0.00    -0.026 C 
ATOM      8  C   LIG d   1       5.694  -1.106  -8.202  0.00  0.00    -0.047 C 
ATOM      9  C   LIG d   1       5.785  -0.792  -6.702  0.00  0.00    -0.049 C 
ATOM     10  C   LIG d   1       4.402  -0.700  -6.075  0.00  0.00    -0.032 C 
ATOM     11  H   LIG d   1       3.840  -1.608  -6.293  0.00  0.00     0.031 H 
ATOM     12  C   LIG d   1       3.656   0.514  -6.630  0.00  0.00    -0.034 C 
ATOM     13  H   LIG d   1       4.073   1.407  -6.123  0.00  0.00     0.031 H 
ATOM     14  C   LIG d   1       2.178   0.448  -6.265  0.00  0.00    -0.049 C 
ATOM     15  C   LIG d   1       2.050   0.080  -4.776  0.00  0.00    -0.049 C 
ATOM     16  C   LIG d   1       3.375   0.380  -4.094  0.00  0.00    -0.035 C 
ATOM     17  H   LIG d   1       3.685   1.391  -4.406  0.00  0.00     0.031 H 
ATOM     18  C   LIG d   1       4.459  -0.598  -4.552  0.00  0.00    -0.026 C 
ATOM     19  C   LIG d   1       5.808  -0.109  -4.040  0.00  0.00    -0.047 C 
ATOM     20  C   LIG d   1       5.775  -0.021  -2.510  0.00  0.00    -0.052 C 
ATOM     21  C   LIG d   1       4.641   0.880  -2.027  0.00  0.00    -0.053 C 
ATOM     22  C   LIG d   1       3.291   0.402  -2.574  0.00  0.00    -0.050 C 
ATOM     23  H   LIG d   1       2.464   0.288 -10.976  0.00  0.00     0.027 H 
ATOM     24  H   LIG d   1       3.559   1.697 -10.923  0.00  0.00     0.027 H 
ATOM     25  H   LIG d   1       1.847   0.571  -8.744  0.00  0.00     0.027 H 
ATOM     26  H   LIG d   1       2.585   2.196  -8.881  0.00  0.00     0.027 H 
ATOM     27  H   LIG d   1       5.789  -2.187  -8.353  0.00  0.00     0.027 H 
ATOM     28  H   LIG d   1       6.526  -0.616  -8.724  0.00  0.00     0.027 H 
ATOM     29  H   LIG d   1       6.361  -1.579  -6.206  0.00  0.00     0.027 H 
ATOM     30  H   LIG d   1       6.313   0.156  -6.565  0.00  0.00     0.027 H 
ATOM     31  H   LIG d   1       1.716   1.420  -6.432  0.00  0.00     0.027 H 
ATOM     32  H   LIG d   1       1.674  -0.305  -6.863  0.00  0.00     0.027 H 
ATOM     33  H   LIG d   1       1.262   0.692  -4.327  0.00  0.00     0.027 H 
ATOM     34  H   LIG d   1       1.786  -0.969  -4.681  0.00  0.00     0.027 H 
ATOM     35  H   LIG d   1       6.593  -0.807  -4.346  0.00  0.00     0.027 H 
ATOM     36  H   LIG d   1       6.024   0.877  -4.459  0.00  0.00     0.027 H 
ATOM     37  H   LIG d   1       5.676  -1.009  -2.069  0.00  0.00     0.026 H 
ATOM     38  H   LIG d   1       6.726   0.405  -2.165  0.00  0.00     0.026 H 
ATOM     39  H   LIG d   1       4.611   0.870  -0.938  0.00  0.00     0.026 H 
ATOM     40  H   LIG d   1       4.824   1.900  -2.368  0.00  0.00     0.026 H 
ATOM     41  H   LIG d   1       2.516   1.118  -2.272  0.00  0.00     0.027 H 
ATOM     42  H   LIG d   1       3.038  -0.571  -2.171  0.00  0.00     0.027 H 
ENDROOT
BRANCH   1  43
ATOM     43  C   LIG d   1       4.337  -1.368 -11.174  0.00  0.00    -0.040 C 
ATOM     44  H   LIG d   1       3.944  -2.216 -10.613  0.00  0.00     0.030 H 
BRANCH  43  45
ATOM     45  C   LIG d   1       5.711  -1.724 -11.743  0.00  0.00    -0.062 C 
ATOM     46  H   LIG d   1       6.298  -2.236 -10.982  0.00  0.00     0.023 H 
ATOM     47  H   LIG d   1       5.588  -2.377 -12.607  0.00  0.00     0.023 H 
ATOM     48  H   LIG d   1       6.226  -0.812 -12.048  0.00  0.00     0.023 H 
ENDBRANCH  43  45
BRANCH  43  49
ATOM     49  C   LIG d   1       3.382  -1.029 -12.320  0.00  0.00    -0.045 C 
ATOM     50  H   LIG d   1       2.781  -0.161 -12.048  0.00  0.00     0.027 H 
ATOM     51  H   LIG d   1       3.958  -0.804 -13.218  0.00  0.00     0.027 H 
BRANCH  49  52
ATOM     52  C   LIG d   1       2.464  -2.223 -12.588  0.00  0.00    -0.013 C 
ATOM     53  H   LIG d   1       2.220  -2.262 -13.650  0.00  0.00     0.033 H 
ATOM     54  H   LIG d   1       2.970  -3.143 -12.298  0.00  0.00     0.033 H 
BRANCH  52  55
ATOM     55  C   LIG d   1       1.196  -2.073 -11.787  0.00  0.00     0.042 C 
ATOM     56  O   LIG d   1       0.493  -1.102 -11.945  0.00  0.00    -0.550 OA
ATOM     57  O   LIG d   1       0.847  -3.016 -10.899  0.00  0.00    -0.550 OA
ENDBRANCH  52  55
ENDBRANCH  49  52
ENDBRANCH  43  49
ENDBRANCH   1  43
BRANCH   7  58
ATOM     58  C   LIG d   1       3.319  -1.720  -8.714  0.00  0.00    -0.059 C 
ATOM     59  H   LIG d   1       2.401  -1.362  -9.179  0.00  0.00     0.024 H 
ATOM     60  H   LIG d   1       3.123  -1.978  -7.673  0.00  0.00     0.024 H 
ATOM     61  H   LIG d   1       3.676  -2.602  -9.246  0.00  0.00     0.024 H 
ENDBRANCH   7  58
BRANCH  18  62
ATOM     62  C   LIG d   1       4.181  -1.995  -3.991  0.00  0.00    -0.059 C 
ATOM     63  H   LIG d   1       4.631  -2.087  -3.002  0.00  0.00     0.024 H 
ATOM     64  H   LIG d   1       3.105  -2.151  -3.917  0.00  0.00     0.024 H 
ATOM     65  H   LIG d   1       4.611  -2.746  -4.655  0.00  0.00     0.024 H 
ENDBRANCH  18  62
TORSDOF 7
ENDMDL
MODEL 2
REMARK VINA RESULT:      -6.0      3.059      7.248
REMARK  7 active torsions:
REMARK  status: ('A' for Active; 'I' for Inactive)
REMARK    1  A    between atoms: C_1  and  C_2 
REMARK    2  A    between atoms: C_2  and  C_4 
REMARK    3  A    between atoms: C_2  and  C_8 
REMARK    4  A    between atoms: C_4  and  C_5 
REMARK    5  A    between atoms: C_5  and  C_6 
REMARK    6  A    between atoms: C_14  and  C_31 
REMARK    7  A    between atoms: C_25  and  C_30 
ROOT
ATOM      1  C   LIG d   1       3.221  -1.096  -4.731  0.00  0.00    -0.033 C 
ATOM      2  H   LIG d   1       2.546  -1.942  -4.693  0.00  0.00     0.031 H 
ATOM      3  C   LIG d   1       2.438   0.241  -4.715  0.00  0.00    -0.049 C 
ATOM      4  C   LIG d   1       2.460   0.785  -6.170  0.00  0.00    -0.049 C 
ATOM      5  C   LIG d   1       2.893  -0.439  -6.990  0.00  0.00    -0.032 C 
ATOM      6  H   LIG d   1       2.024  -1.129  -7.041  0.00  0.00     0.031 H 
ATOM      7  C   LIG d   1       3.967  -1.076  -6.084  0.00  0.00    -0.026 C 
ATOM      8  C   LIG d   1       4.364  -2.441  -6.592  0.00  0.00    -0.047 C 
ATOM      9  C   LIG d   1       4.338  -2.485  -8.126  0.00  0.00    -0.049 C 
ATOM     10  C   LIG d   1       4.562  -1.101  -8.719  0.00  0.00    -0.032 C 
ATOM     11  H   LIG d   1       5.479  -0.674  -8.314  0.00  0.00     0.031 H 
ATOM     12  C   LIG d   1       3.379  -0.191  -8.385  0.00  0.00    -0.034 C 
ATOM     13  H   LIG d   1       2.552  -0.476  -9.065  0.00  0.00     0.031 H 
ATOM     14  C   LIG d   1       3.720   1.263  -8.688  0.00  0.00    -0.049 C 
ATOM     15  C   LIG d   1       4.383   1.340 -10.074  0.00  0.00    -0.049 C 
ATOM     16  C   LIG d   1       4.040   0.072 -10.839  0.00  0.00    -0.035 C 
ATOM     17  H   LIG d   1       2.955  -0.092 -10.736  0.00  0.00     0.031 H 
ATOM     18  C   LIG d   1       4.750  -1.141 -10.234  0.00  0.00    -0.026 C 
ATOM     19  C   LIG d   1       4.188  -2.406 -10.869  0.00  0.00    -0.047 C 
ATOM     20  C   LIG d   1       4.403  -2.358 -12.386  0.00  0.00    -0.052 C 
ATOM     21  C   LIG d   1       3.780  -1.108 -12.999  0.00  0.00    -0.053 C 
ATOM     22  C   LIG d   1       4.325   0.161 -12.332  0.00  0.00    -0.050 C 
ATOM     23  H   LIG d   1       2.922   0.950  -4.044  0.00  0.00     0.027 H 
ATOM     24  H   LIG d   1       1.411   0.067  -4.397  0.00  0.00     0.027 H 
ATOM     25  H   LIG d   1       3.165   1.605  -6.270  0.00  0.00     0.027 H 
ATOM     26  H   LIG d   1       1.458   1.105  -6.468  0.00  0.00     0.027 H 
ATOM     27  H   LIG d   1       5.371  -2.688  -6.238  0.00  0.00     0.027 H 
ATOM     28  H   LIG d   1       3.672  -3.196  -6.197  0.00  0.00     0.027 H 
ATOM     29  H   LIG d   1       5.118  -3.165  -8.478  0.00  0.00     0.027 H 
ATOM     30  H   LIG d   1       3.370  -2.872  -8.458  0.00  0.00     0.027 H 
ATOM     31  H   LIG d   1       2.807   1.859  -8.697  0.00  0.00     0.027 H 
ATOM     32  H   LIG d   1       4.404   1.655  -7.942  0.00  0.00     0.027 H 
ATOM     33  H   LIG d   1       3.985   2.207 -10.609  0.00  0.00     0.027 H 
ATOM     34  H   LIG d   1       5.457   1.452  -9.959  0.00  0.00     0.027 H 
ATOM     35  H   LIG d   1       4.697  -3.282 -10.458  0.00  0.00     0.027 H 
ATOM     36  H   LIG d   1       3.119  -2.481 -10.653  0.00  0.00     0.027 H 
ATOM     37  H   LIG d   1       5.462  -2.400 -12.626  0.00  0.00     0.026 H 
ATOM     38  H   LIG d   1       3.925  -3.239 -12.833  0.00  0.00     0.026 H 
ATOM     39  H   LIG d   1       4.005  -1.077 -14.065  0.00  0.00     0.026 H 
ATOM     40  H   LIG d   1       2.697  -1.144 -12.866  0.00  0.00     0.026 H 
ATOM     41  H   LIG d   1       3.796   1.030 -12.743  0.00  0.00     0.027 H 
ATOM     42  H   LIG d   1       5.384   0.274 -12.534  0.00  0.00     0.027 H 
ENDROOT
BRANCH   1  43
ATOM     43  C   LIG d   1       4.230  -1.139  -3.587  0.00  0.00    -0.040 C 
ATOM     44  H   LIG d   1       5.153  -0.648  -3.898  0.00  0.00     0.030 H 
BRANCH  43  45
ATOM     45  C   LIG d   1       4.524  -2.595  -3.221  0.00  0.00    -0.062 C 
ATOM     46  H   LIG d   1       3.726  -3.233  -3.599  0.00  0.00     0.023 H 
ATOM     47  H   LIG d   1       5.472  -2.897  -3.667  0.00  0.00     0.023 H 
ATOM     48  H   LIG d   1       4.586  -2.692  -2.137  0.00  0.00     0.023 H 
ENDBRANCH  43  45
BRANCH  43  49
ATOM     49  C   LIG d   1       3.653  -0.414  -2.369  0.00  0.00    -0.045 C 
ATOM     50  H   LIG d   1       2.831   0.228  -2.685  0.00  0.00     0.027 H 
ATOM     51  H   LIG d   1       3.286  -1.147  -1.651  0.00  0.00     0.027 H 
BRANCH  49  52
ATOM     52  C   LIG d   1       4.745   0.437  -1.717  0.00  0.00    -0.013 C 
ATOM     53  H   LIG d   1       4.332   0.958  -0.854  0.00  0.00     0.033 H 
ATOM     54  H   LIG d   1       5.564  -0.207  -1.396  0.00  0.00     0.033 H 
BRANCH  52  55
ATOM     55  C   LIG d   1       5.259   1.445  -2.714  0.00  0.00     0.042 C 
ATOM     56  O   LIG d   1       4.499   2.235  -3.220  0.00  0.00    -0.550 OA
ATOM     57  O   LIG d   1       6.561   1.464  -3.037  0.00  0.00    -0.550 OA
ENDBRANCH  52  55
ENDBRANCH  49  52
ENDBRANCH  43  49
ENDBRANCH   1  43
BRANCH   7  58
ATOM     58  C   LIG d   1       5.191  -0.178  -5.902  0.00  0.00    -0.059 C 
ATOM     59  H   LIG d   1       5.316   0.058  -4.846  0.00  0.00     0.024 H 
ATOM     60  H   LIG d   1       5.051   0.744  -6.466  0.00  0.00     0.024 H 
ATOM     61  H   LIG d   1       6.079  -0.695  -6.267  0.00  0.00     0.024 H 
ENDBRANCH   7  58
BRANCH  18  62
ATOM     62  C   LIG d   1       6.255  -1.064 -10.508  0.00  0.00    -0.059 C 
ATOM     63  H   LIG d   1       6.567  -1.941 -11.075  0.00  0.00     0.024 H 
ATOM     64  H   LIG d   1       6.475  -0.163 -11.081  0.00  0.00     0.024 H 
ATOM     65  H   LIG d   1       6.796  -1.033  -9.562  0.00  0.00     0.024 H 
ENDBRANCH  18  62
TORSDOF 7
ENDMDL
MODEL 3
REMARK VINA RESULT:      -5.7      3.262      4.315
REMARK  7 active torsions:
REMARK  status: ('A' for Active; 'I' for Inactive)
REMARK    1  A    between atoms: C_1  and  C_2 
REMARK    2  A    between atoms: C_2  and  C_4 
REMARK    3  A    between atoms: C_2  and  C_8 
REMARK    4  A    between atoms: C_4  and  C_5 
REMARK    5  A    between atoms: C_5  and  C_6 
REMARK    6  A    between atoms: C_14  and  C_31 
REMARK    7  A    between atoms: C_25  and  C_30 
ROOT
ATOM      1  C   LIG d   1       6.641  -4.316  -7.524  0.00  0.00    -0.033 C 
ATOM      2  H   LIG d   1       7.685  -4.258  -7.240  0.00  0.00     0.031 H 
ATOM      3  C   LIG d   1       6.358  -3.456  -8.781  0.00  0.00    -0.049 C 
ATOM      4  C   LIG d   1       5.644  -2.169  -8.286  0.00  0.00    -0.049 C 
ATOM      5  C   LIG d   1       5.916  -2.183  -6.774  0.00  0.00    -0.032 C 
ATOM      6  H   LIG d   1       6.980  -1.898  -6.626  0.00  0.00     0.031 H 
ATOM      7  C   LIG d   1       5.760  -3.678  -6.427  0.00  0.00    -0.026 C 
ATOM      8  C   LIG d   1       6.224  -3.958  -5.019  0.00  0.00    -0.047 C 
ATOM      9  C   LIG d   1       5.902  -2.780  -4.090  0.00  0.00    -0.049 C 
ATOM     10  C   LIG d   1       4.709  -1.986  -4.602  0.00  0.00    -0.032 C 
ATOM     11  H   LIG d   1       3.865  -2.657  -4.759  0.00  0.00     0.031 H 
ATOM     12  C   LIG d   1       5.068  -1.293  -5.918  0.00  0.00    -0.034 C 
ATOM     13  H   LIG d   1       5.690  -0.413  -5.658  0.00  0.00     0.031 H 
ATOM     14  C   LIG d   1       3.814  -0.763  -6.603  0.00  0.00    -0.049 C 
ATOM     15  C   LIG d   1       2.948  -0.034  -5.560  0.00  0.00    -0.049 C 
ATOM     16  C   LIG d   1       3.827   0.319  -4.371  0.00  0.00    -0.035 C 
ATOM     17  H   LIG d   1       4.748   0.778  -4.767  0.00  0.00     0.031 H 
ATOM     18  C   LIG d   1       4.233  -0.938  -3.598  0.00  0.00    -0.026 C 
ATOM     19  C   LIG d   1       5.302  -0.563  -2.580  0.00  0.00    -0.047 C 
ATOM     20  C   LIG d   1       4.750   0.501  -1.625  0.00  0.00    -0.052 C 
ATOM     21  C   LIG d   1       4.254   1.729  -2.383  0.00  0.00    -0.053 C 
ATOM     22  C   LIG d   1       3.204   1.340  -3.430  0.00  0.00    -0.050 C 
ATOM     23  H   LIG d   1       5.713  -4.000  -9.470  0.00  0.00     0.027 H 
ATOM     24  H   LIG d   1       7.295  -3.197  -9.273  0.00  0.00     0.027 H 
ATOM     25  H   LIG d   1       4.580  -2.204  -8.502  0.00  0.00     0.027 H 
ATOM     26  H   LIG d   1       6.097  -1.286  -8.743  0.00  0.00     0.027 H 
ATOM     27  H   LIG d   1       5.734  -4.863  -4.642  0.00  0.00     0.027 H 
ATOM     28  H   LIG d   1       7.307  -4.134  -5.017  0.00  0.00     0.027 H 
ATOM     29  H   LIG d   1       5.685  -3.162  -3.088  0.00  0.00     0.027 H 
ATOM     30  H   LIG d   1       6.776  -2.125  -4.025  0.00  0.00     0.027 H 
ATOM     31  H   LIG d   1       4.095  -0.059  -7.386  0.00  0.00     0.027 H 
ATOM     32  H   LIG d   1       3.243  -1.580  -7.033  0.00  0.00     0.027 H 
ATOM     33  H   LIG d   1       2.553   0.883  -6.007  0.00  0.00     0.027 H 
ATOM     34  H   LIG d   1       2.122  -0.673  -5.263  0.00  0.00     0.027 H 
ATOM     35  H   LIG d   1       5.592  -1.449  -2.007  0.00  0.00     0.027 H 
ATOM     36  H   LIG d   1       6.180  -0.170  -3.097  0.00  0.00     0.027 H 
ATOM     37  H   LIG d   1       3.947   0.093  -1.016  0.00  0.00     0.026 H 
ATOM     38  H   LIG d   1       5.556   0.813  -0.948  0.00  0.00     0.026 H 
ATOM     39  H   LIG d   1       3.814   2.435  -1.679  0.00  0.00     0.026 H 
ATOM     40  H   LIG d   1       5.098   2.206  -2.884  0.00  0.00     0.026 H 
ATOM     41  H   LIG d   1       2.933   2.234  -4.005  0.00  0.00     0.027 H 
ATOM     42  H   LIG d   1       2.312   0.955  -2.951  0.00  0.00     0.027 H 
ENDROOT
BRANCH   1  43
ATOM     43  C   LIG d   1       6.209  -5.762  -7.756  0.00  0.00    -0.040 C 
ATOM     44  H   LIG d   1       5.323  -5.976  -7.158  0.00  0.00     0.030 H 
BRANCH  43  45
ATOM     45  C   LIG d   1       7.341  -6.705  -7.346  0.00  0.00    -0.062 C 
ATOM     46  H   LIG d   1       7.134  -7.115  -6.359  0.00  0.00     0.023 H 
ATOM     47  H   LIG d   1       7.416  -7.518  -8.068  0.00  0.00     0.023 H 
ATOM     48  H   LIG d   1       8.282  -6.154  -7.322  0.00  0.00     0.023 H 
ENDBRANCH  43  45
BRANCH  43  49
ATOM     49  C   LIG d   1       5.885  -5.966  -9.237  0.00  0.00    -0.045 C 
ATOM     50  H   LIG d   1       5.231  -5.164  -9.580  0.00  0.00     0.027 H 
ATOM     51  H   LIG d   1       6.809  -5.954  -9.816  0.00  0.00     0.027 H 
BRANCH  49  52
ATOM     52  C   LIG d   1       5.184  -7.313  -9.425  0.00  0.00    -0.013 C 
ATOM     53  H   LIG d   1       4.972  -7.468 -10.482  0.00  0.00     0.033 H 
ATOM     54  H   LIG d   1       5.830  -8.113  -9.063  0.00  0.00     0.033 H 
BRANCH  52  55
ATOM     55  C   LIG d   1       3.892  -7.320  -8.647  0.00  0.00     0.042 C 
ATOM     56  O   LIG d   1       3.743  -8.092  -7.730  0.00  0.00    -0.550 OA
ATOM     57  O   LIG d   1       2.908  -6.468  -8.974  0.00  0.00    -0.550 OA
ENDBRANCH  52  55
ENDBRANCH  49  52
ENDBRANCH  43  49
ENDBRANCH   1  43
BRANCH   7  58
ATOM     58  C   LIG d   1       4.336  -4.187  -6.651  0.00  0.00    -0.059 C 
ATOM     59  H   LIG d   1       4.294  -5.255  -6.438  0.00  0.00     0.024 H 
ATOM     60  H   LIG d   1       4.046  -4.012  -7.687  0.00  0.00     0.024 H 
ATOM     61  H   LIG d   1       3.652  -3.657  -5.988  0.00  0.00     0.024 H 
ENDBRANCH   7  58
BRANCH  18  62
ATOM     62  C   LIG d   1       3.022  -1.524  -2.869  0.00  0.00    -0.059 C 
ATOM     63  H   LIG d   1       2.368  -0.715  -2.541  0.00  0.00     0.024 H 
ATOM     64  H   LIG d   1       2.475  -2.183  -3.542  0.00  0.00     0.024 H 
ATOM     65  H   LIG d   1       3.359  -2.090  -2.000  0.00  0.00     0.024 H 
ENDBRANCH  18  62
TORSDOF 7
ENDMDL
MODEL 4
REMARK VINA RESULT:      -5.5      2.819      7.206
REMARK  7 active torsions:
REMARK  status: ('A' for Active; 'I' for Inactive)
REMARK    1  A    between atoms: C_1  and  C_2 
REMARK    2  A    between atoms: C_2  and  C_4 
REMARK    3  A    between atoms: C_2  and  C_8 
REMARK    4  A    between atoms: C_4  and  C_5 
REMARK    5  A    between atoms: C_5  and  C_6 
REMARK    6  A    between atoms: C_14  and  C_31 
REMARK    7  A    between atoms: C_25  and  C_30 
ROOT
ATOM      1  C   LIG d   1       6.537  -1.152  -5.428  0.00  0.00    -0.033 C 
ATOM      2  H   LIG d   1       7.575  -1.009  -5.705  0.00  0.00     0.031 H 
ATOM      3  C   LIG d   1       6.243  -2.641  -5.119  0.00  0.00    -0.049 C 
ATOM      4  C   LIG d   1       5.482  -3.206  -6.349  0.00  0.00    -0.049 C 
ATOM      5  C   LIG d   1       5.733  -2.145  -7.430  0.00  0.00    -0.032 C 
ATOM      6  H   LIG d   1       6.786  -2.259  -7.769  0.00  0.00     0.031 H 
ATOM      7  C   LIG d   1       5.621  -0.831  -6.630  0.00  0.00    -0.026 C 
ATOM      8  C   LIG d   1       6.075   0.347  -7.457  0.00  0.00    -0.047 C 
ATOM      9  C   LIG d   1       5.703   0.157  -8.934  0.00  0.00    -0.049 C 
ATOM     10  C   LIG d   1       4.492  -0.753  -9.083  0.00  0.00    -0.032 C 
ATOM     11  H   LIG d   1       3.671  -0.370  -8.476  0.00  0.00     0.031 H 
ATOM     12  C   LIG d   1       4.845  -2.172  -8.636  0.00  0.00    -0.034 C 
ATOM     13  H   LIG d   1       5.435  -2.629  -9.455  0.00  0.00     0.031 H 
ATOM     14  C   LIG d   1       3.585  -3.012  -8.476  0.00  0.00    -0.049 C 
ATOM     15  C   LIG d   1       2.682  -2.794  -9.703  0.00  0.00    -0.049 C 
ATOM     16  C   LIG d   1       3.533  -2.229 -10.828  0.00  0.00    -0.035 C 
ATOM     17  H   LIG d   1       4.444  -2.846 -10.895  0.00  0.00     0.031 H 
ATOM     18  C   LIG d   1       3.969  -0.795 -10.517  0.00  0.00    -0.026 C 
ATOM     19  C   LIG d   1       5.011  -0.366 -11.542  0.00  0.00    -0.047 C 
ATOM     20  C   LIG d   1       4.412  -0.453 -12.950  0.00  0.00    -0.052 C 
ATOM     21  C   LIG d   1       3.888  -1.855 -13.248  0.00  0.00    -0.053 C 
ATOM     22  C   LIG d   1       2.865  -2.293 -12.194  0.00  0.00    -0.050 C 
ATOM     23  H   LIG d   1       5.625  -2.724  -4.226  0.00  0.00     0.027 H 
ATOM     24  H   LIG d   1       7.177  -3.183  -4.978  0.00  0.00     0.027 H 
ATOM     25  H   LIG d   1       4.422  -3.317  -6.136  0.00  0.00     0.027 H 
ATOM     26  H   LIG d   1       5.912  -4.164  -6.652  0.00  0.00     0.027 H 
ATOM     27  H   LIG d   1       5.609   1.265  -7.080  0.00  0.00     0.027 H 
ATOM     28  H   LIG d   1       7.163   0.460  -7.370  0.00  0.00     0.027 H 
ATOM     29  H   LIG d   1       5.485   1.133  -9.377  0.00  0.00     0.027 H 
ATOM     30  H   LIG d   1       6.554  -0.278  -9.465  0.00  0.00     0.027 H 
ATOM     31  H   LIG d   1       3.853  -4.067  -8.415  0.00  0.00     0.027 H 
ATOM     32  H   LIG d   1       3.047  -2.720  -7.579  0.00  0.00     0.027 H 
ATOM     33  H   LIG d   1       2.263  -3.757 -10.010  0.00  0.00     0.027 H 
ATOM     34  H   LIG d   1       1.872  -2.118  -9.444  0.00  0.00     0.027 H 
ATOM     35  H   LIG d   1       5.322   0.664 -11.342  0.00  0.00     0.027 H 
ATOM     36  H   LIG d   1       5.884  -1.021 -11.474  0.00  0.00     0.027 H 
ATOM     37  H   LIG d   1       3.615   0.275 -13.075  0.00  0.00     0.026 H 
ATOM     38  H   LIG d   1       5.199  -0.215 -13.678  0.00  0.00     0.026 H 
ATOM     39  H   LIG d   1       3.416  -1.862 -14.231  0.00  0.00     0.026 H 
ATOM     40  H   LIG d   1       4.723  -2.558 -13.250  0.00  0.00     0.026 H 
ATOM     41  H   LIG d   1       2.573  -3.331 -12.397  0.00  0.00     0.027 H 
ATOM     42  H   LIG d   1       1.979  -1.671 -12.239  0.00  0.00     0.027 H 
ENDROOT
BRANCH   1  43
ATOM     43  C   LIG d   1       6.154  -0.273  -4.239  0.00  0.00    -0.040 C 
ATOM     44  H   LIG d   1       5.200   0.215  -4.441  0.00  0.00     0.030 H 
BRANCH  43  45
ATOM     45  C   LIG d   1       7.234   0.788  -4.021  0.00  0.00    -0.062 C 
ATOM     46  H   LIG d   1       8.024   0.660  -4.761  0.00  0.00     0.023 H 
ATOM     47  H   LIG d   1       6.795   1.780  -4.128  0.00  0.00     0.023 H 
ATOM     48  H   LIG d   1       7.651   0.682  -3.020  0.00  0.00     0.023 H 
ENDBRANCH  43  45
BRANCH  43  49
ATOM     49  C   LIG d   1       6.029  -1.138  -2.984  0.00  0.00    -0.045 C 
ATOM     50  H   LIG d   1       5.927  -2.185  -3.273  0.00  0.00     0.027 H 
ATOM     51  H   LIG d   1       6.921  -1.017  -2.369  0.00  0.00     0.027 H 
BRANCH  49  52
ATOM     52  C   LIG d   1       4.797  -0.706  -2.187  0.00  0.00    -0.013 C 
ATOM     53  H   LIG d   1       4.981  -0.857  -1.124  0.00  0.00     0.033 H 
ATOM     54  H   LIG d   1       4.595   0.348  -2.375  0.00  0.00     0.033 H 
BRANCH  52  55
ATOM     55  C   LIG d   1       3.608  -1.529  -2.612  0.00  0.00     0.042 C 
ATOM     56  O   LIG d   1       3.680  -2.735  -2.619  0.00  0.00    -0.550 OA
ATOM     57  O   LIG d   1       2.470  -0.923  -2.983  0.00  0.00    -0.550 OA
ENDBRANCH  52  55
ENDBRANCH  49  52
ENDBRANCH  43  49
ENDBRANCH   1  43
BRANCH   7  58
ATOM     58  C   LIG d   1       4.217  -0.602  -6.069  0.00  0.00    -0.059 C 
ATOM     59  H   LIG d   1       3.681   0.101  -6.704  0.00  0.00     0.024 H 
ATOM     60  H   LIG d   1       4.291  -0.197  -5.059  0.00  0.00     0.024 H 
ATOM     61  H   LIG d   1       3.679  -1.550  -6.040  0.00  0.00     0.024 H 
ENDBRANCH   7  58
BRANCH  18  62
ATOM     62  C   LIG d   1       2.767   0.151 -10.592  0.00  0.00    -0.059 C 
ATOM     63  H   LIG d   1       2.188  -0.067 -11.490  0.00  0.00     0.024 H 
ATOM     64  H   LIG d   1       2.139   0.012  -9.712  0.00  0.00     0.024 H 
ATOM     65  H   LIG d   1       3.118   1.183 -10.628  0.00  0.00     0.024 H 
ENDBRANCH  18  62
TORSDOF 7
ENDMDL
MODEL 5
REMARK VINA RESULT:      -5.5      4.576      6.010
REMARK  7 active torsions:
REMARK  status: ('A' for Active; 'I' for Inactive)
REMARK    1  A    between atoms: C_1  and  C_2 
REMARK    2  A    between atoms: C_2  and  C_4 
REMARK    3  A    between atoms: C_2  and  C_8 
REMARK    4  A    between atoms: C_4  and  C_5 
REMARK    5  A    between atoms: C_5  and  C_6 
REMARK    6  A    between atoms: C_14  and  C_31 
REMARK    7  A    between atoms: C_25  and  C_30 
ROOT
ATOM      1  C   LIG d   1       9.759   0.280  -7.572  0.00  0.00    -0.033 C 
ATOM      2  H   LIG d   1      10.192  -0.711  -7.635  0.00  0.00     0.031 H 
ATOM      3  C   LIG d   1      10.565   1.181  -6.603  0.00  0.00    -0.049 C 
ATOM      4  C   LIG d   1       9.738   1.271  -5.291  0.00  0.00    -0.049 C 
ATOM      5  C   LIG d   1       8.731   0.121  -5.438  0.00  0.00    -0.032 C 
ATOM      6  H   LIG d   1       9.284  -0.828  -5.267  0.00  0.00     0.031 H 
ATOM      7  C   LIG d   1       8.355   0.203  -6.931  0.00  0.00    -0.026 C 
ATOM      8  C   LIG d   1       7.548  -1.000  -7.353  0.00  0.00    -0.047 C 
ATOM      9  C   LIG d   1       6.628  -1.470  -6.217  0.00  0.00    -0.049 C 
ATOM     10  C   LIG d   1       6.284  -0.322  -5.279  0.00  0.00    -0.032 C 
ATOM     11  H   LIG d   1       5.872   0.508  -5.853  0.00  0.00     0.031 H 
ATOM     12  C   LIG d   1       7.537   0.138  -4.533  0.00  0.00    -0.034 C 
ATOM     13  H   LIG d   1       7.729  -0.609  -3.737  0.00  0.00     0.031 H 
ATOM     14  C   LIG d   1       7.287   1.471  -3.839  0.00  0.00    -0.049 C 
ATOM     15  C   LIG d   1       5.936   1.404  -3.106  0.00  0.00    -0.049 C 
ATOM     16  C   LIG d   1       5.563  -0.058  -2.922  0.00  0.00    -0.035 C 
ATOM     17  H   LIG d   1       6.451  -0.578  -2.527  0.00  0.00     0.031 H 
ATOM     18  C   LIG d   1       5.208  -0.704  -4.263  0.00  0.00    -0.026 C 
ATOM     19  C   LIG d   1       5.087  -2.210  -4.065  0.00  0.00    -0.047 C 
ATOM     20  C   LIG d   1       4.002  -2.504  -3.023  0.00  0.00    -0.052 C 
ATOM     21  C   LIG d   1       4.289  -1.794  -1.703  0.00  0.00    -0.053 C 
ATOM     22  C   LIG d   1       4.444  -0.284  -1.915  0.00  0.00    -0.050 C 
ATOM     23  H   LIG d   1      10.694   2.173  -7.033  0.00  0.00     0.027 H 
ATOM     24  H   LIG d   1      11.537   0.732  -6.401  0.00  0.00     0.027 H 
ATOM     25  H   LIG d   1       9.239   2.233  -5.210  0.00  0.00     0.027 H 
ATOM     26  H   LIG d   1      10.383   1.101  -4.426  0.00  0.00     0.027 H 
ATOM     27  H   LIG d   1       6.941  -0.749  -8.231  0.00  0.00     0.027 H 
ATOM     28  H   LIG d   1       8.224  -1.818  -7.632  0.00  0.00     0.027 H 
ATOM     29  H   LIG d   1       5.710  -1.881  -6.647  0.00  0.00     0.027 H 
ATOM     30  H   LIG d   1       7.129  -2.263  -5.656  0.00  0.00     0.027 H 
ATOM     31  H   LIG d   1       8.077   1.658  -3.112  0.00  0.00     0.027 H 
ATOM     32  H   LIG d   1       7.260   2.277  -4.565  0.00  0.00     0.027 H 
ATOM     33  H   LIG d   1       6.041   1.880  -2.126  0.00  0.00     0.027 H 
ATOM     34  H   LIG d   1       5.182   1.934  -3.681  0.00  0.00     0.027 H 
ATOM     35  H   LIG d   1       4.818  -2.685  -5.013  0.00  0.00     0.027 H 
ATOM     36  H   LIG d   1       6.043  -2.613  -3.723  0.00  0.00     0.027 H 
ATOM     37  H   LIG d   1       3.023  -2.214  -3.395  0.00  0.00     0.026 H 
ATOM     38  H   LIG d   1       3.982  -3.586  -2.838  0.00  0.00     0.026 H 
ATOM     39  H   LIG d   1       3.468  -1.976  -1.009  0.00  0.00     0.026 H 
ATOM     40  H   LIG d   1       5.211  -2.191  -1.275  0.00  0.00     0.026 H 
ATOM     41  H   LIG d   1       4.727   0.179  -0.961  0.00  0.00     0.027 H 
ATOM     42  H   LIG d   1       3.510   0.154  -2.246  0.00  0.00     0.027 H 
ENDROOT
BRANCH   1  43
ATOM     43  C   LIG d   1       9.661   0.931  -8.950  0.00  0.00    -0.040 C 
ATOM     44  H   LIG d   1       8.656   1.329  -9.093  0.00  0.00     0.030 H 
BRANCH  43  45
ATOM     45  C   LIG d   1       9.953  -0.114 -10.029  0.00  0.00    -0.062 C 
ATOM     46  H   LIG d   1       9.762   0.316 -11.012  0.00  0.00     0.023 H 
ATOM     47  H   LIG d   1      10.997  -0.420  -9.964  0.00  0.00     0.023 H 
ATOM     48  H   LIG d   1       9.311  -0.981  -9.879  0.00  0.00     0.023 H 
ENDBRANCH  43  45
BRANCH  43  49
ATOM     49  C   LIG d   1      10.678   2.068  -9.052  0.00  0.00    -0.045 C 
ATOM     50  H   LIG d   1      10.872   2.473  -8.058  0.00  0.00     0.027 H 
ATOM     51  H   LIG d   1      11.608   1.686  -9.475  0.00  0.00     0.027 H 
BRANCH  49  52
ATOM     52  C   LIG d   1      10.122   3.172  -9.953  0.00  0.00    -0.013 C 
ATOM     53  H   LIG d   1      10.945   3.765 -10.350  0.00  0.00     0.033 H 
ATOM     54  H   LIG d   1       9.567   2.723 -10.776  0.00  0.00     0.033 H 
BRANCH  52  55
ATOM     55  C   LIG d   1       9.204   4.060  -9.153  0.00  0.00     0.042 C 
ATOM     56  O   LIG d   1       8.113   4.348  -9.586  0.00  0.00    -0.550 OA
ATOM     57  O   LIG d   1       9.597   4.530  -7.959  0.00  0.00    -0.550 OA
ENDBRANCH  52  55
ENDBRANCH  49  52
ENDBRANCH  43  49
ENDBRANCH   1  43
BRANCH   7  58
ATOM     58  C   LIG d   1       7.633   1.504  -7.286  0.00  0.00    -0.059 C 
ATOM     59  H   LIG d   1       6.577   1.300  -7.451  0.00  0.00     0.024 H 
ATOM     60  H   LIG d   1       8.069   1.925  -8.192  0.00  0.00     0.024 H 
ATOM     61  H   LIG d   1       7.743   2.215  -6.467  0.00  0.00     0.024 H 
ENDBRANCH   7  58
BRANCH  18  62
ATOM     62  C   LIG d   1       3.877  -0.153  -4.781  0.00  0.00    -0.059 C 
ATOM     63  H   LIG d   1       3.853  -0.221  -5.869  0.00  0.00     0.024 H 
ATOM     64  H   LIG d   1       3.055  -0.734  -4.363  0.00  0.00     0.024 H 
ATOM     65  H   LIG d   1       3.774   0.890  -4.481  0.00  0.00     0.024 H 
ENDBRANCH  18  62
TORSDOF 7
ENDMDL
MODEL 6
REMARK VINA RESULT:      -5.4      4.554      6.393
REMARK  7 active torsions:
REMARK  status: ('A' for Active; 'I' for Inactive)
REMARK    1  A    between atoms: C_1  and  C_2 
REMARK    2  A    between atoms: C_2  and  C_4 
REMARK    3  A    between atoms: C_2  and  C_8 
REMARK    4  A    between atoms: C_4  and  C_5 
REMARK    5  A    between atoms: C_5  and  C_6 
REMARK    6  A    between atoms: C_14  and  C_31 
REMARK    7  A    between atoms: C_25  and  C_30 
ROOT
ATOM      1  C   LIG d   1       7.653  -5.776  -5.544  0.00  0.00    -0.033 C 
ATOM      2  H   LIG d   1       7.258  -6.479  -4.821  0.00  0.00     0.031 H 
ATOM      3  C   LIG d   1       9.106  -5.372  -5.192  0.00  0.00    -0.049 C 
ATOM      4  C   LIG d   1       9.033  -3.947  -4.578  0.00  0.00    -0.049 C 
ATOM      5  C   LIG d   1       7.541  -3.786  -4.252  0.00  0.00    -0.032 C 
ATOM      6  H   LIG d   1       7.329  -4.408  -3.355  0.00  0.00     0.031 H 
ATOM      7  C   LIG d   1       6.867  -4.448  -5.471  0.00  0.00    -0.026 C 
ATOM      8  C   LIG d   1       5.384  -4.617  -5.245  0.00  0.00    -0.047 C 
ATOM      9  C   LIG d   1       4.817  -3.450  -4.424  0.00  0.00    -0.049 C 
ATOM     10  C   LIG d   1       5.657  -2.193  -4.604  0.00  0.00    -0.032 C 
ATOM     11  H   LIG d   1       5.755  -1.969  -5.666  0.00  0.00     0.031 H 
ATOM     12  C   LIG d   1       7.043  -2.398  -3.990  0.00  0.00    -0.034 C 
ATOM     13  H   LIG d   1       6.925  -2.304  -2.892  0.00  0.00     0.031 H 
ATOM     14  C   LIG d   1       7.992  -1.291  -4.431  0.00  0.00    -0.049 C 
ATOM     15  C   LIG d   1       7.278   0.064  -4.285  0.00  0.00    -0.049 C 
ATOM     16  C   LIG d   1       6.106  -0.113  -3.333  0.00  0.00    -0.035 C 
ATOM     17  H   LIG d   1       6.479  -0.659  -2.450  0.00  0.00     0.031 H 
ATOM     18  C   LIG d   1       5.007  -0.964  -3.972  0.00  0.00    -0.026 C 
ATOM     19  C   LIG d   1       3.979  -1.319  -2.905  0.00  0.00    -0.047 C 
ATOM     20  C   LIG d   1       3.389  -0.034  -2.314  0.00  0.00    -0.052 C 
ATOM     21  C   LIG d   1       4.479   0.874  -1.751  0.00  0.00    -0.053 C 
ATOM     22  C   LIG d   1       5.529   1.198  -2.821  0.00  0.00    -0.050 C 
ATOM     23  H   LIG d   1       9.721  -5.361  -6.091  0.00  0.00     0.027 H 
ATOM     24  H   LIG d   1       9.520  -6.070  -4.465  0.00  0.00     0.027 H 
ATOM     25  H   LIG d   1       9.371  -3.197  -5.289  0.00  0.00     0.027 H 
ATOM     26  H   LIG d   1       9.628  -3.899  -3.663  0.00  0.00     0.027 H 
ATOM     27  H   LIG d   1       4.866  -4.669  -6.209  0.00  0.00     0.027 H 
ATOM     28  H   LIG d   1       5.199  -5.558  -4.711  0.00  0.00     0.027 H 
ATOM     29  H   LIG d   1       3.790  -3.253  -4.744  0.00  0.00     0.027 H 
ATOM     30  H   LIG d   1       4.800  -3.730  -3.367  0.00  0.00     0.027 H 
ATOM     31  H   LIG d   1       8.879  -1.295  -3.798  0.00  0.00     0.027 H 
ATOM     32  H   LIG d   1       8.283  -1.432  -5.468  0.00  0.00     0.027 H 
ATOM     33  H   LIG d   1       7.981   0.791  -3.867  0.00  0.00     0.027 H 
ATOM     34  H   LIG d   1       6.945   0.408  -5.260  0.00  0.00     0.027 H 
ATOM     35  H   LIG d   1       3.177  -1.915  -3.351  0.00  0.00     0.027 H 
ATOM     36  H   LIG d   1       4.458  -1.900  -2.113  0.00  0.00     0.027 H 
ATOM     37  H   LIG d   1       2.809   0.503  -3.060  0.00  0.00     0.026 H 
ATOM     38  H   LIG d   1       2.709  -0.307  -1.496  0.00  0.00     0.026 H 
ATOM     39  H   LIG d   1       4.030   1.801  -1.396  0.00  0.00     0.026 H 
ATOM     40  H   LIG d   1       4.967   0.372  -0.914  0.00  0.00     0.026 H 
ATOM     41  H   LIG d   1       6.333   1.784  -2.358  0.00  0.00     0.027 H 
ATOM     42  H   LIG d   1       5.091   1.785  -3.620  0.00  0.00     0.027 H 
ENDROOT
BRANCH   1  43
ATOM     43  C   LIG d   1       7.582  -6.339  -6.961  0.00  0.00    -0.040 C 
ATOM     44  H   LIG d   1       7.263  -5.555  -7.648  0.00  0.00     0.030 H 
BRANCH  43  45
ATOM     45  C   LIG d   1       6.579  -7.493  -7.002  0.00  0.00    -0.062 C 
ATOM     46  H   LIG d   1       5.927  -7.378  -7.867  0.00  0.00     0.023 H 
ATOM     47  H   LIG d   1       7.116  -8.439  -7.077  0.00  0.00     0.023 H 
ATOM     48  H   LIG d   1       5.981  -7.487  -6.091  0.00  0.00     0.023 H 
ENDBRANCH  43  45
BRANCH  43  49
ATOM     49  C   LIG d   1       8.963  -6.849  -7.377  0.00  0.00    -0.045 C 
ATOM     50  H   LIG d   1       9.733  -6.297  -6.836  0.00  0.00     0.027 H 
ATOM     51  H   LIG d   1       9.045  -7.910  -7.140  0.00  0.00     0.027 H 
BRANCH  49  52
ATOM     52  C   LIG d   1       9.151  -6.646  -8.882  0.00  0.00    -0.013 C 
ATOM     53  H   LIG d   1       9.979  -7.262  -9.231  0.00  0.00     0.033 H 
ATOM     54  H   LIG d   1       8.238  -6.934  -9.403  0.00  0.00     0.033 H 
BRANCH  52  55
ATOM     55  C   LIG d   1       9.452  -5.195  -9.160  0.00  0.00     0.042 C 
ATOM     56  O   LIG d   1       8.861  -4.613 -10.038  0.00  0.00    -0.550 OA
ATOM     57  O   LIG d   1      10.376  -4.551  -8.431  0.00  0.00    -0.550 OA
ENDBRANCH  52  55
ENDBRANCH  49  52
ENDBRANCH  43  49
ENDBRANCH   1  43
BRANCH   7  58
ATOM     58  C   LIG d   1       7.143  -3.697  -6.775  0.00  0.00    -0.059 C 
ATOM     59  H   LIG d   1       6.336  -3.886  -7.481  0.00  0.00     0.024 H 
ATOM     60  H   LIG d   1       8.086  -4.043  -7.199  0.00  0.00     0.024 H 
ATOM     61  H   LIG d   1       7.207  -2.628  -6.572  0.00  0.00     0.024 H 
ENDBRANCH   7  58
BRANCH  18  62
ATOM     62  C   LIG d   1       4.320  -0.184  -5.096  0.00  0.00    -0.059 C 
ATOM     63  H   LIG d   1       3.578   0.491  -4.670  0.00  0.00     0.024 H 
ATOM     64  H   LIG d   1       5.064   0.394  -5.645  0.00  0.00     0.024 H 
ATOM     65  H   LIG d   1       3.829  -0.881  -5.776  0.00  0.00     0.024 H 
ENDBRANCH  18  62
TORSDOF 7
ENDMDL
MODEL 7
REMARK VINA RESULT:      -5.4      5.287      7.124
REMARK  7 active torsions:
REMARK  status: ('A' for Active; 'I' for Inactive)
REMARK    1  A    between atoms: C_1  and  C_2 
REMARK    2  A    between atoms: C_2  and  C_4 
REMARK    3  A    between atoms: C_2  and  C_8 
REMARK    4  A    between atoms: C_4  and  C_5 
REMARK    5  A    between atoms: C_5  and  C_6 
REMARK    6  A    between atoms: C_14  and  C_31 
REMARK    7  A    between atoms: C_25  and  C_30 
ROOT
ATOM      1  C   LIG d   1       7.592  -5.738  -5.469  0.00  0.00    -0.033 C 
ATOM      2  H   LIG d   1       7.202  -6.431  -4.733  0.00  0.00     0.031 H 
ATOM      3  C   LIG d   1       9.046  -5.326  -5.129  0.00  0.00    -0.049 C 
ATOM      4  C   LIG d   1       8.973  -3.891  -4.538  0.00  0.00    -0.049 C 
ATOM      5  C   LIG d   1       7.482  -3.728  -4.208  0.00  0.00    -0.032 C 
ATOM      6  H   LIG d   1       7.275  -4.336  -3.301  0.00  0.00     0.031 H 
ATOM      7  C   LIG d   1       6.804  -4.411  -5.414  0.00  0.00    -0.026 C 
ATOM      8  C   LIG d   1       5.323  -4.579  -5.179  0.00  0.00    -0.047 C 
ATOM      9  C   LIG d   1       4.757  -3.400  -4.375  0.00  0.00    -0.049 C 
ATOM     10  C   LIG d   1       5.594  -2.145  -4.578  0.00  0.00    -0.032 C 
ATOM     11  H   LIG d   1       5.687  -1.937  -5.644  0.00  0.00     0.031 H 
ATOM     12  C   LIG d   1       6.983  -2.337  -3.967  0.00  0.00    -0.034 C 
ATOM     13  H   LIG d   1       6.870  -2.225  -2.871  0.00  0.00     0.031 H 
ATOM     14  C   LIG d   1       7.928  -1.236  -4.430  0.00  0.00    -0.049 C 
ATOM     15  C   LIG d   1       7.212   0.121  -4.303  0.00  0.00    -0.049 C 
ATOM     16  C   LIG d   1       6.045  -0.044  -3.343  0.00  0.00    -0.035 C 
ATOM     17  H   LIG d   1       6.422  -0.574  -2.453  0.00  0.00     0.031 H 
ATOM     18  C   LIG d   1       4.944  -0.907  -3.964  0.00  0.00    -0.026 C 
ATOM     19  C   LIG d   1       3.921  -1.246  -2.887  0.00  0.00    -0.047 C 
ATOM     20  C   LIG d   1       3.332   0.048  -2.314  0.00  0.00    -0.052 C 
ATOM     21  C   LIG d   1       4.422   0.966  -1.770  0.00  0.00    -0.053 C 
ATOM     22  C   LIG d   1       5.467   1.275  -2.849  0.00  0.00    -0.050 C 
ATOM     23  H   LIG d   1       9.657  -5.328  -6.031  0.00  0.00     0.027 H 
ATOM     24  H   LIG d   1       9.465  -6.011  -4.393  0.00  0.00     0.027 H 
ATOM     25  H   LIG d   1       9.306  -3.153  -5.263  0.00  0.00     0.027 H 
ATOM     26  H   LIG d   1       9.572  -3.828  -3.626  0.00  0.00     0.027 H 
ATOM     27  H   LIG d   1       4.801  -4.647  -6.140  0.00  0.00     0.027 H 
ATOM     28  H   LIG d   1       5.142  -5.511  -4.629  0.00  0.00     0.027 H 
ATOM     29  H   LIG d   1       3.728  -3.210  -4.693  0.00  0.00     0.027 H 
ATOM     30  H   LIG d   1       4.745  -3.662  -3.313  0.00  0.00     0.027 H 
ATOM     31  H   LIG d   1       8.818  -1.228  -3.801  0.00  0.00     0.027 H 
ATOM     32  H   LIG d   1       8.215  -1.392  -5.465  0.00  0.00     0.027 H 
ATOM     33  H   LIG d   1       7.915   0.855  -3.899  0.00  0.00     0.027 H 
ATOM     34  H   LIG d   1       6.874   0.448  -5.281  0.00  0.00     0.027 H 
ATOM     35  H   LIG d   1       3.118  -1.850  -3.319  0.00  0.00     0.027 H 
ATOM     36  H   LIG d   1       4.404  -1.813  -2.087  0.00  0.00     0.027 H 
ATOM     37  H   LIG d   1       2.748   0.571  -3.066  0.00  0.00     0.026 H 
ATOM     38  H   LIG d   1       2.655  -0.213  -1.489  0.00  0.00     0.026 H 
ATOM     39  H   LIG d   1       3.973   1.898  -1.428  0.00  0.00     0.026 H 
ATOM     40  H   LIG d   1       4.915   0.479  -0.927  0.00  0.00     0.026 H 
ATOM     41  H   LIG d   1       6.272   1.869  -2.400  0.00  0.00     0.027 H 
ATOM     42  H   LIG d   1       5.025   1.848  -3.656  0.00  0.00     0.027 H 
ENDROOT
BRANCH   1  43
ATOM     43  C   LIG d   1       7.517  -6.325  -6.876  0.00  0.00    -0.040 C 
ATOM     44  H   LIG d   1       7.240  -5.540  -7.582  0.00  0.00     0.030 H 
BRANCH  43  45
ATOM     45  C   LIG d   1       6.466  -7.436  -6.910  0.00  0.00    -0.062 C 
ATOM     46  H   LIG d   1       6.155  -7.610  -7.940  0.00  0.00     0.023 H 
ATOM     47  H   LIG d   1       6.893  -8.351  -6.501  0.00  0.00     0.023 H 
ATOM     48  H   LIG d   1       5.604  -7.138  -6.314  0.00  0.00     0.023 H 
ENDBRANCH  43  45
BRANCH  43  49
ATOM     49  C   LIG d   1       8.880  -6.900  -7.263  0.00  0.00    -0.045 C 
ATOM     50  H   LIG d   1       9.120  -6.610  -8.287  0.00  0.00     0.027 H 
ATOM     51  H   LIG d   1       9.643  -6.511  -6.588  0.00  0.00     0.027 H 
BRANCH  49  52
ATOM     52  C   LIG d   1       8.838  -8.426  -7.161  0.00  0.00    -0.013 C 
ATOM     53  H   LIG d   1       7.813  -8.749  -6.979  0.00  0.00     0.033 H 
ATOM     54  H   LIG d   1       9.197  -8.862  -8.093  0.00  0.00     0.033 H 
BRANCH  52  55
ATOM     55  C   LIG d   1       9.716  -8.878  -6.022  0.00  0.00     0.042 C 
ATOM     56  O   LIG d   1      10.870  -9.171  -6.229  0.00  0.00    -0.550 OA
ATOM     57  O   LIG d   1       9.217  -8.955  -4.780  0.00  0.00    -0.550 OA
ENDBRANCH  52  55
ENDBRANCH  49  52
ENDBRANCH  43  49
ENDBRANCH   1  43
BRANCH   7  58
ATOM     58  C   LIG d   1       7.074  -3.681  -6.731  0.00  0.00    -0.059 C 
ATOM     59  H   LIG d   1       7.780  -4.256  -7.328  0.00  0.00     0.024 H 
ATOM     60  H   LIG d   1       7.493  -2.696  -6.520  0.00  0.00     0.024 H 
ATOM     61  H   LIG d   1       6.140  -3.567  -7.281  0.00  0.00     0.024 H 
ENDBRANCH   7  58
BRANCH  18  62
ATOM     62  C   LIG d   1       4.251  -0.146  -5.097  0.00  0.00    -0.059 C 
ATOM     63  H   LIG d   1       4.672   0.857  -5.172  0.00  0.00     0.024 H 
ATOM     64  H   LIG d   1       4.404  -0.675  -6.037  0.00  0.00     0.024 H 
ATOM     65  H   LIG d   1       3.183  -0.076  -4.889  0.00  0.00     0.024 H 
ENDBRANCH  18  62
TORSDOF 7
ENDMDL
MODEL 8
REMARK VINA RESULT:      -5.2      3.833      5.429
REMARK  7 active torsions:
REMARK  status: ('A' for Active; 'I' for Inactive)
REMARK    1  A    between atoms: C_1  and  C_2 
REMARK    2  A    between atoms: C_2  and  C_4 
REMARK    3  A    between atoms: C_2  and  C_8 
REMARK    4  A    between atoms: C_4  and  C_5 
REMARK    5  A    between atoms: C_5  and  C_6 
REMARK    6  A    between atoms: C_14  and  C_31 
REMARK    7  A    between atoms: C_25  and  C_30 
ROOT
ATOM      1  C   LIG d   1       8.780  -3.801  -6.540  0.00  0.00    -0.033 C 
ATOM      2  H   LIG d   1       9.700  -3.351  -6.188  0.00  0.00     0.031 H 
ATOM      3  C   LIG d   1       8.379  -3.238  -7.927  0.00  0.00    -0.049 C 
ATOM      4  C   LIG d   1       7.219  -2.236  -7.680  0.00  0.00    -0.049 C 
ATOM      5  C   LIG d   1       7.292  -1.988  -6.167  0.00  0.00    -0.032 C 
ATOM      6  H   LIG d   1       8.171  -1.335  -5.980  0.00  0.00     0.031 H 
ATOM      7  C   LIG d   1       7.608  -3.395  -5.619  0.00  0.00    -0.026 C 
ATOM      8  C   LIG d   1       7.963  -3.340  -4.154  0.00  0.00    -0.047 C 
ATOM      9  C   LIG d   1       7.151  -2.254  -3.433  0.00  0.00    -0.049 C 
ATOM     10  C   LIG d   1       5.833  -1.989  -4.146  0.00  0.00    -0.032 C 
ATOM     11  H   LIG d   1       5.290  -2.926  -4.268  0.00  0.00     0.031 H 
ATOM     12  C   LIG d   1       6.095  -1.364  -5.517  0.00  0.00    -0.034 C 
ATOM     13  H   LIG d   1       6.348  -0.299  -5.341  0.00  0.00     0.031 H 
ATOM     14  C   LIG d   1       4.830  -1.385  -6.366  0.00  0.00    -0.049 C 
ATOM     15  C   LIG d   1       3.648  -0.896  -5.510  0.00  0.00    -0.049 C 
ATOM     16  C   LIG d   1       4.205  -0.129  -4.321  0.00  0.00    -0.035 C 
ATOM     17  H   LIG d   1       4.958   0.578  -4.708  0.00  0.00     0.031 H 
ATOM     18  C   LIG d   1       4.912  -1.071  -3.345  0.00  0.00    -0.026 C 
ATOM     19  C   LIG d   1       5.659  -0.236  -2.312  0.00  0.00    -0.047 C 
ATOM     20  C   LIG d   1       4.668   0.665  -1.567  0.00  0.00    -0.052 C 
ATOM     21  C   LIG d   1       3.884   1.550  -2.532  0.00  0.00    -0.053 C 
ATOM     22  C   LIG d   1       3.164   0.706  -3.589  0.00  0.00    -0.050 C 
ATOM     23  H   LIG d   1       8.045  -4.046  -8.577  0.00  0.00     0.027 H 
ATOM     24  H   LIG d   1       9.227  -2.723  -8.378  0.00  0.00     0.027 H 
ATOM     25  H   LIG d   1       6.264  -2.666  -7.970  0.00  0.00     0.027 H 
ATOM     26  H   LIG d   1       7.400  -1.307  -8.225  0.00  0.00     0.027 H 
ATOM     27  H   LIG d   1       7.763  -4.311  -3.687  0.00  0.00     0.027 H 
ATOM     28  H   LIG d   1       9.033  -3.124  -4.042  0.00  0.00     0.027 H 
ATOM     29  H   LIG d   1       6.955  -2.575  -2.406  0.00  0.00     0.027 H 
ATOM     30  H   LIG d   1       7.738  -1.332  -3.397  0.00  0.00     0.027 H 
ATOM     31  H   LIG d   1       4.951  -0.718  -7.219  0.00  0.00     0.027 H 
ATOM     32  H   LIG d   1       4.626  -2.392  -6.715  0.00  0.00     0.027 H 
ATOM     33  H   LIG d   1       3.025  -0.230  -6.114  0.00  0.00     0.027 H 
ATOM     34  H   LIG d   1       3.056  -1.746  -5.187  0.00  0.00     0.027 H 
ATOM     35  H   LIG d   1       6.158  -0.897  -1.596  0.00  0.00     0.027 H 
ATOM     36  H   LIG d   1       6.410   0.380  -2.812  0.00  0.00     0.027 H 
ATOM     37  H   LIG d   1       3.981   0.071  -0.969  0.00  0.00     0.026 H 
ATOM     38  H   LIG d   1       5.232   1.312  -0.883  0.00  0.00     0.026 H 
ATOM     39  H   LIG d   1       3.149   2.131  -1.974  0.00  0.00     0.026 H 
ATOM     40  H   LIG d   1       4.573   2.235  -3.030  0.00  0.00     0.026 H 
ATOM     41  H   LIG d   1       2.680   1.379  -4.307  0.00  0.00     0.027 H 
ATOM     42  H   LIG d   1       2.402   0.087  -3.129  0.00  0.00     0.027 H 
ENDROOT
BRANCH   1  43
ATOM     43  C   LIG d   1       8.892  -5.323  -6.592  0.00  0.00    -0.040 C 
ATOM     44  H   LIG d   1       7.979  -5.768  -6.194  0.00  0.00     0.030 H 
BRANCH  43  45
ATOM     45  C   LIG d   1      10.088  -5.775  -5.754  0.00  0.00    -0.062 C 
ATOM     46  H   LIG d   1      11.011  -5.433  -6.222  0.00  0.00     0.023 H 
ATOM     47  H   LIG d   1      10.011  -5.350  -4.753  0.00  0.00     0.023 H 
ATOM     48  H   LIG d   1      10.095  -6.863  -5.687  0.00  0.00     0.023 H 
ENDBRANCH  43  45
BRANCH  43  49
ATOM     49  C   LIG d   1       9.086  -5.771  -8.042  0.00  0.00    -0.045 C 
ATOM     50  H   LIG d   1       8.673  -5.018  -8.714  0.00  0.00     0.027 H 
ATOM     51  H   LIG d   1      10.151  -5.894  -8.244  0.00  0.00     0.027 H 
BRANCH  49  52
ATOM     52  C   LIG d   1       8.368  -7.104  -8.264  0.00  0.00    -0.013 C 
ATOM     53  H   LIG d   1       8.788  -7.601  -9.139  0.00  0.00     0.033 H 
ATOM     54  H   LIG d   1       8.498  -7.738  -7.388  0.00  0.00     0.033 H 
BRANCH  52  55
ATOM     55  C   LIG d   1       6.898  -6.851  -8.488  0.00  0.00     0.042 C 
ATOM     56  O   LIG d   1       6.076  -7.493  -7.878  0.00  0.00    -0.550 OA
ATOM     57  O   LIG d   1       6.504  -5.914  -9.364  0.00  0.00    -0.550 OA
ENDBRANCH  52  55
ENDBRANCH  49  52
ENDBRANCH  43  49
ENDBRANCH   1  43
BRANCH   7  58
ATOM     58  C   LIG d   1       6.477  -4.393  -5.875  0.00  0.00    -0.059 C 
ATOM     59  H   LIG d   1       5.535  -3.972  -5.528  0.00  0.00     0.024 H 
ATOM     60  H   LIG d   1       6.682  -5.319  -5.337  0.00  0.00     0.024 H 
ATOM     61  H   LIG d   1       6.411  -4.602  -6.943  0.00  0.00     0.024 H 
ENDBRANCH   7  58
BRANCH  18  62
ATOM     62  C   LIG d   1       3.889  -1.960  -2.633  0.00  0.00    -0.059 C 
ATOM     63  H   LIG d   1       4.223  -2.154  -1.613  0.00  0.00     0.024 H 
ATOM     64  H   LIG d   1       2.923  -1.457  -2.609  0.00  0.00     0.024 H 
ATOM     65  H   LIG d   1       3.793  -2.905  -3.168  0.00  0.00     0.024 H 
ENDBRANCH  18  62
TORSDOF 7
ENDMDL
MODEL 9
REMARK VINA RESULT:      -5.2      4.919      6.648
REMARK  7 active torsions:
REMARK  status: ('A' for Active; 'I' for Inactive)
REMARK    1  A    between atoms: C_1  and  C_2 
REMARK    2  A    between atoms: C_2  and  C_4 
REMARK    3  A    between atoms: C_2  and  C_8 
REMARK    4  A    between atoms: C_4  and  C_5 
REMARK    5  A    between atoms: C_5  and  C_6 
REMARK    6  A    between atoms: C_14  and  C_31 
REMARK    7  A    between atoms: C_25  and  C_30 
ROOT
ATOM      1  C   LIG d   1       9.167  -3.737  -5.981  0.00  0.00    -0.033 C 
ATOM      2  H   LIG d   1      10.017  -3.200  -5.578  0.00  0.00     0.031 H 
ATOM      3  C   LIG d   1       8.883  -3.313  -7.443  0.00  0.00    -0.049 C 
ATOM      4  C   LIG d   1       7.647  -2.374  -7.401  0.00  0.00    -0.049 C 
ATOM      5  C   LIG d   1       7.545  -2.003  -5.914  0.00  0.00    -0.032 C 
ATOM      6  H   LIG d   1       8.361  -1.280  -5.696  0.00  0.00     0.031 H 
ATOM      7  C   LIG d   1       7.883  -3.339  -5.220  0.00  0.00    -0.026 C 
ATOM      8  C   LIG d   1       8.078  -3.144  -3.736  0.00  0.00    -0.047 C 
ATOM      9  C   LIG d   1       7.134  -2.060  -3.196  0.00  0.00    -0.049 C 
ATOM     10  C   LIG d   1       5.884  -1.941  -4.057  0.00  0.00    -0.032 C 
ATOM     11  H   LIG d   1       5.412  -2.919  -4.152  0.00  0.00     0.031 H 
ATOM     12  C   LIG d   1       6.253  -1.410  -5.443  0.00  0.00    -0.034 C 
ATOM     13  H   LIG d   1       6.423  -0.321  -5.334  0.00  0.00     0.031 H 
ATOM     14  C   LIG d   1       5.088  -1.582  -6.410  0.00  0.00    -0.049 C 
ATOM     15  C   LIG d   1       3.796  -1.107  -5.721  0.00  0.00    -0.049 C 
ATOM     16  C   LIG d   1       4.179  -0.212  -4.553  0.00  0.00    -0.035 C 
ATOM     17  H   LIG d   1       4.926   0.509  -4.921  0.00  0.00     0.031 H 
ATOM     18  C   LIG d   1       4.833  -1.026  -3.434  0.00  0.00    -0.026 C 
ATOM     19  C   LIG d   1       5.417  -0.064  -2.406  0.00  0.00    -0.047 C 
ATOM     20  C   LIG d   1       4.303   0.825  -1.844  0.00  0.00    -0.052 C 
ATOM     21  C   LIG d   1       3.575   1.578  -2.954  0.00  0.00    -0.053 C 
ATOM     22  C   LIG d   1       3.020   0.606  -4.003  0.00  0.00    -0.050 C 
ATOM     23  H   LIG d   1       8.666  -4.191  -8.052  0.00  0.00     0.027 H 
ATOM     24  H   LIG d   1       9.742  -2.780  -7.849  0.00  0.00     0.027 H 
ATOM     25  H   LIG d   1       6.754  -2.888  -7.747  0.00  0.00     0.027 H 
ATOM     26  H   LIG d   1       7.830  -1.481  -8.002  0.00  0.00     0.027 H 
ATOM     27  H   LIG d   1       7.887  -4.087  -3.211  0.00  0.00     0.027 H 
ATOM     28  H   LIG d   1       9.116  -2.849  -3.537  0.00  0.00     0.027 H 
ATOM     29  H   LIG d   1       6.849  -2.312  -2.170  0.00  0.00     0.027 H 
ATOM     30  H   LIG d   1       7.659  -1.102  -3.180  0.00  0.00     0.027 H 
ATOM     31  H   LIG d   1       5.259  -0.978  -7.300  0.00  0.00     0.027 H 
ATOM     32  H   LIG d   1       4.980  -2.625  -6.691  0.00  0.00     0.027 H 
ATOM     33  H   LIG d   1       3.203  -0.534  -6.440  0.00  0.00     0.027 H 
ATOM     34  H   LIG d   1       3.223  -1.966  -5.388  0.00  0.00     0.027 H 
ATOM     35  H   LIG d   1       5.875  -0.631  -1.590  0.00  0.00     0.027 H 
ATOM     36  H   LIG d   1       6.180   0.559  -2.879  0.00  0.00     0.027 H 
ATOM     37  H   LIG d   1       3.592   0.236  -1.270  0.00  0.00     0.026 H 
ATOM     38  H   LIG d   1       4.753   1.560  -1.164  0.00  0.00     0.026 H 
ATOM     39  H   LIG d   1       2.753   2.150  -2.524  0.00  0.00     0.026 H 
ATOM     40  H   LIG d   1       4.271   2.264  -3.438  0.00  0.00     0.026 H 
ATOM     41  H   LIG d   1       2.576   1.187  -4.821  0.00  0.00     0.027 H 
ATOM     42  H   LIG d   1       2.251  -0.023  -3.571  0.00  0.00     0.027 H 
ENDROOT
BRANCH   1  43
ATOM     43  C   LIG d   1       9.372  -5.247  -5.891  0.00  0.00    -0.040 C 
ATOM     44  H   LIG d   1       8.443  -5.721  -5.571  0.00  0.00     0.030 H 
BRANCH  43  45
ATOM     45  C   LIG d   1      10.476  -5.553  -4.878  0.00  0.00    -0.062 C 
ATOM     46  H   LIG d   1      11.429  -5.186  -5.257  0.00  0.00     0.023 H 
ATOM     47  H   LIG d   1      10.248  -5.059  -3.933  0.00  0.00     0.023 H 
ATOM     48  H   LIG d   1      10.536  -6.630  -4.720  0.00  0.00     0.023 H 
ENDBRANCH  43  45
BRANCH  43  49
ATOM     49  C   LIG d   1       9.774  -5.791  -7.263  0.00  0.00    -0.045 C 
ATOM     50  H   LIG d   1       9.172  -6.669  -7.497  0.00  0.00     0.027 H 
ATOM     51  H   LIG d   1       9.607  -5.024  -8.020  0.00  0.00     0.027 H 
BRANCH  49  52
ATOM     52  C   LIG d   1      11.254  -6.176  -7.245  0.00  0.00    -0.013 C 
ATOM     53  H   LIG d   1      11.654  -6.034  -6.241  0.00  0.00     0.033 H 
ATOM     54  H   LIG d   1      11.361  -7.221  -7.535  0.00  0.00     0.033 H 
BRANCH  52  55
ATOM     55  C   LIG d   1      12.012  -5.305  -8.215  0.00  0.00     0.042 C 
ATOM     56  O   LIG d   1      12.330  -5.741  -9.296  0.00  0.00    -0.550 OA
ATOM     57  O   LIG d   1      12.333  -4.047  -7.877  0.00  0.00    -0.550 OA
ENDBRANCH  52  55
ENDBRANCH  49  52
ENDBRANCH  43  49
ENDBRANCH   1  43
BRANCH   7  58
ATOM     58  C   LIG d   1       6.845  -4.426  -5.501  0.00  0.00    -0.059 C 
ATOM     59  H   LIG d   1       6.031  -4.347  -4.782  0.00  0.00     0.024 H 
ATOM     60  H   LIG d   1       7.314  -5.406  -5.413  0.00  0.00     0.024 H 
ATOM     61  H   LIG d   1       6.453  -4.301  -6.510  0.00  0.00     0.024 H 
ENDBRANCH   7  58
BRANCH  18  62
ATOM     62  C   LIG d   1       3.794  -1.922  -2.754  0.00  0.00    -0.059 C 
ATOM     63  H   LIG d   1       4.299  -2.747  -2.251  0.00  0.00     0.024 H 
ATOM     64  H   LIG d   1       3.233  -1.340  -2.024  0.00  0.00     0.024 H 
ATOM     65  H   LIG d   1       3.110  -2.320  -3.504  0.00  0.00     0.024 H 
ENDBRANCH  18  62
TORSDOF 7
ENDMDL
