MODEL 1
REMARK VINA RESULT:      -7.5      0.000      0.000
REMARK  13 active torsions:
REMARK  status: ('A' for Active; 'I' for Inactive)
REMARK    1  A    between atoms: C_1  and  O_2 
REMARK    2  A    between atoms: O_2  and  C_3 
REMARK    3  A    between atoms: C_6  and  N_9 
REMARK       I    between atoms: N_9  and  C_10 
REMARK    4  A    between atoms: C_10  and  C_12 
REMARK    5  A    between atoms: C_12  and  C_13 
REMARK    6  A    between atoms: C_12  and  O_17 
REMARK    7  A    between atoms: O_17  and  C_18 
REMARK    8  A    between atoms: C_18  and  C_19 
REMARK    9  A    between atoms: C_19  and  C_20 
REMARK   10  A    between atoms: C_19  and  O_24 
REMARK   11  A    between atoms: O_24  and  C_25 
REMARK   12  A    between atoms: C_25  and  C_26 
REMARK   13  A    between atoms: C_26  and  C_27 
ROOT
ATOM      1  C   LIG d   1       4.646   1.077  -9.107  0.00  0.00     0.387 C 
ATOM      2  F   LIG d   1       5.985   1.097  -9.512  0.00  0.00    -0.190 F 
ENDROOT
BRANCH   1   3
ATOM      3  C   LIG d   1       3.879   0.099  -9.958  0.00  0.00     0.292 C 
ATOM      4  N   LIG d   1       2.631  -0.267  -9.606  0.00  0.00    -0.281 N 
ATOM      5  H   LIG d   1       2.193   0.164  -8.855  0.00  0.00     0.155 HD
ATOM      6  O   LIG d   1       4.385  -0.360 -10.961  0.00  0.00    -0.269 OA
BRANCH   4   7
ATOM      7  C   LIG d   1       1.966  -1.269 -10.324  0.00  0.00     0.034 A 
ATOM      8  C   LIG d   1       2.004  -2.584  -9.879  0.00  0.00    -0.037 A 
ATOM      9  C   LIG d   1       1.347  -3.571 -10.588  0.00  0.00    -0.018 A 
ATOM     10  H   LIG d   1       2.546  -2.835  -8.981  0.00  0.00     0.064 H 
ATOM     11  C   LIG d   1       0.649  -3.249 -11.742  0.00  0.00     0.120 A 
ATOM     12  H   LIG d   1       1.377  -4.594 -10.242  0.00  0.00     0.066 H 
ATOM     13  C   LIG d   1       0.615  -1.936 -12.190  0.00  0.00    -0.018 A 
ATOM     14  C   LIG d   1       1.266  -0.947 -11.480  0.00  0.00    -0.037 A 
ATOM     15  H   LIG d   1       0.075  -1.688 -13.092  0.00  0.00     0.066 H 
ATOM     16  H   LIG d   1       1.236   0.075 -11.825  0.00  0.00     0.064 H 
BRANCH  11  17
ATOM     17  O   LIG d   1       0.003  -4.222 -12.440  0.00  0.00    -0.495 OA
BRANCH  17  18
ATOM     18  C   LIG d   1      -1.326  -4.543 -12.025  0.00  0.00     0.079 C 
ATOM     19  H   LIG d   1      -1.297  -5.376 -11.323  0.00  0.00     0.066 H 
ATOM     20  H   LIG d   1      -1.773  -3.675 -11.539  0.00  0.00     0.066 H 
ATOM     21  H   LIG d   1      -1.922  -4.819 -12.894  0.00  0.00     0.066 H 
ENDBRANCH  17  18
ENDBRANCH  11  17
ENDBRANCH   4   7
ENDBRANCH   1   3
BRANCH   1  22
ATOM     22  C   LIG d   1       4.045   2.475  -9.267  0.00  0.00     0.459 C 
ATOM     23  F   LIG d   1       3.076   2.681  -8.279  0.00  0.00    -0.165 F 
ATOM     24  F   LIG d   1       5.054   3.435  -9.139  0.00  0.00    -0.165 F 
ATOM     25  F   LIG d   1       3.453   2.587 -10.530  0.00  0.00    -0.165 F 
ENDBRANCH   1  22
BRANCH   1  26
ATOM     26  O   LIG d   1       4.569   0.680  -7.737  0.00  0.00    -0.263 OA
BRANCH  26  27
ATOM     27  C   LIG d   1       5.682  -0.100  -7.294  0.00  0.00     0.428 C 
ATOM     28  F   LIG d   1       5.947  -1.106  -8.231  0.00  0.00    -0.169 F 
ATOM     29  F   LIG d   1       6.805   0.722  -7.162  0.00  0.00    -0.169 F 
BRANCH  27  30
ATOM     30  C   LIG d   1       5.353  -0.737  -5.943  0.00  0.00     0.401 C 
ATOM     31  F   LIG d   1       4.345  -1.693  -6.110  0.00  0.00    -0.191 F 
BRANCH  30  32
ATOM     32  C   LIG d   1       6.605  -1.410  -5.378  0.00  0.00     0.458 C 
ATOM     33  F   LIG d   1       7.339  -0.480  -4.633  0.00  0.00    -0.165 F 
ATOM     34  F   LIG d   1       6.230  -2.476  -4.552  0.00  0.00    -0.165 F 
ATOM     35  F   LIG d   1       7.392  -1.890  -6.431  0.00  0.00    -0.165 F 
ENDBRANCH  30  32
BRANCH  30  36
ATOM     36  O   LIG d   1       4.906   0.274  -5.036  0.00  0.00    -0.264 OA
BRANCH  36  37
ATOM     37  C   LIG d   1       3.681  -0.043  -4.372  0.00  0.00     0.432 C 
ATOM     38  F   LIG d   1       2.603   0.276  -5.205  0.00  0.00    -0.168 F 
ATOM     39  F   LIG d   1       3.651  -1.410  -4.073  0.00  0.00    -0.168 F 
BRANCH  37  40
ATOM     40  C   LIG d   1       3.580   0.764  -3.077  0.00  0.00     0.429 C 
ATOM     41  F   LIG d   1       3.300   2.100  -3.381  0.00  0.00    -0.186 F 
ATOM     42  F   LIG d   1       2.555   0.242  -2.280  0.00  0.00    -0.186 F 
BRANCH  40  43
ATOM     43  C   LIG d   1       4.907   0.681  -2.319  0.00  0.00     0.463 C 
ATOM     44  F   LIG d   1       4.717   1.101  -0.999  0.00  0.00    -0.165 F 
ATOM     45  F   LIG d   1       5.367  -0.640  -2.326  0.00  0.00    -0.165 F 
ATOM     46  F   LIG d   1       5.851   1.507  -2.940  0.00  0.00    -0.165 F 
ENDBRANCH  40  43
ENDBRANCH  37  40
ENDBRANCH  36  37
ENDBRANCH  30  36
ENDBRANCH  27  30
ENDBRANCH  26  27
ENDBRANCH   1  26
TORSDOF 13
ENDMDL
MODEL 2
REMARK VINA RESULT:      -7.3      0.893      1.114
REMARK  13 active torsions:
REMARK  status: ('A' for Active; 'I' for Inactive)
REMARK    1  A    between atoms: C_1  and  O_2 
REMARK    2  A    between atoms: O_2  and  C_3 
REMARK    3  A    between atoms: C_6  and  N_9 
REMARK       I    between atoms: N_9  and  C_10 
REMARK    4  A    between atoms: C_10  and  C_12 
REMARK    5  A    between atoms: C_12  and  C_13 
REMARK    6  A    between atoms: C_12  and  O_17 
REMARK    7  A    between atoms: O_17  and  C_18 
REMARK    8  A    between atoms: C_18  and  C_19 
REMARK    9  A    between atoms: C_19  and  C_20 
REMARK   10  A    between atoms: C_19  and  O_24 
REMARK   11  A    between atoms: O_24  and  C_25 
REMARK   12  A    between atoms: C_25  and  C_26 
REMARK   13  A    between atoms: C_26  and  C_27 
ROOT
ATOM      1  C   LIG d   1       4.259   0.923  -8.872  0.00  0.00     0.387 C 
ATOM      2  F   LIG d   1       5.413   0.731  -9.639  0.00  0.00    -0.190 F 
ENDROOT
BRANCH   1   3
ATOM      3  C   LIG d   1       3.198  -0.055  -9.309  0.00  0.00     0.292 C 
ATOM      4  N   LIG d   1       3.402  -0.833 -10.390  0.00  0.00    -0.281 N 
ATOM      5  H   LIG d   1       4.264  -0.828 -10.835  0.00  0.00     0.155 HD
ATOM      6  O   LIG d   1       2.160  -0.140  -8.687  0.00  0.00    -0.269 OA
BRANCH   4   7
ATOM      7  C   LIG d   1       2.370  -1.648 -10.870  0.00  0.00     0.034 A 
ATOM      8  C   LIG d   1       2.125  -2.881 -10.279  0.00  0.00    -0.037 A 
ATOM      9  C   LIG d   1       1.107  -3.684 -10.753  0.00  0.00    -0.018 A 
ATOM     10  H   LIG d   1       2.731  -3.212  -9.449  0.00  0.00     0.064 H 
ATOM     11  C   LIG d   1       0.327  -3.260 -11.818  0.00  0.00     0.120 A 
ATOM     12  H   LIG d   1       0.917  -4.643 -10.292  0.00  0.00     0.066 H 
ATOM     13  C   LIG d   1       0.574  -2.031 -12.414  0.00  0.00    -0.018 A 
ATOM     14  C   LIG d   1       1.588  -1.224 -11.937  0.00  0.00    -0.037 A 
ATOM     15  H   LIG d   1      -0.031  -1.703 -13.246  0.00  0.00     0.066 H 
ATOM     16  H   LIG d   1       1.778  -0.266 -12.397  0.00  0.00     0.064 H 
BRANCH  11  17
ATOM     17  O   LIG d   1      -0.676  -4.051 -12.285  0.00  0.00    -0.495 OA
BRANCH  17  18
ATOM     18  C   LIG d   1      -0.508  -5.463 -12.140  0.00  0.00     0.079 C 
ATOM     19  H   LIG d   1      -0.616  -5.943 -13.112  0.00  0.00     0.066 H 
ATOM     20  H   LIG d   1       0.486  -5.670 -11.742  0.00  0.00     0.066 H 
ATOM     21  H   LIG d   1      -1.261  -5.851 -11.456  0.00  0.00     0.066 H 
ENDBRANCH  17  18
ENDBRANCH  11  17
ENDBRANCH   4   7
ENDBRANCH   1   3
BRANCH   1  22
ATOM     22  C   LIG d   1       3.748   2.352  -9.069  0.00  0.00     0.459 C 
ATOM     23  F   LIG d   1       2.862   2.675  -8.036  0.00  0.00    -0.165 F 
ATOM     24  F   LIG d   1       4.829   3.240  -9.052  0.00  0.00    -0.165 F 
ATOM     25  F   LIG d   1       3.087   2.446 -10.298  0.00  0.00    -0.165 F 
ENDBRANCH   1  22
BRANCH   1  26
ATOM     26  O   LIG d   1       4.564   0.712  -7.492  0.00  0.00    -0.263 OA
BRANCH  26  27
ATOM     27  C   LIG d   1       5.824   0.077  -7.266  0.00  0.00     0.428 C 
ATOM     28  F   LIG d   1       6.025  -0.917  -8.230  0.00  0.00    -0.169 F 
ATOM     29  F   LIG d   1       6.847   1.027  -7.356  0.00  0.00    -0.169 F 
BRANCH  27  30
ATOM     30  C   LIG d   1       5.835  -0.553  -5.873  0.00  0.00     0.401 C 
ATOM     31  F   LIG d   1       5.240  -1.819  -5.929  0.00  0.00    -0.191 F 
BRANCH  30  32
ATOM     32  C   LIG d   1       7.278  -0.690  -5.385  0.00  0.00     0.458 C 
ATOM     33  F   LIG d   1       8.093  -1.097  -6.447  0.00  0.00    -0.165 F 
ATOM     34  F   LIG d   1       7.726   0.544  -4.901  0.00  0.00    -0.165 F 
ATOM     35  F   LIG d   1       7.337  -1.642  -4.361  0.00  0.00    -0.165 F 
ENDBRANCH  30  32
BRANCH  30  36
ATOM     36  O   LIG d   1       5.103   0.277  -4.968  0.00  0.00    -0.264 OA
BRANCH  36  37
ATOM     37  C   LIG d   1       4.061  -0.405  -4.267  0.00  0.00     0.432 C 
ATOM     38  F   LIG d   1       2.954  -0.554  -5.109  0.00  0.00    -0.168 F 
ATOM     39  F   LIG d   1       4.515  -1.667  -3.867  0.00  0.00    -0.168 F 
BRANCH  37  40
ATOM     40  C   LIG d   1       3.659   0.406  -3.035  0.00  0.00     0.429 C 
ATOM     41  F   LIG d   1       3.609   1.764  -3.367  0.00  0.00    -0.186 F 
ATOM     42  F   LIG d   1       2.399  -0.011  -2.591  0.00  0.00    -0.186 F 
BRANCH  40  43
ATOM     43  C   LIG d   1       4.688   0.191  -1.923  0.00  0.00     0.463 C 
ATOM     44  F   LIG d   1       4.612   1.244  -1.007  0.00  0.00    -0.165 F 
ATOM     45  F   LIG d   1       4.422  -1.017  -1.269  0.00  0.00    -0.165 F 
ATOM     46  F   LIG d   1       5.972   0.147  -2.479  0.00  0.00    -0.165 F 
ENDBRANCH  40  43
ENDBRANCH  37  40
ENDBRANCH  36  37
ENDBRANCH  30  36
ENDBRANCH  27  30
ENDBRANCH  26  27
ENDBRANCH   1  26
TORSDOF 13
ENDMDL
MODEL 3
REMARK VINA RESULT:      -6.8      3.879      7.923
REMARK  13 active torsions:
REMARK  status: ('A' for Active; 'I' for Inactive)
REMARK    1  A    between atoms: C_1  and  O_2 
REMARK    2  A    between atoms: O_2  and  C_3 
REMARK    3  A    between atoms: C_6  and  N_9 
REMARK       I    between atoms: N_9  and  C_10 
REMARK    4  A    between atoms: C_10  and  C_12 
REMARK    5  A    between atoms: C_12  and  C_13 
REMARK    6  A    between atoms: C_12  and  O_17 
REMARK    7  A    between atoms: O_17  and  C_18 
REMARK    8  A    between atoms: C_18  and  C_19 
REMARK    9  A    between atoms: C_19  and  C_20 
REMARK   10  A    between atoms: C_19  and  O_24 
REMARK   11  A    between atoms: O_24  and  C_25 
REMARK   12  A    between atoms: C_25  and  C_26 
REMARK   13  A    between atoms: C_26  and  C_27 
ROOT
ATOM      1  C   LIG d   1       7.730   0.600  -5.891  0.00  0.00     0.387 C 
ATOM      2  F   LIG d   1       8.024   0.875  -7.230  0.00  0.00    -0.190 F 
ENDROOT
BRANCH   1   3
ATOM      3  C   LIG d   1       8.020   1.818  -5.052  0.00  0.00     0.292 C 
ATOM      4  N   LIG d   1       9.075   2.603  -5.346  0.00  0.00    -0.281 N 
ATOM      5  H   LIG d   1       9.596   2.436  -6.147  0.00  0.00     0.155 HD
ATOM      6  O   LIG d   1       7.303   2.091  -4.112  0.00  0.00    -0.269 OA
BRANCH   4   7
ATOM      7  C   LIG d   1       9.419   3.661  -4.495  0.00  0.00     0.034 A 
ATOM      8  C   LIG d   1       9.988   3.399  -3.256  0.00  0.00    -0.037 A 
ATOM      9  C   LIG d   1      10.327   4.443  -2.417  0.00  0.00    -0.018 A 
ATOM     10  H   LIG d   1      10.165   2.380  -2.947  0.00  0.00     0.064 H 
ATOM     11  C   LIG d   1      10.101   5.752  -2.813  0.00  0.00     0.120 A 
ATOM     12  H   LIG d   1      10.770   4.238  -1.454  0.00  0.00     0.066 H 
ATOM     13  C   LIG d   1       9.527   6.015  -4.049  0.00  0.00    -0.018 A 
ATOM     14  C   LIG d   1       9.192   4.973  -4.891  0.00  0.00    -0.037 A 
ATOM     15  H   LIG d   1       9.346   7.036  -4.354  0.00  0.00     0.066 H 
ATOM     16  H   LIG d   1       8.750   5.177  -5.854  0.00  0.00     0.064 H 
BRANCH  11  17
ATOM     17  O   LIG d   1      10.435   6.780  -1.987  0.00  0.00    -0.495 OA
BRANCH  17  18
ATOM     18  C   LIG d   1      10.522   6.487  -0.591  0.00  0.00     0.079 C 
ATOM     19  H   LIG d   1      11.509   6.764  -0.222  0.00  0.00     0.066 H 
ATOM     20  H   LIG d   1       9.761   7.054  -0.053  0.00  0.00     0.066 H 
ATOM     21  H   LIG d   1      10.360   5.421  -0.432  0.00  0.00     0.066 H 
ENDBRANCH  17  18
ENDBRANCH  11  17
ENDBRANCH   4   7
ENDBRANCH   1   3
BRANCH   1  22
ATOM     22  C   LIG d   1       8.594  -0.568  -5.409  0.00  0.00     0.459 C 
ATOM     23  F   LIG d   1       9.768  -0.072  -4.831  0.00  0.00    -0.165 F 
ATOM     24  F   LIG d   1       7.885  -1.313  -4.460  0.00  0.00    -0.165 F 
ATOM     25  F   LIG d   1       8.919  -1.388  -6.495  0.00  0.00    -0.165 F 
ENDBRANCH   1  22
BRANCH   1  26
ATOM     26  O   LIG d   1       6.349   0.253  -5.767  0.00  0.00    -0.263 OA
BRANCH  26  27
ATOM     27  C   LIG d   1       5.711  -0.041  -7.012  0.00  0.00     0.428 C 
ATOM     28  F   LIG d   1       5.876   1.038  -7.887  0.00  0.00    -0.169 F 
ATOM     29  F   LIG d   1       6.286  -1.187  -7.571  0.00  0.00    -0.169 F 
BRANCH  27  30
ATOM     30  C   LIG d   1       4.219  -0.282  -6.775  0.00  0.00     0.401 C 
ATOM     31  F   LIG d   1       3.548   0.945  -6.744  0.00  0.00    -0.191 F 
BRANCH  30  32
ATOM     32  C   LIG d   1       3.656  -1.143  -7.907  0.00  0.00     0.458 C 
ATOM     33  F   LIG d   1       3.802  -2.496  -7.583  0.00  0.00    -0.165 F 
ATOM     34  F   LIG d   1       2.298  -0.851  -8.084  0.00  0.00    -0.165 F 
ATOM     35  F   LIG d   1       4.350  -0.869  -9.091  0.00  0.00    -0.165 F 
ENDBRANCH  30  32
BRANCH  30  36
ATOM     36  O   LIG d   1       4.037  -0.957  -5.528  0.00  0.00    -0.264 OA
BRANCH  36  37
ATOM     37  C   LIG d   1       3.277  -0.216  -4.572  0.00  0.00     0.432 C 
ATOM     38  F   LIG d   1       3.869   1.037  -4.377  0.00  0.00    -0.168 F 
ATOM     39  F   LIG d   1       1.971  -0.046  -5.045  0.00  0.00    -0.168 F 
BRANCH  37  40
ATOM     40  C   LIG d   1       3.244  -0.977  -3.246  0.00  0.00     0.429 C 
ATOM     41  F   LIG d   1       1.954  -0.925  -2.710  0.00  0.00    -0.186 F 
ATOM     42  F   LIG d   1       3.606  -2.311  -3.464  0.00  0.00    -0.186 F 
BRANCH  40  43
ATOM     43  C   LIG d   1       4.230  -0.335  -2.266  0.00  0.00     0.463 C 
ATOM     44  F   LIG d   1       3.721   0.893  -1.831  0.00  0.00    -0.165 F 
ATOM     45  F   LIG d   1       4.410  -1.181  -1.166  0.00  0.00    -0.165 F 
ATOM     46  F   LIG d   1       5.458  -0.132  -2.905  0.00  0.00    -0.165 F 
ENDBRANCH  40  43
ENDBRANCH  37  40
ENDBRANCH  36  37
ENDBRANCH  30  36
ENDBRANCH  27  30
ENDBRANCH  26  27
ENDBRANCH   1  26
TORSDOF 13
ENDMDL
MODEL 4
REMARK VINA RESULT:      -6.8      3.316      7.664
REMARK  13 active torsions:
REMARK  status: ('A' for Active; 'I' for Inactive)
REMARK    1  A    between atoms: C_1  and  O_2 
REMARK    2  A    between atoms: O_2  and  C_3 
REMARK    3  A    between atoms: C_6  and  N_9 
REMARK       I    between atoms: N_9  and  C_10 
REMARK    4  A    between atoms: C_10  and  C_12 
REMARK    5  A    between atoms: C_12  and  C_13 
REMARK    6  A    between atoms: C_12  and  O_17 
REMARK    7  A    between atoms: O_17  and  C_18 
REMARK    8  A    between atoms: C_18  and  C_19 
REMARK    9  A    between atoms: C_19  and  C_20 
REMARK   10  A    between atoms: C_19  and  O_24 
REMARK   11  A    between atoms: O_24  and  C_25 
REMARK   12  A    between atoms: C_25  and  C_26 
REMARK   13  A    between atoms: C_26  and  C_27 
ROOT
ATOM      1  C   LIG d   1       5.405  -0.943  -3.179  0.00  0.00     0.387 C 
ATOM      2  F   LIG d   1       6.345  -1.875  -2.727  0.00  0.00    -0.190 F 
ENDROOT
BRANCH   1   3
ATOM      3  C   LIG d   1       6.119   0.268  -3.721  0.00  0.00     0.292 C 
ATOM      4  N   LIG d   1       7.401   0.171  -4.122  0.00  0.00    -0.281 N 
ATOM      5  H   LIG d   1       7.839  -0.695  -4.145  0.00  0.00     0.155 HD
ATOM      6  O   LIG d   1       5.538   1.331  -3.795  0.00  0.00    -0.269 OA
BRANCH   4   7
ATOM      7  C   LIG d   1       8.104   1.321  -4.506  0.00  0.00     0.034 A 
ATOM      8  C   LIG d   1       8.241   1.634  -5.852  0.00  0.00    -0.037 A 
ATOM      9  C   LIG d   1       8.934   2.768  -6.229  0.00  0.00    -0.018 A 
ATOM     10  H   LIG d   1       7.808   0.991  -6.603  0.00  0.00     0.064 H 
ATOM     11  C   LIG d   1       9.490   3.595  -5.264  0.00  0.00     0.120 A 
ATOM     12  H   LIG d   1       9.040   3.011  -7.276  0.00  0.00     0.066 H 
ATOM     13  C   LIG d   1       9.358   3.280  -3.919  0.00  0.00    -0.018 A 
ATOM     14  C   LIG d   1       8.661   2.149  -3.540  0.00  0.00    -0.037 A 
ATOM     15  H   LIG d   1       9.796   3.921  -3.169  0.00  0.00     0.066 H 
ATOM     16  H   LIG d   1       8.554   1.906  -2.494  0.00  0.00     0.064 H 
BRANCH  11  17
ATOM     17  O   LIG d   1      10.172   4.711  -5.636  0.00  0.00    -0.495 OA
BRANCH  17  18
ATOM     18  C   LIG d   1       9.573   5.970  -5.323  0.00  0.00     0.079 C 
ATOM     19  H   LIG d   1       9.326   6.495  -6.246  0.00  0.00     0.066 H 
ATOM     20  H   LIG d   1       8.663   5.805  -4.745  0.00  0.00     0.066 H 
ATOM     21  H   LIG d   1      10.270   6.570  -4.740  0.00  0.00     0.066 H 
ENDBRANCH  17  18
ENDBRANCH  11  17
ENDBRANCH   4   7
ENDBRANCH   1   3
BRANCH   1  22
ATOM     22  C   LIG d   1       4.501  -0.526  -2.016  0.00  0.00     0.459 C 
ATOM     23  F   LIG d   1       3.230  -0.205  -2.506  0.00  0.00    -0.165 F 
ATOM     24  F   LIG d   1       4.397  -1.581  -1.104  0.00  0.00    -0.165 F 
ATOM     25  F   LIG d   1       5.049   0.591  -1.377  0.00  0.00    -0.165 F 
ENDBRANCH   1  22
BRANCH   1  26
ATOM     26  O   LIG d   1       4.611  -1.531  -4.211  0.00  0.00    -0.263 OA
BRANCH  26  27
ATOM     27  C   LIG d   1       5.221  -2.657  -4.844  0.00  0.00     0.428 C 
ATOM     28  F   LIG d   1       6.562  -2.741  -4.453  0.00  0.00    -0.169 F 
ATOM     29  F   LIG d   1       4.551  -3.825  -4.465  0.00  0.00    -0.169 F 
BRANCH  27  30
ATOM     30  C   LIG d   1       5.143  -2.494  -6.363  0.00  0.00     0.401 C 
ATOM     31  F   LIG d   1       6.287  -1.831  -6.820  0.00  0.00    -0.191 F 
BRANCH  30  32
ATOM     32  C   LIG d   1       5.054  -3.872  -7.020  0.00  0.00     0.458 C 
ATOM     33  F   LIG d   1       5.936  -4.751  -6.382  0.00  0.00    -0.165 F 
ATOM     34  F   LIG d   1       3.748  -4.361  -6.908  0.00  0.00    -0.165 F 
ATOM     35  F   LIG d   1       5.398  -3.767  -8.373  0.00  0.00    -0.165 F 
ENDBRANCH  30  32
BRANCH  30  36
ATOM     36  O   LIG d   1       3.982  -1.730  -6.701  0.00  0.00    -0.264 OA
BRANCH  36  37
ATOM     37  C   LIG d   1       4.264  -0.554  -7.462  0.00  0.00     0.432 C 
ATOM     38  F   LIG d   1       5.318   0.146  -6.866  0.00  0.00    -0.168 F 
ATOM     39  F   LIG d   1       4.622  -0.915  -8.765  0.00  0.00    -0.168 F 
BRANCH  37  40
ATOM     40  C   LIG d   1       3.020   0.336  -7.504  0.00  0.00     0.429 C 
ATOM     41  F   LIG d   1       1.926  -0.413  -7.947  0.00  0.00    -0.186 F 
ATOM     42  F   LIG d   1       2.757   0.831  -6.222  0.00  0.00    -0.186 F 
BRANCH  40  43
ATOM     43  C   LIG d   1       3.261   1.505  -8.462  0.00  0.00     0.463 C 
ATOM     44  F   LIG d   1       2.621   2.648  -7.973  0.00  0.00    -0.165 F 
ATOM     45  F   LIG d   1       4.634   1.748  -8.566  0.00  0.00    -0.165 F 
ATOM     46  F   LIG d   1       2.747   1.186  -9.724  0.00  0.00    -0.165 F 
ENDBRANCH  40  43
ENDBRANCH  37  40
ENDBRANCH  36  37
ENDBRANCH  30  36
ENDBRANCH  27  30
ENDBRANCH  26  27
ENDBRANCH   1  26
TORSDOF 13
ENDMDL
MODEL 5
REMARK VINA RESULT:      -6.8      3.553      8.088
REMARK  13 active torsions:
REMARK  status: ('A' for Active; 'I' for Inactive)
REMARK    1  A    between atoms: C_1  and  O_2 
REMARK    2  A    between atoms: O_2  and  C_3 
REMARK    3  A    between atoms: C_6  and  N_9 
REMARK       I    between atoms: N_9  and  C_10 
REMARK    4  A    between atoms: C_10  and  C_12 
REMARK    5  A    between atoms: C_12  and  C_13 
REMARK    6  A    between atoms: C_12  and  O_17 
REMARK    7  A    between atoms: O_17  and  C_18 
REMARK    8  A    between atoms: C_18  and  C_19 
REMARK    9  A    between atoms: C_19  and  C_20 
REMARK   10  A    between atoms: C_19  and  O_24 
REMARK   11  A    between atoms: O_24  and  C_25 
REMARK   12  A    between atoms: C_25  and  C_26 
REMARK   13  A    between atoms: C_26  and  C_27 
ROOT
ATOM      1  C   LIG d   1       6.988  -1.491  -4.188  0.00  0.00     0.387 C 
ATOM      2  F   LIG d   1       6.068  -1.852  -5.179  0.00  0.00    -0.190 F 
ENDROOT
BRANCH   1   3
ATOM      3  C   LIG d   1       7.880  -0.393  -4.707  0.00  0.00     0.292 C 
ATOM      4  N   LIG d   1       8.456   0.470  -3.847  0.00  0.00    -0.281 N 
ATOM      5  H   LIG d   1       8.369   0.333  -2.890  0.00  0.00     0.155 HD
ATOM      6  O   LIG d   1       8.079  -0.285  -5.899  0.00  0.00    -0.269 OA
BRANCH   4   7
ATOM      7  C   LIG d   1       9.182   1.564  -4.334  0.00  0.00     0.034 A 
ATOM      8  C   LIG d   1      10.548   1.450  -4.553  0.00  0.00    -0.037 A 
ATOM      9  C   LIG d   1      11.262   2.530  -5.034  0.00  0.00    -0.018 A 
ATOM     10  H   LIG d   1      11.053   0.518  -4.348  0.00  0.00     0.064 H 
ATOM     11  C   LIG d   1      10.615   3.728  -5.299  0.00  0.00     0.120 A 
ATOM     12  H   LIG d   1      12.325   2.441  -5.205  0.00  0.00     0.066 H 
ATOM     13  C   LIG d   1       9.250   3.845  -5.075  0.00  0.00    -0.018 A 
ATOM     14  C   LIG d   1       8.534   2.764  -4.600  0.00  0.00    -0.037 A 
ATOM     15  H   LIG d   1       8.748   4.779  -5.277  0.00  0.00     0.066 H 
ATOM     16  H   LIG d   1       7.472   2.853  -4.430  0.00  0.00     0.064 H 
BRANCH  11  17
ATOM     17  O   LIG d   1      11.319   4.791  -5.773  0.00  0.00    -0.495 OA
BRANCH  17  18
ATOM     18  C   LIG d   1      12.585   5.053  -5.164  0.00  0.00     0.079 C 
ATOM     19  H   LIG d   1      12.551   6.015  -4.653  0.00  0.00     0.066 H 
ATOM     20  H   LIG d   1      12.809   4.267  -4.442  0.00  0.00     0.066 H 
ATOM     21  H   LIG d   1      13.359   5.075  -5.929  0.00  0.00     0.066 H 
ENDBRANCH  17  18
ENDBRANCH  11  17
ENDBRANCH   4   7
ENDBRANCH   1   3
BRANCH   1  22
ATOM     22  C   LIG d   1       7.839  -2.708  -3.816  0.00  0.00     0.459 C 
ATOM     23  F   LIG d   1       7.206  -3.873  -4.262  0.00  0.00    -0.165 F 
ATOM     24  F   LIG d   1       9.097  -2.599  -4.418  0.00  0.00    -0.165 F 
ATOM     25  F   LIG d   1       7.991  -2.763  -2.426  0.00  0.00    -0.165 F 
ENDBRANCH   1  22
BRANCH   1  26
ATOM     26  O   LIG d   1       6.286  -1.030  -3.033  0.00  0.00    -0.263 OA
BRANCH  26  27
ATOM     27  C   LIG d   1       4.900  -1.380  -3.016  0.00  0.00     0.428 C 
ATOM     28  F   LIG d   1       4.652  -2.345  -3.999  0.00  0.00    -0.169 F 
ATOM     29  F   LIG d   1       4.565  -1.897  -1.761  0.00  0.00    -0.169 F 
BRANCH  27  30
ATOM     30  C   LIG d   1       4.057  -0.136  -3.298  0.00  0.00     0.401 C 
ATOM     31  F   LIG d   1       2.699  -0.462  -3.208  0.00  0.00    -0.191 F 
BRANCH  30  32
ATOM     32  C   LIG d   1       4.389   0.949  -2.272  0.00  0.00     0.458 C 
ATOM     33  F   LIG d   1       4.663   0.354  -1.035  0.00  0.00    -0.165 F 
ATOM     34  F   LIG d   1       5.509   1.670  -2.700  0.00  0.00    -0.165 F 
ATOM     35  F   LIG d   1       3.298   1.816  -2.140  0.00  0.00    -0.165 F 
ENDBRANCH  30  32
BRANCH  30  36
ATOM     36  O   LIG d   1       4.344   0.348  -4.612  0.00  0.00    -0.264 OA
BRANCH  36  37
ATOM     37  C   LIG d   1       3.289   0.137  -5.552  0.00  0.00     0.432 C 
ATOM     38  F   LIG d   1       2.482  -0.920  -5.117  0.00  0.00    -0.168 F 
ATOM     39  F   LIG d   1       2.518   1.300  -5.659  0.00  0.00    -0.168 F 
BRANCH  37  40
ATOM     40  C   LIG d   1       3.885  -0.207  -6.918  0.00  0.00     0.429 C 
ATOM     41  F   LIG d   1       5.176   0.322  -7.010  0.00  0.00    -0.186 F 
ATOM     42  F   LIG d   1       3.939  -1.596  -7.068  0.00  0.00    -0.186 F 
BRANCH  40  43
ATOM     43  C   LIG d   1       3.009   0.392  -8.022  0.00  0.00     0.463 C 
ATOM     44  F   LIG d   1       2.879   1.769  -7.819  0.00  0.00    -0.165 F 
ATOM     45  F   LIG d   1       3.604   0.158  -9.267  0.00  0.00    -0.165 F 
ATOM     46  F   LIG d   1       1.745  -0.207  -7.990  0.00  0.00    -0.165 F 
ENDBRANCH  40  43
ENDBRANCH  37  40
ENDBRANCH  36  37
ENDBRANCH  30  36
ENDBRANCH  27  30
ENDBRANCH  26  27
ENDBRANCH   1  26
TORSDOF 13
ENDMDL
MODEL 6
REMARK VINA RESULT:      -6.8      5.173      8.506
REMARK  13 active torsions:
REMARK  status: ('A' for Active; 'I' for Inactive)
REMARK    1  A    between atoms: C_1  and  O_2 
REMARK    2  A    between atoms: O_2  and  C_3 
REMARK    3  A    between atoms: C_6  and  N_9 
REMARK       I    between atoms: N_9  and  C_10 
REMARK    4  A    between atoms: C_10  and  C_12 
REMARK    5  A    between atoms: C_12  and  C_13 
REMARK    6  A    between atoms: C_12  and  O_17 
REMARK    7  A    between atoms: O_17  and  C_18 
REMARK    8  A    between atoms: C_18  and  C_19 
REMARK    9  A    between atoms: C_19  and  C_20 
REMARK   10  A    between atoms: C_19  and  O_24 
REMARK   11  A    between atoms: O_24  and  C_25 
REMARK   12  A    between atoms: C_25  and  C_26 
REMARK   13  A    between atoms: C_26  and  C_27 
ROOT
ATOM      1  C   LIG d   1       9.278   0.886  -5.138  0.00  0.00     0.387 C 
ATOM      2  F   LIG d   1       8.911   1.214  -6.447  0.00  0.00    -0.190 F 
ENDROOT
BRANCH   1   3
ATOM      3  C   LIG d   1       9.220   2.121  -4.276  0.00  0.00     0.292 C 
ATOM      4  N   LIG d   1      10.036   3.162  -4.533  0.00  0.00    -0.281 N 
ATOM      5  H   LIG d   1      10.599   3.154  -5.323  0.00  0.00     0.155 HD
ATOM      6  O   LIG d   1       8.439   2.177  -3.349  0.00  0.00    -0.269 OA
BRANCH   4   7
ATOM      7  C   LIG d   1      10.073   4.256  -3.659  0.00  0.00     0.034 A 
ATOM      8  C   LIG d   1       9.498   5.464  -4.032  0.00  0.00    -0.037 A 
ATOM      9  C   LIG d   1       9.534   6.541  -3.170  0.00  0.00    -0.018 A 
ATOM     10  H   LIG d   1       9.024   5.561  -4.997  0.00  0.00     0.064 H 
ATOM     11  C   LIG d   1      10.143   6.417  -1.929  0.00  0.00     0.120 A 
ATOM     12  H   LIG d   1       9.087   7.480  -3.460  0.00  0.00     0.066 H 
ATOM     13  C   LIG d   1      10.722   5.213  -1.557  0.00  0.00    -0.018 A 
ATOM     14  C   LIG d   1      10.682   4.132  -2.416  0.00  0.00    -0.037 A 
ATOM     15  H   LIG d   1      11.200   5.119  -0.593  0.00  0.00     0.066 H 
ATOM     16  H   LIG d   1      11.128   3.193  -2.125  0.00  0.00     0.064 H 
BRANCH  11  17
ATOM     17  O   LIG d   1      10.179   7.479  -1.080  0.00  0.00    -0.495 OA
BRANCH  17  18
ATOM     18  C   LIG d   1       9.023   8.319  -1.045  0.00  0.00     0.079 C 
ATOM     19  H   LIG d   1       8.593   8.304  -0.044  0.00  0.00     0.066 H 
ATOM     20  H   LIG d   1       9.309   9.340  -1.301  0.00  0.00     0.066 H 
ATOM     21  H   LIG d   1       8.288   7.957  -1.762  0.00  0.00     0.066 H 
ENDBRANCH  17  18
ENDBRANCH  11  17
ENDBRANCH   4   7
ENDBRANCH   1   3
BRANCH   1  22
ATOM     22  C   LIG d   1      10.703   0.327  -5.133  0.00  0.00     0.459 C 
ATOM     23  F   LIG d   1      10.654  -1.071  -5.140  0.00  0.00    -0.165 F 
ATOM     24  F   LIG d   1      11.385   0.777  -6.268  0.00  0.00    -0.165 F 
ATOM     25  F   LIG d   1      11.372   0.763  -3.984  0.00  0.00    -0.165 F 
ENDBRANCH   1  22
BRANCH   1  26
ATOM     26  O   LIG d   1       8.379  -0.097  -4.623  0.00  0.00    -0.263 OA
BRANCH  26  27
ATOM     27  C   LIG d   1       7.386  -0.522  -5.559  0.00  0.00     0.428 C 
ATOM     28  F   LIG d   1       6.616   0.578  -5.953  0.00  0.00    -0.169 F 
ATOM     29  F   LIG d   1       8.009  -1.080  -6.680  0.00  0.00    -0.169 F 
BRANCH  27  30
ATOM     30  C   LIG d   1       6.482  -1.569  -4.904  0.00  0.00     0.401 C 
ATOM     31  F   LIG d   1       5.487  -1.957  -5.808  0.00  0.00    -0.191 F 
BRANCH  30  32
ATOM     32  C   LIG d   1       7.317  -2.788  -4.510  0.00  0.00     0.458 C 
ATOM     33  F   LIG d   1       6.527  -3.941  -4.591  0.00  0.00    -0.165 F 
ATOM     34  F   LIG d   1       8.407  -2.910  -5.379  0.00  0.00    -0.165 F 
ATOM     35  F   LIG d   1       7.780  -2.633  -3.199  0.00  0.00    -0.165 F 
ENDBRANCH  30  32
BRANCH  30  36
ATOM     36  O   LIG d   1       5.874  -1.010  -3.737  0.00  0.00    -0.264 OA
BRANCH  36  37
ATOM     37  C   LIG d   1       4.447  -0.970  -3.788  0.00  0.00     0.432 C 
ATOM     38  F   LIG d   1       4.042  -0.107  -4.812  0.00  0.00    -0.168 F 
ATOM     39  F   LIG d   1       3.952  -2.255  -4.038  0.00  0.00    -0.168 F 
BRANCH  37  40
ATOM     40  C   LIG d   1       3.903  -0.466  -2.451  0.00  0.00     0.429 C 
ATOM     41  F   LIG d   1       2.506  -0.535  -2.460  0.00  0.00    -0.186 F 
ATOM     42  F   LIG d   1       4.402  -1.261  -1.413  0.00  0.00    -0.186 F 
BRANCH  40  43
ATOM     43  C   LIG d   1       4.340   0.985  -2.237  0.00  0.00     0.463 C 
ATOM     44  F   LIG d   1       3.273   1.841  -2.526  0.00  0.00    -0.165 F 
ATOM     45  F   LIG d   1       4.732   1.162  -0.905  0.00  0.00    -0.165 F 
ATOM     46  F   LIG d   1       5.416   1.277  -3.082  0.00  0.00    -0.165 F 
ENDBRANCH  40  43
ENDBRANCH  37  40
ENDBRANCH  36  37
ENDBRANCH  30  36
ENDBRANCH  27  30
ENDBRANCH  26  27
ENDBRANCH   1  26
TORSDOF 13
ENDMDL
MODEL 7
REMARK VINA RESULT:      -6.7      3.251      7.064
REMARK  13 active torsions:
REMARK  status: ('A' for Active; 'I' for Inactive)
REMARK    1  A    between atoms: C_1  and  O_2 
REMARK    2  A    between atoms: O_2  and  C_3 
REMARK    3  A    between atoms: C_6  and  N_9 
REMARK       I    between atoms: N_9  and  C_10 
REMARK    4  A    between atoms: C_10  and  C_12 
REMARK    5  A    between atoms: C_12  and  C_13 
REMARK    6  A    between atoms: C_12  and  O_17 
REMARK    7  A    between atoms: O_17  and  C_18 
REMARK    8  A    between atoms: C_18  and  C_19 
REMARK    9  A    between atoms: C_19  and  C_20 
REMARK   10  A    between atoms: C_19  and  O_24 
REMARK   11  A    between atoms: O_24  and  C_25 
REMARK   12  A    between atoms: C_25  and  C_26 
REMARK   13  A    between atoms: C_26  and  C_27 
ROOT
ATOM      1  C   LIG d   1       3.548  -0.172  -4.564  0.00  0.00     0.387 C 
ATOM      2  F   LIG d   1       2.243  -0.658  -4.695  0.00  0.00    -0.190 F 
ENDROOT
BRANCH   1   3
ATOM      3  C   LIG d   1       4.490  -1.322  -4.321  0.00  0.00     0.292 C 
ATOM      4  N   LIG d   1       5.766  -1.250  -4.748  0.00  0.00    -0.281 N 
ATOM      5  H   LIG d   1       6.103  -0.426  -5.133  0.00  0.00     0.155 HD
ATOM      6  O   LIG d   1       4.099  -2.314  -3.741  0.00  0.00    -0.269 OA
BRANCH   4   7
ATOM      7  C   LIG d   1       6.606  -2.366  -4.636  0.00  0.00     0.034 A 
ATOM      8  C   LIG d   1       6.458  -3.437  -5.507  0.00  0.00    -0.037 A 
ATOM      9  C   LIG d   1       7.287  -4.536  -5.396  0.00  0.00    -0.018 A 
ATOM     10  H   LIG d   1       5.696  -3.411  -6.271  0.00  0.00     0.064 H 
ATOM     11  C   LIG d   1       8.267  -4.570  -4.415  0.00  0.00     0.120 A 
ATOM     12  H   LIG d   1       7.172  -5.369  -6.074  0.00  0.00     0.066 H 
ATOM     13  C   LIG d   1       8.412  -3.503  -3.541  0.00  0.00    -0.018 A 
ATOM     14  C   LIG d   1       7.588  -2.400  -3.654  0.00  0.00    -0.037 A 
ATOM     15  H   LIG d   1       9.173  -3.532  -2.774  0.00  0.00     0.066 H 
ATOM     16  H   LIG d   1       7.703  -1.568  -2.977  0.00  0.00     0.064 H 
BRANCH  11  17
ATOM     17  O   LIG d   1       9.083  -5.653  -4.306  0.00  0.00    -0.495 OA
BRANCH  17  18
ATOM     18  C   LIG d   1       9.846  -5.771  -3.103  0.00  0.00     0.079 C 
ATOM     19  H   LIG d   1      10.902  -5.622  -3.326  0.00  0.00     0.066 H 
ATOM     20  H   LIG d   1       9.515  -5.015  -2.390  0.00  0.00     0.066 H 
ATOM     21  H   LIG d   1       9.701  -6.762  -2.676  0.00  0.00     0.066 H 
ENDBRANCH  17  18
ENDBRANCH  11  17
ENDBRANCH   4   7
ENDBRANCH   1   3
BRANCH   1  22
ATOM     22  C   LIG d   1       3.614   0.800  -3.383  0.00  0.00     0.459 C 
ATOM     23  F   LIG d   1       3.025   2.016  -3.747  0.00  0.00    -0.165 F 
ATOM     24  F   LIG d   1       2.926   0.256  -2.292  0.00  0.00    -0.165 F 
ATOM     25  F   LIG d   1       4.950   1.016  -3.030  0.00  0.00    -0.165 F 
ENDBRANCH   1  22
BRANCH   1  26
ATOM     26  O   LIG d   1       3.925   0.510  -5.761  0.00  0.00    -0.263 OA
BRANCH  26  27
ATOM     27  C   LIG d   1       3.393  -0.072  -6.953  0.00  0.00     0.428 C 
ATOM     28  F   LIG d   1       3.666  -1.445  -6.964  0.00  0.00    -0.169 F 
ATOM     29  F   LIG d   1       2.009   0.128  -6.991  0.00  0.00    -0.169 F 
BRANCH  27  30
ATOM     30  C   LIG d   1       4.037   0.586  -8.174  0.00  0.00     0.401 C 
ATOM     31  F   LIG d   1       4.304  -0.389  -9.142  0.00  0.00    -0.191 F 
BRANCH  30  32
ATOM     32  C   LIG d   1       3.084   1.632  -8.753  0.00  0.00     0.458 C 
ATOM     33  F   LIG d   1       3.756   2.395  -9.715  0.00  0.00    -0.165 F 
ATOM     34  F   LIG d   1       1.992   0.990  -9.349  0.00  0.00    -0.165 F 
ATOM     35  F   LIG d   1       2.630   2.469  -7.728  0.00  0.00    -0.165 F 
ENDBRANCH  30  32
BRANCH  30  36
ATOM     36  O   LIG d   1       5.259   1.218  -7.786  0.00  0.00    -0.264 OA
BRANCH  36  37
ATOM     37  C   LIG d   1       6.433   0.538  -8.232  0.00  0.00     0.432 C 
ATOM     38  F   LIG d   1       6.303  -0.832  -7.976  0.00  0.00    -0.168 F 
ATOM     39  F   LIG d   1       6.597   0.742  -9.607  0.00  0.00    -0.168 F 
BRANCH  37  40
ATOM     40  C   LIG d   1       7.652   1.082  -7.487  0.00  0.00     0.429 C 
ATOM     41  F   LIG d   1       7.992   2.337  -8.002  0.00  0.00    -0.186 F 
ATOM     42  F   LIG d   1       7.353   1.202  -6.126  0.00  0.00    -0.186 F 
BRANCH  40  43
ATOM     43  C   LIG d   1       8.831   0.121  -7.666  0.00  0.00     0.463 C 
ATOM     44  F   LIG d   1       8.824  -0.386  -8.969  0.00  0.00    -0.165 F 
ATOM     45  F   LIG d   1      10.029   0.806  -7.439  0.00  0.00    -0.165 F 
ATOM     46  F   LIG d   1       8.716  -0.933  -6.753  0.00  0.00    -0.165 F 
ENDBRANCH  40  43
ENDBRANCH  37  40
ENDBRANCH  36  37
ENDBRANCH  30  36
ENDBRANCH  27  30
ENDBRANCH  26  27
ENDBRANCH   1  26
TORSDOF 13
ENDMDL
MODEL 8
REMARK VINA RESULT:      -6.5      3.436      7.542
REMARK  13 active torsions:
REMARK  status: ('A' for Active; 'I' for Inactive)
REMARK    1  A    between atoms: C_1  and  O_2 
REMARK    2  A    between atoms: O_2  and  C_3 
REMARK    3  A    between atoms: C_6  and  N_9 
REMARK       I    between atoms: N_9  and  C_10 
REMARK    4  A    between atoms: C_10  and  C_12 
REMARK    5  A    between atoms: C_12  and  C_13 
REMARK    6  A    between atoms: C_12  and  O_17 
REMARK    7  A    between atoms: O_17  and  C_18 
REMARK    8  A    between atoms: C_18  and  C_19 
REMARK    9  A    between atoms: C_19  and  C_20 
REMARK   10  A    between atoms: C_19  and  O_24 
REMARK   11  A    between atoms: O_24  and  C_25 
REMARK   12  A    between atoms: C_25  and  C_26 
REMARK   13  A    between atoms: C_26  and  C_27 
ROOT
ATOM      1  C   LIG d   1       7.386   0.028  -4.284  0.00  0.00     0.387 C 
ATOM      2  F   LIG d   1       7.160   0.021  -2.903  0.00  0.00    -0.190 F 
ENDROOT
BRANCH   1   3
ATOM      3  C   LIG d   1       7.999  -1.285  -4.698  0.00  0.00     0.292 C 
ATOM      4  N   LIG d   1       8.369  -2.182  -3.763  0.00  0.00    -0.281 N 
ATOM      5  H   LIG d   1       8.161  -2.022  -2.829  0.00  0.00     0.155 HD
ATOM      6  O   LIG d   1       8.161  -1.533  -5.875  0.00  0.00    -0.269 OA
BRANCH   4   7
ATOM      7  C   LIG d   1       9.053  -3.344  -4.140  0.00  0.00     0.034 A 
ATOM      8  C   LIG d   1      10.441  -3.350  -4.186  0.00  0.00    -0.037 A 
ATOM      9  C   LIG d   1      11.114  -4.497  -4.557  0.00  0.00    -0.018 A 
ATOM     10  H   LIG d   1      10.993  -2.458  -3.932  0.00  0.00     0.064 H 
ATOM     11  C   LIG d   1      10.405  -5.644  -4.883  0.00  0.00     0.120 A 
ATOM     12  H   LIG d   1      12.194  -4.502  -4.592  0.00  0.00     0.066 H 
ATOM     13  C   LIG d   1       9.018  -5.637  -4.843  0.00  0.00    -0.018 A 
ATOM     14  C   LIG d   1       8.343  -4.493  -4.466  0.00  0.00    -0.037 A 
ATOM     15  H   LIG d   1       8.466  -6.529  -5.102  0.00  0.00     0.066 H 
ATOM     16  H   LIG d   1       7.264  -4.489  -4.431  0.00  0.00     0.064 H 
BRANCH  11  17
ATOM     17  O   LIG d   1      11.068  -6.773  -5.249  0.00  0.00    -0.495 OA
BRANCH  17  18
ATOM     18  C   LIG d   1      12.431  -6.886  -4.835  0.00  0.00     0.079 C 
ATOM     19  H   LIG d   1      12.600  -6.254  -3.963  0.00  0.00     0.066 H 
ATOM     20  H   LIG d   1      12.647  -7.924  -4.578  0.00  0.00     0.066 H 
ATOM     21  H   LIG d   1      13.086  -6.569  -5.646  0.00  0.00     0.066 H 
ENDBRANCH  17  18
ENDBRANCH  11  17
ENDBRANCH   4   7
ENDBRANCH   1   3
BRANCH   1  22
ATOM     22  C   LIG d   1       8.339   1.171  -4.639  0.00  0.00     0.459 C 
ATOM     23  F   LIG d   1       8.066   1.619  -5.936  0.00  0.00    -0.165 F 
ATOM     24  F   LIG d   1       8.162   2.224  -3.735  0.00  0.00    -0.165 F 
ATOM     25  F   LIG d   1       9.660   0.716  -4.571  0.00  0.00    -0.165 F 
ENDBRANCH   1  22
BRANCH   1  26
ATOM     26  O   LIG d   1       6.145   0.213  -4.968  0.00  0.00    -0.263 OA
BRANCH  26  27
ATOM     27  C   LIG d   1       4.993  -0.041  -4.161  0.00  0.00     0.428 C 
ATOM     28  F   LIG d   1       5.173  -1.235  -3.454  0.00  0.00    -0.169 F 
ATOM     29  F   LIG d   1       4.815   1.013  -3.259  0.00  0.00    -0.169 F 
BRANCH  27  30
ATOM     30  C   LIG d   1       3.759  -0.159  -5.057  0.00  0.00     0.401 C 
ATOM     31  F   LIG d   1       3.551  -1.503  -5.388  0.00  0.00    -0.191 F 
BRANCH  30  32
ATOM     32  C   LIG d   1       2.535   0.378  -4.314  0.00  0.00     0.458 C 
ATOM     33  F   LIG d   1       1.370  -0.090  -4.932  0.00  0.00    -0.165 F 
ATOM     34  F   LIG d   1       2.565  -0.060  -2.985  0.00  0.00    -0.165 F 
ATOM     35  F   LIG d   1       2.548   1.777  -4.344  0.00  0.00    -0.165 F 
ENDBRANCH  30  32
BRANCH  30  36
ATOM     36  O   LIG d   1       3.962   0.599  -6.252  0.00  0.00    -0.264 OA
BRANCH  36  37
ATOM     37  C   LIG d   1       3.735  -0.139  -7.454  0.00  0.00     0.432 C 
ATOM     38  F   LIG d   1       4.506  -1.307  -7.436  0.00  0.00    -0.168 F 
ATOM     39  F   LIG d   1       2.380  -0.475  -7.547  0.00  0.00    -0.168 F 
BRANCH  37  40
ATOM     40  C   LIG d   1       4.133   0.715  -8.659  0.00  0.00     0.429 C 
ATOM     41  F   LIG d   1       5.290   1.439  -8.356  0.00  0.00    -0.186 F 
ATOM     42  F   LIG d   1       4.376  -0.114  -9.759  0.00  0.00    -0.186 F 
BRANCH  40  43
ATOM     43  C   LIG d   1       2.997   1.686  -8.993  0.00  0.00     0.463 C 
ATOM     44  F   LIG d   1       2.641   2.399  -7.845  0.00  0.00    -0.165 F 
ATOM     45  F   LIG d   1       3.423   2.578  -9.983  0.00  0.00    -0.165 F 
ATOM     46  F   LIG d   1       1.891   0.966  -9.459  0.00  0.00    -0.165 F 
ENDBRANCH  40  43
ENDBRANCH  37  40
ENDBRANCH  36  37
ENDBRANCH  30  36
ENDBRANCH  27  30
ENDBRANCH  26  27
ENDBRANCH   1  26
TORSDOF 13
ENDMDL
MODEL 9
REMARK VINA RESULT:      -6.5      2.907      5.946
REMARK  13 active torsions:
REMARK  status: ('A' for Active; 'I' for Inactive)
REMARK    1  A    between atoms: C_1  and  O_2 
REMARK    2  A    between atoms: O_2  and  C_3 
REMARK    3  A    between atoms: C_6  and  N_9 
REMARK       I    between atoms: N_9  and  C_10 
REMARK    4  A    between atoms: C_10  and  C_12 
REMARK    5  A    between atoms: C_12  and  C_13 
REMARK    6  A    between atoms: C_12  and  O_17 
REMARK    7  A    between atoms: O_17  and  C_18 
REMARK    8  A    between atoms: C_18  and  C_19 
REMARK    9  A    between atoms: C_19  and  C_20 
REMARK   10  A    between atoms: C_19  and  O_24 
REMARK   11  A    between atoms: O_24  and  C_25 
REMARK   12  A    between atoms: C_25  and  C_26 
REMARK   13  A    between atoms: C_26  and  C_27 
ROOT
ATOM      1  C   LIG d   1       6.245  -2.716  -4.477  0.00  0.00     0.387 C 
ATOM      2  F   LIG d   1       5.370  -2.915  -3.404  0.00  0.00    -0.190 F 
ENDROOT
BRANCH   1   3
ATOM      3  C   LIG d   1       5.808  -3.562  -5.646  0.00  0.00     0.292 C 
ATOM      4  N   LIG d   1       4.701  -4.324  -5.549  0.00  0.00    -0.281 N 
ATOM      5  H   LIG d   1       4.137  -4.263  -4.762  0.00  0.00     0.155 HD
ATOM      6  O   LIG d   1       6.453  -3.557  -6.673  0.00  0.00    -0.269 OA
BRANCH   4   7
ATOM      7  C   LIG d   1       4.364  -5.204  -6.585  0.00  0.00     0.034 A 
ATOM      8  C   LIG d   1       3.677  -4.738  -7.698  0.00  0.00    -0.037 A 
ATOM      9  C   LIG d   1       3.347  -5.607  -8.719  0.00  0.00    -0.018 A 
ATOM     10  H   LIG d   1       3.401  -3.696  -7.765  0.00  0.00     0.064 H 
ATOM     11  C   LIG d   1       3.702  -6.945  -8.634  0.00  0.00     0.120 A 
ATOM     12  H   LIG d   1       2.813  -5.243  -9.585  0.00  0.00     0.066 H 
ATOM     13  C   LIG d   1       4.383  -7.413  -7.520  0.00  0.00    -0.018 A 
ATOM     14  C   LIG d   1       4.720  -6.545  -6.501  0.00  0.00    -0.037 A 
ATOM     15  H   LIG d   1       4.655  -8.457  -7.453  0.00  0.00     0.066 H 
ATOM     16  H   LIG d   1       5.254  -6.908  -5.636  0.00  0.00     0.064 H 
BRANCH  11  17
ATOM     17  O   LIG d   1       3.376  -7.801  -9.640  0.00  0.00    -0.495 OA
BRANCH  17  18
ATOM     18  C   LIG d   1       2.421  -7.340 -10.598  0.00  0.00     0.079 C 
ATOM     19  H   LIG d   1       1.443  -7.254 -10.125  0.00  0.00     0.066 H 
ATOM     20  H   LIG d   1       2.728  -6.364 -10.976  0.00  0.00     0.066 H 
ATOM     21  H   LIG d   1       2.364  -8.047 -11.425  0.00  0.00     0.066 H 
ENDBRANCH  17  18
ENDBRANCH  11  17
ENDBRANCH   4   7
ENDBRANCH   1   3
BRANCH   1  22
ATOM     22  C   LIG d   1       7.662  -3.116  -4.060  0.00  0.00     0.459 C 
ATOM     23  F   LIG d   1       7.816  -4.500  -4.200  0.00  0.00    -0.165 F 
ATOM     24  F   LIG d   1       8.591  -2.459  -4.873  0.00  0.00    -0.165 F 
ATOM     25  F   LIG d   1       7.875  -2.757  -2.725  0.00  0.00    -0.165 F 
ENDBRANCH   1  22
BRANCH   1  26
ATOM     26  O   LIG d   1       6.231  -1.338  -4.854  0.00  0.00    -0.263 OA
BRANCH  26  27
ATOM     27  C   LIG d   1       5.636  -0.476  -3.882  0.00  0.00     0.428 C 
ATOM     28  F   LIG d   1       5.588  -1.130  -2.646  0.00  0.00    -0.169 F 
ATOM     29  F   LIG d   1       6.400   0.690  -3.763  0.00  0.00    -0.169 F 
BRANCH  27  30
ATOM     30  C   LIG d   1       4.217  -0.114  -4.323  0.00  0.00     0.401 C 
ATOM     31  F   LIG d   1       3.442  -1.277  -4.403  0.00  0.00    -0.191 F 
BRANCH  30  32
ATOM     32  C   LIG d   1       3.595   0.843  -3.304  0.00  0.00     0.458 C 
ATOM     33  F   LIG d   1       2.897   1.853  -3.978  0.00  0.00    -0.165 F 
ATOM     34  F   LIG d   1       2.712   0.139  -2.479  0.00  0.00    -0.165 F 
ATOM     35  F   LIG d   1       4.606   1.416  -2.525  0.00  0.00    -0.165 F 
ENDBRANCH  30  32
BRANCH  30  36
ATOM     36  O   LIG d   1       4.262   0.518  -5.604  0.00  0.00    -0.264 OA
BRANCH  36  37
ATOM     37  C   LIG d   1       3.376  -0.058  -6.567  0.00  0.00     0.432 C 
ATOM     38  F   LIG d   1       3.731  -1.393  -6.786  0.00  0.00    -0.168 F 
ATOM     39  F   LIG d   1       2.063   0.003  -6.088  0.00  0.00    -0.168 F 
BRANCH  37  40
ATOM     40  C   LIG d   1       3.476   0.719  -7.880  0.00  0.00     0.429 C 
ATOM     41  F   LIG d   1       2.754   1.912  -7.773  0.00  0.00    -0.186 F 
ATOM     42  F   LIG d   1       4.818   1.010  -8.150  0.00  0.00    -0.186 F 
BRANCH  40  43
ATOM     43  C   LIG d   1       2.899  -0.126  -9.018  0.00  0.00     0.463 C 
ATOM     44  F   LIG d   1       2.695   0.682 -10.141  0.00  0.00    -0.165 F 
ATOM     45  F   LIG d   1       3.796  -1.151  -9.339  0.00  0.00    -0.165 F 
ATOM     46  F   LIG d   1       1.681  -0.682  -8.614  0.00  0.00    -0.165 F 
ENDBRANCH  40  43
ENDBRANCH  37  40
ENDBRANCH  36  37
ENDBRANCH  30  36
ENDBRANCH  27  30
ENDBRANCH  26  27
ENDBRANCH   1  26
TORSDOF 13
ENDMDL
MODEL 10
REMARK VINA RESULT:      -6.3      2.835      4.252
REMARK  13 active torsions:
REMARK  status: ('A' for Active; 'I' for Inactive)
REMARK    1  A    between atoms: C_1  and  O_2 
REMARK    2  A    between atoms: O_2  and  C_3 
REMARK    3  A    between atoms: C_6  and  N_9 
REMARK       I    between atoms: N_9  and  C_10 
REMARK    4  A    between atoms: C_10  and  C_12 
REMARK    5  A    between atoms: C_12  and  C_13 
REMARK    6  A    between atoms: C_12  and  O_17 
REMARK    7  A    between atoms: O_17  and  C_18 
REMARK    8  A    between atoms: C_18  and  C_19 
REMARK    9  A    between atoms: C_19  and  C_20 
REMARK   10  A    between atoms: C_19  and  O_24 
REMARK   11  A    between atoms: O_24  and  C_25 
REMARK   12  A    between atoms: C_25  and  C_26 
REMARK   13  A    between atoms: C_26  and  C_27 
ROOT
ATOM      1  C   LIG d   1       2.943  -0.087  -9.717  0.00  0.00     0.387 C 
ATOM      2  F   LIG d   1       2.484   1.200  -9.418  0.00  0.00    -0.190 F 
ENDROOT
BRANCH   1   3
ATOM      3  C   LIG d   1       4.013  -0.006 -10.775  0.00  0.00     0.292 C 
ATOM      4  N   LIG d   1       4.755  -1.092 -11.068  0.00  0.00    -0.281 N 
ATOM      5  H   LIG d   1       4.543  -1.948 -10.663  0.00  0.00     0.155 HD
ATOM      6  O   LIG d   1       4.208   1.039 -11.362  0.00  0.00    -0.269 OA
BRANCH   4   7
ATOM      7  C   LIG d   1       5.831  -0.985 -11.958  0.00  0.00     0.034 A 
ATOM      8  C   LIG d   1       7.119  -0.804 -11.472  0.00  0.00    -0.037 A 
ATOM      9  C   LIG d   1       8.180  -0.699 -12.350  0.00  0.00    -0.018 A 
ATOM     10  H   LIG d   1       7.292  -0.745 -10.408  0.00  0.00     0.064 H 
ATOM     11  C   LIG d   1       7.959  -0.776 -13.718  0.00  0.00     0.120 A 
ATOM     12  H   LIG d   1       9.182  -0.559 -11.972  0.00  0.00     0.066 H 
ATOM     13  C   LIG d   1       6.672  -0.951 -14.205  0.00  0.00    -0.018 A 
ATOM     14  C   LIG d   1       5.611  -1.062 -13.328  0.00  0.00    -0.037 A 
ATOM     15  H   LIG d   1       6.500  -1.006 -15.269  0.00  0.00     0.066 H 
ATOM     16  H   LIG d   1       4.609  -1.203 -13.706  0.00  0.00     0.064 H 
BRANCH  11  17
ATOM     17  O   LIG d   1       9.004  -0.672 -14.582  0.00  0.00    -0.495 OA
BRANCH  17  18
ATOM     18  C   LIG d   1       9.242   0.613 -15.159  0.00  0.00     0.079 C 
ATOM     19  H   LIG d   1       8.402   0.886 -15.798  0.00  0.00     0.066 H 
ATOM     20  H   LIG d   1       9.349   1.353 -14.365  0.00  0.00     0.066 H 
ATOM     21  H   LIG d   1      10.155   0.582 -15.753  0.00  0.00     0.066 H 
ENDBRANCH  17  18
ENDBRANCH  11  17
ENDBRANCH   4   7
ENDBRANCH   1   3
BRANCH   1  22
ATOM     22  C   LIG d   1       1.778  -0.936 -10.233  0.00  0.00     0.459 C 
ATOM     23  F   LIG d   1       1.735  -0.867 -11.630  0.00  0.00    -0.165 F 
ATOM     24  F   LIG d   1       1.958  -2.265  -9.836  0.00  0.00    -0.165 F 
ATOM     25  F   LIG d   1       0.577  -0.450  -9.706  0.00  0.00    -0.165 F 
ENDBRANCH   1  22
BRANCH   1  26
ATOM     26  O   LIG d   1       3.482  -0.686  -8.538  0.00  0.00    -0.263 OA
BRANCH  26  27
ATOM     27  C   LIG d   1       3.907   0.256  -7.550  0.00  0.00     0.428 C 
ATOM     28  F   LIG d   1       4.732   1.216  -8.146  0.00  0.00    -0.169 F 
ATOM     29  F   LIG d   1       2.788   0.884  -6.994  0.00  0.00    -0.169 F 
BRANCH  27  30
ATOM     30  C   LIG d   1       4.682  -0.473  -6.451  0.00  0.00     0.401 C 
ATOM     31  F   LIG d   1       4.181  -1.772  -6.309  0.00  0.00    -0.191 F 
BRANCH  30  32
ATOM     32  C   LIG d   1       6.163  -0.536  -6.828  0.00  0.00     0.458 C 
ATOM     33  F   LIG d   1       6.784   0.671  -6.488  0.00  0.00    -0.165 F 
ATOM     34  F   LIG d   1       6.777  -1.586  -6.135  0.00  0.00    -0.165 F 
ATOM     35  F   LIG d   1       6.286  -0.751  -8.205  0.00  0.00    -0.165 F 
ENDBRANCH  30  32
BRANCH  30  36
ATOM     36  O   LIG d   1       4.535   0.232  -5.216  0.00  0.00    -0.264 OA
BRANCH  36  37
ATOM     37  C   LIG d   1       3.870  -0.516  -4.196  0.00  0.00     0.432 C 
ATOM     38  F   LIG d   1       2.644  -0.981  -4.685  0.00  0.00    -0.168 F 
ATOM     39  F   LIG d   1       4.665  -1.604  -3.821  0.00  0.00    -0.168 F 
BRANCH  37  40
ATOM     40  C   LIG d   1       3.628   0.381  -2.982  0.00  0.00     0.429 C 
ATOM     41  F   LIG d   1       3.652   1.721  -3.380  0.00  0.00    -0.186 F 
ATOM     42  F   LIG d   1       2.380   0.084  -2.423  0.00  0.00    -0.186 F 
BRANCH  40  43
ATOM     43  C   LIG d   1       4.723   0.138  -1.941  0.00  0.00     0.463 C 
ATOM     44  F   LIG d   1       5.970   0.118  -2.573  0.00  0.00    -0.165 F 
ATOM     45  F   LIG d   1       4.699   1.164  -0.990  0.00  0.00    -0.165 F 
ATOM     46  F   LIG d   1       4.500  -1.089  -1.308  0.00  0.00    -0.165 F 
ENDBRANCH  40  43
ENDBRANCH  37  40
ENDBRANCH  36  37
ENDBRANCH  30  36
ENDBRANCH  27  30
ENDBRANCH  26  27
ENDBRANCH   1  26
TORSDOF 13
ENDMDL
