MODEL 1
REMARK VINA RESULT:      -7.4      0.000      0.000
REMARK  9 active torsions:
REMARK  status: ('A' for Active; 'I' for Inactive)
REMARK    1  A    between atoms: C_1  and  C_2 
REMARK    2  A    between atoms: C_3  and  C_27 
REMARK    3  A    between atoms: C_9  and  O_13 
REMARK    4  A    between atoms: O_13  and  C_14 
REMARK    5  A    between atoms: C_14  and  C_15 
REMARK       I    between atoms: C_15  and  N_17 
REMARK    6  A    between atoms: N_17  and  C_18 
REMARK    7  A    between atoms: C_18  and  C_19 
REMARK    8  A    between atoms: C_19  and  C_20 
REMARK    9  A    between atoms: C_23  and  O_26 
ROOT
ATOM      1  C   LIG d   1      10.713   5.688  -1.092  0.00  0.00     0.114 A 
ATOM      2  C   LIG d   1      10.244   6.647  -1.931  0.00  0.00     0.067 A 
ATOM      3  C   LIG d   1       9.886   6.267  -3.310  0.00  0.00     0.200 A 
ATOM      4  O   LIG d   1       9.460   7.085  -4.107  0.00  0.00    -0.286 OA
ATOM      5  C   LIG d   1      10.067   4.851  -3.676  0.00  0.00     0.065 A 
ATOM      6  C   LIG d   1       9.757   4.389  -4.957  0.00  0.00    -0.044 A 
ATOM      7  C   LIG d   1       9.943   3.072  -5.265  0.00  0.00    -0.019 A 
ATOM      8  C   LIG d   1      10.430   2.187  -4.305  0.00  0.00     0.125 A 
ATOM      9  C   LIG d   1      10.741   2.629  -3.031  0.00  0.00     0.023 A 
ATOM     10  C   LIG d   1      10.564   3.967  -2.702  0.00  0.00     0.142 A 
ATOM     11  O   LIG d   1      10.863   4.414  -1.467  0.00  0.00    -0.459 OA
ATOM     12  H   LIG d   1       9.376   5.072  -5.701  0.00  0.00     0.063 H 
ATOM     13  H   LIG d   1       9.708   2.714  -6.257  0.00  0.00     0.065 H 
ATOM     14  H   LIG d   1      11.122   1.937  -2.295  0.00  0.00     0.069 H 
ENDROOT
BRANCH   8  15
ATOM     15  O   LIG d   1      10.605   0.879  -4.624  0.00  0.00    -0.483 OA
BRANCH  15  16
ATOM     16  C   LIG d   1      10.160   0.462  -5.916  0.00  0.00     0.165 C 
ATOM     17  H   LIG d   1      10.916  -0.176  -6.373  0.00  0.00     0.080 H 
ATOM     18  H   LIG d   1       9.995   1.336  -6.545  0.00  0.00     0.080 H 
BRANCH  16  19
ATOM     19  C   LIG d   1       8.872  -0.308  -5.779  0.00  0.00     0.251 C 
ATOM     20  O   LIG d   1       7.898   0.018  -6.424  0.00  0.00    -0.272 OA
ATOM     21  N   LIG d   1       8.801  -1.360  -4.939  0.00  0.00    -0.312 N 
ATOM     22  H   LIG d   1       9.579  -1.621  -4.422  0.00  0.00     0.149 HD
BRANCH  21  23
ATOM     23  C   LIG d   1       7.549  -2.109  -4.806  0.00  0.00     0.016 C 
ATOM     24  H   LIG d   1       7.672  -3.103  -5.235  0.00  0.00     0.046 H 
ATOM     25  H   LIG d   1       6.752  -1.582  -5.332  0.00  0.00     0.046 H 
BRANCH  23  26
ATOM     26  C   LIG d   1       7.184  -2.234  -3.325  0.00  0.00    -0.012 C 
ATOM     27  H   LIG d   1       8.068  -2.048  -2.716  0.00  0.00     0.033 H 
ATOM     28  H   LIG d   1       6.810  -3.239  -3.127  0.00  0.00     0.033 H 
BRANCH  26  29
ATOM     29  C   LIG d   1       6.116  -1.226  -2.983  0.00  0.00    -0.046 A 
ATOM     30  C   LIG d   1       4.869  -1.656  -2.570  0.00  0.00    -0.055 A 
ATOM     31  C   LIG d   1       3.888  -0.736  -2.257  0.00  0.00    -0.020 A 
ATOM     32  H   LIG d   1       4.660  -2.713  -2.493  0.00  0.00     0.062 H 
ATOM     33  C   LIG d   1       4.156   0.622  -2.356  0.00  0.00     0.117 A 
ATOM     34  H   LIG d   1       2.914  -1.071  -1.935  0.00  0.00     0.065 H 
ATOM     35  C   LIG d   1       5.409   1.051  -2.771  0.00  0.00    -0.020 A 
ATOM     36  C   LIG d   1       6.386   0.126  -3.083  0.00  0.00    -0.055 A 
ATOM     37  H   LIG d   1       5.622   2.108  -2.845  0.00  0.00     0.065 H 
ATOM     38  H   LIG d   1       7.361   0.459  -3.406  0.00  0.00     0.062 H 
BRANCH  33  39
ATOM     39  O   LIG d   1       3.194   1.531  -2.048  0.00  0.00    -0.507 OA
ATOM     40  H   LIG d   1       2.573   1.706  -2.768  0.00  0.00     0.292 HD
ENDBRANCH  33  39
ENDBRANCH  26  29
ENDBRANCH  23  26
ENDBRANCH  21  23
ENDBRANCH  16  19
ENDBRANCH  15  16
ENDBRANCH   8  15
BRANCH   1  41
ATOM     41  C   LIG d   1      11.079   6.076   0.318  0.00  0.00    -0.006 C 
ATOM     42  H   LIG d   1      11.916   6.772   0.297  0.00  0.00     0.031 H 
ATOM     43  H   LIG d   1      10.223   6.552   0.797  0.00  0.00     0.031 H 
ATOM     44  H   LIG d   1      11.359   5.184   0.878  0.00  0.00     0.031 H 
ENDBRANCH   1  41
BRANCH   2  45
ATOM     45  C   LIG d   1      10.095   8.048  -1.471  0.00  0.00    -0.011 A 
ATOM     46  C   LIG d   1       8.883   8.485  -0.939  0.00  0.00    -0.054 A 
ATOM     47  C   LIG d   1       8.751   9.790  -0.511  0.00  0.00    -0.061 A 
ATOM     48  H   LIG d   1       8.049   7.803  -0.861  0.00  0.00     0.062 H 
ATOM     49  C   LIG d   1       9.817  10.665  -0.610  0.00  0.00    -0.062 A 
ATOM     50  H   LIG d   1       7.812  10.130  -0.099  0.00  0.00     0.062 H 
ATOM     51  C   LIG d   1      11.023  10.237  -1.137  0.00  0.00    -0.061 A 
ATOM     52  H   LIG d   1       9.709  11.686  -0.275  0.00  0.00     0.062 H 
ATOM     53  C   LIG d   1      11.169   8.932  -1.562  0.00  0.00    -0.054 A 
ATOM     54  H   LIG d   1      11.853  10.924  -1.212  0.00  0.00     0.062 H 
ATOM     55  H   LIG d   1      12.111   8.598  -1.970  0.00  0.00     0.062 H 
ENDBRANCH   2  45
TORSDOF 9
ENDMDL
MODEL 2
REMARK VINA RESULT:      -7.3      7.599     13.646
REMARK  9 active torsions:
REMARK  status: ('A' for Active; 'I' for Inactive)
REMARK    1  A    between atoms: C_1  and  C_2 
REMARK    2  A    between atoms: C_3  and  C_27 
REMARK    3  A    between atoms: C_9  and  O_13 
REMARK    4  A    between atoms: O_13  and  C_14 
REMARK    5  A    between atoms: C_14  and  C_15 
REMARK       I    between atoms: C_15  and  N_17 
REMARK    6  A    between atoms: N_17  and  C_18 
REMARK    7  A    between atoms: C_18  and  C_19 
REMARK    8  A    between atoms: C_19  and  C_20 
REMARK    9  A    between atoms: C_23  and  O_26 
ROOT
ATOM      1  C   LIG d   1       9.106  -9.911  -2.529  0.00  0.00     0.114 A 
ATOM      2  C   LIG d   1       8.557 -10.650  -1.531  0.00  0.00     0.067 A 
ATOM      3  C   LIG d   1       7.094 -10.832  -1.508  0.00  0.00     0.200 A 
ATOM      4  O   LIG d   1       6.546 -11.484  -0.637  0.00  0.00    -0.286 OA
ATOM      5  C   LIG d   1       6.328 -10.186  -2.589  0.00  0.00     0.065 A 
ATOM      6  C   LIG d   1       4.938 -10.298  -2.657  0.00  0.00    -0.044 A 
ATOM      7  C   LIG d   1       4.258  -9.682  -3.669  0.00  0.00    -0.019 A 
ATOM      8  C   LIG d   1       4.946  -8.953  -4.637  0.00  0.00     0.125 A 
ATOM      9  C   LIG d   1       6.324  -8.833  -4.583  0.00  0.00     0.023 A 
ATOM     10  C   LIG d   1       7.031  -9.449  -3.558  0.00  0.00     0.142 A 
ATOM     11  O   LIG d   1       8.373  -9.342  -3.490  0.00  0.00    -0.459 OA
ATOM     12  H   LIG d   1       4.403 -10.865  -1.911  0.00  0.00     0.063 H 
ATOM     13  H   LIG d   1       3.182  -9.764  -3.721  0.00  0.00     0.065 H 
ATOM     14  H   LIG d   1       6.849  -8.263  -5.336  0.00  0.00     0.069 H 
ENDROOT
BRANCH   8  15
ATOM     15  O   LIG d   1       4.259  -8.350  -5.640  0.00  0.00    -0.483 OA
BRANCH  15  16
ATOM     16  C   LIG d   1       4.965  -7.381  -6.418  0.00  0.00     0.165 C 
ATOM     17  H   LIG d   1       4.738  -7.527  -7.474  0.00  0.00     0.080 H 
ATOM     18  H   LIG d   1       6.036  -7.496  -6.258  0.00  0.00     0.080 H 
BRANCH  16  19
ATOM     19  C   LIG d   1       4.540  -5.997  -6.001  0.00  0.00     0.251 C 
ATOM     20  O   LIG d   1       3.419  -5.606  -6.249  0.00  0.00    -0.272 OA
ATOM     21  N   LIG d   1       5.406  -5.193  -5.353  0.00  0.00    -0.312 N 
ATOM     22  H   LIG d   1       6.303  -5.505  -5.155  0.00  0.00     0.149 HD
BRANCH  21  23
ATOM     23  C   LIG d   1       4.993  -3.847  -4.947  0.00  0.00     0.016 C 
ATOM     24  H   LIG d   1       4.288  -3.917  -4.119  0.00  0.00     0.046 H 
ATOM     25  H   LIG d   1       4.517  -3.343  -5.789  0.00  0.00     0.046 H 
BRANCH  23  26
ATOM     26  C   LIG d   1       6.221  -3.048  -4.505  0.00  0.00    -0.012 C 
ATOM     27  H   LIG d   1       6.753  -2.683  -5.383  0.00  0.00     0.033 H 
ATOM     28  H   LIG d   1       6.881  -3.690  -3.921  0.00  0.00     0.033 H 
BRANCH  26  29
ATOM     29  C   LIG d   1       5.782  -1.879  -3.660  0.00  0.00    -0.046 A 
ATOM     30  C   LIG d   1       4.721  -2.020  -2.786  0.00  0.00    -0.055 A 
ATOM     31  C   LIG d   1       4.316  -0.950  -2.011  0.00  0.00    -0.020 A 
ATOM     32  H   LIG d   1       4.207  -2.966  -2.708  0.00  0.00     0.062 H 
ATOM     33  C   LIG d   1       4.977   0.266  -2.110  0.00  0.00     0.117 A 
ATOM     34  H   LIG d   1       3.487  -1.060  -1.328  0.00  0.00     0.065 H 
ATOM     35  C   LIG d   1       6.042   0.405  -2.989  0.00  0.00    -0.020 A 
ATOM     36  C   LIG d   1       6.443  -0.668  -3.761  0.00  0.00    -0.055 A 
ATOM     37  H   LIG d   1       6.561   1.349  -3.065  0.00  0.00     0.065 H 
ATOM     38  H   LIG d   1       7.271  -0.561  -4.445  0.00  0.00     0.062 H 
BRANCH  33  39
ATOM     39  O   LIG d   1       4.582   1.320  -1.349  0.00  0.00    -0.507 OA
ATOM     40  H   LIG d   1       4.924   1.303  -0.445  0.00  0.00     0.292 HD
ENDBRANCH  33  39
ENDBRANCH  26  29
ENDBRANCH  23  26
ENDBRANCH  21  23
ENDBRANCH  16  19
ENDBRANCH  15  16
ENDBRANCH   8  15
BRANCH   1  41
ATOM     41  C   LIG d   1      10.601  -9.725  -2.554  0.00  0.00    -0.006 C 
ATOM     42  H   LIG d   1      10.834  -8.663  -2.618  0.00  0.00     0.031 H 
ATOM     43  H   LIG d   1      11.033 -10.137  -1.641  0.00  0.00     0.031 H 
ATOM     44  H   LIG d   1      11.018 -10.242  -3.418  0.00  0.00     0.031 H 
ENDBRANCH   1  41
BRANCH   2  45
ATOM     45  C   LIG d   1       9.411 -11.262  -0.485  0.00  0.00    -0.011 A 
ATOM     46  C   LIG d   1       9.783 -12.601  -0.581  0.00  0.00    -0.054 A 
ATOM     47  C   LIG d   1      10.579 -13.165   0.395  0.00  0.00    -0.061 A 
ATOM     48  H   LIG d   1       9.449 -13.197  -1.419  0.00  0.00     0.062 H 
ATOM     49  C   LIG d   1      11.007 -12.405   1.467  0.00  0.00    -0.062 A 
ATOM     50  H   LIG d   1      10.867 -14.204   0.322  0.00  0.00     0.062 H 
ATOM     51  C   LIG d   1      10.641 -11.074   1.568  0.00  0.00    -0.061 A 
ATOM     52  H   LIG d   1      11.629 -12.850   2.229  0.00  0.00     0.062 H 
ATOM     53  C   LIG d   1       9.850 -10.498   0.594  0.00  0.00    -0.054 A 
ATOM     54  H   LIG d   1      10.978 -10.484   2.407  0.00  0.00     0.062 H 
ATOM     55  H   LIG d   1       9.568  -9.459   0.672  0.00  0.00     0.062 H 
ENDBRANCH   2  45
TORSDOF 9
ENDMDL
MODEL 3
REMARK VINA RESULT:      -7.2      8.408     11.414
REMARK  9 active torsions:
REMARK  status: ('A' for Active; 'I' for Inactive)
REMARK    1  A    between atoms: C_1  and  C_2 
REMARK    2  A    between atoms: C_3  and  C_27 
REMARK    3  A    between atoms: C_9  and  O_13 
REMARK    4  A    between atoms: O_13  and  C_14 
REMARK    5  A    between atoms: C_14  and  C_15 
REMARK       I    between atoms: C_15  and  N_17 
REMARK    6  A    between atoms: N_17  and  C_18 
REMARK    7  A    between atoms: C_18  and  C_19 
REMARK    8  A    between atoms: C_19  and  C_20 
REMARK    9  A    between atoms: C_23  and  O_26 
ROOT
ATOM      1  C   LIG d   1       4.416  -1.986  -6.102  0.00  0.00     0.114 A 
ATOM      2  C   LIG d   1       3.999  -0.735  -5.778  0.00  0.00     0.067 A 
ATOM      3  C   LIG d   1       3.281   0.056  -6.793  0.00  0.00     0.200 A 
ATOM      4  O   LIG d   1       2.884   1.185  -6.559  0.00  0.00    -0.286 OA
ATOM      5  C   LIG d   1       3.066  -0.583  -8.103  0.00  0.00     0.065 A 
ATOM      6  C   LIG d   1       2.396   0.081  -9.131  0.00  0.00    -0.044 A 
ATOM      7  C   LIG d   1       2.219  -0.539 -10.336  0.00  0.00    -0.019 A 
ATOM      8  C   LIG d   1       2.695  -1.833 -10.537  0.00  0.00     0.125 A 
ATOM      9  C   LIG d   1       3.361  -2.505  -9.527  0.00  0.00     0.023 A 
ATOM     10  C   LIG d   1       3.555  -1.887  -8.298  0.00  0.00     0.142 A 
ATOM     11  O   LIG d   1       4.201  -2.528  -7.304  0.00  0.00    -0.459 OA
ATOM     12  H   LIG d   1       2.023   1.082  -8.977  0.00  0.00     0.063 H 
ATOM     13  H   LIG d   1       1.705  -0.024 -11.134  0.00  0.00     0.065 H 
ATOM     14  H   LIG d   1       3.730  -3.507  -9.694  0.00  0.00     0.069 H 
ENDROOT
BRANCH   8  15
ATOM     15  O   LIG d   1       2.508  -2.439 -11.737  0.00  0.00    -0.483 OA
BRANCH  15  16
ATOM     16  C   LIG d   1       1.157  -2.651 -12.152  0.00  0.00     0.165 C 
ATOM     17  H   LIG d   1       1.124  -2.778 -13.234  0.00  0.00     0.080 H 
ATOM     18  H   LIG d   1       0.550  -1.792 -11.869  0.00  0.00     0.080 H 
BRANCH  16  19
ATOM     19  C   LIG d   1       0.616  -3.890 -11.486  0.00  0.00     0.251 C 
ATOM     20  O   LIG d   1       1.258  -4.920 -11.508  0.00  0.00    -0.272 OA
ATOM     21  N   LIG d   1      -0.579  -3.855 -10.866  0.00  0.00    -0.312 N 
ATOM     22  H   LIG d   1      -1.093  -3.032 -10.848  0.00  0.00     0.149 HD
BRANCH  21  23
ATOM     23  C   LIG d   1      -1.105  -5.060 -10.218  0.00  0.00     0.016 C 
ATOM     24  H   LIG d   1      -1.554  -4.792  -9.262  0.00  0.00     0.046 H 
ATOM     25  H   LIG d   1      -0.292  -5.768 -10.052  0.00  0.00     0.046 H 
BRANCH  23  26
ATOM     26  C   LIG d   1      -2.163  -5.702 -11.117  0.00  0.00    -0.012 C 
ATOM     27  H   LIG d   1      -2.352  -6.723 -10.783  0.00  0.00     0.033 H 
ATOM     28  H   LIG d   1      -1.806  -5.717 -12.147  0.00  0.00     0.033 H 
BRANCH  26  29
ATOM     29  C   LIG d   1      -3.439  -4.904 -11.040  0.00  0.00    -0.046 A 
ATOM     30  C   LIG d   1      -4.044  -4.457 -12.201  0.00  0.00    -0.055 A 
ATOM     31  C   LIG d   1      -5.213  -3.725 -12.134  0.00  0.00    -0.020 A 
ATOM     32  H   LIG d   1      -3.601  -4.680 -13.161  0.00  0.00     0.062 H 
ATOM     33  C   LIG d   1      -5.781  -3.438 -10.901  0.00  0.00     0.117 A 
ATOM     34  H   LIG d   1      -5.685  -3.375 -13.040  0.00  0.00     0.065 H 
ATOM     35  C   LIG d   1      -5.173  -3.888  -9.738  0.00  0.00    -0.020 A 
ATOM     36  C   LIG d   1      -4.004  -4.620  -9.810  0.00  0.00    -0.055 A 
ATOM     37  H   LIG d   1      -5.616  -3.671  -8.778  0.00  0.00     0.065 H 
ATOM     38  H   LIG d   1      -3.530  -4.971  -8.906  0.00  0.00     0.062 H 
BRANCH  33  39
ATOM     39  O   LIG d   1      -6.932  -2.719 -10.833  0.00  0.00    -0.507 OA
ATOM     40  H   LIG d   1      -7.236  -2.547  -9.931  0.00  0.00     0.292 HD
ENDBRANCH  33  39
ENDBRANCH  26  29
ENDBRANCH  23  26
ENDBRANCH  21  23
ENDBRANCH  16  19
ENDBRANCH  15  16
ENDBRANCH   8  15
BRANCH   1  41
ATOM     41  C   LIG d   1       5.151  -2.795  -5.064  0.00  0.00    -0.006 C 
ATOM     42  H   LIG d   1       6.173  -2.973  -5.399  0.00  0.00     0.031 H 
ATOM     43  H   LIG d   1       5.168  -2.248  -4.122  0.00  0.00     0.031 H 
ATOM     44  H   LIG d   1       4.644  -3.749  -4.921  0.00  0.00     0.031 H 
ENDBRANCH   1  41
BRANCH   2  45
ATOM     45  C   LIG d   1       4.263  -0.175  -4.430  0.00  0.00    -0.011 A 
ATOM     46  C   LIG d   1       3.248  -0.144  -3.476  0.00  0.00    -0.054 A 
ATOM     47  C   LIG d   1       3.499   0.378  -2.223  0.00  0.00    -0.061 A 
ATOM     48  H   LIG d   1       2.267  -0.527  -3.716  0.00  0.00     0.062 H 
ATOM     49  C   LIG d   1       4.754   0.869  -1.914  0.00  0.00    -0.062 A 
ATOM     50  H   LIG d   1       2.712   0.403  -1.482  0.00  0.00     0.062 H 
ATOM     51  C   LIG d   1       5.765   0.840  -2.857  0.00  0.00    -0.061 A 
ATOM     52  H   LIG d   1       4.945   1.277  -0.932  0.00  0.00     0.062 H 
ATOM     53  C   LIG d   1       5.527   0.315  -4.111  0.00  0.00    -0.054 A 
ATOM     54  H   LIG d   1       6.743   1.225  -2.611  0.00  0.00     0.062 H 
ATOM     55  H   LIG d   1       6.318   0.290  -4.846  0.00  0.00     0.062 H 
ENDBRANCH   2  45
TORSDOF 9
ENDMDL
MODEL 4
REMARK VINA RESULT:      -7.2      9.023     11.852
REMARK  9 active torsions:
REMARK  status: ('A' for Active; 'I' for Inactive)
REMARK    1  A    between atoms: C_1  and  C_2 
REMARK    2  A    between atoms: C_3  and  C_27 
REMARK    3  A    between atoms: C_9  and  O_13 
REMARK    4  A    between atoms: O_13  and  C_14 
REMARK    5  A    between atoms: C_14  and  C_15 
REMARK       I    between atoms: C_15  and  N_17 
REMARK    6  A    between atoms: N_17  and  C_18 
REMARK    7  A    between atoms: C_18  and  C_19 
REMARK    8  A    between atoms: C_19  and  C_20 
REMARK    9  A    between atoms: C_23  and  O_26 
ROOT
ATOM      1  C   LIG d   1       4.342  -1.931  -6.203  0.00  0.00     0.114 A 
ATOM      2  C   LIG d   1       3.947  -0.680  -5.853  0.00  0.00     0.067 A 
ATOM      3  C   LIG d   1       3.228   0.139  -6.844  0.00  0.00     0.200 A 
ATOM      4  O   LIG d   1       2.849   1.268  -6.586  0.00  0.00    -0.286 OA
ATOM      5  C   LIG d   1       2.987  -0.475  -8.163  0.00  0.00     0.065 A 
ATOM      6  C   LIG d   1       2.314   0.217  -9.171  0.00  0.00    -0.044 A 
ATOM      7  C   LIG d   1       2.113  -0.379 -10.383  0.00  0.00    -0.019 A 
ATOM      8  C   LIG d   1       2.568  -1.676 -10.613  0.00  0.00     0.125 A 
ATOM      9  C   LIG d   1       3.236  -2.376  -9.624  0.00  0.00     0.023 A 
ATOM     10  C   LIG d   1       3.454  -1.782  -8.386  0.00  0.00     0.142 A 
ATOM     11  O   LIG d   1       4.104  -2.449  -7.412  0.00  0.00    -0.459 OA
ATOM     12  H   LIG d   1       1.957   1.220  -8.994  0.00  0.00     0.063 H 
ATOM     13  H   LIG d   1       1.596   0.156 -11.166  0.00  0.00     0.065 H 
ATOM     14  H   LIG d   1       3.589  -3.379  -9.812  0.00  0.00     0.069 H 
ENDROOT
BRANCH   8  15
ATOM     15  O   LIG d   1       2.357  -2.259 -11.821  0.00  0.00    -0.483 OA
BRANCH  15  16
ATOM     16  C   LIG d   1       1.164  -3.031 -11.969  0.00  0.00     0.165 C 
ATOM     17  H   LIG d   1       0.627  -3.056 -11.020  0.00  0.00     0.080 H 
ATOM     18  H   LIG d   1       1.421  -4.047 -12.266  0.00  0.00     0.080 H 
BRANCH  16  19
ATOM     19  C   LIG d   1       0.288  -2.406 -13.024  0.00  0.00     0.251 C 
ATOM     20  O   LIG d   1       0.584  -2.507 -14.196  0.00  0.00    -0.272 OA
ATOM     21  N   LIG d   1      -0.825  -1.735 -12.666  0.00  0.00    -0.312 N 
ATOM     22  H   LIG d   1      -1.062  -1.654 -11.729  0.00  0.00     0.149 HD
BRANCH  21  23
ATOM     23  C   LIG d   1      -1.676  -1.128 -13.692  0.00  0.00     0.016 C 
ATOM     24  H   LIG d   1      -1.662  -1.747 -14.590  0.00  0.00     0.046 H 
ATOM     25  H   LIG d   1      -1.304  -0.132 -13.932  0.00  0.00     0.046 H 
BRANCH  23  26
ATOM     26  C   LIG d   1      -3.110  -1.022 -13.169  0.00  0.00    -0.012 C 
ATOM     27  H   LIG d   1      -3.144  -1.359 -12.133  0.00  0.00     0.033 H 
ATOM     28  H   LIG d   1      -3.766  -1.646 -13.776  0.00  0.00     0.033 H 
BRANCH  26  29
ATOM     29  C   LIG d   1      -3.569   0.412 -13.247  0.00  0.00    -0.046 A 
ATOM     30  C   LIG d   1      -4.914   0.712 -13.138  0.00  0.00    -0.055 A 
ATOM     31  C   LIG d   1      -5.338   2.024 -13.210  0.00  0.00    -0.020 A 
ATOM     32  H   LIG d   1      -5.635  -0.080 -12.997  0.00  0.00     0.062 H 
ATOM     33  C   LIG d   1      -4.413   3.042 -13.392  0.00  0.00     0.117 A 
ATOM     34  H   LIG d   1      -6.389   2.259 -13.126  0.00  0.00     0.065 H 
ATOM     35  C   LIG d   1      -3.063   2.738 -13.501  0.00  0.00    -0.020 A 
ATOM     36  C   LIG d   1      -2.645   1.424 -13.428  0.00  0.00    -0.055 A 
ATOM     37  H   LIG d   1      -2.341   3.529 -13.637  0.00  0.00     0.065 H 
ATOM     38  H   LIG d   1      -1.595   1.187 -13.512  0.00  0.00     0.062 H 
BRANCH  33  39
ATOM     39  O   LIG d   1      -4.827   4.335 -13.462  0.00  0.00    -0.507 OA
ATOM     40  H   LIG d   1      -5.448   4.510 -14.183  0.00  0.00     0.292 HD
ENDBRANCH  33  39
ENDBRANCH  26  29
ENDBRANCH  23  26
ENDBRANCH  21  23
ENDBRANCH  16  19
ENDBRANCH  15  16
ENDBRANCH   8  15
BRANCH   1  41
ATOM     41  C   LIG d   1       5.078  -2.769  -5.190  0.00  0.00    -0.006 C 
ATOM     42  H   LIG d   1       5.940  -2.215  -4.818  0.00  0.00     0.031 H 
ATOM     43  H   LIG d   1       4.412  -3.003  -4.360  0.00  0.00     0.031 H 
ATOM     44  H   LIG d   1       5.414  -3.694  -5.658  0.00  0.00     0.031 H 
ENDBRANCH   1  41
BRANCH   2  45
ATOM     45  C   LIG d   1       4.235  -0.148  -4.499  0.00  0.00    -0.011 A 
ATOM     46  C   LIG d   1       5.523   0.274  -4.173  0.00  0.00    -0.054 A 
ATOM     47  C   LIG d   1       5.785   0.769  -2.912  0.00  0.00    -0.061 A 
ATOM     48  H   LIG d   1       6.314   0.214  -4.906  0.00  0.00     0.062 H 
ATOM     49  C   LIG d   1       4.774   0.846  -1.972  0.00  0.00    -0.062 A 
ATOM     50  H   LIG d   1       6.784   1.096  -2.658  0.00  0.00     0.062 H 
ATOM     51  C   LIG d   1       3.494   0.429  -2.290  0.00  0.00    -0.061 A 
ATOM     52  H   LIG d   1       4.984   1.234  -0.986  0.00  0.00     0.062 H 
ATOM     53  C   LIG d   1       3.219  -0.062  -3.550  0.00  0.00    -0.054 A 
ATOM     54  H   LIG d   1       2.708   0.492  -1.552  0.00  0.00     0.062 H 
ATOM     55  H   LIG d   1       2.219  -0.384  -3.798  0.00  0.00     0.062 H 
ENDBRANCH   2  45
TORSDOF 9
ENDMDL
MODEL 5
REMARK VINA RESULT:      -7.1      8.049     11.094
REMARK  9 active torsions:
REMARK  status: ('A' for Active; 'I' for Inactive)
REMARK    1  A    between atoms: C_1  and  C_2 
REMARK    2  A    between atoms: C_3  and  C_27 
REMARK    3  A    between atoms: C_9  and  O_13 
REMARK    4  A    between atoms: O_13  and  C_14 
REMARK    5  A    between atoms: C_14  and  C_15 
REMARK       I    between atoms: C_15  and  N_17 
REMARK    6  A    between atoms: N_17  and  C_18 
REMARK    7  A    between atoms: C_18  and  C_19 
REMARK    8  A    between atoms: C_19  and  C_20 
REMARK    9  A    between atoms: C_23  and  O_26 
ROOT
ATOM      1  C   LIG d   1       4.473  -2.020  -6.080  0.00  0.00     0.114 A 
ATOM      2  C   LIG d   1       4.036  -0.767  -5.792  0.00  0.00     0.067 A 
ATOM      3  C   LIG d   1       3.321  -0.010  -6.836  0.00  0.00     0.200 A 
ATOM      4  O   LIG d   1       2.907   1.119  -6.635  0.00  0.00    -0.286 OA
ATOM      5  C   LIG d   1       3.131  -0.684  -8.132  0.00  0.00     0.065 A 
ATOM      6  C   LIG d   1       2.467  -0.054  -9.185  0.00  0.00    -0.044 A 
ATOM      7  C   LIG d   1       2.314  -0.705 -10.376  0.00  0.00    -0.019 A 
ATOM      8  C   LIG d   1       2.808  -1.997 -10.540  0.00  0.00     0.125 A 
ATOM      9  C   LIG d   1       3.468  -2.636  -9.505  0.00  0.00     0.023 A 
ATOM     10  C   LIG d   1       3.638  -1.986  -8.289  0.00  0.00     0.142 A 
ATOM     11  O   LIG d   1       4.280  -2.593  -7.271  0.00  0.00    -0.459 OA
ATOM     12  H   LIG d   1       2.080   0.946  -9.060  0.00  0.00     0.063 H 
ATOM     13  H   LIG d   1       1.803  -0.217 -11.194  0.00  0.00     0.065 H 
ATOM     14  H   LIG d   1       3.852  -3.637  -9.641  0.00  0.00     0.069 H 
ENDROOT
BRANCH   8  15
ATOM     15  O   LIG d   1       2.644  -2.635 -11.727  0.00  0.00    -0.483 OA
BRANCH  15  16
ATOM     16  C   LIG d   1       2.417  -1.817 -12.876  0.00  0.00     0.165 C 
ATOM     17  H   LIG d   1       3.278  -1.876 -13.541  0.00  0.00     0.080 H 
ATOM     18  H   LIG d   1       2.270  -0.783 -12.564  0.00  0.00     0.080 H 
BRANCH  16  19
ATOM     19  C   LIG d   1       1.188  -2.301 -13.602  0.00  0.00     0.251 C 
ATOM     20  O   LIG d   1       1.111  -2.185 -14.807  0.00  0.00    -0.272 OA
ATOM     21  N   LIG d   1       0.176  -2.864 -12.914  0.00  0.00    -0.312 N 
ATOM     22  H   LIG d   1       0.237  -2.956 -11.950  0.00  0.00     0.149 HD
BRANCH  21  23
ATOM     23  C   LIG d   1      -1.018  -3.335 -13.620  0.00  0.00     0.016 C 
ATOM     24  H   LIG d   1      -0.966  -3.032 -14.666  0.00  0.00     0.046 H 
ATOM     25  H   LIG d   1      -1.907  -2.903 -13.161  0.00  0.00     0.046 H 
BRANCH  23  26
ATOM     26  C   LIG d   1      -1.093  -4.861 -13.535  0.00  0.00    -0.012 C 
ATOM     27  H   LIG d   1      -0.181  -5.293 -13.948  0.00  0.00     0.033 H 
ATOM     28  H   LIG d   1      -1.953  -5.215 -14.104  0.00  0.00     0.033 H 
BRANCH  26  29
ATOM     29  C   LIG d   1      -1.239  -5.277 -12.094  0.00  0.00    -0.046 A 
ATOM     30  C   LIG d   1      -0.288  -6.096 -11.512  0.00  0.00    -0.055 A 
ATOM     31  C   LIG d   1      -0.419  -6.480 -10.192  0.00  0.00    -0.020 A 
ATOM     32  H   LIG d   1       0.558  -6.436 -12.091  0.00  0.00     0.062 H 
ATOM     33  C   LIG d   1      -1.506  -6.042  -9.449  0.00  0.00     0.117 A 
ATOM     34  H   LIG d   1       0.323  -7.119  -9.738  0.00  0.00     0.065 H 
ATOM     35  C   LIG d   1      -2.459  -5.221 -10.035  0.00  0.00    -0.020 A 
ATOM     36  C   LIG d   1      -2.323  -4.840 -11.355  0.00  0.00    -0.055 A 
ATOM     37  H   LIG d   1      -3.303  -4.875  -9.456  0.00  0.00     0.065 H 
ATOM     38  H   LIG d   1      -3.064  -4.201 -11.811  0.00  0.00     0.062 H 
BRANCH  33  39
ATOM     39  O   LIG d   1      -1.638  -6.418  -8.149  0.00  0.00    -0.507 OA
ATOM     40  H   LIG d   1      -1.183  -5.837  -7.524  0.00  0.00     0.292 HD
ENDBRANCH  33  39
ENDBRANCH  26  29
ENDBRANCH  23  26
ENDBRANCH  21  23
ENDBRANCH  16  19
ENDBRANCH  15  16
ENDBRANCH   8  15
BRANCH   1  41
ATOM     41  C   LIG d   1       5.204  -2.794  -5.013  0.00  0.00    -0.006 C 
ATOM     42  H   LIG d   1       5.957  -3.429  -5.478  0.00  0.00     0.031 H 
ATOM     43  H   LIG d   1       5.688  -2.099  -4.328  0.00  0.00     0.031 H 
ATOM     44  H   LIG d   1       4.495  -3.412  -4.463  0.00  0.00     0.031 H 
ENDBRANCH   1  41
BRANCH   2  45
ATOM     45  C   LIG d   1       4.275  -0.171  -4.456  0.00  0.00    -0.011 A 
ATOM     46  C   LIG d   1       3.235  -0.089  -3.531  0.00  0.00    -0.054 A 
ATOM     47  C   LIG d   1       3.464   0.466  -2.288  0.00  0.00    -0.061 A 
ATOM     48  H   LIG d   1       2.253  -0.459  -3.786  0.00  0.00     0.062 H 
ATOM     49  C   LIG d   1       4.720   0.942  -1.960  0.00  0.00    -0.062 A 
ATOM     50  H   LIG d   1       2.658   0.531  -1.571  0.00  0.00     0.062 H 
ATOM     51  C   LIG d   1       5.756   0.863  -2.874  0.00  0.00    -0.061 A 
ATOM     52  H   LIG d   1       4.893   1.376  -0.987  0.00  0.00     0.062 H 
ATOM     53  C   LIG d   1       5.541   0.304  -4.117  0.00  0.00    -0.054 A 
ATOM     54  H   LIG d   1       6.735   1.235  -2.612  0.00  0.00     0.062 H 
ATOM     55  H   LIG d   1       6.350   0.240  -4.828  0.00  0.00     0.062 H 
ENDBRANCH   2  45
TORSDOF 9
ENDMDL
MODEL 6
REMARK VINA RESULT:      -7.0      8.679     11.652
REMARK  9 active torsions:
REMARK  status: ('A' for Active; 'I' for Inactive)
REMARK    1  A    between atoms: C_1  and  C_2 
REMARK    2  A    between atoms: C_3  and  C_27 
REMARK    3  A    between atoms: C_9  and  O_13 
REMARK    4  A    between atoms: O_13  and  C_14 
REMARK    5  A    between atoms: C_14  and  C_15 
REMARK       I    between atoms: C_15  and  N_17 
REMARK    6  A    between atoms: N_17  and  C_18 
REMARK    7  A    between atoms: C_18  and  C_19 
REMARK    8  A    between atoms: C_19  and  C_20 
REMARK    9  A    between atoms: C_23  and  O_26 
ROOT
ATOM      1  C   LIG d   1       4.381  -1.928  -6.146  0.00  0.00     0.114 A 
ATOM      2  C   LIG d   1       3.977  -0.677  -5.806  0.00  0.00     0.067 A 
ATOM      3  C   LIG d   1       3.238   0.122  -6.799  0.00  0.00     0.200 A 
ATOM      4  O   LIG d   1       2.852   1.251  -6.550  0.00  0.00    -0.286 OA
ATOM      5  C   LIG d   1       2.989  -0.510  -8.107  0.00  0.00     0.065 A 
ATOM      6  C   LIG d   1       2.297   0.163  -9.116  0.00  0.00    -0.044 A 
ATOM      7  C   LIG d   1       2.088  -0.450 -10.319  0.00  0.00    -0.019 A 
ATOM      8  C   LIG d   1       2.553  -1.745 -10.538  0.00  0.00     0.125 A 
ATOM      9  C   LIG d   1       3.240  -2.426  -9.548  0.00  0.00     0.023 A 
ATOM     10  C   LIG d   1       3.467  -1.815  -8.320  0.00  0.00     0.142 A 
ATOM     11  O   LIG d   1       4.134  -2.463  -7.345  0.00  0.00    -0.459 OA
ATOM     12  H   LIG d   1       1.932   1.165  -8.947  0.00  0.00     0.063 H 
ATOM     13  H   LIG d   1       1.557   0.070 -11.102  0.00  0.00     0.065 H 
ATOM     14  H   LIG d   1       3.601  -3.428  -9.728  0.00  0.00     0.069 H 
ENDROOT
BRANCH   8  15
ATOM     15  O   LIG d   1       2.335  -2.345 -11.736  0.00  0.00    -0.483 OA
BRANCH  15  16
ATOM     16  C   LIG d   1       0.974  -2.583 -12.103  0.00  0.00     0.165 C 
ATOM     17  H   LIG d   1       0.890  -2.615 -13.189  0.00  0.00     0.080 H 
ATOM     18  H   LIG d   1       0.346  -1.781 -11.714  0.00  0.00     0.080 H 
BRANCH  16  19
ATOM     19  C   LIG d   1       0.522  -3.900 -11.526  0.00  0.00     0.251 C 
ATOM     20  O   LIG d   1       1.124  -4.918 -11.794  0.00  0.00    -0.272 OA
ATOM     21  N   LIG d   1      -0.551  -3.947 -10.712  0.00  0.00    -0.312 N 
ATOM     22  H   LIG d   1      -1.033  -3.133 -10.498  0.00  0.00     0.149 HD
BRANCH  21  23
ATOM     23  C   LIG d   1      -0.990  -5.227 -10.151  0.00  0.00     0.016 C 
ATOM     24  H   LIG d   1      -0.585  -5.341  -9.145  0.00  0.00     0.046 H 
ATOM     25  H   LIG d   1      -0.634  -6.042 -10.781  0.00  0.00     0.046 H 
BRANCH  23  26
ATOM     26  C   LIG d   1      -2.518  -5.261 -10.091  0.00  0.00    -0.012 C 
ATOM     27  H   LIG d   1      -2.927  -4.622 -10.875  0.00  0.00     0.033 H 
ATOM     28  H   LIG d   1      -2.852  -4.901  -9.118  0.00  0.00     0.033 H 
BRANCH  26  29
ATOM     29  C   LIG d   1      -2.998  -6.675 -10.294  0.00  0.00    -0.046 A 
ATOM     30  C   LIG d   1      -4.188  -6.911 -10.957  0.00  0.00    -0.055 A 
ATOM     31  C   LIG d   1      -4.631  -8.206 -11.144  0.00  0.00    -0.020 A 
ATOM     32  H   LIG d   1      -4.773  -6.083 -11.329  0.00  0.00     0.062 H 
ATOM     33  C   LIG d   1      -3.880  -9.271 -10.667  0.00  0.00     0.117 A 
ATOM     34  H   LIG d   1      -5.561  -8.391 -11.661  0.00  0.00     0.065 H 
ATOM     35  C   LIG d   1      -2.685  -9.031 -10.002  0.00  0.00    -0.020 A 
ATOM     36  C   LIG d   1      -2.247  -7.734  -9.818  0.00  0.00    -0.055 A 
ATOM     37  H   LIG d   1      -2.096  -9.858  -9.634  0.00  0.00     0.065 H 
ATOM     38  H   LIG d   1      -1.318  -7.547  -9.301  0.00  0.00     0.062 H 
BRANCH  33  39
ATOM     39  O   LIG d   1      -4.312 -10.546 -10.850  0.00  0.00    -0.507 OA
ATOM     40  H   LIG d   1      -5.071 -10.622 -11.445  0.00  0.00     0.292 HD
ENDBRANCH  33  39
ENDBRANCH  26  29
ENDBRANCH  23  26
ENDBRANCH  21  23
ENDBRANCH  16  19
ENDBRANCH  15  16
ENDBRANCH   8  15
BRANCH   1  41
ATOM     41  C   LIG d   1       5.137  -2.746  -5.131  0.00  0.00    -0.006 C 
ATOM     42  H   LIG d   1       5.691  -3.534  -5.639  0.00  0.00     0.031 H 
ATOM     43  H   LIG d   1       5.833  -2.103  -4.592  0.00  0.00     0.031 H 
ATOM     44  H   LIG d   1       4.434  -3.190  -4.426  0.00  0.00     0.031 H 
ENDBRANCH   1  41
BRANCH   2  45
ATOM     45  C   LIG d   1       4.276  -0.125  -4.463  0.00  0.00    -0.011 A 
ATOM     46  C   LIG d   1       3.266  -0.028  -3.507  0.00  0.00    -0.054 A 
ATOM     47  C   LIG d   1       3.550   0.485  -2.258  0.00  0.00    -0.061 A 
ATOM     48  H   LIG d   1       2.264  -0.355  -3.742  0.00  0.00     0.062 H 
ATOM     49  C   LIG d   1       4.832   0.905  -1.954  0.00  0.00    -0.062 A 
ATOM     50  H   LIG d   1       2.768   0.561  -1.516  0.00  0.00     0.062 H 
ATOM     51  C   LIG d   1       5.838   0.811  -2.898  0.00  0.00    -0.061 A 
ATOM     52  H   LIG d   1       5.049   1.307  -0.975  0.00  0.00     0.062 H 
ATOM     53  C   LIG d   1       5.568   0.293  -4.149  0.00  0.00    -0.054 A 
ATOM     54  H   LIG d   1       6.838   1.139  -2.656  0.00  0.00     0.062 H 
ATOM     55  H   LIG d   1       6.354   0.217  -4.885  0.00  0.00     0.062 H 
ENDBRANCH   2  45
TORSDOF 9
ENDMDL
MODEL 7
REMARK VINA RESULT:      -6.9      2.334      8.520
REMARK  9 active torsions:
REMARK  status: ('A' for Active; 'I' for Inactive)
REMARK    1  A    between atoms: C_1  and  C_2 
REMARK    2  A    between atoms: C_3  and  C_27 
REMARK    3  A    between atoms: C_9  and  O_13 
REMARK    4  A    between atoms: O_13  and  C_14 
REMARK    5  A    between atoms: C_14  and  C_15 
REMARK       I    between atoms: C_15  and  N_17 
REMARK    6  A    between atoms: N_17  and  C_18 
REMARK    7  A    between atoms: C_18  and  C_19 
REMARK    8  A    between atoms: C_19  and  C_20 
REMARK    9  A    between atoms: C_23  and  O_26 
ROOT
ATOM      1  C   LIG d   1       7.650  -0.793  -4.639  0.00  0.00     0.114 A 
ATOM      2  C   LIG d   1       6.754  -0.009  -3.986  0.00  0.00     0.067 A 
ATOM      3  C   LIG d   1       7.136   1.376  -3.654  0.00  0.00     0.200 A 
ATOM      4  O   LIG d   1       6.373   2.125  -3.069  0.00  0.00    -0.286 OA
ATOM      5  C   LIG d   1       8.484   1.809  -4.064  0.00  0.00     0.065 A 
ATOM      6  C   LIG d   1       8.941   3.101  -3.798  0.00  0.00    -0.044 A 
ATOM      7  C   LIG d   1      10.198   3.468  -4.186  0.00  0.00    -0.019 A 
ATOM      8  C   LIG d   1      11.019   2.563  -4.856  0.00  0.00     0.125 A 
ATOM      9  C   LIG d   1      10.580   1.279  -5.128  0.00  0.00     0.023 A 
ATOM     10  C   LIG d   1       9.307   0.887  -4.735  0.00  0.00     0.142 A 
ATOM     11  O   LIG d   1       8.864  -0.359  -4.992  0.00  0.00    -0.459 OA
ATOM     12  H   LIG d   1       8.305   3.805  -3.283  0.00  0.00     0.063 H 
ATOM     13  H   LIG d   1      10.555   4.466  -3.977  0.00  0.00     0.065 H 
ATOM     14  H   LIG d   1      11.225   0.583  -5.644  0.00  0.00     0.069 H 
ENDROOT
BRANCH   8  15
ATOM     15  O   LIG d   1      12.264   2.943  -5.241  0.00  0.00    -0.483 OA
BRANCH  15  16
ATOM     16  C   LIG d   1      13.288   2.913  -4.244  0.00  0.00     0.165 C 
ATOM     17  H   LIG d   1      14.257   2.770  -4.721  0.00  0.00     0.080 H 
ATOM     18  H   LIG d   1      13.100   2.092  -3.553  0.00  0.00     0.080 H 
BRANCH  16  19
ATOM     19  C   LIG d   1      13.290   4.217  -3.487  0.00  0.00     0.251 C 
ATOM     20  O   LIG d   1      13.162   5.265  -4.084  0.00  0.00    -0.272 OA
ATOM     21  N   LIG d   1      13.433   4.218  -2.148  0.00  0.00    -0.312 N 
ATOM     22  H   LIG d   1      13.536   3.380  -1.669  0.00  0.00     0.149 HD
BRANCH  21  23
ATOM     23  C   LIG d   1      13.434   5.485  -1.412  0.00  0.00     0.016 C 
ATOM     24  H   LIG d   1      13.200   6.302  -2.094  0.00  0.00     0.046 H 
ATOM     25  H   LIG d   1      14.418   5.650  -0.973  0.00  0.00     0.046 H 
BRANCH  23  26
ATOM     26  C   LIG d   1      12.384   5.432  -0.300  0.00  0.00    -0.012 C 
ATOM     27  H   LIG d   1      12.860   5.635   0.659  0.00  0.00     0.033 H 
ATOM     28  H   LIG d   1      11.930   4.441  -0.278  0.00  0.00     0.033 H 
BRANCH  26  29
ATOM     29  C   LIG d   1      11.320   6.466  -0.564  0.00  0.00    -0.046 A 
ATOM     30  C   LIG d   1      11.374   7.690   0.077  0.00  0.00    -0.055 A 
ATOM     31  C   LIG d   1      10.400   8.640  -0.162  0.00  0.00    -0.020 A 
ATOM     32  H   LIG d   1      12.179   7.904   0.765  0.00  0.00     0.062 H 
ATOM     33  C   LIG d   1       9.367   8.364  -1.046  0.00  0.00     0.117 A 
ATOM     34  H   LIG d   1      10.442   9.595   0.339  0.00  0.00     0.065 H 
ATOM     35  C   LIG d   1       9.315   7.135  -1.688  0.00  0.00    -0.020 A 
ATOM     36  C   LIG d   1      10.291   6.189  -1.445  0.00  0.00    -0.055 A 
ATOM     37  H   LIG d   1       8.514   6.921  -2.380  0.00  0.00     0.065 H 
ATOM     38  H   LIG d   1      10.251   5.233  -1.944  0.00  0.00     0.062 H 
BRANCH  33  39
ATOM     39  O   LIG d   1       8.407   9.297  -1.283  0.00  0.00    -0.507 OA
ATOM     40  H   LIG d   1       8.706  10.209  -1.164  0.00  0.00     0.292 HD
ENDBRANCH  33  39
ENDBRANCH  26  29
ENDBRANCH  23  26
ENDBRANCH  21  23
ENDBRANCH  16  19
ENDBRANCH  15  16
ENDBRANCH   8  15
BRANCH   1  41
ATOM     41  C   LIG d   1       7.261  -2.209  -4.979  0.00  0.00    -0.006 C 
ATOM     42  H   LIG d   1       8.132  -2.746  -5.352  0.00  0.00     0.031 H 
ATOM     43  H   LIG d   1       6.883  -2.706  -4.085  0.00  0.00     0.031 H 
ATOM     44  H   LIG d   1       6.484  -2.198  -5.743  0.00  0.00     0.031 H 
ENDBRANCH   1  41
BRANCH   2  45
ATOM     45  C   LIG d   1       5.419  -0.535  -3.614  0.00  0.00    -0.011 A 
ATOM     46  C   LIG d   1       4.293  -0.165  -4.347  0.00  0.00    -0.054 A 
ATOM     47  C   LIG d   1       3.053  -0.658  -3.997  0.00  0.00    -0.061 A 
ATOM     48  H   LIG d   1       4.390   0.505  -5.189  0.00  0.00     0.062 H 
ATOM     49  C   LIG d   1       2.925  -1.516  -2.920  0.00  0.00    -0.062 A 
ATOM     50  H   LIG d   1       2.178  -0.372  -4.564  0.00  0.00     0.062 H 
ATOM     51  C   LIG d   1       4.039  -1.887  -2.188  0.00  0.00    -0.061 A 
ATOM     52  H   LIG d   1       1.953  -1.899  -2.648  0.00  0.00     0.062 H 
ATOM     53  C   LIG d   1       5.286  -1.405  -2.534  0.00  0.00    -0.054 A 
ATOM     54  H   LIG d   1       3.935  -2.558  -1.349  0.00  0.00     0.062 H 
ATOM     55  H   LIG d   1       6.155  -1.697  -1.965  0.00  0.00     0.062 H 
ENDBRANCH   2  45
TORSDOF 9
ENDMDL
MODEL 8
REMARK VINA RESULT:      -6.9      1.502      2.151
REMARK  9 active torsions:
REMARK  status: ('A' for Active; 'I' for Inactive)
REMARK    1  A    between atoms: C_1  and  C_2 
REMARK    2  A    between atoms: C_3  and  C_27 
REMARK    3  A    between atoms: C_9  and  O_13 
REMARK    4  A    between atoms: O_13  and  C_14 
REMARK    5  A    between atoms: C_14  and  C_15 
REMARK       I    between atoms: C_15  and  N_17 
REMARK    6  A    between atoms: N_17  and  C_18 
REMARK    7  A    between atoms: C_18  and  C_19 
REMARK    8  A    between atoms: C_19  and  C_20 
REMARK    9  A    between atoms: C_23  and  O_26 
ROOT
ATOM      1  C   LIG d   1      10.678   6.705  -0.521  0.00  0.00     0.114 A 
ATOM      2  C   LIG d   1      10.599   7.886  -1.187  0.00  0.00     0.067 A 
ATOM      3  C   LIG d   1      10.219   7.870  -2.611  0.00  0.00     0.200 A 
ATOM      4  O   LIG d   1      10.133   8.899  -3.260  0.00  0.00    -0.286 OA
ATOM      5  C   LIG d   1       9.947   6.552  -3.211  0.00  0.00     0.065 A 
ATOM      6  C   LIG d   1       9.578   6.429  -4.552  0.00  0.00    -0.044 A 
ATOM      7  C   LIG d   1       9.339   5.192  -5.078  0.00  0.00    -0.019 A 
ATOM      8  C   LIG d   1       9.451   4.055  -4.280  0.00  0.00     0.125 A 
ATOM      9  C   LIG d   1       9.815   4.160  -2.949  0.00  0.00     0.023 A 
ATOM     10  C   LIG d   1      10.068   5.411  -2.399  0.00  0.00     0.142 A 
ATOM     11  O   LIG d   1      10.423   5.531  -1.105  0.00  0.00    -0.459 OA
ATOM     12  H   LIG d   1       9.487   7.309  -5.171  0.00  0.00     0.063 H 
ATOM     13  H   LIG d   1       9.058   5.094  -6.116  0.00  0.00     0.065 H 
ATOM     14  H   LIG d   1       9.903   3.273  -2.339  0.00  0.00     0.069 H 
ENDROOT
BRANCH   8  15
ATOM     15  O   LIG d   1       9.206   2.831  -4.814  0.00  0.00    -0.483 OA
BRANCH  15  16
ATOM     16  C   LIG d   1      10.156   1.800  -4.535  0.00  0.00     0.165 C 
ATOM     17  H   LIG d   1      10.404   1.812  -3.474  0.00  0.00     0.080 H 
ATOM     18  H   LIG d   1      11.059   1.969  -5.121  0.00  0.00     0.080 H 
BRANCH  16  19
ATOM     19  C   LIG d   1       9.565   0.462  -4.897  0.00  0.00     0.251 C 
ATOM     20  O   LIG d   1      10.048  -0.191  -5.797  0.00  0.00    -0.272 OA
ATOM     21  N   LIG d   1       8.500  -0.010  -4.219  0.00  0.00    -0.312 N 
ATOM     22  H   LIG d   1       8.113   0.512  -3.499  0.00  0.00     0.149 HD
BRANCH  21  23
ATOM     23  C   LIG d   1       7.926  -1.312  -4.570  0.00  0.00     0.016 C 
ATOM     24  H   LIG d   1       8.728  -2.011  -4.807  0.00  0.00     0.046 H 
ATOM     25  H   LIG d   1       7.274  -1.200  -5.437  0.00  0.00     0.046 H 
BRANCH  23  26
ATOM     26  C   LIG d   1       7.115  -1.847  -3.389  0.00  0.00    -0.012 C 
ATOM     27  H   LIG d   1       7.485  -1.405  -2.464  0.00  0.00     0.033 H 
ATOM     28  H   LIG d   1       7.217  -2.932  -3.340  0.00  0.00     0.033 H 
BRANCH  26  29
ATOM     29  C   LIG d   1       5.663  -1.488  -3.572  0.00  0.00    -0.046 A 
ATOM     30  C   LIG d   1       5.233  -0.942  -4.768  0.00  0.00    -0.055 A 
ATOM     31  C   LIG d   1       3.903  -0.611  -4.939  0.00  0.00    -0.020 A 
ATOM     32  H   LIG d   1       5.938  -0.773  -5.569  0.00  0.00     0.062 H 
ATOM     33  C   LIG d   1       2.997  -0.828  -3.910  0.00  0.00     0.117 A 
ATOM     34  H   LIG d   1       3.567  -0.184  -5.872  0.00  0.00     0.065 H 
ATOM     35  C   LIG d   1       3.431  -1.376  -2.711  0.00  0.00    -0.020 A 
ATOM     36  C   LIG d   1       4.762  -1.705  -2.546  0.00  0.00    -0.055 A 
ATOM     37  H   LIG d   1       2.727  -1.550  -1.911  0.00  0.00     0.065 H 
ATOM     38  H   LIG d   1       5.100  -2.132  -1.613  0.00  0.00     0.062 H 
BRANCH  33  39
ATOM     39  O   LIG d   1       1.688  -0.504  -4.076  0.00  0.00    -0.507 OA
ATOM     40  H   LIG d   1       1.262  -0.955  -4.817  0.00  0.00     0.292 HD
ENDBRANCH  33  39
ENDBRANCH  26  29
ENDBRANCH  23  26
ENDBRANCH  21  23
ENDBRANCH  16  19
ENDBRANCH  15  16
ENDBRANCH   8  15
BRANCH   1  41
ATOM     41  C   LIG d   1      11.067   6.720   0.935  0.00  0.00    -0.006 C 
ATOM     42  H   LIG d   1      10.382   7.362   1.488  0.00  0.00     0.031 H 
ATOM     43  H   LIG d   1      11.017   5.707   1.335  0.00  0.00     0.031 H 
ATOM     44  H   LIG d   1      12.083   7.100   1.036  0.00  0.00     0.031 H 
ENDBRANCH   1  41
BRANCH   2  45
ATOM     45  C   LIG d   1      10.892   9.165  -0.497  0.00  0.00    -0.011 A 
ATOM     46  C   LIG d   1      12.210   9.591  -0.345  0.00  0.00    -0.054 A 
ATOM     47  C   LIG d   1      12.477  10.783   0.297  0.00  0.00    -0.061 A 
ATOM     48  H   LIG d   1      13.021   8.991  -0.731  0.00  0.00     0.062 H 
ATOM     49  C   LIG d   1      11.440  11.553   0.792  0.00  0.00    -0.062 A 
ATOM     50  H   LIG d   1      13.499  11.115   0.416  0.00  0.00     0.062 H 
ATOM     51  C   LIG d   1      10.130  11.135   0.644  0.00  0.00    -0.061 A 
ATOM     52  H   LIG d   1      11.653  12.484   1.295  0.00  0.00     0.062 H 
ATOM     53  C   LIG d   1       9.851   9.947  -0.003  0.00  0.00    -0.054 A 
ATOM     54  H   LIG d   1       9.323  11.739   1.031  0.00  0.00     0.062 H 
ATOM     55  H   LIG d   1       8.828   9.623  -0.120  0.00  0.00     0.062 H 
ENDBRANCH   2  45
TORSDOF 9
ENDMDL
MODEL 9
REMARK VINA RESULT:      -6.9      7.407     10.266
REMARK  9 active torsions:
REMARK  status: ('A' for Active; 'I' for Inactive)
REMARK    1  A    between atoms: C_1  and  C_2 
REMARK    2  A    between atoms: C_3  and  C_27 
REMARK    3  A    between atoms: C_9  and  O_13 
REMARK    4  A    between atoms: O_13  and  C_14 
REMARK    5  A    between atoms: C_14  and  C_15 
REMARK       I    between atoms: C_15  and  N_17 
REMARK    6  A    between atoms: N_17  and  C_18 
REMARK    7  A    between atoms: C_18  and  C_19 
REMARK    8  A    between atoms: C_19  and  C_20 
REMARK    9  A    between atoms: C_23  and  O_26 
ROOT
ATOM      1  C   LIG d   1       6.816  -3.024  -4.288  0.00  0.00     0.114 A 
ATOM      2  C   LIG d   1       5.505  -3.164  -4.609  0.00  0.00     0.067 A 
ATOM      3  C   LIG d   1       5.068  -4.405  -5.274  0.00  0.00     0.200 A 
ATOM      4  O   LIG d   1       3.904  -4.587  -5.586  0.00  0.00    -0.286 OA
ATOM      5  C   LIG d   1       6.107  -5.416  -5.542  0.00  0.00     0.065 A 
ATOM      6  C   LIG d   1       5.797  -6.625  -6.166  0.00  0.00    -0.044 A 
ATOM      7  C   LIG d   1       6.785  -7.537  -6.405  0.00  0.00    -0.019 A 
ATOM      8  C   LIG d   1       8.097  -7.269  -6.019  0.00  0.00     0.125 A 
ATOM      9  C   LIG d   1       8.421  -6.075  -5.399  0.00  0.00     0.023 A 
ATOM     10  C   LIG d   1       7.429  -5.134  -5.153  0.00  0.00     0.142 A 
ATOM     11  O   LIG d   1       7.726  -3.966  -4.550  0.00  0.00    -0.459 OA
ATOM     12  H   LIG d   1       4.781  -6.836  -6.463  0.00  0.00     0.063 H 
ATOM     13  H   LIG d   1       6.548  -8.471  -6.892  0.00  0.00     0.065 H 
ATOM     14  H   LIG d   1       9.441  -5.875  -5.106  0.00  0.00     0.069 H 
ENDROOT
BRANCH   8  15
ATOM     15  O   LIG d   1       9.069  -8.187  -6.258  0.00  0.00    -0.483 OA
BRANCH  15  16
ATOM     16  C   LIG d   1       8.837  -9.514  -5.782  0.00  0.00     0.165 C 
ATOM     17  H   LIG d   1       9.625 -10.174  -6.147  0.00  0.00     0.080 H 
ATOM     18  H   LIG d   1       7.872  -9.868  -6.144  0.00  0.00     0.080 H 
BRANCH  16  19
ATOM     19  C   LIG d   1       8.840  -9.515  -4.275  0.00  0.00     0.251 C 
ATOM     20  O   LIG d   1       7.822  -9.769  -3.667  0.00  0.00    -0.272 OA
ATOM     21  N   LIG d   1       9.974  -9.234  -3.603  0.00  0.00    -0.312 N 
ATOM     22  H   LIG d   1      10.788  -9.030  -4.089  0.00  0.00     0.149 HD
BRANCH  21  23
ATOM     23  C   LIG d   1       9.977  -9.235  -2.138  0.00  0.00     0.016 C 
ATOM     24  H   LIG d   1      10.083 -10.257  -1.775  0.00  0.00     0.046 H 
ATOM     25  H   LIG d   1       9.039  -8.815  -1.772  0.00  0.00     0.046 H 
BRANCH  23  26
ATOM     26  C   LIG d   1      11.145  -8.389  -1.629  0.00  0.00    -0.012 C 
ATOM     27  H   LIG d   1      12.080  -8.785  -2.024  0.00  0.00     0.033 H 
ATOM     28  H   LIG d   1      11.169  -8.420  -0.539  0.00  0.00     0.033 H 
BRANCH  26  29
ATOM     29  C   LIG d   1      10.970  -6.963  -2.086  0.00  0.00    -0.046 A 
ATOM     30  C   LIG d   1      11.871  -6.409  -2.976  0.00  0.00    -0.055 A 
ATOM     31  C   LIG d   1      11.714  -5.102  -3.396  0.00  0.00    -0.020 A 
ATOM     32  H   LIG d   1      12.700  -6.997  -3.343  0.00  0.00     0.062 H 
ATOM     33  C   LIG d   1      10.650  -4.347  -2.925  0.00  0.00     0.117 A 
ATOM     34  H   LIG d   1      12.418  -4.669  -4.091  0.00  0.00     0.065 H 
ATOM     35  C   LIG d   1       9.747  -4.906  -2.031  0.00  0.00    -0.020 A 
ATOM     36  C   LIG d   1       9.909  -6.213  -1.615  0.00  0.00    -0.055 A 
ATOM     37  H   LIG d   1       8.915  -4.321  -1.667  0.00  0.00     0.065 H 
ATOM     38  H   LIG d   1       9.207  -6.648  -0.920  0.00  0.00     0.062 H 
BRANCH  33  39
ATOM     39  O   LIG d   1      10.492  -3.061  -3.337  0.00  0.00    -0.507 OA
ATOM     40  H   LIG d   1      10.215  -2.975  -4.259  0.00  0.00     0.292 HD
ENDBRANCH  33  39
ENDBRANCH  26  29
ENDBRANCH  23  26
ENDBRANCH  21  23
ENDBRANCH  16  19
ENDBRANCH  15  16
ENDBRANCH   8  15
BRANCH   1  41
ATOM     41  C   LIG d   1       7.263  -1.755  -3.608  0.00  0.00    -0.006 C 
ATOM     42  H   LIG d   1       8.292  -1.868  -3.269  0.00  0.00     0.031 H 
ATOM     43  H   LIG d   1       7.203  -0.925  -4.313  0.00  0.00     0.031 H 
ATOM     44  H   LIG d   1       6.617  -1.554  -2.754  0.00  0.00     0.031 H 
ENDBRANCH   1  41
BRANCH   2  45
ATOM     45  C   LIG d   1       4.531  -2.090  -4.299  0.00  0.00    -0.011 A 
ATOM     46  C   LIG d   1       3.878  -2.073  -3.068  0.00  0.00    -0.054 A 
ATOM     47  C   LIG d   1       2.973  -1.070  -2.784  0.00  0.00    -0.061 A 
ATOM     48  H   LIG d   1       4.080  -2.842  -2.337  0.00  0.00     0.062 H 
ATOM     49  C   LIG d   1       2.712  -0.085  -3.719  0.00  0.00    -0.062 A 
ATOM     50  H   LIG d   1       2.466  -1.056  -1.830  0.00  0.00     0.062 H 
ATOM     51  C   LIG d   1       3.357  -0.097  -4.943  0.00  0.00    -0.061 A 
ATOM     52  H   LIG d   1       2.003   0.697  -3.493  0.00  0.00     0.062 H 
ATOM     53  C   LIG d   1       4.269  -1.091  -5.235  0.00  0.00    -0.054 A 
ATOM     54  H   LIG d   1       3.151   0.675  -5.669  0.00  0.00     0.062 H 
ATOM     55  H   LIG d   1       4.774  -1.098  -6.189  0.00  0.00     0.062 H 
ENDBRANCH   2  45
TORSDOF 9
ENDMDL
MODEL 10
REMARK VINA RESULT:      -6.7      6.491      9.016
REMARK  9 active torsions:
REMARK  status: ('A' for Active; 'I' for Inactive)
REMARK    1  A    between atoms: C_1  and  C_2 
REMARK    2  A    between atoms: C_3  and  C_27 
REMARK    3  A    between atoms: C_9  and  O_13 
REMARK    4  A    between atoms: O_13  and  C_14 
REMARK    5  A    between atoms: C_14  and  C_15 
REMARK       I    between atoms: C_15  and  N_17 
REMARK    6  A    between atoms: N_17  and  C_18 
REMARK    7  A    between atoms: C_18  and  C_19 
REMARK    8  A    between atoms: C_19  and  C_20 
REMARK    9  A    between atoms: C_23  and  O_26 
ROOT
ATOM      1  C   LIG d   1       6.410  -1.307  -5.428  0.00  0.00     0.114 A 
ATOM      2  C   LIG d   1       5.425  -1.596  -4.540  0.00  0.00     0.067 A 
ATOM      3  C   LIG d   1       4.935  -2.983  -4.453  0.00  0.00     0.200 A 
ATOM      4  O   LIG d   1       4.053  -3.301  -3.675  0.00  0.00    -0.286 OA
ATOM      5  C   LIG d   1       5.565  -3.967  -5.352  0.00  0.00     0.065 A 
ATOM      6  C   LIG d   1       5.173  -5.306  -5.348  0.00  0.00    -0.044 A 
ATOM      7  C   LIG d   1       5.773  -6.190  -6.198  0.00  0.00    -0.019 A 
ATOM      8  C   LIG d   1       6.780  -5.763  -7.062  0.00  0.00     0.125 A 
ATOM      9  C   LIG d   1       7.180  -4.438  -7.078  0.00  0.00     0.023 A 
ATOM     10  C   LIG d   1       6.576  -3.524  -6.223  0.00  0.00     0.142 A 
ATOM     11  O   LIG d   1       6.953  -2.230  -6.227  0.00  0.00    -0.459 OA
ATOM     12  H   LIG d   1       4.397  -5.641  -4.677  0.00  0.00     0.063 H 
ATOM     13  H   LIG d   1       5.468  -7.227  -6.199  0.00  0.00     0.065 H 
ATOM     14  H   LIG d   1       7.958  -4.115  -7.753  0.00  0.00     0.069 H 
ENDROOT
BRANCH   8  15
ATOM     15  O   LIG d   1       7.371  -6.653  -7.899  0.00  0.00    -0.483 OA
BRANCH  15  16
ATOM     16  C   LIG d   1       6.583  -7.142  -8.986  0.00  0.00     0.165 C 
ATOM     17  H   LIG d   1       5.740  -7.712  -8.596  0.00  0.00     0.080 H 
ATOM     18  H   LIG d   1       7.194  -7.785  -9.619  0.00  0.00     0.080 H 
BRANCH  16  19
ATOM     19  C   LIG d   1       6.071  -5.980  -9.797  0.00  0.00     0.251 C 
ATOM     20  O   LIG d   1       6.807  -5.413 -10.576  0.00  0.00    -0.272 OA
ATOM     21  N   LIG d   1       4.795  -5.571  -9.658  0.00  0.00    -0.312 N 
ATOM     22  H   LIG d   1       4.205  -6.025  -9.034  0.00  0.00     0.149 HD
BRANCH  21  23
ATOM     23  C   LIG d   1       4.296  -4.442 -10.446  0.00  0.00     0.016 C 
ATOM     24  H   LIG d   1       4.267  -4.719 -11.500  0.00  0.00     0.046 H 
ATOM     25  H   LIG d   1       4.957  -3.585 -10.314  0.00  0.00     0.046 H 
BRANCH  23  26
ATOM     26  C   LIG d   1       2.887  -4.073  -9.977  0.00  0.00    -0.012 C 
ATOM     27  H   LIG d   1       2.544  -4.807  -9.247  0.00  0.00     0.033 H 
ATOM     28  H   LIG d   1       2.210  -4.066 -10.831  0.00  0.00     0.033 H 
BRANCH  26  29
ATOM     29  C   LIG d   1       2.910  -2.706  -9.343  0.00  0.00    -0.046 A 
ATOM     30  C   LIG d   1       2.041  -1.726  -9.787  0.00  0.00    -0.055 A 
ATOM     31  C   LIG d   1       2.060  -0.472  -9.210  0.00  0.00    -0.020 A 
ATOM     32  H   LIG d   1       1.348  -1.940 -10.587  0.00  0.00     0.062 H 
ATOM     33  C   LIG d   1       2.951  -0.196  -8.182  0.00  0.00     0.117 A 
ATOM     34  H   LIG d   1       1.382   0.294  -9.556  0.00  0.00     0.065 H 
ATOM     35  C   LIG d   1       3.821  -1.181  -7.738  0.00  0.00    -0.020 A 
ATOM     36  C   LIG d   1       3.798  -2.434  -8.320  0.00  0.00    -0.055 A 
ATOM     37  H   LIG d   1       4.512  -0.970  -6.935  0.00  0.00     0.065 H 
ATOM     38  H   LIG d   1       4.475  -3.201  -7.974  0.00  0.00     0.062 H 
BRANCH  33  39
ATOM     39  O   LIG d   1       2.971   1.037  -7.611  0.00  0.00    -0.507 OA
ATOM     40  H   LIG d   1       3.479   1.693  -8.107  0.00  0.00     0.292 HD
ENDBRANCH  33  39
ENDBRANCH  26  29
ENDBRANCH  23  26
ENDBRANCH  21  23
ENDBRANCH  16  19
ENDBRANCH  15  16
ENDBRANCH   8  15
BRANCH   1  41
ATOM     41  C   LIG d   1       6.912   0.112  -5.517  0.00  0.00    -0.006 C 
ATOM     42  H   LIG d   1       7.089   0.369  -6.561  0.00  0.00     0.031 H 
ATOM     43  H   LIG d   1       6.166   0.787  -5.098  0.00  0.00     0.031 H 
ATOM     44  H   LIG d   1       7.841   0.205  -4.956  0.00  0.00     0.031 H 
ENDBRANCH   1  41
BRANCH   2  45
ATOM     45  C   LIG d   1       4.852  -0.537  -3.675  0.00  0.00    -0.011 A 
ATOM     46  C   LIG d   1       3.789   0.240  -4.132  0.00  0.00    -0.054 A 
ATOM     47  C   LIG d   1       3.259   1.224  -3.322  0.00  0.00    -0.061 A 
ATOM     48  H   LIG d   1       3.379   0.071  -5.117  0.00  0.00     0.062 H 
ATOM     49  C   LIG d   1       3.782   1.441  -2.060  0.00  0.00    -0.062 A 
ATOM     50  H   LIG d   1       2.435   1.827  -3.675  0.00  0.00     0.062 H 
ATOM     51  C   LIG d   1       4.837   0.674  -1.601  0.00  0.00    -0.061 A 
ATOM     52  H   LIG d   1       3.365   2.213  -1.430  0.00  0.00     0.062 H 
ATOM     53  C   LIG d   1       5.371  -0.318  -2.400  0.00  0.00    -0.054 A 
ATOM     54  H   LIG d   1       5.242   0.847  -0.615  0.00  0.00     0.062 H 
ATOM     55  H   LIG d   1       6.193  -0.918  -2.040  0.00  0.00     0.062 H 
ENDBRANCH   2  45
TORSDOF 9
ENDMDL
