MODEL 1
REMARK VINA RESULT:      -5.3      0.000      0.000
REMARK  17 active torsions:
REMARK  status: ('A' for Active; 'I' for Inactive)
REMARK    1  A    between atoms: C_1  and  C_2 
REMARK    2  A    between atoms: C_2  and  C_4 
REMARK    3  A    between atoms: C_2  and  N_44 
REMARK    4  A    between atoms: C_8  and  N_43 
REMARK    5  A    between atoms: C_10  and  O_13 
REMARK    6  A    between atoms: O_13  and  C_14 
REMARK    7  A    between atoms: C_16  and  N_42 
REMARK    8  A    between atoms: C_19  and  N_41 
REMARK    9  A    between atoms: C_21  and  O_26 
REMARK   10  A    between atoms: C_23  and  O_25 
REMARK   11  A    between atoms: O_26  and  C_27 
REMARK   12  A    between atoms: C_29  and  O_40 
REMARK   13  A    between atoms: C_31  and  N_38 
REMARK   14  A    between atoms: C_33  and  C_36 
REMARK   15  A    between atoms: C_33  and  O_37 
REMARK   16  A    between atoms: N_38  and  C_39 
REMARK   17  A    between atoms: N_44  and  C_45 
ROOT
ATOM      1  C   LIG d   1       9.481   6.989  -7.421  0.00  0.00     0.106 C 
ATOM      2  H   LIG d   1       8.425   6.783  -7.246  0.00  0.00     0.064 H 
ATOM      3  C   LIG d   1       9.674   8.487  -7.666  0.00  0.00     0.039 C 
ATOM      4  H   LIG d   1      10.730   8.694  -7.842  0.00  0.00     0.049 H 
ATOM      5  C   LIG d   1       9.197   9.270  -6.442  0.00  0.00     0.010 C 
ATOM      6  C   LIG d   1      10.010   8.845  -5.217  0.00  0.00     0.007 C 
ATOM      7  H   LIG d   1      11.066   9.051  -5.392  0.00  0.00     0.088 H 
ATOM      8  C   LIG d   1       9.817   7.347  -4.972  0.00  0.00     0.132 C 
ATOM      9  H   LIG d   1       8.761   7.141  -4.797  0.00  0.00     0.068 H 
ATOM     10  C   LIG d   1      10.294   6.564  -6.196  0.00  0.00     0.114 C 
ATOM     11  H   LIG d   1      11.350   6.771  -6.371  0.00  0.00     0.065 H 
ATOM     12  H   LIG d   1       9.335  10.337  -6.616  0.00  0.00     0.034 H 
ATOM     13  H   LIG d   1       8.141   9.063  -6.267  0.00  0.00     0.034 H 
ENDROOT
BRANCH   1  14
ATOM     14  O   LIG d   1       9.926   6.258  -8.565  0.00  0.00    -0.339 OA
BRANCH  14  15
ATOM     15  C   LIG d   1       8.873   5.637  -9.304  0.00  0.00     0.203 C 
ATOM     16  C   LIG d   1       9.186   4.149  -9.488  0.00  0.00     0.028 C 
ATOM     17  C   LIG d   1      10.474   4.004 -10.303  0.00  0.00    -0.003 C 
ATOM     18  H   LIG d   1       8.363   3.667 -10.016  0.00  0.00     0.090 H 
ATOM     19  C   LIG d   1      10.304   4.731 -11.640  0.00  0.00    -0.016 C 
ATOM     20  H   LIG d   1      10.673   2.947 -10.486  0.00  0.00     0.032 H 
ATOM     21  H   LIG d   1      11.306   4.442  -9.752  0.00  0.00     0.032 H 
ATOM     22  C   LIG d   1       9.949   6.196 -11.374  0.00  0.00     0.104 C 
ATOM     23  H   LIG d   1       9.505   4.260 -12.212  0.00  0.00     0.029 H 
ATOM     24  H   LIG d   1      11.236   4.679 -12.204  0.00  0.00     0.029 H 
ATOM     25  H   LIG d   1      10.766   6.677 -10.837  0.00  0.00     0.065 H 
ATOM     26  O   LIG d   1       8.758   6.260 -10.585  0.00  0.00    -0.338 OA
ATOM     27  H   LIG d   1       7.935   5.746  -8.761  0.00  0.00     0.097 H 
BRANCH  16  28
ATOM     28  N   LIG d   1       9.363   3.518  -8.173  0.00  0.00     0.224 N 
ATOM     29  H   LIG d   1       8.803   2.680  -8.124  0.00  0.00     0.200 HD
ATOM     30  H   LIG d   1      10.335   3.282  -8.041  0.00  0.00     0.200 HD
ATOM     31  H   LIG d   1       9.071   4.160  -7.451  0.00  0.00     0.200 HD
ENDBRANCH  16  28
BRANCH  22  32
ATOM     32  C   LIG d   1       9.717   6.915 -12.704  0.00  0.00     0.001 C 
ATOM     33  H   LIG d   1      10.670   7.039 -13.220  0.00  0.00     0.087 H 
BRANCH  32  34
ATOM     34  C   LIG d   1       8.769   6.087 -13.574  0.00  0.00    -0.019 C 
ATOM     35  H   LIG d   1       7.991   6.733 -13.979  0.00  0.00     0.029 H 
ATOM     36  H   LIG d   1       9.329   5.636 -14.393  0.00  0.00     0.029 H 
ATOM     37  H   LIG d   1       8.314   5.302 -12.970  0.00  0.00     0.029 H 
ENDBRANCH  32  34
BRANCH  32  38
ATOM     38  N   LIG d   1       9.124   8.235 -12.451  0.00  0.00     0.229 N 
ATOM     39  H   LIG d   1       8.119   8.149 -12.412  0.00  0.00     0.201 HD
ATOM     40  H   LIG d   1       9.465   8.594 -11.572  0.00  0.00     0.201 HD
BRANCH  38  41
ATOM     41  C   LIG d   1       9.495   9.155 -13.534  0.00  0.00    -0.044 C 
ATOM     42  H   LIG d   1       9.692  10.143 -13.119  0.00  0.00     0.078 H 
ATOM     43  H   LIG d   1      10.391   8.785 -14.034  0.00  0.00     0.078 H 
ATOM     44  H   LIG d   1       8.678   9.218 -14.253  0.00  0.00     0.078 H 
ENDBRANCH  38  41
ENDBRANCH  32  38
ENDBRANCH  22  32
ENDBRANCH  14  15
ENDBRANCH   1  14
BRANCH  10  45
ATOM     45  O   LIG d   1      10.114   5.165  -5.967  0.00  0.00    -0.386 OA
ATOM     46  H   LIG d   1      10.355   4.878  -5.076  0.00  0.00     0.210 HD
ENDBRANCH  10  45
BRANCH   3  47
ATOM     47  N   LIG d   1       8.894   8.895  -8.843  0.00  0.00    -0.325 N 
ATOM     48  H   LIG d   1       7.908   8.923  -8.631  0.00  0.00     0.119 HD
ATOM     49  H   LIG d   1       9.214   9.783  -9.198  0.00  0.00     0.119 HD
ENDBRANCH   3  47
BRANCH   8  50
ATOM     50  O   LIG d   1      10.576   6.950  -3.827  0.00  0.00    -0.337 OA
BRANCH  50  51
ATOM     51  C   LIG d   1       9.915   5.995  -2.995  0.00  0.00     0.191 C 
ATOM     52  H   LIG d   1       8.931   5.773  -3.406  0.00  0.00     0.094 H 
ATOM     53  O   LIG d   1      10.690   4.795  -2.940  0.00  0.00    -0.345 OA
ATOM     54  C   LIG d   1      12.015   4.978  -2.438  0.00  0.00     0.085 C 
ATOM     55  C   LIG d   1      11.947   5.509  -1.003  0.00  0.00     0.131 C 
ATOM     56  H   LIG d   1      12.546   5.693  -3.066  0.00  0.00     0.059 H 
ATOM     57  H   LIG d   1      12.542   4.024  -2.448  0.00  0.00     0.059 H 
ATOM     58  C   LIG d   1      11.153   6.818  -0.990  0.00  0.00     0.040 C 
ATOM     59  C   LIG d   1       9.763   6.566  -1.583  0.00  0.00     0.151 C 
ATOM     60  H   LIG d   1      11.673   7.568  -1.587  0.00  0.00     0.091 H 
ATOM     61  H   LIG d   1       9.224   5.855  -0.958  0.00  0.00     0.070 H 
BRANCH  55  62
ATOM     62  C   LIG d   1      13.363   5.765  -0.485  0.00  0.00    -0.029 C 
ATOM     63  H   LIG d   1      14.028   5.963  -1.326  0.00  0.00     0.026 H 
ATOM     64  H   LIG d   1      13.355   6.626   0.183  0.00  0.00     0.026 H 
ATOM     65  H   LIG d   1      13.716   4.887   0.058  0.00  0.00     0.026 H 
ENDBRANCH  55  62
BRANCH  55  66
ATOM     66  O   LIG d   1      11.297   4.548  -0.169  0.00  0.00    -0.381 OA
ATOM     67  H   LIG d   1      11.840   4.239   0.570  0.00  0.00     0.210 HD
ENDBRANCH  55  66
BRANCH  58  68
ATOM     68  N   LIG d   1      11.018   7.299   0.392  0.00  0.00     0.231 N 
ATOM     69  H   LIG d   1      10.046   7.271   0.664  0.00  0.00     0.202 HD
ATOM     70  H   LIG d   1      11.557   6.709   1.008  0.00  0.00     0.202 HD
BRANCH  68  71
ATOM     71  C   LIG d   1      11.511   8.680   0.481  0.00  0.00    -0.044 C 
ATOM     72  H   LIG d   1      12.499   8.684   0.941  0.00  0.00     0.078 H 
ATOM     73  H   LIG d   1      11.576   9.107  -0.519  0.00  0.00     0.078 H 
ATOM     74  H   LIG d   1      10.826   9.272   1.086  0.00  0.00     0.078 H 
ENDBRANCH  68  71
ENDBRANCH  58  68
BRANCH  59  75
ATOM     75  O   LIG d   1       9.038   7.797  -1.642  0.00  0.00    -0.381 OA
ATOM     76  H   LIG d   1       9.307   8.444  -0.977  0.00  0.00     0.210 HD
ENDBRANCH  59  75
ENDBRANCH  50  51
ENDBRANCH   8  50
BRANCH   6  77
ATOM     77  N   LIG d   1       9.552   9.597  -4.041  0.00  0.00     0.223 N 
ATOM     78  H   LIG d   1      10.326   9.737  -3.409  0.00  0.00     0.200 HD
ATOM     79  H   LIG d   1       9.190  10.493  -4.333  0.00  0.00     0.200 HD
ATOM     80  H   LIG d   1       8.825   9.078  -3.572  0.00  0.00     0.200 HD
ENDBRANCH   6  77
TORSDOF 17
ENDMDL
MODEL 2
REMARK VINA RESULT:      -5.2      9.758     14.052
REMARK  17 active torsions:
REMARK  status: ('A' for Active; 'I' for Inactive)
REMARK    1  A    between atoms: C_1  and  C_2 
REMARK    2  A    between atoms: C_2  and  C_4 
REMARK    3  A    between atoms: C_2  and  N_44 
REMARK    4  A    between atoms: C_8  and  N_43 
REMARK    5  A    between atoms: C_10  and  O_13 
REMARK    6  A    between atoms: O_13  and  C_14 
REMARK    7  A    between atoms: C_16  and  N_42 
REMARK    8  A    between atoms: C_19  and  N_41 
REMARK    9  A    between atoms: C_21  and  O_26 
REMARK   10  A    between atoms: C_23  and  O_25 
REMARK   11  A    between atoms: O_26  and  C_27 
REMARK   12  A    between atoms: C_29  and  O_40 
REMARK   13  A    between atoms: C_31  and  N_38 
REMARK   14  A    between atoms: C_33  and  C_36 
REMARK   15  A    between atoms: C_33  and  O_37 
REMARK   16  A    between atoms: N_38  and  C_39 
REMARK   17  A    between atoms: N_44  and  C_45 
ROOT
ATOM      1  C   LIG d   1       4.711  -1.567  -7.623  0.00  0.00     0.106 C 
ATOM      2  H   LIG d   1       5.705  -1.932  -7.882  0.00  0.00     0.064 H 
ATOM      3  C   LIG d   1       4.634  -0.063  -7.895  0.00  0.00     0.039 C 
ATOM      4  H   LIG d   1       3.640   0.303  -7.635  0.00  0.00     0.049 H 
ATOM      5  C   LIG d   1       4.904   0.203  -9.376  0.00  0.00     0.010 C 
ATOM      6  C   LIG d   1       3.857  -0.523 -10.224  0.00  0.00     0.007 C 
ATOM      7  H   LIG d   1       2.863  -0.158  -9.965  0.00  0.00     0.088 H 
ATOM      8  C   LIG d   1       3.934  -2.026  -9.952  0.00  0.00     0.132 C 
ATOM      9  H   LIG d   1       4.928  -2.391 -10.211  0.00  0.00     0.068 H 
ATOM     10  C   LIG d   1       3.664  -2.292  -8.471  0.00  0.00     0.114 C 
ATOM     11  H   LIG d   1       2.670  -1.927  -8.212  0.00  0.00     0.065 H 
ATOM     12  H   LIG d   1       4.849   1.274  -9.570  0.00  0.00     0.034 H 
ATOM     13  H   LIG d   1       5.898  -0.162  -9.635  0.00  0.00     0.034 H 
ENDROOT
BRANCH   1  14
ATOM     14  O   LIG d   1       4.458  -1.815  -6.238  0.00  0.00    -0.339 OA
BRANCH  14  15
ATOM     15  C   LIG d   1       5.600  -2.271  -5.512  0.00  0.00     0.203 C 
ATOM     16  C   LIG d   1       5.192  -3.420  -4.587  0.00  0.00     0.028 C 
ATOM     17  C   LIG d   1       4.169  -2.906  -3.569  0.00  0.00    -0.003 C 
ATOM     18  H   LIG d   1       6.071  -3.796  -4.062  0.00  0.00     0.090 H 
ATOM     19  C   LIG d   1       4.777  -1.729  -2.801  0.00  0.00    -0.016 C 
ATOM     20  H   LIG d   1       3.915  -3.705  -2.871  0.00  0.00     0.032 H 
ATOM     21  H   LIG d   1       3.270  -2.577  -4.090  0.00  0.00     0.032 H 
ATOM     22  C   LIG d   1       5.201  -0.645  -3.795  0.00  0.00     0.104 C 
ATOM     23  H   LIG d   1       5.647  -2.070  -2.240  0.00  0.00     0.029 H 
ATOM     24  H   LIG d   1       4.036  -1.322  -2.112  0.00  0.00     0.029 H 
ATOM     25  H   LIG d   1       4.325  -0.276  -4.327  0.00  0.00     0.065 H 
ATOM     26  O   LIG d   1       6.129  -1.197  -4.732  0.00  0.00    -0.338 OA
ATOM     27  H   LIG d   1       6.360  -2.621  -6.211  0.00  0.00     0.097 H 
BRANCH  16  28
ATOM     28  N   LIG d   1       4.594  -4.502  -5.381  0.00  0.00     0.224 N 
ATOM     29  H   LIG d   1       5.189  -5.316  -5.343  0.00  0.00     0.200 HD
ATOM     30  H   LIG d   1       3.686  -4.732  -5.006  0.00  0.00     0.200 HD
ATOM     31  H   LIG d   1       4.496  -4.201  -6.339  0.00  0.00     0.200 HD
ENDBRANCH  16  28
BRANCH  22  32
ATOM     32  C   LIG d   1       5.865   0.508  -3.040  0.00  0.00     0.001 C 
ATOM     33  H   LIG d   1       6.007   0.225  -1.997  0.00  0.00     0.087 H 
BRANCH  32  34
ATOM     34  C   LIG d   1       7.223   0.819  -3.674  0.00  0.00    -0.019 C 
ATOM     35  H   LIG d   1       7.094   1.559  -4.463  0.00  0.00     0.029 H 
ATOM     36  H   LIG d   1       7.897   1.212  -2.913  0.00  0.00     0.029 H 
ATOM     37  H   LIG d   1       7.643  -0.094  -4.096  0.00  0.00     0.029 H 
ENDBRANCH  32  34
BRANCH  32  38
ATOM     38  N   LIG d   1       5.007   1.699  -3.111  0.00  0.00     0.229 N 
ATOM     39  H   LIG d   1       5.477   2.478  -2.675  0.00  0.00     0.201 HD
ATOM     40  H   LIG d   1       4.817   1.919  -4.077  0.00  0.00     0.201 HD
BRANCH  38  41
ATOM     41  C   LIG d   1       3.744   1.434  -2.411  0.00  0.00    -0.044 C 
ATOM     42  H   LIG d   1       3.712   2.014  -1.487  0.00  0.00     0.078 H 
ATOM     43  H   LIG d   1       2.907   1.722  -3.048  0.00  0.00     0.078 H 
ATOM     44  H   LIG d   1       3.674   0.373  -2.176  0.00  0.00     0.078 H 
ENDBRANCH  38  41
ENDBRANCH  32  38
ENDBRANCH  22  32
ENDBRANCH  14  15
ENDBRANCH   1  14
BRANCH  10  45
ATOM     45  O   LIG d   1       3.736  -3.696  -8.217  0.00  0.00    -0.386 OA
ATOM     46  H   LIG d   1       3.160  -3.998  -7.502  0.00  0.00     0.210 HD
ENDBRANCH  10  45
BRANCH   3  47
ATOM     47  N   LIG d   1       5.639   0.634  -7.080  0.00  0.00    -0.325 N 
ATOM     48  H   LIG d   1       5.775   0.167  -6.196  0.00  0.00     0.119 HD
ATOM     49  H   LIG d   1       6.510   0.724  -7.580  0.00  0.00     0.119 HD
ENDBRANCH   3  47
BRANCH   8  50
ATOM     50  O   LIG d   1       2.957  -2.705 -10.745  0.00  0.00    -0.337 OA
BRANCH  50  51
ATOM     51  C   LIG d   1       1.608  -2.449 -10.348  0.00  0.00     0.191 C 
ATOM     52  H   LIG d   1       1.592  -2.103  -9.315  0.00  0.00     0.094 H 
ATOM     53  O   LIG d   1       1.045  -1.445 -11.196  0.00  0.00    -0.345 OA
ATOM     54  C   LIG d   1       1.042  -1.787 -12.583  0.00  0.00     0.085 C 
ATOM     55  C   LIG d   1       0.197  -3.047 -12.794  0.00  0.00     0.131 C 
ATOM     56  H   LIG d   1       2.063  -1.973 -12.914  0.00  0.00     0.059 H 
ATOM     57  H   LIG d   1       0.617  -0.964 -13.159  0.00  0.00     0.059 H 
ATOM     58  C   LIG d   1       0.765  -4.181 -11.935  0.00  0.00     0.040 C 
ATOM     59  C   LIG d   1       0.787  -3.735 -10.470  0.00  0.00     0.151 C 
ATOM     60  H   LIG d   1       1.779  -4.414 -12.261  0.00  0.00     0.091 H 
ATOM     61  H   LIG d   1      -0.231  -3.552 -10.130  0.00  0.00     0.070 H 
BRANCH  55  62
ATOM     62  C   LIG d   1       0.242  -3.451 -14.269  0.00  0.00    -0.029 C 
ATOM     63  H   LIG d   1       0.994  -2.855 -14.786  0.00  0.00     0.026 H 
ATOM     64  H   LIG d   1       0.499  -4.508 -14.348  0.00  0.00     0.026 H 
ATOM     65  H   LIG d   1      -0.734  -3.280 -14.723  0.00  0.00     0.026 H 
ENDBRANCH  55  62
BRANCH  55  66
ATOM     66  O   LIG d   1      -1.154  -2.788 -12.409  0.00  0.00    -0.381 OA
ATOM     67  H   LIG d   1      -1.266  -2.610 -11.465  0.00  0.00     0.210 HD
ENDBRANCH  55  66
BRANCH  58  68
ATOM     68  N   LIG d   1      -0.081  -5.375 -12.073  0.00  0.00     0.231 N 
ATOM     69  H   LIG d   1      -0.515  -5.583 -11.187  0.00  0.00     0.202 HD
ATOM     70  H   LIG d   1      -0.793  -5.204 -12.766  0.00  0.00     0.202 HD
BRANCH  68  71
ATOM     71  C   LIG d   1       0.746  -6.515 -12.492  0.00  0.00    -0.044 C 
ATOM     72  H   LIG d   1       0.185  -7.440 -12.359  0.00  0.00     0.078 H 
ATOM     73  H   LIG d   1       1.015  -6.403 -13.542  0.00  0.00     0.078 H 
ATOM     74  H   LIG d   1       1.652  -6.549 -11.886  0.00  0.00     0.078 H 
ENDBRANCH  68  71
ENDBRANCH  58  68
BRANCH  59  75
ATOM     75  O   LIG d   1       1.382  -4.758  -9.668  0.00  0.00    -0.381 OA
ATOM     76  H   LIG d   1       2.097  -4.445  -9.098  0.00  0.00     0.210 HD
ENDBRANCH  59  75
ENDBRANCH  50  51
ENDBRANCH   8  50
BRANCH   6  77
ATOM     77  N   LIG d   1       4.117  -0.268 -11.647  0.00  0.00     0.223 N 
ATOM     78  H   LIG d   1       3.312   0.179 -12.061  0.00  0.00     0.200 HD
ATOM     79  H   LIG d   1       4.921   0.335 -11.740  0.00  0.00     0.200 HD
ATOM     80  H   LIG d   1       4.296  -1.141 -12.118  0.00  0.00     0.200 HD
ENDBRANCH   6  77
TORSDOF 17
ENDMDL
MODEL 3
REMARK VINA RESULT:      -5.0      4.089      7.900
REMARK  17 active torsions:
REMARK  status: ('A' for Active; 'I' for Inactive)
REMARK    1  A    between atoms: C_1  and  C_2 
REMARK    2  A    between atoms: C_2  and  C_4 
REMARK    3  A    between atoms: C_2  and  N_44 
REMARK    4  A    between atoms: C_8  and  N_43 
REMARK    5  A    between atoms: C_10  and  O_13 
REMARK    6  A    between atoms: O_13  and  C_14 
REMARK    7  A    between atoms: C_16  and  N_42 
REMARK    8  A    between atoms: C_19  and  N_41 
REMARK    9  A    between atoms: C_21  and  O_26 
REMARK   10  A    between atoms: C_23  and  O_25 
REMARK   11  A    between atoms: O_26  and  C_27 
REMARK   12  A    between atoms: C_29  and  O_40 
REMARK   13  A    between atoms: C_31  and  N_38 
REMARK   14  A    between atoms: C_33  and  C_36 
REMARK   15  A    between atoms: C_33  and  O_37 
REMARK   16  A    between atoms: N_38  and  C_39 
REMARK   17  A    between atoms: N_44  and  C_45 
ROOT
ATOM      1  C   LIG d   1      10.041   9.021  -2.386  0.00  0.00     0.106 C 
ATOM      2  H   LIG d   1       8.969   8.931  -2.213  0.00  0.00     0.064 H 
ATOM      3  C   LIG d   1      10.768   9.118  -1.043  0.00  0.00     0.039 C 
ATOM      4  H   LIG d   1      11.841   9.209  -1.215  0.00  0.00     0.049 H 
ATOM      5  C   LIG d   1      10.488   7.860  -0.219  0.00  0.00     0.010 C 
ATOM      6  C   LIG d   1      10.987   6.630  -0.981  0.00  0.00     0.007 C 
ATOM      7  H   LIG d   1      12.060   6.720  -1.154  0.00  0.00     0.088 H 
ATOM      8  C   LIG d   1      10.261   6.534  -2.324  0.00  0.00     0.132 C 
ATOM      9  H   LIG d   1       9.188   6.444  -2.151  0.00  0.00     0.068 H 
ATOM     10  C   LIG d   1      10.540   7.791  -3.147  0.00  0.00     0.114 C 
ATOM     11  H   LIG d   1      11.613   7.881  -3.321  0.00  0.00     0.065 H 
ATOM     12  H   LIG d   1      11.006   7.929   0.738  0.00  0.00     0.034 H 
ATOM     13  H   LIG d   1       9.415   7.770  -0.046  0.00  0.00     0.034 H 
ENDROOT
BRANCH   1  14
ATOM     14  O   LIG d   1      10.303  10.197  -3.155  0.00  0.00    -0.339 OA
BRANCH  14  15
ATOM     15  C   LIG d   1       9.130  10.927  -3.516  0.00  0.00     0.203 C 
ATOM     16  C   LIG d   1       9.230  11.364  -4.980  0.00  0.00     0.028 C 
ATOM     17  C   LIG d   1      10.430  12.302  -5.143  0.00  0.00    -0.003 C 
ATOM     18  H   LIG d   1       8.317  11.886  -5.268  0.00  0.00     0.090 H 
ATOM     19  C   LIG d   1      10.268  13.491  -4.192  0.00  0.00    -0.016 C 
ATOM     20  H   LIG d   1      10.475  12.661  -6.172  0.00  0.00     0.032 H 
ATOM     21  H   LIG d   1      11.348  11.765  -4.904  0.00  0.00     0.032 H 
ATOM     22  C   LIG d   1      10.128  12.972  -2.759  0.00  0.00     0.104 C 
ATOM     23  H   LIG d   1       9.378  14.057  -4.464  0.00  0.00     0.029 H 
ATOM     24  H   LIG d   1      11.145  14.135  -4.262  0.00  0.00     0.029 H 
ATOM     25  H   LIG d   1      11.036  12.442  -2.473  0.00  0.00     0.065 H 
ATOM     26  O   LIG d   1       9.012  12.082  -2.682  0.00  0.00    -0.338 OA
ATOM     27  H   LIG d   1       8.252  10.294  -3.386  0.00  0.00     0.097 H 
BRANCH  16  28
ATOM     28  N   LIG d   1       9.410  10.183  -5.834  0.00  0.00     0.224 N 
ATOM     29  H   LIG d   1       9.402  10.463  -6.803  0.00  0.00     0.200 HD
ATOM     30  H   LIG d   1      10.292   9.743  -5.619  0.00  0.00     0.200 HD
ATOM     31  H   LIG d   1       8.659   9.530  -5.667  0.00  0.00     0.200 HD
ENDBRANCH  16  28
BRANCH  22  32
ATOM     32  C   LIG d   1       9.905  14.151  -1.809  0.00  0.00     0.001 C 
ATOM     33  H   LIG d   1      10.763  14.823  -1.857  0.00  0.00     0.087 H 
BRANCH  32  34
ATOM     34  C   LIG d   1       8.640  14.907  -2.222  0.00  0.00    -0.019 C 
ATOM     35  H   LIG d   1       8.003  14.253  -2.815  0.00  0.00     0.029 H 
ATOM     36  H   LIG d   1       8.102  15.228  -1.330  0.00  0.00     0.029 H 
ATOM     37  H   LIG d   1       8.916  15.780  -2.813  0.00  0.00     0.029 H 
ENDBRANCH  32  34
BRANCH  32  38
ATOM     38  N   LIG d   1       9.751  13.652  -0.436  0.00  0.00     0.229 N 
ATOM     39  H   LIG d   1       9.021  14.170   0.030  0.00  0.00     0.201 HD
ATOM     40  H   LIG d   1       9.506  12.673  -0.460  0.00  0.00     0.201 HD
BRANCH  38  41
ATOM     41  C   LIG d   1      11.015  13.824   0.292  0.00  0.00    -0.044 C 
ATOM     42  H   LIG d   1      11.170  12.973   0.956  0.00  0.00     0.078 H 
ATOM     43  H   LIG d   1      11.839  13.884  -0.419  0.00  0.00     0.078 H 
ATOM     44  H   LIG d   1      10.974  14.741   0.879  0.00  0.00     0.078 H 
ENDBRANCH  38  41
ENDBRANCH  32  38
ENDBRANCH  22  32
ENDBRANCH  14  15
ENDBRANCH   1  14
BRANCH  10  45
ATOM     45  O   LIG d   1       9.862   7.701  -4.402  0.00  0.00    -0.386 OA
ATOM     46  H   LIG d   1       8.901   7.791  -4.337  0.00  0.00     0.210 HD
ENDBRANCH  10  45
BRANCH   3  47
ATOM     47  N   LIG d   1      10.289  10.299  -0.311  0.00  0.00    -0.325 N 
ATOM     48  H   LIG d   1       9.303  10.444  -0.464  0.00  0.00     0.119 HD
ATOM     49  H   LIG d   1      10.496  10.223   0.673  0.00  0.00     0.119 HD
ENDBRANCH   3  47
BRANCH   8  50
ATOM     50  O   LIG d   1      10.726   5.385  -3.036  0.00  0.00    -0.337 OA
BRANCH  50  51
ATOM     51  C   LIG d   1       9.713   4.412  -3.294  0.00  0.00     0.191 C 
ATOM     52  H   LIG d   1       8.901   4.532  -2.579  0.00  0.00     0.094 H 
ATOM     53  O   LIG d   1       9.210   4.588  -4.621  0.00  0.00    -0.345 OA
ATOM     54  C   LIG d   1      10.204   4.476  -5.642  0.00  0.00     0.085 C 
ATOM     55  C   LIG d   1      10.818   3.073  -5.601  0.00  0.00     0.131 C 
ATOM     56  H   LIG d   1      10.982   5.219  -5.474  0.00  0.00     0.059 H 
ATOM     57  H   LIG d   1       9.744   4.643  -6.616  0.00  0.00     0.059 H 
ATOM     58  C   LIG d   1      11.407   2.824  -4.210  0.00  0.00     0.040 C 
ATOM     59  C   LIG d   1      10.307   3.007  -3.160  0.00  0.00     0.151 C 
ATOM     60  H   LIG d   1      12.213   3.534  -4.021  0.00  0.00     0.091 H 
ATOM     61  H   LIG d   1       9.527   2.264  -3.317  0.00  0.00     0.070 H 
BRANCH  55  62
ATOM     62  C   LIG d   1      11.924   2.970  -6.652  0.00  0.00    -0.029 C 
ATOM     63  H   LIG d   1      12.291   3.967  -6.893  0.00  0.00     0.026 H 
ATOM     64  H   LIG d   1      12.743   2.367  -6.258  0.00  0.00     0.026 H 
ATOM     65  H   LIG d   1      11.528   2.500  -7.552  0.00  0.00     0.026 H 
ENDBRANCH  55  62
BRANCH  55  66
ATOM     66  O   LIG d   1       9.807   2.101  -5.872  0.00  0.00    -0.381 OA
ATOM     67  H   LIG d   1       9.557   2.043  -6.804  0.00  0.00     0.210 HD
ENDBRANCH  55  66
BRANCH  58  68
ATOM     68  N   LIG d   1      11.935   1.454  -4.136  0.00  0.00     0.231 N 
ATOM     69  H   LIG d   1      11.418   0.933  -3.443  0.00  0.00     0.202 HD
ATOM     70  H   LIG d   1      11.838   1.008  -5.036  0.00  0.00     0.202 HD
BRANCH  68  71
ATOM     71  C   LIG d   1      13.354   1.495  -3.760  0.00  0.00    -0.044 C 
ATOM     72  H   LIG d   1      13.968   1.534  -4.660  0.00  0.00     0.078 H 
ATOM     73  H   LIG d   1      13.544   2.381  -3.154  0.00  0.00     0.078 H 
ATOM     74  H   LIG d   1      13.604   0.602  -3.188  0.00  0.00     0.078 H 
ENDBRANCH  68  71
ENDBRANCH  58  68
BRANCH  59  75
ATOM     75  O   LIG d   1      10.862   2.847  -1.852  0.00  0.00    -0.381 OA
ATOM     76  H   LIG d   1      10.320   2.311  -1.258  0.00  0.00     0.210 HD
ENDBRANCH  59  75
ENDBRANCH  50  51
ENDBRANCH   8  50
BRANCH   6  77
ATOM     77  N   LIG d   1      10.718   5.422  -0.190  0.00  0.00     0.223 N 
ATOM     78  H   LIG d   1      10.206   4.760  -0.752  0.00  0.00     0.200 HD
ATOM     79  H   LIG d   1      11.592   5.010   0.102  0.00  0.00     0.200 HD
ATOM     80  H   LIG d   1      10.173   5.666   0.623  0.00  0.00     0.200 HD
ENDBRANCH   6  77
TORSDOF 17
ENDMDL
MODEL 4
REMARK VINA RESULT:      -5.0      5.719      9.445
REMARK  17 active torsions:
REMARK  status: ('A' for Active; 'I' for Inactive)
REMARK    1  A    between atoms: C_1  and  C_2 
REMARK    2  A    between atoms: C_2  and  C_4 
REMARK    3  A    between atoms: C_2  and  N_44 
REMARK    4  A    between atoms: C_8  and  N_43 
REMARK    5  A    between atoms: C_10  and  O_13 
REMARK    6  A    between atoms: O_13  and  C_14 
REMARK    7  A    between atoms: C_16  and  N_42 
REMARK    8  A    between atoms: C_19  and  N_41 
REMARK    9  A    between atoms: C_21  and  O_26 
REMARK   10  A    between atoms: C_23  and  O_25 
REMARK   11  A    between atoms: O_26  and  C_27 
REMARK   12  A    between atoms: C_29  and  O_40 
REMARK   13  A    between atoms: C_31  and  N_38 
REMARK   14  A    between atoms: C_33  and  C_36 
REMARK   15  A    between atoms: C_33  and  O_37 
REMARK   16  A    between atoms: N_38  and  C_39 
REMARK   17  A    between atoms: N_44  and  C_45 
ROOT
ATOM      1  C   LIG d   1       7.339   0.362  -6.094  0.00  0.00     0.106 C 
ATOM      2  H   LIG d   1       7.553  -0.613  -6.533  0.00  0.00     0.064 H 
ATOM      3  C   LIG d   1       8.060   0.484  -4.750  0.00  0.00     0.039 C 
ATOM      4  H   LIG d   1       7.845   1.459  -4.310  0.00  0.00     0.049 H 
ATOM      5  C   LIG d   1       9.567   0.341  -4.965  0.00  0.00     0.010 C 
ATOM      6  C   LIG d   1      10.055   1.444  -5.907  0.00  0.00     0.007 C 
ATOM      7  H   LIG d   1       9.841   2.418  -5.468  0.00  0.00     0.088 H 
ATOM      8  C   LIG d   1       9.334   1.321  -7.251  0.00  0.00     0.132 C 
ATOM      9  H   LIG d   1       9.547   0.346  -7.690  0.00  0.00     0.068 H 
ATOM     10  C   LIG d   1       7.826   1.464  -7.036  0.00  0.00     0.114 C 
ATOM     11  H   LIG d   1       7.612   2.439  -6.597  0.00  0.00     0.065 H 
ATOM     12  H   LIG d   1      10.081   0.429  -4.007  0.00  0.00     0.034 H 
ATOM     13  H   LIG d   1       9.781  -0.633  -5.404  0.00  0.00     0.034 H 
ENDROOT
BRANCH   1  14
ATOM     14  O   LIG d   1       5.930   0.495  -5.893  0.00  0.00    -0.339 OA
BRANCH  14  15
ATOM     15  C   LIG d   1       5.208  -0.732  -6.009  0.00  0.00     0.203 C 
ATOM     16  C   LIG d   1       3.978  -0.520  -6.896  0.00  0.00     0.028 C 
ATOM     17  C   LIG d   1       3.052   0.504  -6.233  0.00  0.00    -0.003 C 
ATOM     18  H   LIG d   1       3.449  -1.465  -7.019  0.00  0.00     0.090 H 
ATOM     19  C   LIG d   1       2.679   0.007  -4.833  0.00  0.00    -0.016 C 
ATOM     20  H   LIG d   1       2.147   0.619  -6.832  0.00  0.00     0.032 H 
ATOM     21  H   LIG d   1       3.563   1.463  -6.156  0.00  0.00     0.032 H 
ATOM     22  C   LIG d   1       3.958  -0.225  -4.026  0.00  0.00     0.104 C 
ATOM     23  H   LIG d   1       2.123  -0.926  -4.913  0.00  0.00     0.029 H 
ATOM     24  H   LIG d   1       2.064   0.756  -4.333  0.00  0.00     0.029 H 
ATOM     25  H   LIG d   1       4.493   0.718  -3.911  0.00  0.00     0.065 H 
ATOM     26  O   LIG d   1       4.790  -1.164  -4.712  0.00  0.00    -0.338 OA
ATOM     27  H   LIG d   1       5.850  -1.492  -6.455  0.00  0.00     0.097 H 
BRANCH  16  28
ATOM     28  N   LIG d   1       4.401  -0.020  -8.211  0.00  0.00     0.224 N 
ATOM     29  H   LIG d   1       4.602  -0.800  -8.819  0.00  0.00     0.200 HD
ATOM     30  H   LIG d   1       3.663   0.539  -8.613  0.00  0.00     0.200 HD
ATOM     31  H   LIG d   1       5.231   0.545  -8.105  0.00  0.00     0.200 HD
ENDBRANCH  16  28
BRANCH  22  32
ATOM     32  C   LIG d   1       3.598  -0.779  -2.646  0.00  0.00     0.001 C 
ATOM     33  H   LIG d   1       2.539  -0.603  -2.450  0.00  0.00     0.087 H 
BRANCH  32  34
ATOM     34  C   LIG d   1       3.880  -2.283  -2.610  0.00  0.00    -0.019 C 
ATOM     35  H   LIG d   1       4.646  -2.526  -3.345  0.00  0.00     0.029 H 
ATOM     36  H   LIG d   1       4.230  -2.562  -1.615  0.00  0.00     0.029 H 
ATOM     37  H   LIG d   1       2.966  -2.830  -2.841  0.00  0.00     0.029 H 
ENDBRANCH  32  34
BRANCH  32  38
ATOM     38  N   LIG d   1       4.404  -0.104  -1.620  0.00  0.00     0.229 N 
ATOM     39  H   LIG d   1       3.837   0.059  -0.801  0.00  0.00     0.201 HD
ATOM     40  H   LIG d   1       5.191  -0.686  -1.374  0.00  0.00     0.201 HD
BRANCH  38  41
ATOM     41  C   LIG d   1       4.889   1.179  -2.144  0.00  0.00    -0.044 C 
ATOM     42  H   LIG d   1       4.112   1.936  -2.026  0.00  0.00     0.078 H 
ATOM     43  H   LIG d   1       5.779   1.484  -1.595  0.00  0.00     0.078 H 
ATOM     44  H   LIG d   1       5.132   1.071  -3.201  0.00  0.00     0.078 H 
ENDBRANCH  38  41
ENDBRANCH  32  38
ENDBRANCH  22  32
ENDBRANCH  14  15
ENDBRANCH   1  14
BRANCH  10  45
ATOM     45  O   LIG d   1       7.153   1.349  -8.291  0.00  0.00    -0.386 OA
ATOM     46  H   LIG d   1       7.657   0.874  -8.966  0.00  0.00     0.210 HD
ENDBRANCH  10  45
BRANCH   3  47
ATOM     47  N   LIG d   1       7.591  -0.574  -3.844  0.00  0.00    -0.325 N 
ATOM     48  H   LIG d   1       7.158  -0.181  -3.022  0.00  0.00     0.119 HD
ATOM     49  H   LIG d   1       6.962  -1.204  -4.319  0.00  0.00     0.119 HD
ENDBRANCH   3  47
BRANCH   8  50
ATOM     50  O   LIG d   1       9.789   2.350  -8.132  0.00  0.00    -0.337 OA
BRANCH  50  51
ATOM     51  C   LIG d   1       9.474   3.673  -7.693  0.00  0.00     0.191 C 
ATOM     52  H   LIG d   1       8.656   3.633  -6.974  0.00  0.00     0.094 H 
ATOM     53  O   LIG d   1      10.624   4.256  -7.075  0.00  0.00    -0.345 OA
ATOM     54  C   LIG d   1      11.768   4.333  -7.927  0.00  0.00     0.085 C 
ATOM     55  C   LIG d   1      11.442   5.211  -9.138  0.00  0.00     0.131 C 
ATOM     56  H   LIG d   1      12.038   3.333  -8.264  0.00  0.00     0.059 H 
ATOM     57  H   LIG d   1      12.602   4.769  -7.376  0.00  0.00     0.059 H 
ATOM     58  C   LIG d   1      10.232   4.626  -9.871  0.00  0.00     0.040 C 
ATOM     59  C   LIG d   1       9.056   4.524  -8.895  0.00  0.00     0.151 C 
ATOM     60  H   LIG d   1      10.479   3.633 -10.250  0.00  0.00     0.091 H 
ATOM     61  H   LIG d   1       8.777   5.521  -8.556  0.00  0.00     0.070 H 
BRANCH  55  62
ATOM     62  C   LIG d   1      12.645   5.246 -10.083  0.00  0.00    -0.029 C 
ATOM     63  H   LIG d   1      12.971   6.277 -10.218  0.00  0.00     0.026 H 
ATOM     64  H   LIG d   1      13.459   4.659  -9.656  0.00  0.00     0.026 H 
ATOM     65  H   LIG d   1      12.362   4.824 -11.048  0.00  0.00     0.026 H 
ENDBRANCH  55  62
BRANCH  55  66
ATOM     66  O   LIG d   1      11.139   6.537  -8.701  0.00  0.00    -0.381 OA
ATOM     67  H   LIG d   1      11.918   7.066  -8.480  0.00  0.00     0.210 HD
ENDBRANCH  55  66
BRANCH  58  68
ATOM     68  N   LIG d   1       9.865   5.501 -10.994  0.00  0.00     0.231 N 
ATOM     69  H   LIG d   1       8.907   5.801 -10.886  0.00  0.00     0.202 HD
ATOM     70  H   LIG d   1      10.471   6.307 -11.005  0.00  0.00     0.202 HD
BRANCH  68  71
ATOM     71  C   LIG d   1      10.006   4.763 -12.256  0.00  0.00    -0.044 C 
ATOM     72  H   LIG d   1       9.495   3.804 -12.177  0.00  0.00     0.078 H 
ATOM     73  H   LIG d   1       9.565   5.343 -13.067  0.00  0.00     0.078 H 
ATOM     74  H   LIG d   1      11.063   4.596 -12.463  0.00  0.00     0.078 H 
ENDBRANCH  68  71
ENDBRANCH  58  68
BRANCH  59  75
ATOM     75  O   LIG d   1       7.942   3.912  -9.549  0.00  0.00    -0.381 OA
ATOM     76  H   LIG d   1       7.092   4.090  -9.125  0.00  0.00     0.210 HD
ENDBRANCH  59  75
ENDBRANCH  50  51
ENDBRANCH   8  50
BRANCH   6  77
ATOM     77  N   LIG d   1      11.503   1.307  -6.113  0.00  0.00     0.223 N 
ATOM     78  H   LIG d   1      11.993   1.887  -5.449  0.00  0.00     0.200 HD
ATOM     79  H   LIG d   1      11.772   0.343  -5.981  0.00  0.00     0.200 HD
ATOM     80  H   LIG d   1      11.738   1.596  -7.050  0.00  0.00     0.200 HD
ENDBRANCH   6  77
TORSDOF 17
ENDMDL
MODEL 5
REMARK VINA RESULT:      -5.0      3.344      6.942
REMARK  17 active torsions:
REMARK  status: ('A' for Active; 'I' for Inactive)
REMARK    1  A    between atoms: C_1  and  C_2 
REMARK    2  A    between atoms: C_2  and  C_4 
REMARK    3  A    between atoms: C_2  and  N_44 
REMARK    4  A    between atoms: C_8  and  N_43 
REMARK    5  A    between atoms: C_10  and  O_13 
REMARK    6  A    between atoms: O_13  and  C_14 
REMARK    7  A    between atoms: C_16  and  N_42 
REMARK    8  A    between atoms: C_19  and  N_41 
REMARK    9  A    between atoms: C_21  and  O_26 
REMARK   10  A    between atoms: C_23  and  O_25 
REMARK   11  A    between atoms: O_26  and  C_27 
REMARK   12  A    between atoms: C_29  and  O_40 
REMARK   13  A    between atoms: C_31  and  N_38 
REMARK   14  A    between atoms: C_33  and  C_36 
REMARK   15  A    between atoms: C_33  and  O_37 
REMARK   16  A    between atoms: N_38  and  C_39 
REMARK   17  A    between atoms: N_44  and  C_45 
ROOT
ATOM      1  C   LIG d   1       9.683   8.444  -1.517  0.00  0.00     0.106 C 
ATOM      2  H   LIG d   1       8.760   8.112  -1.041  0.00  0.00     0.064 H 
ATOM      3  C   LIG d   1      10.793   8.533  -0.468  0.00  0.00     0.039 C 
ATOM      4  H   LIG d   1      11.717   8.866  -0.942  0.00  0.00     0.049 H 
ATOM      5  C   LIG d   1      11.011   7.158   0.164  0.00  0.00     0.010 C 
ATOM      6  C   LIG d   1      11.415   6.157  -0.921  0.00  0.00     0.007 C 
ATOM      7  H   LIG d   1      12.338   6.489  -1.397  0.00  0.00     0.088 H 
ATOM      8  C   LIG d   1      10.305   6.067  -1.971  0.00  0.00     0.132 C 
ATOM      9  H   LIG d   1       9.382   5.736  -1.495  0.00  0.00     0.068 H 
ATOM     10  C   LIG d   1      10.087   7.443  -2.602  0.00  0.00     0.114 C 
ATOM     11  H   LIG d   1      11.010   7.775  -3.077  0.00  0.00     0.065 H 
ATOM     12  H   LIG d   1      11.802   7.221   0.911  0.00  0.00     0.034 H 
ATOM     13  H   LIG d   1      10.088   6.826   0.639  0.00  0.00     0.034 H 
ENDROOT
BRANCH   1  14
ATOM     14  O   LIG d   1       9.479   9.730  -2.106  0.00  0.00    -0.339 OA
BRANCH  14  15
ATOM     15  C   LIG d   1      10.657  10.301  -2.678  0.00  0.00     0.203 C 
ATOM     16  C   LIG d   1      10.615  11.823  -2.521  0.00  0.00     0.028 C 
ATOM     17  C   LIG d   1       9.412  12.374  -3.292  0.00  0.00    -0.003 C 
ATOM     18  H   LIG d   1      11.533  12.256  -2.921  0.00  0.00     0.090 H 
ATOM     19  C   LIG d   1       9.517  11.943  -4.758  0.00  0.00    -0.016 C 
ATOM     20  H   LIG d   1       9.407  13.463  -3.231  0.00  0.00     0.032 H 
ATOM     21  H   LIG d   1       8.491  11.980  -2.860  0.00  0.00     0.032 H 
ATOM     22  C   LIG d   1       9.601  10.416  -4.828  0.00  0.00     0.104 C 
ATOM     23  H   LIG d   1      10.411  12.378  -5.203  0.00  0.00     0.029 H 
ATOM     24  H   LIG d   1       8.635  12.284  -5.302  0.00  0.00     0.029 H 
ATOM     25  H   LIG d   1       8.688   9.982  -4.420  0.00  0.00     0.065 H 
ATOM     26  O   LIG d   1      10.724   9.966  -4.066  0.00  0.00    -0.338 OA
ATOM     27  H   LIG d   1      11.537   9.907  -2.167  0.00  0.00     0.097 H 
BRANCH  16  28
ATOM     28  N   LIG d   1      10.488  12.168  -1.099  0.00  0.00     0.224 N 
ATOM     29  H   LIG d   1      10.365  13.164  -1.004  0.00  0.00     0.200 HD
ATOM     30  H   LIG d   1       9.690  11.692  -0.707  0.00  0.00     0.200 HD
ATOM     31  H   LIG d   1      11.323  11.884  -0.609  0.00  0.00     0.200 HD
ENDBRANCH  16  28
BRANCH  22  32
ATOM     32  C   LIG d   1       9.767   9.980  -6.285  0.00  0.00     0.001 C 
ATOM     33  H   LIG d   1       9.248  10.685  -6.935  0.00  0.00     0.087 H 
BRANCH  32  34
ATOM     34  C   LIG d   1      11.254   9.954  -6.643  0.00  0.00    -0.019 C 
ATOM     35  H   LIG d   1      11.373  10.110  -7.714  0.00  0.00     0.029 H 
ATOM     36  H   LIG d   1      11.772  10.745  -6.101  0.00  0.00     0.029 H 
ATOM     37  H   LIG d   1      11.677   8.987  -6.367  0.00  0.00     0.029 H 
ENDBRANCH  32  34
BRANCH  32  38
ATOM     38  N   LIG d   1       9.196   8.639  -6.464  0.00  0.00     0.229 N 
ATOM     39  H   LIG d   1       9.847   7.948  -6.121  0.00  0.00     0.201 HD
ATOM     40  H   LIG d   1       8.331   8.571  -5.948  0.00  0.00     0.201 HD
BRANCH  38  41
ATOM     41  C   LIG d   1       8.937   8.403  -7.890  0.00  0.00    -0.044 C 
ATOM     42  H   LIG d   1       8.235   9.151  -8.260  0.00  0.00     0.078 H 
ATOM     43  H   LIG d   1       9.872   8.475  -8.446  0.00  0.00     0.078 H 
ATOM     44  H   LIG d   1       8.511   7.409  -8.022  0.00  0.00     0.078 H 
ENDBRANCH  38  41
ENDBRANCH  32  38
ENDBRANCH  22  32
ENDBRANCH  14  15
ENDBRANCH   1  14
BRANCH  10  45
ATOM     45  O   LIG d   1       9.050   7.360  -3.582  0.00  0.00    -0.386 OA
ATOM     46  H   LIG d   1       9.258   7.805  -4.414  0.00  0.00     0.210 HD
ENDBRANCH  10  45
BRANCH   3  47
ATOM     47  N   LIG d   1      10.406   9.495   0.574  0.00  0.00    -0.325 N 
ATOM     48  H   LIG d   1      11.039   9.452   1.359  0.00  0.00     0.119 HD
ATOM     49  H   LIG d   1      10.355  10.431   0.202  0.00  0.00     0.119 HD
ENDBRANCH   3  47
BRANCH   8  50
ATOM     50  O   LIG d   1      10.682   5.132  -2.984  0.00  0.00    -0.337 OA
BRANCH  50  51
ATOM     51  C   LIG d   1       9.673   4.168  -3.289  0.00  0.00     0.191 C 
ATOM     52  H   LIG d   1       8.879   4.224  -2.545  0.00  0.00     0.094 H 
ATOM     53  O   LIG d   1       9.131   4.439  -4.584  0.00  0.00    -0.345 OA
ATOM     54  C   LIG d   1      10.097   4.417  -5.637  0.00  0.00     0.085 C 
ATOM     55  C   LIG d   1      10.728   3.024  -5.720  0.00  0.00     0.131 C 
ATOM     56  H   LIG d   1      10.872   5.156  -5.434  0.00  0.00     0.059 H 
ATOM     57  H   LIG d   1       9.608   4.652  -6.582  0.00  0.00     0.059 H 
ATOM     58  C   LIG d   1      11.359   2.678  -4.368  0.00  0.00     0.040 C 
ATOM     59  C   LIG d   1      10.286   2.766  -3.278  0.00  0.00     0.151 C 
ATOM     60  H   LIG d   1      12.161   3.382  -4.148  0.00  0.00     0.091 H 
ATOM     61  H   LIG d   1       9.510   2.026  -3.471  0.00  0.00     0.070 H 
BRANCH  55  62
ATOM     62  C   LIG d   1      11.805   3.016  -6.805  0.00  0.00    -0.029 C 
ATOM     63  H   LIG d   1      11.826   2.039  -7.289  0.00  0.00     0.026 H 
ATOM     64  H   LIG d   1      11.582   3.784  -7.545  0.00  0.00     0.026 H 
ATOM     65  H   LIG d   1      12.777   3.219  -6.354  0.00  0.00     0.026 H 
ENDBRANCH  55  62
BRANCH  55  66
ATOM     66  O   LIG d   1       9.721   2.062  -6.037  0.00  0.00    -0.381 OA
ATOM     67  H   LIG d   1       9.033   2.394  -6.630  0.00  0.00     0.210 HD
ENDBRANCH  55  66
BRANCH  58  68
ATOM     68  N   LIG d   1      11.903   1.313  -4.414  0.00  0.00     0.231 N 
ATOM     69  H   LIG d   1      11.371   0.719  -3.796  0.00  0.00     0.202 HD
ATOM     70  H   LIG d   1      11.844   0.959  -5.356  0.00  0.00     0.202 HD
BRANCH  68  71
ATOM     71  C   LIG d   1      13.308   1.332  -3.984  0.00  0.00    -0.044 C 
ATOM     72  H   LIG d   1      13.954   1.418  -4.858  0.00  0.00     0.078 H 
ATOM     73  H   LIG d   1      13.475   2.184  -3.325  0.00  0.00     0.078 H 
ATOM     74  H   LIG d   1      13.537   0.409  -3.452  0.00  0.00     0.078 H 
ENDBRANCH  68  71
ENDBRANCH  58  68
BRANCH  59  75
ATOM     75  O   LIG d   1      10.879   2.514  -2.002  0.00  0.00    -0.381 OA
ATOM     76  H   LIG d   1      10.249   2.517  -1.268  0.00  0.00     0.210 HD
ENDBRANCH  59  75
ENDBRANCH  50  51
ENDBRANCH   8  50
BRANCH   6  77
ATOM     77  N   LIG d   1      11.624   4.835  -0.315  0.00  0.00     0.223 N 
ATOM     78  H   LIG d   1      10.760   4.315  -0.336  0.00  0.00     0.200 HD
ATOM     79  H   LIG d   1      12.330   4.335  -0.834  0.00  0.00     0.200 HD
ATOM     80  H   LIG d   1      11.926   4.947   0.641  0.00  0.00     0.200 HD
ENDBRANCH   6  77
TORSDOF 17
ENDMDL
MODEL 6
REMARK VINA RESULT:      -5.0      2.010      3.676
REMARK  17 active torsions:
REMARK  status: ('A' for Active; 'I' for Inactive)
REMARK    1  A    between atoms: C_1  and  C_2 
REMARK    2  A    between atoms: C_2  and  C_4 
REMARK    3  A    between atoms: C_2  and  N_44 
REMARK    4  A    between atoms: C_8  and  N_43 
REMARK    5  A    between atoms: C_10  and  O_13 
REMARK    6  A    between atoms: O_13  and  C_14 
REMARK    7  A    between atoms: C_16  and  N_42 
REMARK    8  A    between atoms: C_19  and  N_41 
REMARK    9  A    between atoms: C_21  and  O_26 
REMARK   10  A    between atoms: C_23  and  O_25 
REMARK   11  A    between atoms: O_26  and  C_27 
REMARK   12  A    between atoms: C_29  and  O_40 
REMARK   13  A    between atoms: C_31  and  N_38 
REMARK   14  A    between atoms: C_33  and  C_36 
REMARK   15  A    between atoms: C_33  and  O_37 
REMARK   16  A    between atoms: N_38  and  C_39 
REMARK   17  A    between atoms: N_44  and  C_45 
ROOT
ATOM      1  C   LIG d   1       9.208   8.946  -6.418  0.00  0.00     0.106 C 
ATOM      2  H   LIG d   1       8.240   9.344  -6.113  0.00  0.00     0.064 H 
ATOM      3  C   LIG d   1      10.136  10.102  -6.798  0.00  0.00     0.039 C 
ATOM      4  H   LIG d   1      11.105   9.706  -7.104  0.00  0.00     0.049 H 
ATOM      5  C   LIG d   1      10.320  11.026  -5.594  0.00  0.00     0.010 C 
ATOM      6  C   LIG d   1      10.936  10.239  -4.436  0.00  0.00     0.007 C 
ATOM      7  H   LIG d   1      11.905   9.841  -4.741  0.00  0.00     0.088 H 
ATOM      8  C   LIG d   1      10.009   9.083  -4.055  0.00  0.00     0.132 C 
ATOM      9  H   LIG d   1       9.040   9.480  -3.751  0.00  0.00     0.068 H 
ATOM     10  C   LIG d   1       9.824   8.159  -5.260  0.00  0.00     0.114 C 
ATOM     11  H   LIG d   1      10.793   7.761  -5.565  0.00  0.00     0.065 H 
ATOM     12  H   LIG d   1      10.981  11.850  -5.865  0.00  0.00     0.034 H 
ATOM     13  H   LIG d   1       9.352  11.424  -5.289  0.00  0.00     0.034 H 
ENDROOT
BRANCH   1  14
ATOM     14  O   LIG d   1       9.036   8.083  -7.544  0.00  0.00    -0.339 OA
BRANCH  14  15
ATOM     15  C   LIG d   1      10.259   7.591  -8.091  0.00  0.00     0.203 C 
ATOM     16  C   LIG d   1      10.087   7.351  -9.594  0.00  0.00     0.028 C 
ATOM     17  C   LIG d   1       9.016   6.279  -9.812  0.00  0.00    -0.003 C 
ATOM     18  H   LIG d   1      11.033   7.014 -10.020  0.00  0.00     0.090 H 
ATOM     19  C   LIG d   1       9.424   5.006  -9.063  0.00  0.00    -0.016 C 
ATOM     20  H   LIG d   1       8.928   6.062 -10.877  0.00  0.00     0.032 H 
ATOM     21  H   LIG d   1       8.059   6.636  -9.430  0.00  0.00     0.032 H 
ATOM     22  C   LIG d   1       9.621   5.336  -7.582  0.00  0.00     0.104 C 
ATOM     23  H   LIG d   1      10.354   4.621  -9.478  0.00  0.00     0.029 H 
ATOM     24  H   LIG d   1       8.640   4.255  -9.167  0.00  0.00     0.029 H 
ATOM     25  H   LIG d   1       8.679   5.682  -7.157  0.00  0.00     0.065 H 
ATOM     26  O   LIG d   1      10.608   6.362  -7.450  0.00  0.00    -0.338 OA
ATOM     27  H   LIG d   1      11.051   8.322  -7.929  0.00  0.00     0.097 H 
BRANCH  16  28
ATOM     28  N   LIG d   1       9.672   8.600 -10.246  0.00  0.00     0.224 N 
ATOM     29  H   LIG d   1      10.098   9.384  -9.775  0.00  0.00     0.200 HD
ATOM     30  H   LIG d   1       9.964   8.589 -11.212  0.00  0.00     0.200 HD
ATOM     31  H   LIG d   1       8.668   8.685 -10.200  0.00  0.00     0.200 HD
ENDBRANCH  16  28
BRANCH  22  32
ATOM     32  C   LIG d   1      10.087   4.083  -6.837  0.00  0.00     0.001 C 
ATOM     33  H   LIG d   1       9.337   3.299  -6.941  0.00  0.00     0.087 H 
BRANCH  32  34
ATOM     34  C   LIG d   1      11.414   3.602  -7.429  0.00  0.00    -0.019 C 
ATOM     35  H   LIG d   1      12.029   3.172  -6.640  0.00  0.00     0.029 H 
ATOM     36  H   LIG d   1      11.219   2.846  -8.190  0.00  0.00     0.029 H 
ATOM     37  H   LIG d   1      11.937   4.445  -7.880  0.00  0.00     0.029 H 
ENDBRANCH  32  34
BRANCH  32  38
ATOM     38  N   LIG d   1      10.271   4.398  -5.414  0.00  0.00     0.229 N 
ATOM     39  H   LIG d   1      11.233   4.233  -5.155  0.00  0.00     0.201 HD
ATOM     40  H   LIG d   1      10.040   5.367  -5.252  0.00  0.00     0.201 HD
BRANCH  38  41
ATOM     41  C   LIG d   1       9.393   3.543  -4.606  0.00  0.00    -0.044 C 
ATOM     42  H   LIG d   1       9.937   3.188  -3.730  0.00  0.00     0.078 H 
ATOM     43  H   LIG d   1       8.522   4.115  -4.285  0.00  0.00     0.078 H 
ATOM     44  H   LIG d   1       9.068   2.690  -5.201  0.00  0.00     0.078 H 
ENDBRANCH  38  41
ENDBRANCH  32  38
ENDBRANCH  22  32
ENDBRANCH  14  15
ENDBRANCH   1  14
BRANCH  10  45
ATOM     45  O   LIG d   1       8.958   7.080  -4.904  0.00  0.00    -0.386 OA
ATOM     46  H   LIG d   1       8.868   6.404  -5.591  0.00  0.00     0.210 HD
ENDBRANCH  10  45
BRANCH   3  47
ATOM     47  N   LIG d   1       9.545  10.859  -7.911  0.00  0.00    -0.325 N 
ATOM     48  H   LIG d   1       9.005  10.255  -8.512  0.00  0.00     0.119 HD
ATOM     49  H   LIG d   1       8.984  11.625  -7.570  0.00  0.00     0.119 HD
ENDBRANCH   3  47
BRANCH   8  50
ATOM     50  O   LIG d   1      10.583   8.347  -2.973  0.00  0.00    -0.337 OA
BRANCH  50  51
ATOM     51  C   LIG d   1       9.635   7.914  -1.997  0.00  0.00     0.191 C 
ATOM     52  H   LIG d   1       8.653   8.319  -2.238  0.00  0.00     0.094 H 
ATOM     53  O   LIG d   1       9.574   6.486  -1.992  0.00  0.00    -0.345 OA
ATOM     54  C   LIG d   1      10.823   5.849  -1.710  0.00  0.00     0.085 C 
ATOM     55  C   LIG d   1      11.300   6.261  -0.315  0.00  0.00     0.131 C 
ATOM     56  H   LIG d   1      11.561   6.153  -2.452  0.00  0.00     0.059 H 
ATOM     57  H   LIG d   1      10.694   4.767  -1.746  0.00  0.00     0.059 H 
ATOM     58  C   LIG d   1      11.419   7.787  -0.255  0.00  0.00     0.040 C 
ATOM     59  C   LIG d   1      10.065   8.409  -0.613  0.00  0.00     0.151 C 
ATOM     60  H   LIG d   1      12.174   8.123  -0.967  0.00  0.00     0.091 H 
ATOM     61  H   LIG d   1       9.322   8.114   0.127  0.00  0.00     0.070 H 
BRANCH  55  62
ATOM     62  C   LIG d   1      12.665   5.631  -0.035  0.00  0.00    -0.029 C 
ATOM     63  H   LIG d   1      12.917   5.760   1.017  0.00  0.00     0.026 H 
ATOM     64  H   LIG d   1      12.629   4.567  -0.272  0.00  0.00     0.026 H 
ATOM     65  H   LIG d   1      13.423   6.115  -0.652  0.00  0.00     0.026 H 
ENDBRANCH  55  62
BRANCH  55  66
ATOM     66  O   LIG d   1      10.358   5.818   0.664  0.00  0.00    -0.381 OA
ATOM     67  H   LIG d   1      10.369   6.334   1.482  0.00  0.00     0.210 HD
ENDBRANCH  55  66
BRANCH  58  68
ATOM     68  N   LIG d   1      11.806   8.199   1.102  0.00  0.00     0.231 N 
ATOM     69  H   LIG d   1      11.017   8.630   1.559  0.00  0.00     0.202 HD
ATOM     70  H   LIG d   1      12.100   7.390   1.627  0.00  0.00     0.202 HD
BRANCH  68  71
ATOM     71  C   LIG d   1      12.912   9.162   1.024  0.00  0.00    -0.044 C 
ATOM     72  H   LIG d   1      13.858   8.624   0.957  0.00  0.00     0.078 H 
ATOM     73  H   LIG d   1      12.788   9.788   0.141  0.00  0.00     0.078 H 
ATOM     74  H   LIG d   1      12.913   9.787   1.916  0.00  0.00     0.078 H 
ENDBRANCH  68  71
ENDBRANCH  58  68
BRANCH  59  75
ATOM     75  O   LIG d   1      10.183   9.833  -0.631  0.00  0.00    -0.381 OA
ATOM     76  H   LIG d   1       9.370  10.297  -0.389  0.00  0.00     0.210 HD
ENDBRANCH  59  75
ENDBRANCH  50  51
ENDBRANCH   8  50
BRANCH   6  77
ATOM     77  N   LIG d   1      11.113  11.126  -3.279  0.00  0.00     0.223 N 
ATOM     78  H   LIG d   1      12.087  11.147  -3.018  0.00  0.00     0.200 HD
ATOM     79  H   LIG d   1      10.810  12.058  -3.520  0.00  0.00     0.200 HD
ATOM     80  H   LIG d   1      10.565  10.784  -2.505  0.00  0.00     0.200 HD
ENDBRANCH   6  77
TORSDOF 17
ENDMDL
MODEL 7
REMARK VINA RESULT:      -4.9      1.782      2.154
REMARK  17 active torsions:
REMARK  status: ('A' for Active; 'I' for Inactive)
REMARK    1  A    between atoms: C_1  and  C_2 
REMARK    2  A    between atoms: C_2  and  C_4 
REMARK    3  A    between atoms: C_2  and  N_44 
REMARK    4  A    between atoms: C_8  and  N_43 
REMARK    5  A    between atoms: C_10  and  O_13 
REMARK    6  A    between atoms: O_13  and  C_14 
REMARK    7  A    between atoms: C_16  and  N_42 
REMARK    8  A    between atoms: C_19  and  N_41 
REMARK    9  A    between atoms: C_21  and  O_26 
REMARK   10  A    between atoms: C_23  and  O_25 
REMARK   11  A    between atoms: O_26  and  C_27 
REMARK   12  A    between atoms: C_29  and  O_40 
REMARK   13  A    between atoms: C_31  and  N_38 
REMARK   14  A    between atoms: C_33  and  C_36 
REMARK   15  A    between atoms: C_33  and  O_37 
REMARK   16  A    between atoms: N_38  and  C_39 
REMARK   17  A    between atoms: N_44  and  C_45 
ROOT
ATOM      1  C   LIG d   1       9.888   9.002  -6.518  0.00  0.00     0.106 C 
ATOM      2  H   LIG d   1       8.809   8.846  -6.501  0.00  0.00     0.064 H 
ATOM      3  C   LIG d   1      10.185  10.497  -6.648  0.00  0.00     0.039 C 
ATOM      4  H   LIG d   1      11.264  10.653  -6.666  0.00  0.00     0.049 H 
ATOM      5  C   LIG d   1       9.582  11.242  -5.457  0.00  0.00     0.010 C 
ATOM      6  C   LIG d   1      10.195  10.712  -4.159  0.00  0.00     0.007 C 
ATOM      7  H   LIG d   1      11.274  10.867  -4.177  0.00  0.00     0.088 H 
ATOM      8  C   LIG d   1       9.898   9.216  -4.030  0.00  0.00     0.132 C 
ATOM      9  H   LIG d   1       8.819   9.061  -4.012  0.00  0.00     0.068 H 
ATOM     10  C   LIG d   1      10.501   8.471  -5.221  0.00  0.00     0.114 C 
ATOM     11  H   LIG d   1      11.580   8.627  -5.238  0.00  0.00     0.065 H 
ATOM     12  H   LIG d   1       9.794  12.308  -5.549  0.00  0.00     0.034 H 
ATOM     13  H   LIG d   1       8.503  11.087  -5.439  0.00  0.00     0.034 H 
ENDROOT
BRANCH   1  14
ATOM     14  O   LIG d   1      10.452   8.306  -7.632  0.00  0.00    -0.339 OA
BRANCH  14  15
ATOM     15  C   LIG d   1       9.482   7.755  -8.524  0.00  0.00     0.203 C 
ATOM     16  C   LIG d   1       9.764   6.264  -8.728  0.00  0.00     0.028 C 
ATOM     17  C   LIG d   1      11.141   6.098  -9.378  0.00  0.00    -0.003 C 
ATOM     18  H   LIG d   1       9.000   5.834  -9.377  0.00  0.00     0.090 H 
ATOM     19  C   LIG d   1      11.170   6.880 -10.695  0.00  0.00    -0.016 C 
ATOM     20  H   LIG d   1      11.325   5.041  -9.578  0.00  0.00     0.032 H 
ATOM     21  H   LIG d   1      11.910   6.482  -8.708  0.00  0.00     0.032 H 
ATOM     22  C   LIG d   1      10.834   8.347 -10.415  0.00  0.00     0.104 C 
ATOM     23  H   LIG d   1      10.436   6.463 -11.383  0.00  0.00     0.029 H 
ATOM     24  H   LIG d   1      12.164   6.812 -11.137  0.00  0.00     0.029 H 
ATOM     25  H   LIG d   1      11.592   8.775  -9.759  0.00  0.00     0.065 H 
ATOM     26  O   LIG d   1       9.554   8.429  -9.782  0.00  0.00    -0.338 OA
ATOM     27  H   LIG d   1       8.486   7.881  -8.101  0.00  0.00     0.097 H 
BRANCH  16  28
ATOM     28  N   LIG d   1       9.748   5.578  -7.429  0.00  0.00     0.224 N 
ATOM     29  H   LIG d   1       8.803   5.543  -7.078  0.00  0.00     0.200 HD
ATOM     30  H   LIG d   1      10.101   4.639  -7.540  0.00  0.00     0.200 HD
ATOM     31  H   LIG d   1      10.331   6.081  -6.777  0.00  0.00     0.200 HD
ENDBRANCH  16  28
BRANCH  22  32
ATOM     32  C   LIG d   1      10.801   9.124 -11.732  0.00  0.00     0.001 C 
ATOM     33  H   LIG d   1      10.948  10.185 -11.531  0.00  0.00     0.087 H 
BRANCH  32  34
ATOM     34  C   LIG d   1      11.916   8.619 -12.650  0.00  0.00    -0.019 C 
ATOM     35  H   LIG d   1      11.595   8.696 -13.688  0.00  0.00     0.029 H 
ATOM     36  H   LIG d   1      12.811   9.224 -12.501  0.00  0.00     0.029 H 
ATOM     37  H   LIG d   1      12.138   7.579 -12.414  0.00  0.00     0.029 H 
ENDBRANCH  32  34
BRANCH  32  38
ATOM     38  N   LIG d   1       9.500   8.925 -12.386  0.00  0.00     0.229 N 
ATOM     39  H   LIG d   1       9.237   7.953 -12.321  0.00  0.00     0.201 HD
ATOM     40  H   LIG d   1       8.804   9.494 -11.929  0.00  0.00     0.201 HD
BRANCH  38  41
ATOM     41  C   LIG d   1       9.599   9.313 -13.800  0.00  0.00    -0.044 C 
ATOM     42  H   LIG d   1      10.470   8.833 -14.247  0.00  0.00     0.078 H 
ATOM     43  H   LIG d   1       8.699   8.996 -14.327  0.00  0.00     0.078 H 
ATOM     44  H   LIG d   1       9.702  10.395 -13.873  0.00  0.00     0.078 H 
ENDBRANCH  38  41
ENDBRANCH  32  38
ENDBRANCH  22  32
ENDBRANCH  14  15
ENDBRANCH   1  14
BRANCH  10  45
ATOM     45  O   LIG d   1      10.223   7.075  -5.100  0.00  0.00    -0.386 OA
ATOM     46  H   LIG d   1       9.508   6.868  -4.483  0.00  0.00     0.210 HD
ENDBRANCH  10  45
BRANCH   3  47
ATOM     47  N   LIG d   1       9.597  11.007  -7.894  0.00  0.00    -0.325 N 
ATOM     48  H   LIG d   1       9.029  11.823  -7.719  0.00  0.00     0.119 HD
ATOM     49  H   LIG d   1      10.312  11.205  -8.577  0.00  0.00     0.119 HD
ENDBRANCH   3  47
BRANCH   8  50
ATOM     50  O   LIG d   1      10.470   8.720  -2.817  0.00  0.00    -0.337 OA
BRANCH  50  51
ATOM     51  C   LIG d   1       9.539   8.047  -1.968  0.00  0.00     0.191 C 
ATOM     52  H   LIG d   1       8.525   8.349  -2.228  0.00  0.00     0.094 H 
ATOM     53  O   LIG d   1       9.674   6.634  -2.138  0.00  0.00    -0.345 OA
ATOM     54  C   LIG d   1      10.981   6.134  -1.847  0.00  0.00     0.085 C 
ATOM     55  C   LIG d   1      11.322   6.423  -0.382  0.00  0.00     0.131 C 
ATOM     56  H   LIG d   1      11.709   6.623  -2.494  0.00  0.00     0.059 H 
ATOM     57  H   LIG d   1      11.005   5.058  -2.021  0.00  0.00     0.059 H 
ATOM     58  C   LIG d   1      11.227   7.931  -0.133  0.00  0.00     0.040 C 
ATOM     59  C   LIG d   1       9.822   8.413  -0.509  0.00  0.00     0.151 C 
ATOM     60  H   LIG d   1      11.965   8.450  -0.745  0.00  0.00     0.091 H 
ATOM     61  H   LIG d   1       9.088   7.932   0.137  0.00  0.00     0.070 H 
BRANCH  55  62
ATOM     62  C   LIG d   1      12.743   5.944  -0.085  0.00  0.00    -0.029 C 
ATOM     63  H   LIG d   1      13.440   6.772  -0.212  0.00  0.00     0.026 H 
ATOM     64  H   LIG d   1      12.796   5.579   0.942  0.00  0.00     0.026 H 
ATOM     65  H   LIG d   1      13.007   5.138  -0.770  0.00  0.00     0.026 H 
ENDBRANCH  55  62
BRANCH  55  66
ATOM     66  O   LIG d   1      10.398   5.740   0.467  0.00  0.00    -0.381 OA
ATOM     67  H   LIG d   1       9.832   5.108   0.004  0.00  0.00     0.210 HD
ENDBRANCH  55  66
BRANCH  58  68
ATOM     68  N   LIG d   1      11.480   8.213   1.287  0.00  0.00     0.231 N 
ATOM     69  H   LIG d   1      10.621   8.503   1.730  0.00  0.00     0.202 HD
ATOM     70  H   LIG d   1      11.828   7.380   1.738  0.00  0.00     0.202 HD
BRANCH  68  71
ATOM     71  C   LIG d   1      12.477   9.286   1.403  0.00  0.00    -0.044 C 
ATOM     72  H   LIG d   1      13.447   8.918   1.067  0.00  0.00     0.078 H 
ATOM     73  H   LIG d   1      12.176  10.130   0.783  0.00  0.00     0.078 H 
ATOM     74  H   LIG d   1      12.549   9.604   2.442  0.00  0.00     0.078 H 
ENDBRANCH  68  71
ENDBRANCH  58  68
BRANCH  59  75
ATOM     75  O   LIG d   1       9.743   9.831  -0.348  0.00  0.00    -0.381 OA
ATOM     76  H   LIG d   1       8.841  10.177  -0.349  0.00  0.00     0.210 HD
ENDBRANCH  59  75
ENDBRANCH  50  51
ENDBRANCH   8  50
BRANCH   6  77
ATOM     77  N   LIG d   1       9.615  11.428  -3.015  0.00  0.00     0.223 N 
ATOM     78  H   LIG d   1       8.743  11.853  -3.291  0.00  0.00     0.200 HD
ATOM     79  H   LIG d   1       9.448  10.778  -2.261  0.00  0.00     0.200 HD
ATOM     80  H   LIG d   1      10.255  12.143  -2.706  0.00  0.00     0.200 HD
ENDBRANCH   6  77
TORSDOF 17
ENDMDL
MODEL 8
REMARK VINA RESULT:      -4.9      5.015      8.498
REMARK  17 active torsions:
REMARK  status: ('A' for Active; 'I' for Inactive)
REMARK    1  A    between atoms: C_1  and  C_2 
REMARK    2  A    between atoms: C_2  and  C_4 
REMARK    3  A    between atoms: C_2  and  N_44 
REMARK    4  A    between atoms: C_8  and  N_43 
REMARK    5  A    between atoms: C_10  and  O_13 
REMARK    6  A    between atoms: O_13  and  C_14 
REMARK    7  A    between atoms: C_16  and  N_42 
REMARK    8  A    between atoms: C_19  and  N_41 
REMARK    9  A    between atoms: C_21  and  O_26 
REMARK   10  A    between atoms: C_23  and  O_25 
REMARK   11  A    between atoms: O_26  and  C_27 
REMARK   12  A    between atoms: C_29  and  O_40 
REMARK   13  A    between atoms: C_31  and  N_38 
REMARK   14  A    between atoms: C_33  and  C_36 
REMARK   15  A    between atoms: C_33  and  O_37 
REMARK   16  A    between atoms: N_38  and  C_39 
REMARK   17  A    between atoms: N_44  and  C_45 
ROOT
ATOM      1  C   LIG d   1       9.749   3.698  -4.969  0.00  0.00     0.106 C 
ATOM      2  H   LIG d   1      10.621   3.064  -4.803  0.00  0.00     0.064 H 
ATOM      3  C   LIG d   1       9.762   4.215  -6.409  0.00  0.00     0.039 C 
ATOM      4  H   LIG d   1       8.891   4.850  -6.575  0.00  0.00     0.049 H 
ATOM      5  C   LIG d   1       9.724   3.031  -7.376  0.00  0.00     0.010 C 
ATOM      6  C   LIG d   1       8.450   2.219  -7.138  0.00  0.00     0.007 C 
ATOM      7  H   LIG d   1       7.578   2.853  -7.304  0.00  0.00     0.088 H 
ATOM      8  C   LIG d   1       8.436   1.702  -5.698  0.00  0.00     0.132 C 
ATOM      9  H   LIG d   1       9.308   1.068  -5.532  0.00  0.00     0.068 H 
ATOM     10  C   LIG d   1       8.475   2.886  -4.731  0.00  0.00     0.114 C 
ATOM     11  H   LIG d   1       7.603   3.519  -4.897  0.00  0.00     0.065 H 
ATOM     12  H   LIG d   1       9.733   3.400  -8.402  0.00  0.00     0.034 H 
ATOM     13  H   LIG d   1      10.596   2.398  -7.210  0.00  0.00     0.034 H 
ENDROOT
BRANCH   1  14
ATOM     14  O   LIG d   1       9.785   4.804  -4.065  0.00  0.00    -0.339 OA
BRANCH  14  15
ATOM     15  C   LIG d   1      11.100   5.163  -3.638  0.00  0.00     0.203 C 
ATOM     16  C   LIG d   1      11.239   4.902  -2.136  0.00  0.00     0.028 C 
ATOM     17  C   LIG d   1      10.247   5.788  -1.378  0.00  0.00    -0.003 C 
ATOM     18  H   LIG d   1      12.255   5.137  -1.817  0.00  0.00     0.090 H 
ATOM     19  C   LIG d   1      10.508   7.253  -1.740  0.00  0.00    -0.016 C 
ATOM     20  H   LIG d   1      10.379   5.649  -0.304  0.00  0.00     0.032 H 
ATOM     21  H   LIG d   1       9.229   5.519  -1.659  0.00  0.00     0.032 H 
ATOM     22  C   LIG d   1      10.397   7.424  -3.256  0.00  0.00     0.104 C 
ATOM     23  H   LIG d   1      11.508   7.537  -1.412  0.00  0.00     0.029 H 
ATOM     24  H   LIG d   1       9.770   7.887  -1.247  0.00  0.00     0.029 H 
ATOM     25  H   LIG d   1       9.384   7.180  -3.577  0.00  0.00     0.065 H 
ATOM     26  O   LIG d   1      11.325   6.550  -3.902  0.00  0.00    -0.338 OA
ATOM     27  H   LIG d   1      11.834   4.566  -4.179  0.00  0.00     0.097 H 
BRANCH  16  28
ATOM     28  N   LIG d   1      10.951   3.489  -1.854  0.00  0.00     0.224 N 
ATOM     29  H   LIG d   1      10.871   2.982  -2.722  0.00  0.00     0.200 HD
ATOM     30  H   LIG d   1      11.700   3.096  -1.303  0.00  0.00     0.200 HD
ATOM     31  H   LIG d   1      10.084   3.419  -1.342  0.00  0.00     0.200 HD
ENDBRANCH  16  28
BRANCH  22  32
ATOM     32  C   LIG d   1      10.716   8.872  -3.632  0.00  0.00     0.001 C 
ATOM     33  H   LIG d   1      11.004   9.424  -2.736  0.00  0.00     0.087 H 
BRANCH  32  34
ATOM     34  C   LIG d   1      11.868   8.896  -4.639  0.00  0.00    -0.019 C 
ATOM     35  H   LIG d   1      11.924   9.880  -5.103  0.00  0.00     0.029 H 
ATOM     36  H   LIG d   1      12.805   8.684  -4.124  0.00  0.00     0.029 H 
ATOM     37  H   LIG d   1      11.696   8.141  -5.406  0.00  0.00     0.029 H 
ENDBRANCH  32  34
BRANCH  32  38
ATOM     38  N   LIG d   1       9.529   9.497  -4.231  0.00  0.00     0.229 N 
ATOM     39  H   LIG d   1       8.697   9.114  -3.806  0.00  0.00     0.201 HD
ATOM     40  H   LIG d   1       9.558  10.494  -4.073  0.00  0.00     0.201 HD
BRANCH  38  41
ATOM     41  C   LIG d   1       9.510   9.230  -5.674  0.00  0.00    -0.044 C 
ATOM     42  H   LIG d   1       9.226   8.192  -5.847  0.00  0.00     0.078 H 
ATOM     43  H   LIG d   1       8.789   9.890  -6.157  0.00  0.00     0.078 H 
ATOM     44  H   LIG d   1      10.502   9.409  -6.089  0.00  0.00     0.078 H 
ENDBRANCH  38  41
ENDBRANCH  32  38
ENDBRANCH  22  32
ENDBRANCH  14  15
ENDBRANCH   1  14
BRANCH  10  45
ATOM     45  O   LIG d   1       8.462   2.403  -3.386  0.00  0.00    -0.386 OA
ATOM     46  H   LIG d   1       7.604   2.065  -3.096  0.00  0.00     0.210 HD
ENDBRANCH  10  45
BRANCH   3  47
ATOM     47  N   LIG d   1      10.986   4.996  -6.638  0.00  0.00    -0.325 N 
ATOM     48  H   LIG d   1      11.177   5.087  -7.624  0.00  0.00     0.119 HD
ATOM     49  H   LIG d   1      10.926   5.900  -6.195  0.00  0.00     0.119 HD
ENDBRANCH   3  47
BRANCH   8  50
ATOM     50  O   LIG d   1       7.246   0.942  -5.476  0.00  0.00    -0.337 OA
BRANCH  50  51
ATOM     51  C   LIG d   1       7.478  -0.349  -4.911  0.00  0.00     0.191 C 
ATOM     52  H   LIG d   1       8.538  -0.590  -4.977  0.00  0.00     0.094 H 
ATOM     53  O   LIG d   1       7.073  -0.349  -3.540  0.00  0.00    -0.345 OA
ATOM     54  C   LIG d   1       5.698  -0.017  -3.337  0.00  0.00     0.085 C 
ATOM     55  C   LIG d   1       4.816  -1.051  -4.043  0.00  0.00     0.131 C 
ATOM     56  H   LIG d   1       5.499   0.972  -3.748  0.00  0.00     0.059 H 
ATOM     57  H   LIG d   1       5.478  -0.020  -2.270  0.00  0.00     0.059 H 
ATOM     58  C   LIG d   1       5.175  -1.084  -5.532  0.00  0.00     0.040 C 
ATOM     59  C   LIG d   1       6.667  -1.396  -5.680  0.00  0.00     0.151 C 
ATOM     60  H   LIG d   1       4.958  -0.114  -5.982  0.00  0.00     0.091 H 
ATOM     61  H   LIG d   1       6.874  -2.386  -5.276  0.00  0.00     0.070 H 
BRANCH  55  62
ATOM     62  C   LIG d   1       3.345  -0.665  -3.880  0.00  0.00    -0.029 C 
ATOM     63  H   LIG d   1       2.922  -1.195  -3.027  0.00  0.00     0.026 H 
ATOM     64  H   LIG d   1       3.269   0.410  -3.714  0.00  0.00     0.026 H 
ATOM     65  H   LIG d   1       2.796  -0.932  -4.783  0.00  0.00     0.026 H 
ENDBRANCH  55  62
BRANCH  55  66
ATOM     66  O   LIG d   1       5.039  -2.341  -3.471  0.00  0.00    -0.381 OA
ATOM     67  H   LIG d   1       4.897  -2.376  -2.514  0.00  0.00     0.210 HD
ENDBRANCH  55  66
BRANCH  58  68
ATOM     68  N   LIG d   1       4.386  -2.125  -6.206  0.00  0.00     0.231 N 
ATOM     69  H   LIG d   1       4.975  -2.921  -6.398  0.00  0.00     0.202 HD
ATOM     70  H   LIG d   1       3.621  -2.406  -5.611  0.00  0.00     0.202 HD
BRANCH  68  71
ATOM     71  C   LIG d   1       3.854  -1.595  -7.469  0.00  0.00    -0.044 C 
ATOM     72  H   LIG d   1       2.839  -1.963  -7.619  0.00  0.00     0.078 H 
ATOM     73  H   LIG d   1       3.842  -0.505  -7.430  0.00  0.00     0.078 H 
ATOM     74  H   LIG d   1       4.485  -1.922  -8.295  0.00  0.00     0.078 H 
ENDBRANCH  68  71
ENDBRANCH  58  68
BRANCH  59  75
ATOM     75  O   LIG d   1       7.029  -1.358  -7.062  0.00  0.00    -0.381 OA
ATOM     76  H   LIG d   1       6.440  -0.819  -7.608  0.00  0.00     0.210 HD
ENDBRANCH  59  75
ENDBRANCH  50  51
ENDBRANCH   8  50
BRANCH   6  77
ATOM     77  N   LIG d   1       8.413   1.082  -8.068  0.00  0.00     0.223 N 
ATOM     78  H   LIG d   1       8.730   1.381  -8.977  0.00  0.00     0.200 HD
ATOM     79  H   LIG d   1       9.016   0.348  -7.726  0.00  0.00     0.200 HD
ATOM     80  H   LIG d   1       7.468   0.735  -8.138  0.00  0.00     0.200 HD
ENDBRANCH   6  77
TORSDOF 17
ENDMDL
MODEL 9
REMARK VINA RESULT:      -4.9      5.295      8.410
REMARK  17 active torsions:
REMARK  status: ('A' for Active; 'I' for Inactive)
REMARK    1  A    between atoms: C_1  and  C_2 
REMARK    2  A    between atoms: C_2  and  C_4 
REMARK    3  A    between atoms: C_2  and  N_44 
REMARK    4  A    between atoms: C_8  and  N_43 
REMARK    5  A    between atoms: C_10  and  O_13 
REMARK    6  A    between atoms: O_13  and  C_14 
REMARK    7  A    between atoms: C_16  and  N_42 
REMARK    8  A    between atoms: C_19  and  N_41 
REMARK    9  A    between atoms: C_21  and  O_26 
REMARK   10  A    between atoms: C_23  and  O_25 
REMARK   11  A    between atoms: O_26  and  C_27 
REMARK   12  A    between atoms: C_29  and  O_40 
REMARK   13  A    between atoms: C_31  and  N_38 
REMARK   14  A    between atoms: C_33  and  C_36 
REMARK   15  A    between atoms: C_33  and  O_37 
REMARK   16  A    between atoms: N_38  and  C_39 
REMARK   17  A    between atoms: N_44  and  C_45 
ROOT
ATOM      1  C   LIG d   1       9.480   2.327  -7.470  0.00  0.00     0.106 C 
ATOM      2  H   LIG d   1      10.066   1.425  -7.644  0.00  0.00     0.064 H 
ATOM      3  C   LIG d   1       8.797   2.751  -8.771  0.00  0.00     0.039 C 
ATOM      4  H   LIG d   1       8.211   3.654  -8.598  0.00  0.00     0.049 H 
ATOM      5  C   LIG d   1       7.875   1.629  -9.252  0.00  0.00     0.010 C 
ATOM      6  C   LIG d   1       6.813   1.350  -8.187  0.00  0.00     0.007 C 
ATOM      7  H   LIG d   1       6.227   2.253  -8.012  0.00  0.00     0.088 H 
ATOM      8  C   LIG d   1       7.496   0.926  -6.885  0.00  0.00     0.132 C 
ATOM      9  H   LIG d   1       8.082   0.024  -7.060  0.00  0.00     0.068 H 
ATOM     10  C   LIG d   1       8.418   2.048  -6.404  0.00  0.00     0.114 C 
ATOM     11  H   LIG d   1       7.832   2.950  -6.229  0.00  0.00     0.065 H 
ATOM     12  H   LIG d   1       7.388   1.932 -10.180  0.00  0.00     0.034 H 
ATOM     13  H   LIG d   1       8.461   0.727  -9.427  0.00  0.00     0.034 H 
ENDROOT
BRANCH   1  14
ATOM     14  O   LIG d   1      10.342   3.375  -7.021  0.00  0.00    -0.339 OA
BRANCH  14  15
ATOM     15  C   LIG d   1       9.669   4.420  -6.317  0.00  0.00     0.203 C 
ATOM     16  C   LIG d   1      10.232   5.775  -6.753  0.00  0.00     0.028 C 
ATOM     17  C   LIG d   1      11.716   5.846  -6.381  0.00  0.00    -0.003 C 
ATOM     18  H   LIG d   1       9.691   6.574  -6.246  0.00  0.00     0.090 H 
ATOM     19  C   LIG d   1      11.866   5.611  -4.875  0.00  0.00    -0.016 C 
ATOM     20  H   LIG d   1      12.110   6.829  -6.638  0.00  0.00     0.032 H 
ATOM     21  H   LIG d   1      12.265   5.078  -6.926  0.00  0.00     0.032 H 
ATOM     22  C   LIG d   1      11.240   4.263  -4.511  0.00  0.00     0.104 C 
ATOM     23  H   LIG d   1      11.359   6.408  -4.330  0.00  0.00     0.029 H 
ATOM     24  H   LIG d   1      12.924   5.605  -4.611  0.00  0.00     0.029 H 
ATOM     25  H   LIG d   1      11.774   3.463  -5.025  0.00  0.00     0.065 H 
ATOM     26  O   LIG d   1       9.868   4.252  -4.911  0.00  0.00    -0.338 OA
ATOM     27  H   LIG d   1       8.603   4.381  -6.540  0.00  0.00     0.097 H 
BRANCH  16  28
ATOM     28  N   LIG d   1      10.082   5.925  -8.206  0.00  0.00     0.224 N 
ATOM     29  H   LIG d   1       9.108   6.061  -8.432  0.00  0.00     0.200 HD
ATOM     30  H   LIG d   1      10.614   6.723  -8.520  0.00  0.00     0.200 HD
ATOM     31  H   LIG d   1      10.421   5.093  -8.667  0.00  0.00     0.200 HD
ENDBRANCH  16  28
BRANCH  22  32
ATOM     32  C   LIG d   1      11.331   4.049  -2.999  0.00  0.00     0.001 C 
ATOM     33  H   LIG d   1      12.330   4.320  -2.654  0.00  0.00     0.087 H 
BRANCH  32  34
ATOM     34  C   LIG d   1      10.293   4.926  -2.296  0.00  0.00    -0.019 C 
ATOM     35  H   LIG d   1      10.364   4.781  -1.219  0.00  0.00     0.029 H 
ATOM     36  H   LIG d   1      10.481   5.973  -2.535  0.00  0.00     0.029 H 
ATOM     37  H   LIG d   1       9.295   4.650  -2.636  0.00  0.00     0.029 H 
ENDBRANCH  32  34
BRANCH  32  38
ATOM     38  N   LIG d   1      11.072   2.637  -2.687  0.00  0.00     0.229 N 
ATOM     39  H   LIG d   1      11.197   2.483  -1.698  0.00  0.00     0.201 HD
ATOM     40  H   LIG d   1      10.125   2.404  -2.946  0.00  0.00     0.201 HD
BRANCH  38  41
ATOM     41  C   LIG d   1      12.008   1.790  -3.437  0.00  0.00    -0.044 C 
ATOM     42  H   LIG d   1      11.607   0.778  -3.506  0.00  0.00     0.078 H 
ATOM     43  H   LIG d   1      12.143   2.196  -4.439  0.00  0.00     0.078 H 
ATOM     44  H   LIG d   1      12.968   1.766  -2.922  0.00  0.00     0.078 H 
ENDBRANCH  38  41
ENDBRANCH  32  38
ENDBRANCH  22  32
ENDBRANCH  14  15
ENDBRANCH   1  14
BRANCH  10  45
ATOM     45  O   LIG d   1       9.056   1.652  -5.189  0.00  0.00    -0.386 OA
ATOM     46  H   LIG d   1       9.994   1.436  -5.288  0.00  0.00     0.210 HD
ENDBRANCH  10  45
BRANCH   3  47
ATOM     47  N   LIG d   1       9.817   3.020  -9.795  0.00  0.00    -0.325 N 
ATOM     48  H   LIG d   1       9.622   3.882 -10.281  0.00  0.00     0.119 HD
ATOM     49  H   LIG d   1      10.740   3.033  -9.390  0.00  0.00     0.119 HD
ENDBRANCH   3  47
BRANCH   8  50
ATOM     50  O   LIG d   1       6.504   0.665  -5.890  0.00  0.00    -0.337 OA
BRANCH  50  51
ATOM     51  C   LIG d   1       6.575  -0.647  -5.330  0.00  0.00     0.191 C 
ATOM     52  H   LIG d   1       7.166  -1.290  -5.981  0.00  0.00     0.094 H 
ATOM     53  O   LIG d   1       7.188  -0.582  -4.040  0.00  0.00    -0.345 OA
ATOM     54  C   LIG d   1       6.504   0.260  -3.110  0.00  0.00     0.085 C 
ATOM     55  C   LIG d   1       5.088  -0.278  -2.884  0.00  0.00     0.131 C 
ATOM     56  H   LIG d   1       6.449   1.272  -3.509  0.00  0.00     0.059 H 
ATOM     57  H   LIG d   1       7.044   0.270  -2.164  0.00  0.00     0.059 H 
ATOM     58  C   LIG d   1       4.356  -0.346  -4.227  0.00  0.00     0.040 C 
ATOM     59  C   LIG d   1       5.162  -1.221  -5.192  0.00  0.00     0.151 C 
ATOM     60  H   LIG d   1       4.257   0.658  -4.642  0.00  0.00     0.091 H 
ATOM     61  H   LIG d   1       5.217  -2.237  -4.803  0.00  0.00     0.070 H 
BRANCH  55  62
ATOM     62  C   LIG d   1       4.332   0.656  -1.937  0.00  0.00    -0.029 C 
ATOM     63  H   LIG d   1       4.977   0.926  -1.101  0.00  0.00     0.026 H 
ATOM     64  H   LIG d   1       4.037   1.558  -2.475  0.00  0.00     0.026 H 
ATOM     65  H   LIG d   1       3.442   0.151  -1.561  0.00  0.00     0.026 H 
ENDBRANCH  55  62
BRANCH  55  66
ATOM     66  O   LIG d   1       5.158  -1.585  -2.312  0.00  0.00    -0.381 OA
ATOM     67  H   LIG d   1       5.466  -2.266  -2.926  0.00  0.00     0.210 HD
ENDBRANCH  55  66
BRANCH  58  68
ATOM     68  N   LIG d   1       3.021  -0.930  -4.033  0.00  0.00     0.231 N 
ATOM     69  H   LIG d   1       2.966  -1.811  -4.522  0.00  0.00     0.202 HD
ATOM     70  H   LIG d   1       2.860  -1.079  -3.048  0.00  0.00     0.202 HD
BRANCH  68  71
ATOM     71  C   LIG d   1       2.004  -0.012  -4.562  0.00  0.00    -0.044 C 
ATOM     72  H   LIG d   1       2.374   0.455  -5.475  0.00  0.00     0.078 H 
ATOM     73  H   LIG d   1       1.093  -0.568  -4.784  0.00  0.00     0.078 H 
ATOM     74  H   LIG d   1       1.789   0.758  -3.822  0.00  0.00     0.078 H 
ENDBRANCH  68  71
ENDBRANCH  58  68
BRANCH  59  75
ATOM     75  O   LIG d   1       4.526  -1.234  -6.472  0.00  0.00    -0.381 OA
ATOM     76  H   LIG d   1       4.780  -0.497  -7.044  0.00  0.00     0.210 HD
ENDBRANCH  59  75
ENDBRANCH  50  51
ENDBRANCH   8  50
BRANCH   6  77
ATOM     77  N   LIG d   1       5.927   0.273  -8.649  0.00  0.00     0.223 N 
ATOM     78  H   LIG d   1       5.805   0.344  -9.648  0.00  0.00     0.200 HD
ATOM     79  H   LIG d   1       6.338  -0.621  -8.423  0.00  0.00     0.200 HD
ATOM     80  H   LIG d   1       5.031   0.356  -8.194  0.00  0.00     0.200 HD
ENDBRANCH   6  77
TORSDOF 17
ENDMDL
MODEL 10
REMARK VINA RESULT:      -4.9      3.617      8.809
REMARK  17 active torsions:
REMARK  status: ('A' for Active; 'I' for Inactive)
REMARK    1  A    between atoms: C_1  and  C_2 
REMARK    2  A    between atoms: C_2  and  C_4 
REMARK    3  A    between atoms: C_2  and  N_44 
REMARK    4  A    between atoms: C_8  and  N_43 
REMARK    5  A    between atoms: C_10  and  O_13 
REMARK    6  A    between atoms: O_13  and  C_14 
REMARK    7  A    between atoms: C_16  and  N_42 
REMARK    8  A    between atoms: C_19  and  N_41 
REMARK    9  A    between atoms: C_21  and  O_26 
REMARK   10  A    between atoms: C_23  and  O_25 
REMARK   11  A    between atoms: O_26  and  C_27 
REMARK   12  A    between atoms: C_29  and  O_40 
REMARK   13  A    between atoms: C_31  and  N_38 
REMARK   14  A    between atoms: C_33  and  C_36 
REMARK   15  A    between atoms: C_33  and  O_37 
REMARK   16  A    between atoms: N_38  and  C_39 
REMARK   17  A    between atoms: N_44  and  C_45 
ROOT
ATOM      1  C   LIG d   1       9.636   6.724  -2.921  0.00  0.00     0.106 C 
ATOM      2  H   LIG d   1       8.552   6.770  -3.021  0.00  0.00     0.064 H 
ATOM      3  C   LIG d   1      10.166   5.504  -3.677  0.00  0.00     0.039 C 
ATOM      4  H   LIG d   1      11.250   5.456  -3.577  0.00  0.00     0.049 H 
ATOM      5  C   LIG d   1       9.794   5.620  -5.156  0.00  0.00     0.010 C 
ATOM      6  C   LIG d   1      10.416   6.890  -5.740  0.00  0.00     0.007 C 
ATOM      7  H   LIG d   1      11.500   6.844  -5.640  0.00  0.00     0.088 H 
ATOM      8  C   LIG d   1       9.887   8.110  -4.983  0.00  0.00     0.132 C 
ATOM      9  H   LIG d   1       8.802   8.157  -5.083  0.00  0.00     0.068 H 
ATOM     10  C   LIG d   1      10.258   7.994  -3.504  0.00  0.00     0.114 C 
ATOM     11  H   LIG d   1      11.342   7.948  -3.404  0.00  0.00     0.065 H 
ATOM     12  H   LIG d   1      10.172   4.751  -5.696  0.00  0.00     0.034 H 
ATOM     13  H   LIG d   1       8.710   5.666  -5.256  0.00  0.00     0.034 H 
ENDROOT
BRANCH   1  14
ATOM     14  O   LIG d   1       9.983   6.615  -1.539  0.00  0.00    -0.339 OA
BRANCH  14  15
ATOM     15  C   LIG d   1      11.373   6.802  -1.271  0.00  0.00     0.203 C 
ATOM     16  C   LIG d   1      11.812   5.850  -0.155  0.00  0.00     0.028 C 
ATOM     17  C   LIG d   1      11.043   6.190   1.125  0.00  0.00    -0.003 C 
ATOM     18  H   LIG d   1      12.882   5.964   0.021  0.00  0.00     0.090 H 
ATOM     19  C   LIG d   1      11.291   7.659   1.482  0.00  0.00    -0.016 C 
ATOM     20  H   LIG d   1      11.391   5.553   1.939  0.00  0.00     0.032 H 
ATOM     21  H   LIG d   1       9.977   6.028   0.965  0.00  0.00     0.032 H 
ATOM     22  C   LIG d   1      10.872   8.540   0.303  0.00  0.00     0.104 C 
ATOM     23  H   LIG d   1      12.350   7.809   1.693  0.00  0.00     0.029 H 
ATOM     24  H   LIG d   1      10.703   7.924   2.362  0.00  0.00     0.029 H 
ATOM     25  H   LIG d   1       9.804   8.420   0.120  0.00  0.00     0.065 H 
ATOM     26  O   LIG d   1      11.602   8.152  -0.863  0.00  0.00    -0.338 OA
ATOM     27  H   LIG d   1      11.948   6.593  -2.173  0.00  0.00     0.097 H 
BRANCH  16  28
ATOM     28  N   LIG d   1      11.524   4.465  -0.548  0.00  0.00     0.224 N 
ATOM     29  H   LIG d   1      11.874   3.835   0.157  0.00  0.00     0.200 HD
ATOM     30  H   LIG d   1      10.527   4.342  -0.644  0.00  0.00     0.200 HD
ATOM     31  H   LIG d   1      11.973   4.266  -1.430  0.00  0.00     0.200 HD
ENDBRANCH  16  28
BRANCH  22  32
ATOM     32  C   LIG d   1      11.173  10.005   0.629  0.00  0.00     0.001 C 
ATOM     33  H   LIG d   1      11.014  10.180   1.693  0.00  0.00     0.087 H 
BRANCH  32  34
ATOM     34  C   LIG d   1      12.627  10.319   0.271  0.00  0.00    -0.019 C 
ATOM     35  H   LIG d   1      12.653  11.065  -0.522  0.00  0.00     0.029 H 
ATOM     36  H   LIG d   1      13.142  10.704   1.151  0.00  0.00     0.029 H 
ATOM     37  H   LIG d   1      13.122   9.409  -0.070  0.00  0.00     0.029 H 
ENDBRANCH  32  34
BRANCH  32  38
ATOM     38  N   LIG d   1      10.279  10.873  -0.148  0.00  0.00     0.229 N 
ATOM     39  H   LIG d   1       9.727  10.310  -0.779  0.00  0.00     0.201 HD
ATOM     40  H   LIG d   1       9.667  11.373   0.480  0.00  0.00     0.201 HD
BRANCH  38  41
ATOM     41  C   LIG d   1      11.078  11.833  -0.921  0.00  0.00    -0.044 C 
ATOM     42  H   LIG d   1      12.029  12.002  -0.416  0.00  0.00     0.078 H 
ATOM     43  H   LIG d   1      11.262  11.434  -1.918  0.00  0.00     0.078 H 
ATOM     44  H   LIG d   1      10.536  12.775  -1.001  0.00  0.00     0.078 H 
ENDBRANCH  38  41
ENDBRANCH  32  38
ENDBRANCH  22  32
ENDBRANCH  14  15
ENDBRANCH   1  14
BRANCH  10  45
ATOM     45  O   LIG d   1       9.763   9.133  -2.798  0.00  0.00    -0.386 OA
ATOM     46  H   LIG d   1      10.452   9.749  -2.512  0.00  0.00     0.210 HD
ENDBRANCH  10  45
BRANCH   3  47
ATOM     47  N   LIG d   1       9.569   4.283  -3.117  0.00  0.00    -0.325 N 
ATOM     48  H   LIG d   1      10.223   3.515  -3.147  0.00  0.00     0.119 HD
ATOM     49  H   LIG d   1       9.238   4.441  -2.177  0.00  0.00     0.119 HD
ENDBRANCH   3  47
BRANCH   8  50
ATOM     50  O   LIG d   1      10.466   9.298  -5.529  0.00  0.00    -0.337 OA
BRANCH  50  51
ATOM     51  C   LIG d   1       9.542  10.374  -5.692  0.00  0.00     0.191 C 
ATOM     52  H   LIG d   1       8.530  10.015  -5.508  0.00  0.00     0.094 H 
ATOM     53  O   LIG d   1       9.854  11.415  -4.763  0.00  0.00    -0.345 OA
ATOM     54  C   LIG d   1      11.176  11.942  -4.900  0.00  0.00     0.085 C 
ATOM     55  C   LIG d   1      11.338  12.551  -6.296  0.00  0.00     0.131 C 
ATOM     56  H   LIG d   1      11.902  11.141  -4.766  0.00  0.00     0.059 H 
ATOM     57  H   LIG d   1      11.339  12.713  -4.147  0.00  0.00     0.059 H 
ATOM     58  C   LIG d   1      11.047  11.477  -7.349  0.00  0.00     0.040 C 
ATOM     59  C   LIG d   1       9.639  10.919  -7.119  0.00  0.00     0.151 C 
ATOM     60  H   LIG d   1      11.777  10.671  -7.261  0.00  0.00     0.091 H 
ATOM     61  H   LIG d   1       8.906  11.714  -7.257  0.00  0.00     0.070 H 
BRANCH  55  62
ATOM     62  C   LIG d   1      12.770  13.060  -6.468  0.00  0.00    -0.029 C 
ATOM     63  H   LIG d   1      12.872  14.030  -5.981  0.00  0.00     0.026 H 
ATOM     64  H   LIG d   1      13.464  12.351  -6.015  0.00  0.00     0.026 H 
ATOM     65  H   LIG d   1      12.996  13.161  -7.530  0.00  0.00     0.026 H 
ENDBRANCH  55  62
BRANCH  55  66
ATOM     66  O   LIG d   1      10.422  13.635  -6.455  0.00  0.00    -0.381 OA
ATOM     67  H   LIG d   1       9.494  13.364  -6.484  0.00  0.00     0.210 HD
ENDBRANCH  55  66
BRANCH  58  68
ATOM     68  N   LIG d   1      11.129  12.068  -8.692  0.00  0.00     0.231 N 
ATOM     69  H   LIG d   1      10.220  12.035  -9.129  0.00  0.00     0.202 HD
ATOM     70  H   LIG d   1      11.434  13.027  -8.619  0.00  0.00     0.202 HD
BRANCH  68  71
ATOM     71  C   LIG d   1      12.089  11.309  -9.504  0.00  0.00    -0.044 C 
ATOM     72  H   LIG d   1      13.092  11.705  -9.345  0.00  0.00     0.078 H 
ATOM     73  H   LIG d   1      12.064  10.260  -9.210  0.00  0.00     0.078 H 
ATOM     74  H   LIG d   1      11.825  11.398 -10.557  0.00  0.00     0.078 H 
ENDBRANCH  68  71
ENDBRANCH  58  68
BRANCH  59  75
ATOM     75  O   LIG d   1       9.383   9.866  -8.050  0.00  0.00    -0.381 OA
ATOM     76  H   LIG d   1       8.452   9.772  -8.291  0.00  0.00     0.210 HD
ENDBRANCH  59  75
ENDBRANCH  50  51
ENDBRANCH   8  50
BRANCH   6  77
ATOM     77  N   LIG d   1      10.059   7.002  -7.161  0.00  0.00     0.223 N 
ATOM     78  H   LIG d   1       9.107   6.696  -7.293  0.00  0.00     0.200 HD
ATOM     79  H   LIG d   1      10.148   7.963  -7.455  0.00  0.00     0.200 HD
ATOM     80  H   LIG d   1      10.678   6.424  -7.709  0.00  0.00     0.200 HD
ENDBRANCH   6  77
TORSDOF 17
ENDMDL
