MODEL 1
REMARK VINA RESULT:      -6.8      0.000      0.000
REMARK  4 active torsions:
REMARK  status: ('A' for Active; 'I' for Inactive)
REMARK    1  A    between atoms: C_1  and  C_2 
REMARK    2  A    between atoms: C_2  and  C_30 
REMARK    3  A    between atoms: N_20  and  C_23 
REMARK    4  A    between atoms: C_23  and  C_24 
ROOT
ATOM      1  C   LIG d   1       4.707  -3.110  -7.561  0.00  0.00     0.073 C 
ATOM      2  C   LIG d   1       4.488  -2.397  -6.247  0.00  0.00     0.044 A 
ATOM      3  C   LIG d   1       4.735  -2.958  -5.042  0.00  0.00    -0.015 A 
ATOM      4  C   LIG d   1       4.412  -1.967  -4.038  0.00  0.00     0.003 A 
ATOM      5  C   LIG d   1       4.470  -1.979  -2.640  0.00  0.00    -0.052 A 
ATOM      6  C   LIG d   1       4.080  -0.833  -1.994  0.00  0.00    -0.061 A 
ATOM      7  C   LIG d   1       3.637   0.286  -2.680  0.00  0.00    -0.060 A 
ATOM      8  C   LIG d   1       3.571   0.326  -4.062  0.00  0.00    -0.038 A 
ATOM      9  C   LIG d   1       3.967  -0.821  -4.747  0.00  0.00     0.047 A 
ATOM     10  N   LIG d   1       4.027  -1.118  -6.078  0.00  0.00    -0.356 N 
ATOM     11  H   LIG d   1       3.781  -0.515  -6.796  0.00  0.00     0.166 HD
ATOM     12  C   LIG d   1       5.246  -4.362  -4.840  0.00  0.00     0.002 C 
ATOM     13  C   LIG d   1       5.838  -4.872  -6.161  0.00  0.00     0.107 A 
ATOM     14  H   LIG d   1       6.793  -4.374  -6.334  0.00  0.00     0.060 H 
ATOM     15  N   LIG d   1       4.928  -4.540  -7.256  0.00  0.00    -0.278 N 
ATOM     16  C   LIG d   1       4.293  -5.463  -7.982  0.00  0.00     0.234 A 
ATOM     17  O   LIG d   1       3.507  -5.078  -8.822  0.00  0.00    -0.274 OA
ATOM     18  C   LIG d   1       4.486  -6.937  -7.830  0.00  0.00     0.091 A 
ATOM     19  N   LIG d   1       5.475  -7.256  -6.814  0.00  0.00    -0.289 N 
ATOM     20  C   LIG d   1       6.089  -6.342  -6.065  0.00  0.00     0.237 A 
ATOM     21  O   LIG d   1       6.902  -6.728  -5.251  0.00  0.00    -0.274 OA
ATOM     22  H   LIG d   1       4.809  -2.848  -2.097  0.00  0.00     0.062 H 
ATOM     23  H   LIG d   1       4.115  -0.804  -0.915  0.00  0.00     0.062 H 
ATOM     24  H   LIG d   1       3.337   1.158  -2.118  0.00  0.00     0.062 H 
ATOM     25  H   LIG d   1       3.229   1.206  -4.586  0.00  0.00     0.064 H 
ATOM     26  H   LIG d   1       6.016  -4.362  -4.069  0.00  0.00     0.034 H 
ATOM     27  H   LIG d   1       4.422  -5.009  -4.535  0.00  0.00     0.034 H 
ATOM     28  H   LIG d   1       4.810  -7.351  -8.784  0.00  0.00     0.056 H 
ATOM     29  H   LIG d   1       3.535  -7.391  -7.553  0.00  0.00     0.056 H 
ENDROOT
BRANCH  19  30
ATOM     30  C   LIG d   1       5.818  -8.664  -6.604  0.00  0.00     0.042 C 
ATOM     31  H   LIG d   1       6.117  -9.111  -7.552  0.00  0.00     0.049 H 
ATOM     32  H   LIG d   1       6.642  -8.736  -5.894  0.00  0.00     0.049 H 
BRANCH  30  33
ATOM     33  C   LIG d   1       4.602  -9.408  -6.051  0.00  0.00     0.074 C 
ATOM     34  H   LIG d   1       3.737  -9.253  -6.697  0.00  0.00     0.061 H 
ATOM     35  O   LIG d   1       4.312  -8.967  -4.714  0.00  0.00    -0.375 OA
ATOM     36  C   LIG d   1       3.861 -10.070  -3.921  0.00  0.00     0.048 C 
ATOM     37  C   LIG d   1       3.903 -11.332  -4.809  0.00  0.00    -0.027 C 
ATOM     38  H   LIG d   1       4.518 -10.201  -3.062  0.00  0.00     0.056 H 
ATOM     39  H   LIG d   1       2.840  -9.890  -3.582  0.00  0.00     0.056 H 
ATOM     40  C   LIG d   1       4.910 -10.921  -5.918  0.00  0.00    -0.023 C 
ATOM     41  H   LIG d   1       4.271 -12.190  -4.249  0.00  0.00     0.029 H 
ATOM     42  H   LIG d   1       2.920 -11.541  -5.233  0.00  0.00     0.029 H 
ATOM     43  H   LIG d   1       4.705 -11.447  -6.850  0.00  0.00     0.029 H 
ATOM     44  H   LIG d   1       5.938 -11.085  -5.595  0.00  0.00     0.029 H 
ENDBRANCH  30  33
ENDBRANCH  19  30
BRANCH   1  45
ATOM     45  C   LIG d   1       3.471  -2.953  -8.450  0.00  0.00    -0.038 C 
ATOM     46  H   LIG d   1       3.641  -3.460  -9.399  0.00  0.00     0.025 H 
ATOM     47  H   LIG d   1       2.608  -3.393  -7.953  0.00  0.00     0.025 H 
ATOM     48  H   LIG d   1       3.286  -1.895  -8.632  0.00  0.00     0.025 H 
ENDBRANCH   1  45
BRANCH   1  49
ATOM     49  C   LIG d   1       5.935  -2.533  -8.268  0.00  0.00    -0.038 C 
ATOM     50  H   LIG d   1       6.684  -3.315  -8.391  0.00  0.00     0.025 H 
ATOM     51  H   LIG d   1       5.643  -2.152  -9.248  0.00  0.00     0.025 H 
ATOM     52  H   LIG d   1       6.350  -1.721  -7.671  0.00  0.00     0.025 H 
ENDBRANCH   1  49
TORSDOF 4
ENDMDL
MODEL 2
REMARK VINA RESULT:      -6.8      6.899     10.208
REMARK  4 active torsions:
REMARK  status: ('A' for Active; 'I' for Inactive)
REMARK    1  A    between atoms: C_1  and  C_2 
REMARK    2  A    between atoms: C_2  and  C_30 
REMARK    3  A    between atoms: N_20  and  C_23 
REMARK    4  A    between atoms: C_23  and  C_24 
ROOT
ATOM      1  C   LIG d   1       8.979  -0.465  -5.464  0.00  0.00     0.073 C 
ATOM      2  C   LIG d   1       7.729  -0.605  -4.626  0.00  0.00     0.044 A 
ATOM      3  C   LIG d   1       7.232   0.387  -3.855  0.00  0.00    -0.015 A 
ATOM      4  C   LIG d   1       6.036  -0.127  -3.221  0.00  0.00     0.003 A 
ATOM      5  C   LIG d   1       5.116   0.439  -2.332  0.00  0.00    -0.052 A 
ATOM      6  C   LIG d   1       4.074  -0.358  -1.929  0.00  0.00    -0.061 A 
ATOM      7  C   LIG d   1       3.934  -1.666  -2.364  0.00  0.00    -0.060 A 
ATOM      8  C   LIG d   1       4.829  -2.250  -3.244  0.00  0.00    -0.038 A 
ATOM      9  C   LIG d   1       5.895  -1.463  -3.677  0.00  0.00     0.047 A 
ATOM     10  N   LIG d   1       6.935  -1.716  -4.523  0.00  0.00    -0.356 N 
ATOM     11  H   LIG d   1       7.089  -2.556  -4.983  0.00  0.00     0.166 HD
ATOM     12  C   LIG d   1       7.851   1.754  -3.713  0.00  0.00     0.002 C 
ATOM     13  C   LIG d   1       8.833   1.979  -4.872  0.00  0.00     0.107 A 
ATOM     14  H   LIG d   1       8.264   2.151  -5.787  0.00  0.00     0.060 H 
ATOM     15  N   LIG d   1       9.655   0.782  -5.045  0.00  0.00    -0.278 N 
ATOM     16  C   LIG d   1      10.974   0.766  -4.839  0.00  0.00     0.234 A 
ATOM     17  O   LIG d   1      11.549  -0.296  -4.945  0.00  0.00    -0.274 OA
ATOM     18  C   LIG d   1      11.788   1.969  -4.490  0.00  0.00     0.091 A 
ATOM     19  N   LIG d   1      10.981   3.176  -4.428  0.00  0.00    -0.289 N 
ATOM     20  C   LIG d   1       9.660   3.193  -4.600  0.00  0.00     0.237 A 
ATOM     21  O   LIG d   1       9.093   4.263  -4.532  0.00  0.00    -0.274 OA
ATOM     22  H   LIG d   1       5.220   1.455  -1.984  0.00  0.00     0.062 H 
ATOM     23  H   LIG d   1       3.341   0.046  -1.246  0.00  0.00     0.062 H 
ATOM     24  H   LIG d   1       3.097  -2.248  -2.008  0.00  0.00     0.062 H 
ATOM     25  H   LIG d   1       4.707  -3.269  -3.580  0.00  0.00     0.064 H 
ATOM     26  H   LIG d   1       7.070   2.513  -3.743  0.00  0.00     0.034 H 
ATOM     27  H   LIG d   1       8.386   1.816  -2.765  0.00  0.00     0.034 H 
ATOM     28  H   LIG d   1      12.566   2.100  -5.242  0.00  0.00     0.056 H 
ATOM     29  H   LIG d   1      12.259   1.808  -3.521  0.00  0.00     0.056 H 
ENDROOT
BRANCH  19  30
ATOM     30  C   LIG d   1      11.659   4.447  -4.162  0.00  0.00     0.042 C 
ATOM     31  H   LIG d   1      12.449   4.598  -4.898  0.00  0.00     0.049 H 
ATOM     32  H   LIG d   1      10.940   5.263  -4.230  0.00  0.00     0.049 H 
BRANCH  30  33
ATOM     33  C   LIG d   1      12.267   4.416  -2.760  0.00  0.00     0.074 C 
ATOM     34  H   LIG d   1      12.863   3.513  -2.625  0.00  0.00     0.061 H 
ATOM     35  O   LIG d   1      11.232   4.484  -1.766  0.00  0.00    -0.375 OA
ATOM     36  C   LIG d   1      11.674   5.267  -0.651  0.00  0.00     0.048 C 
ATOM     37  C   LIG d   1      13.094   5.778  -0.973  0.00  0.00    -0.027 C 
ATOM     38  H   LIG d   1      11.001   6.111  -0.503  0.00  0.00     0.056 H 
ATOM     39  H   LIG d   1      11.698   4.651   0.248  0.00  0.00     0.056 H 
ATOM     40  C   LIG d   1      13.137   5.677  -2.522  0.00  0.00    -0.023 C 
ATOM     41  H   LIG d   1      13.218   6.811  -0.648  0.00  0.00     0.029 H 
ATOM     42  H   LIG d   1      13.850   5.137  -0.519  0.00  0.00     0.029 H 
ATOM     43  H   LIG d   1      14.156   5.523  -2.879  0.00  0.00     0.029 H 
ATOM     44  H   LIG d   1      12.689   6.556  -2.986  0.00  0.00     0.029 H 
ENDBRANCH  30  33
ENDBRANCH  19  30
BRANCH   1  45
ATOM     45  C   LIG d   1       9.903  -1.662  -5.226  0.00  0.00    -0.038 C 
ATOM     46  H   LIG d   1       9.863  -1.947  -4.176  0.00  0.00     0.025 H 
ATOM     47  H   LIG d   1       9.578  -2.499  -5.843  0.00  0.00     0.025 H 
ATOM     48  H   LIG d   1      10.925  -1.391  -5.491  0.00  0.00     0.025 H 
ENDBRANCH   1  45
BRANCH   1  49
ATOM     49  C   LIG d   1       8.605  -0.381  -6.945  0.00  0.00    -0.038 C 
ATOM     50  H   LIG d   1       8.538   0.665  -7.244  0.00  0.00     0.025 H 
ATOM     51  H   LIG d   1       9.369  -0.881  -7.541  0.00  0.00     0.025 H 
ATOM     52  H   LIG d   1       7.643  -0.868  -7.106  0.00  0.00     0.025 H 
ENDBRANCH   1  49
TORSDOF 4
ENDMDL
MODEL 3
REMARK VINA RESULT:      -6.7      3.167      3.731
REMARK  4 active torsions:
REMARK  status: ('A' for Active; 'I' for Inactive)
REMARK    1  A    between atoms: C_1  and  C_2 
REMARK    2  A    between atoms: C_2  and  C_30 
REMARK    3  A    between atoms: N_20  and  C_23 
REMARK    4  A    between atoms: C_23  and  C_24 
ROOT
ATOM      1  C   LIG d   1       3.936  -0.706  -7.745  0.00  0.00     0.073 C 
ATOM      2  C   LIG d   1       4.058  -0.692  -6.239  0.00  0.00     0.044 A 
ATOM      3  C   LIG d   1       4.362  -1.785  -5.504  0.00  0.00    -0.015 A 
ATOM      4  C   LIG d   1       4.393  -1.369  -4.118  0.00  0.00     0.003 A 
ATOM      5  C   LIG d   1       4.650  -2.055  -2.927  0.00  0.00    -0.052 A 
ATOM      6  C   LIG d   1       4.595  -1.325  -1.766  0.00  0.00    -0.061 A 
ATOM      7  C   LIG d   1       4.288   0.026  -1.758  0.00  0.00    -0.060 A 
ATOM      8  C   LIG d   1       4.030   0.730  -2.921  0.00  0.00    -0.038 A 
ATOM      9  C   LIG d   1       4.085   0.017  -4.117  0.00  0.00     0.047 A 
ATOM     10  N   LIG d   1       3.891   0.390  -5.415  0.00  0.00    -0.356 N 
ATOM     11  H   LIG d   1       3.667   1.286  -5.711  0.00  0.00     0.166 HD
ATOM     12  C   LIG d   1       4.606  -3.159  -6.073  0.00  0.00     0.002 C 
ATOM     13  C   LIG d   1       4.886  -3.032  -7.577  0.00  0.00     0.107 A 
ATOM     14  H   LIG d   1       5.886  -2.618  -7.715  0.00  0.00     0.060 H 
ATOM     15  N   LIG d   1       3.911  -2.121  -8.173  0.00  0.00    -0.278 N 
ATOM     16  C   LIG d   1       3.005  -2.509  -9.074  0.00  0.00     0.234 A 
ATOM     17  O   LIG d   1       2.198  -1.687  -9.453  0.00  0.00    -0.274 OA
ATOM     18  C   LIG d   1       2.921  -3.886  -9.648  0.00  0.00     0.091 A 
ATOM     19  N   LIG d   1       3.965  -4.757  -9.133  0.00  0.00    -0.289 N 
ATOM     20  C   LIG d   1       4.850  -4.386  -8.210  0.00  0.00     0.237 A 
ATOM     21  O   LIG d   1       5.680  -5.199  -7.861  0.00  0.00    -0.274 OA
ATOM     22  H   LIG d   1       4.885  -3.109  -2.923  0.00  0.00     0.062 H 
ATOM     23  H   LIG d   1       4.792  -1.822  -0.827  0.00  0.00     0.062 H 
ATOM     24  H   LIG d   1       4.252   0.547  -0.814  0.00  0.00     0.062 H 
ATOM     25  H   LIG d   1       3.797   1.784  -2.903  0.00  0.00     0.064 H 
ATOM     26  H   LIG d   1       5.465  -3.611  -5.578  0.00  0.00     0.034 H 
ATOM     27  H   LIG d   1       3.724  -3.780  -5.917  0.00  0.00     0.034 H 
ATOM     28  H   LIG d   1       3.014  -3.824 -10.732  0.00  0.00     0.056 H 
ATOM     29  H   LIG d   1       1.950  -4.313  -9.401  0.00  0.00     0.056 H 
ENDROOT
BRANCH  19  30
ATOM     30  C   LIG d   1       4.047  -6.121  -9.659  0.00  0.00     0.042 C 
ATOM     31  H   LIG d   1       4.881  -6.190 -10.358  0.00  0.00     0.049 H 
ATOM     32  H   LIG d   1       4.204  -6.819  -8.837  0.00  0.00     0.049 H 
BRANCH  30  33
ATOM     33  C   LIG d   1       2.746  -6.468 -10.383  0.00  0.00     0.074 C 
ATOM     34  H   LIG d   1       2.200  -5.559 -10.638  0.00  0.00     0.061 H 
ATOM     35  O   LIG d   1       1.933  -7.325  -9.565  0.00  0.00    -0.375 OA
ATOM     36  C   LIG d   1       1.255  -8.285 -10.383  0.00  0.00     0.048 C 
ATOM     37  C   LIG d   1       1.700  -8.051 -11.842  0.00  0.00    -0.027 C 
ATOM     38  H   LIG d   1       1.525  -9.293 -10.071  0.00  0.00     0.056 H 
ATOM     39  H   LIG d   1       0.177  -8.148 -10.298  0.00  0.00     0.056 H 
ATOM     40  C   LIG d   1       3.043  -7.294 -11.660  0.00  0.00    -0.023 C 
ATOM     41  H   LIG d   1       1.855  -8.999 -12.358  0.00  0.00     0.029 H 
ATOM     42  H   LIG d   1       0.974  -7.437 -12.376  0.00  0.00     0.029 H 
ATOM     43  H   LIG d   1       3.246  -6.643 -12.510  0.00  0.00     0.029 H 
ATOM     44  H   LIG d   1       3.867  -7.989 -11.495  0.00  0.00     0.029 H 
ENDBRANCH  30  33
ENDBRANCH  19  30
BRANCH   1  45
ATOM     45  C   LIG d   1       2.640  -0.011  -8.169  0.00  0.00    -0.038 C 
ATOM     46  H   LIG d   1       1.794  -0.494  -7.680  0.00  0.00     0.025 H 
ATOM     47  H   LIG d   1       2.678   1.037  -7.878  0.00  0.00     0.025 H 
ATOM     48  H   LIG d   1       2.525  -0.085  -9.250  0.00  0.00     0.025 H 
ENDBRANCH   1  45
BRANCH   1  49
ATOM     49  C   LIG d   1       5.137   0.006  -8.371  0.00  0.00    -0.038 C 
ATOM     50  H   LIG d   1       5.728  -0.712  -8.940  0.00  0.00     0.025 H 
ATOM     51  H   LIG d   1       4.785   0.794  -9.036  0.00  0.00     0.025 H 
ATOM     52  H   LIG d   1       5.753   0.440  -7.584  0.00  0.00     0.025 H 
ENDBRANCH   1  49
TORSDOF 4
ENDMDL
MODEL 4
REMARK VINA RESULT:      -6.6      3.853      6.912
REMARK  4 active torsions:
REMARK  status: ('A' for Active; 'I' for Inactive)
REMARK    1  A    between atoms: C_1  and  C_2 
REMARK    2  A    between atoms: C_2  and  C_30 
REMARK    3  A    between atoms: N_20  and  C_23 
REMARK    4  A    between atoms: C_23  and  C_24 
ROOT
ATOM      1  C   LIG d   1       5.141  -2.702  -6.703  0.00  0.00     0.073 C 
ATOM      2  C   LIG d   1       4.843  -1.807  -5.522  0.00  0.00     0.044 A 
ATOM      3  C   LIG d   1       4.104  -0.679  -5.609  0.00  0.00    -0.015 A 
ATOM      4  C   LIG d   1       4.040  -0.111  -4.278  0.00  0.00     0.003 A 
ATOM      5  C   LIG d   1       3.422   1.034  -3.764  0.00  0.00    -0.052 A 
ATOM      6  C   LIG d   1       3.572   1.268  -2.420  0.00  0.00    -0.061 A 
ATOM      7  C   LIG d   1       4.309   0.426  -1.602  0.00  0.00    -0.060 A 
ATOM      8  C   LIG d   1       4.929  -0.713  -2.084  0.00  0.00    -0.038 A 
ATOM      9  C   LIG d   1       4.789  -0.981  -3.444  0.00  0.00     0.047 A 
ATOM     10  N   LIG d   1       5.257  -1.994  -4.230  0.00  0.00    -0.356 N 
ATOM     11  H   LIG d   1       5.802  -2.734  -3.922  0.00  0.00     0.166 HD
ATOM     12  C   LIG d   1       3.488  -0.152  -6.879  0.00  0.00     0.002 C 
ATOM     13  C   LIG d   1       3.456  -1.279  -7.921  0.00  0.00     0.107 A 
ATOM     14  H   LIG d   1       2.678  -1.992  -7.645  0.00  0.00     0.060 H 
ATOM     15  N   LIG d   1       4.746  -1.968  -7.925  0.00  0.00    -0.278 N 
ATOM     16  C   LIG d   1       5.575  -1.958  -8.971  0.00  0.00     0.234 A 
ATOM     17  O   LIG d   1       6.651  -2.504  -8.844  0.00  0.00    -0.274 OA
ATOM     18  C   LIG d   1       5.267  -1.323 -10.288  0.00  0.00     0.091 A 
ATOM     19  N   LIG d   1       3.937  -0.736 -10.312  0.00  0.00    -0.289 N 
ATOM     20  C   LIG d   1       3.118  -0.714  -9.262  0.00  0.00     0.237 A 
ATOM     21  O   LIG d   1       2.028  -0.201  -9.404  0.00  0.00    -0.274 OA
ATOM     22  H   LIG d   1       2.851   1.698  -4.394  0.00  0.00     0.062 H 
ATOM     23  H   LIG d   1       3.105   2.141  -1.986  0.00  0.00     0.062 H 
ATOM     24  H   LIG d   1       4.397   0.665  -0.553  0.00  0.00     0.062 H 
ATOM     25  H   LIG d   1       5.496  -1.364  -1.435  0.00  0.00     0.064 H 
ATOM     26  H   LIG d   1       2.473   0.189  -6.679  0.00  0.00     0.034 H 
ATOM     27  H   LIG d   1       4.086   0.677  -7.257  0.00  0.00     0.034 H 
ATOM     28  H   LIG d   1       5.336  -2.078 -11.070  0.00  0.00     0.056 H 
ATOM     29  H   LIG d   1       6.001  -0.543 -10.484  0.00  0.00     0.056 H 
ENDROOT
BRANCH  19  30
ATOM     30  C   LIG d   1       3.471  -0.136 -11.564  0.00  0.00     0.042 C 
ATOM     31  H   LIG d   1       2.399   0.053 -11.499  0.00  0.00     0.049 H 
ATOM     32  H   LIG d   1       3.995   0.804 -11.734  0.00  0.00     0.049 H 
BRANCH  30  33
ATOM     33  C   LIG d   1       3.750  -1.093 -12.724  0.00  0.00     0.074 C 
ATOM     34  H   LIG d   1       4.455  -1.865 -12.416  0.00  0.00     0.061 H 
ATOM     35  O   LIG d   1       4.262  -0.370 -13.855  0.00  0.00    -0.375 OA
ATOM     36  C   LIG d   1       3.756  -0.937 -15.069  0.00  0.00     0.048 C 
ATOM     37  C   LIG d   1       2.808  -2.093 -14.684  0.00  0.00    -0.027 C 
ATOM     38  H   LIG d   1       3.208  -0.180 -15.629  0.00  0.00     0.056 H 
ATOM     39  H   LIG d   1       4.580  -1.319 -15.671  0.00  0.00     0.056 H 
ATOM     40  C   LIG d   1       2.430  -1.736 -13.221  0.00  0.00    -0.023 C 
ATOM     41  H   LIG d   1       1.925  -2.099 -15.322  0.00  0.00     0.029 H 
ATOM     42  H   LIG d   1       3.325  -3.052 -14.732  0.00  0.00     0.029 H 
ATOM     43  H   LIG d   1       2.190  -2.632 -12.647  0.00  0.00     0.029 H 
ATOM     44  H   LIG d   1       1.609  -1.021 -13.190  0.00  0.00     0.029 H 
ENDBRANCH  30  33
ENDBRANCH  19  30
BRANCH   1  45
ATOM     45  C   LIG d   1       6.636  -3.023  -6.750  0.00  0.00    -0.038 C 
ATOM     46  H   LIG d   1       6.808  -3.850  -7.438  0.00  0.00     0.025 H 
ATOM     47  H   LIG d   1       7.185  -2.146  -7.090  0.00  0.00     0.025 H 
ATOM     48  H   LIG d   1       6.979  -3.302  -5.754  0.00  0.00     0.025 H 
ENDBRANCH   1  45
BRANCH   1  49
ATOM     49  C   LIG d   1       4.333  -3.997  -6.591  0.00  0.00    -0.038 C 
ATOM     50  H   LIG d   1       4.768  -4.630  -5.817  0.00  0.00     0.025 H 
ATOM     51  H   LIG d   1       3.302  -3.759  -6.329  0.00  0.00     0.025 H 
ATOM     52  H   LIG d   1       4.354  -4.523  -7.545  0.00  0.00     0.025 H 
ENDBRANCH   1  49
TORSDOF 4
ENDMDL
MODEL 5
REMARK VINA RESULT:      -6.5      2.455      3.701
REMARK  4 active torsions:
REMARK  status: ('A' for Active; 'I' for Inactive)
REMARK    1  A    between atoms: C_1  and  C_2 
REMARK    2  A    between atoms: C_2  and  C_30 
REMARK    3  A    between atoms: N_20  and  C_23 
REMARK    4  A    between atoms: C_23  and  C_24 
ROOT
ATOM      1  C   LIG d   1       7.573  -2.918  -4.963  0.00  0.00     0.073 C 
ATOM      2  C   LIG d   1       6.621  -1.953  -4.296  0.00  0.00     0.044 A 
ATOM      3  C   LIG d   1       5.292  -2.173  -4.184  0.00  0.00    -0.015 A 
ATOM      4  C   LIG d   1       4.731  -1.035  -3.485  0.00  0.00     0.003 A 
ATOM      5  C   LIG d   1       3.430  -0.713  -3.087  0.00  0.00    -0.052 A 
ATOM      6  C   LIG d   1       3.260   0.477  -2.425  0.00  0.00    -0.061 A 
ATOM      7  C   LIG d   1       4.318   1.334  -2.167  0.00  0.00    -0.060 A 
ATOM      8  C   LIG d   1       5.615   1.041  -2.547  0.00  0.00    -0.038 A 
ATOM      9  C   LIG d   1       5.820  -0.165  -3.216  0.00  0.00     0.047 A 
ATOM     10  N   LIG d   1       6.944  -0.753  -3.720  0.00  0.00    -0.356 N 
ATOM     11  H   LIG d   1       7.837  -0.378  -3.677  0.00  0.00     0.166 HD
ATOM     12  C   LIG d   1       4.577  -3.390  -4.711  0.00  0.00     0.002 C 
ATOM     13  C   LIG d   1       5.608  -4.494  -4.984  0.00  0.00     0.107 A 
ATOM     14  H   LIG d   1       5.945  -4.903  -4.031  0.00  0.00     0.060 H 
ATOM     15  N   LIG d   1       6.755  -3.918  -5.683  0.00  0.00    -0.278 N 
ATOM     16  C   LIG d   1       7.091  -4.251  -6.932  0.00  0.00     0.234 A 
ATOM     17  O   LIG d   1       8.020  -3.663  -7.443  0.00  0.00    -0.274 OA
ATOM     18  C   LIG d   1       6.399  -5.300  -7.741  0.00  0.00     0.091 A 
ATOM     19  N   LIG d   1       5.329  -5.945  -6.999  0.00  0.00    -0.289 N 
ATOM     20  C   LIG d   1       4.969  -5.596  -5.765  0.00  0.00     0.237 A 
ATOM     21  O   LIG d   1       4.063  -6.212  -5.243  0.00  0.00    -0.274 OA
ATOM     22  H   LIG d   1       2.599  -1.373  -3.289  0.00  0.00     0.062 H 
ATOM     23  H   LIG d   1       2.269   0.757  -2.099  0.00  0.00     0.062 H 
ATOM     24  H   LIG d   1       4.123   2.261  -1.647  0.00  0.00     0.062 H 
ATOM     25  H   LIG d   1       6.433   1.714  -2.336  0.00  0.00     0.064 H 
ATOM     26  H   LIG d   1       3.855  -3.738  -3.973  0.00  0.00     0.034 H 
ATOM     27  H   LIG d   1       4.060  -3.136  -5.638  0.00  0.00     0.034 H 
ATOM     28  H   LIG d   1       7.127  -6.053  -8.041  0.00  0.00     0.056 H 
ATOM     29  H   LIG d   1       5.981  -4.837  -8.635  0.00  0.00     0.056 H 
ENDROOT
BRANCH  19  30
ATOM     30  C   LIG d   1       4.606  -7.043  -7.644  0.00  0.00     0.042 C 
ATOM     31  H   LIG d   1       5.285  -7.881  -7.802  0.00  0.00     0.049 H 
ATOM     32  H   LIG d   1       3.781  -7.359  -7.007  0.00  0.00     0.049 H 
BRANCH  30  33
ATOM     33  C   LIG d   1       4.059  -6.570  -8.992  0.00  0.00     0.074 C 
ATOM     34  H   LIG d   1       4.811  -5.984  -9.521  0.00  0.00     0.061 H 
ATOM     35  O   LIG d   1       2.864  -5.796  -8.801  0.00  0.00    -0.375 OA
ATOM     36  C   LIG d   1       1.935  -6.060  -9.859  0.00  0.00     0.048 C 
ATOM     37  C   LIG d   1       2.569  -7.122 -10.782  0.00  0.00    -0.027 C 
ATOM     38  H   LIG d   1       1.002  -6.439  -9.444  0.00  0.00     0.056 H 
ATOM     39  H   LIG d   1       1.745  -5.146 -10.422  0.00  0.00     0.056 H 
ATOM     40  C   LIG d   1       3.620  -7.784  -9.850  0.00  0.00    -0.023 C 
ATOM     41  H   LIG d   1       1.824  -7.849 -11.106  0.00  0.00     0.029 H 
ATOM     42  H   LIG d   1       3.049  -6.653 -11.642  0.00  0.00     0.029 H 
ATOM     43  H   LIG d   1       4.457  -8.183 -10.423  0.00  0.00     0.029 H 
ATOM     44  H   LIG d   1       3.165  -8.558  -9.232  0.00  0.00     0.029 H 
ENDBRANCH  30  33
ENDBRANCH  19  30
BRANCH   1  45
ATOM     45  C   LIG d   1       8.467  -2.168  -5.953  0.00  0.00    -0.038 C 
ATOM     46  H   LIG d   1       8.439  -2.670  -6.919  0.00  0.00     0.025 H 
ATOM     47  H   LIG d   1       8.106  -1.146  -6.065  0.00  0.00     0.025 H 
ATOM     48  H   LIG d   1       9.490  -2.154  -5.580  0.00  0.00     0.025 H 
ENDBRANCH   1  45
BRANCH   1  49
ATOM     49  C   LIG d   1       8.434  -3.614  -3.907  0.00  0.00    -0.038 C 
ATOM     50  H   LIG d   1       8.386  -3.053  -2.973  0.00  0.00     0.025 H 
ATOM     51  H   LIG d   1       8.061  -4.625  -3.743  0.00  0.00     0.025 H 
ATOM     52  H   LIG d   1       9.467  -3.658  -4.251  0.00  0.00     0.025 H 
ENDBRANCH   1  49
TORSDOF 4
ENDMDL
MODEL 6
REMARK VINA RESULT:      -6.4      5.075      8.926
REMARK  4 active torsions:
REMARK  status: ('A' for Active; 'I' for Inactive)
REMARK    1  A    between atoms: C_1  and  C_2 
REMARK    2  A    between atoms: C_2  and  C_30 
REMARK    3  A    between atoms: N_20  and  C_23 
REMARK    4  A    between atoms: C_23  and  C_24 
ROOT
ATOM      1  C   LIG d   1       4.550  -0.959  -5.372  0.00  0.00     0.073 C 
ATOM      2  C   LIG d   1       4.147  -0.719  -6.809  0.00  0.00     0.044 A 
ATOM      3  C   LIG d   1       4.966  -0.163  -7.730  0.00  0.00    -0.015 A 
ATOM      4  C   LIG d   1       4.228  -0.109  -8.975  0.00  0.00     0.003 A 
ATOM      5  C   LIG d   1       4.556   0.355 -10.253  0.00  0.00    -0.052 A 
ATOM      6  C   LIG d   1       3.588   0.246 -11.220  0.00  0.00    -0.061 A 
ATOM      7  C   LIG d   1       2.336  -0.285 -10.953  0.00  0.00    -0.060 A 
ATOM      8  C   LIG d   1       1.985  -0.752  -9.699  0.00  0.00    -0.038 A 
ATOM      9  C   LIG d   1       2.950  -0.661  -8.697  0.00  0.00     0.047 A 
ATOM     10  N   LIG d   1       2.939  -1.018  -7.380  0.00  0.00    -0.356 N 
ATOM     11  H   LIG d   1       2.189  -1.423  -6.918  0.00  0.00     0.166 HD
ATOM     12  C   LIG d   1       6.373   0.301  -7.458  0.00  0.00     0.002 C 
ATOM     13  C   LIG d   1       6.863  -0.336  -6.149  0.00  0.00     0.107 A 
ATOM     14  H   LIG d   1       7.071  -1.392  -6.329  0.00  0.00     0.060 H 
ATOM     15  N   LIG d   1       5.813  -0.226  -5.139  0.00  0.00    -0.278 N 
ATOM     16  C   LIG d   1       5.943   0.502  -4.027  0.00  0.00     0.234 A 
ATOM     17  O   LIG d   1       4.985   0.580  -3.288  0.00  0.00    -0.274 OA
ATOM     18  C   LIG d   1       7.189   1.226  -3.633  0.00  0.00     0.091 A 
ATOM     19  N   LIG d   1       8.265   1.021  -4.589  0.00  0.00    -0.289 N 
ATOM     20  C   LIG d   1       8.132   0.323  -5.715  0.00  0.00     0.237 A 
ATOM     21  O   LIG d   1       9.103   0.215  -6.434  0.00  0.00    -0.274 OA
ATOM     22  H   LIG d   1       5.527   0.775 -10.468  0.00  0.00     0.062 H 
ATOM     23  H   LIG d   1       3.807   0.590 -12.220  0.00  0.00     0.062 H 
ATOM     24  H   LIG d   1       1.612  -0.340 -11.752  0.00  0.00     0.062 H 
ATOM     25  H   LIG d   1       1.007  -1.168  -9.504  0.00  0.00     0.064 H 
ATOM     26  H   LIG d   1       7.023  -0.003  -8.278  0.00  0.00     0.034 H 
ATOM     27  H   LIG d   1       6.387   1.387  -7.362  0.00  0.00     0.034 H 
ATOM     28  H   LIG d   1       7.511   0.869  -2.655  0.00  0.00     0.056 H 
ATOM     29  H   LIG d   1       6.972   2.292  -3.566  0.00  0.00     0.056 H 
ENDROOT
BRANCH  19  30
ATOM     30  C   LIG d   1       9.570   1.617  -4.296  0.00  0.00     0.042 C 
ATOM     31  H   LIG d   1      10.177   0.905  -3.737  0.00  0.00     0.049 H 
ATOM     32  H   LIG d   1      10.073   1.868  -5.230  0.00  0.00     0.049 H 
BRANCH  30  33
ATOM     33  C   LIG d   1       9.377   2.885  -3.463  0.00  0.00     0.074 C 
ATOM     34  H   LIG d   1       8.512   2.779  -2.807  0.00  0.00     0.061 H 
ATOM     35  O   LIG d   1       9.216   4.026  -4.322  0.00  0.00    -0.375 OA
ATOM     36  C   LIG d   1       9.855   5.169  -3.742  0.00  0.00     0.048 C 
ATOM     37  C   LIG d   1      10.516   4.716  -2.423  0.00  0.00    -0.027 C 
ATOM     38  H   LIG d   1      10.614   5.553  -4.424  0.00  0.00     0.056 H 
ATOM     39  H   LIG d   1       9.115   5.943  -3.538  0.00  0.00     0.056 H 
ATOM     40  C   LIG d   1      10.650   3.183  -2.632  0.00  0.00    -0.023 C 
ATOM     41  H   LIG d   1      11.495   5.178  -2.300  0.00  0.00     0.029 H 
ATOM     42  H   LIG d   1       9.874   4.939  -1.570  0.00  0.00     0.029 H 
ATOM     43  H   LIG d   1      10.630   2.653  -1.680  0.00  0.00     0.029 H 
ATOM     44  H   LIG d   1      11.552   2.941  -3.195  0.00  0.00     0.029 H 
ENDBRANCH  30  33
ENDBRANCH  19  30
BRANCH   1  45
ATOM     45  C   LIG d   1       3.462  -0.434  -4.432  0.00  0.00    -0.038 C 
ATOM     46  H   LIG d   1       3.838   0.435  -3.893  0.00  0.00     0.025 H 
ATOM     47  H   LIG d   1       2.586  -0.150  -5.013  0.00  0.00     0.025 H 
ATOM     48  H   LIG d   1       3.190  -1.213  -3.721  0.00  0.00     0.025 H 
ENDBRANCH   1  45
BRANCH   1  49
ATOM     49  C   LIG d   1       4.765  -2.456  -5.136  0.00  0.00    -0.038 C 
ATOM     50  H   LIG d   1       4.582  -2.688  -4.087  0.00  0.00     0.025 H 
ATOM     51  H   LIG d   1       4.075  -3.024  -5.760  0.00  0.00     0.025 H 
ATOM     52  H   LIG d   1       5.791  -2.720  -5.393  0.00  0.00     0.025 H 
ENDBRANCH   1  49
TORSDOF 4
ENDMDL
MODEL 7
REMARK VINA RESULT:      -6.3      1.948      2.504
REMARK  4 active torsions:
REMARK  status: ('A' for Active; 'I' for Inactive)
REMARK    1  A    between atoms: C_1  and  C_2 
REMARK    2  A    between atoms: C_2  and  C_30 
REMARK    3  A    between atoms: N_20  and  C_23 
REMARK    4  A    between atoms: C_23  and  C_24 
ROOT
ATOM      1  C   LIG d   1       4.625  -1.863  -7.412  0.00  0.00     0.073 C 
ATOM      2  C   LIG d   1       4.563  -1.390  -5.977  0.00  0.00     0.044 A 
ATOM      3  C   LIG d   1       4.657  -2.219  -4.914  0.00  0.00    -0.015 A 
ATOM      4  C   LIG d   1       4.562  -1.396  -3.726  0.00  0.00     0.003 A 
ATOM      5  C   LIG d   1       4.598  -1.695  -2.360  0.00  0.00    -0.052 A 
ATOM      6  C   LIG d   1       4.479  -0.639  -1.491  0.00  0.00    -0.061 A 
ATOM      7  C   LIG d   1       4.317   0.664  -1.933  0.00  0.00    -0.060 A 
ATOM      8  C   LIG d   1       4.279   0.989  -3.277  0.00  0.00    -0.038 A 
ATOM      9  C   LIG d   1       4.405  -0.062  -4.184  0.00  0.00     0.047 A 
ATOM     10  N   LIG d   1       4.410  -0.098  -5.548  0.00  0.00    -0.356 N 
ATOM     11  H   LIG d   1       4.320   0.674  -6.128  0.00  0.00     0.166 HD
ATOM     12  C   LIG d   1       4.824  -3.713  -5.004  0.00  0.00     0.002 C 
ATOM     13  C   LIG d   1       5.297  -4.078  -6.418  0.00  0.00     0.107 A 
ATOM     14  H   LIG d   1       6.344  -3.789  -6.524  0.00  0.00     0.060 H 
ATOM     15  N   LIG d   1       4.503  -3.336  -7.397  0.00  0.00    -0.278 N 
ATOM     16  C   LIG d   1       3.679  -3.927  -8.265  0.00  0.00     0.234 A 
ATOM     17  O   LIG d   1       3.015  -3.214  -8.988  0.00  0.00    -0.274 OA
ATOM     18  C   LIG d   1       3.521  -5.406  -8.408  0.00  0.00     0.091 A 
ATOM     19  N   LIG d   1       4.397  -6.138  -7.508  0.00  0.00    -0.289 N 
ATOM     20  C   LIG d   1       5.197  -5.555  -6.617  0.00  0.00     0.237 A 
ATOM     21  O   LIG d   1       5.888  -6.270  -5.922  0.00  0.00    -0.274 OA
ATOM     22  H   LIG d   1       4.719  -2.708  -2.007  0.00  0.00     0.062 H 
ATOM     23  H   LIG d   1       4.506  -0.831  -0.428  0.00  0.00     0.062 H 
ATOM     24  H   LIG d   1       4.221   1.454  -1.202  0.00  0.00     0.062 H 
ATOM     25  H   LIG d   1       4.157   2.009  -3.609  0.00  0.00     0.064 H 
ATOM     26  H   LIG d   1       5.564  -4.043  -4.275  0.00  0.00     0.034 H 
ATOM     27  H   LIG d   1       3.869  -4.200  -4.803  0.00  0.00     0.034 H 
ATOM     28  H   LIG d   1       3.752  -5.689  -9.435  0.00  0.00     0.056 H 
ATOM     29  H   LIG d   1       2.487  -5.673  -8.192  0.00  0.00     0.056 H 
ENDROOT
BRANCH  19  30
ATOM     30  C   LIG d   1       4.399  -7.600  -7.585  0.00  0.00     0.042 C 
ATOM     31  H   LIG d   1       5.165  -7.998  -6.919  0.00  0.00     0.049 H 
ATOM     32  H   LIG d   1       3.424  -7.982  -7.284  0.00  0.00     0.049 H 
BRANCH  30  33
ATOM     33  C   LIG d   1       4.698  -8.035  -9.021  0.00  0.00     0.074 C 
ATOM     34  H   LIG d   1       4.370  -7.269  -9.724  0.00  0.00     0.061 H 
ATOM     35  O   LIG d   1       4.052  -9.285  -9.308  0.00  0.00    -0.375 OA
ATOM     36  C   LIG d   1       4.887 -10.086 -10.152  0.00  0.00     0.048 C 
ATOM     37  C   LIG d   1       6.195  -9.302 -10.393  0.00  0.00    -0.027 C 
ATOM     38  H   LIG d   1       5.109 -11.033  -9.660  0.00  0.00     0.056 H 
ATOM     39  H   LIG d   1       4.386 -10.270 -11.102  0.00  0.00     0.056 H 
ATOM     40  C   LIG d   1       6.212  -8.313  -9.195  0.00  0.00    -0.023 C 
ATOM     41  H   LIG d   1       7.058  -9.966 -10.361  0.00  0.00     0.029 H 
ATOM     42  H   LIG d   1       6.156  -8.765 -11.342  0.00  0.00     0.029 H 
ATOM     43  H   LIG d   1       6.753  -7.401  -9.446  0.00  0.00     0.029 H 
ATOM     44  H   LIG d   1       6.630  -8.782  -8.305  0.00  0.00     0.029 H 
ENDBRANCH  30  33
ENDBRANCH  19  30
BRANCH   1  45
ATOM     45  C   LIG d   1       3.470  -1.254  -8.211  0.00  0.00    -0.038 C 
ATOM     46  H   LIG d   1       2.813  -0.705  -7.537  0.00  0.00     0.025 H 
ATOM     47  H   LIG d   1       3.868  -0.575  -8.963  0.00  0.00     0.025 H 
ATOM     48  H   LIG d   1       2.908  -2.049  -8.699  0.00  0.00     0.025 H 
ENDBRANCH   1  45
BRANCH   1  49
ATOM     49  C   LIG d   1       5.962  -1.457  -8.035  0.00  0.00    -0.038 C 
ATOM     50  H   LIG d   1       5.998  -0.373  -8.144  0.00  0.00     0.025 H 
ATOM     51  H   LIG d   1       6.777  -1.784  -7.390  0.00  0.00     0.025 H 
ATOM     52  H   LIG d   1       6.063  -1.925  -9.014  0.00  0.00     0.025 H 
ENDBRANCH   1  49
TORSDOF 4
ENDMDL
MODEL 8
REMARK VINA RESULT:      -6.2      2.186      3.828
REMARK  4 active torsions:
REMARK  status: ('A' for Active; 'I' for Inactive)
REMARK    1  A    between atoms: C_1  and  C_2 
REMARK    2  A    between atoms: C_2  and  C_30 
REMARK    3  A    between atoms: N_20  and  C_23 
REMARK    4  A    between atoms: C_23  and  C_24 
ROOT
ATOM      1  C   LIG d   1       5.216  -2.123  -4.864  0.00  0.00     0.073 C 
ATOM      2  C   LIG d   1       4.541  -1.431  -6.026  0.00  0.00     0.044 A 
ATOM      3  C   LIG d   1       4.054  -2.086  -7.103  0.00  0.00    -0.015 A 
ATOM      4  C   LIG d   1       3.483  -1.087  -7.984  0.00  0.00     0.003 A 
ATOM      5  C   LIG d   1       2.844  -1.171  -9.225  0.00  0.00    -0.052 A 
ATOM      6  C   LIG d   1       2.418   0.008  -9.784  0.00  0.00    -0.061 A 
ATOM      7  C   LIG d   1       2.617   1.231  -9.165  0.00  0.00    -0.060 A 
ATOM      8  C   LIG d   1       3.246   1.344  -7.937  0.00  0.00    -0.038 A 
ATOM      9  C   LIG d   1       3.683   0.162  -7.341  0.00  0.00     0.047 A 
ATOM     10  N   LIG d   1       4.324  -0.085  -6.162  0.00  0.00    -0.356 N 
ATOM     11  H   LIG d   1       4.587   0.589  -5.517  0.00  0.00     0.166 HD
ATOM     12  C   LIG d   1       4.123  -3.577  -7.304  0.00  0.00     0.002 C 
ATOM     13  C   LIG d   1       4.416  -4.248  -5.954  0.00  0.00     0.107 A 
ATOM     14  H   LIG d   1       3.516  -4.207  -5.338  0.00  0.00     0.060 H 
ATOM     15  N   LIG d   1       5.485  -3.517  -5.276  0.00  0.00    -0.278 N 
ATOM     16  C   LIG d   1       6.683  -4.049  -5.020  0.00  0.00     0.234 A 
ATOM     17  O   LIG d   1       7.522  -3.333  -4.514  0.00  0.00    -0.274 OA
ATOM     18  C   LIG d   1       7.058  -5.465  -5.312  0.00  0.00     0.091 A 
ATOM     19  N   LIG d   1       5.953  -6.216  -5.884  0.00  0.00    -0.289 N 
ATOM     20  C   LIG d   1       4.767  -5.684  -6.172  0.00  0.00     0.237 A 
ATOM     21  O   LIG d   1       3.918  -6.412  -6.643  0.00  0.00    -0.274 OA
ATOM     22  H   LIG d   1       2.689  -2.119  -9.717  0.00  0.00     0.062 H 
ATOM     23  H   LIG d   1       1.916  -0.018 -10.740  0.00  0.00     0.062 H 
ATOM     24  H   LIG d   1       2.266   2.127  -9.655  0.00  0.00     0.062 H 
ATOM     25  H   LIG d   1       3.391   2.303  -7.462  0.00  0.00     0.064 H 
ATOM     26  H   LIG d   1       3.170  -3.938  -7.692  0.00  0.00     0.034 H 
ATOM     27  H   LIG d   1       4.919  -3.814  -8.009  0.00  0.00     0.034 H 
ATOM     28  H   LIG d   1       7.372  -5.946  -4.386  0.00  0.00     0.056 H 
ATOM     29  H   LIG d   1       7.892  -5.472  -6.013  0.00  0.00     0.056 H 
ENDROOT
BRANCH  19  30
ATOM     30  C   LIG d   1       6.156  -7.640  -6.159  0.00  0.00     0.042 C 
ATOM     31  H   LIG d   1       5.339  -8.010  -6.779  0.00  0.00     0.049 H 
ATOM     32  H   LIG d   1       7.101  -7.778  -6.685  0.00  0.00     0.049 H 
BRANCH  30  33
ATOM     33  C   LIG d   1       6.186  -8.415  -4.841  0.00  0.00     0.074 C 
ATOM     34  H   LIG d   1       6.447  -7.751  -4.017  0.00  0.00     0.061 H 
ATOM     35  O   LIG d   1       7.123  -9.501  -4.923  0.00  0.00    -0.375 OA
ATOM     36  C   LIG d   1       6.621 -10.635  -4.206  0.00  0.00     0.048 C 
ATOM     37  C   LIG d   1       5.230 -10.260  -3.653  0.00  0.00    -0.027 C 
ATOM     38  H   LIG d   1       6.535 -11.489  -4.878  0.00  0.00     0.056 H 
ATOM     39  H   LIG d   1       7.293 -10.880  -3.383  0.00  0.00     0.056 H 
ATOM     40  C   LIG d   1       4.814  -9.085  -4.580  0.00  0.00    -0.023 C 
ATOM     41  H   LIG d   1       4.536 -11.095  -3.749  0.00  0.00     0.029 H 
ATOM     42  H   LIG d   1       5.299  -9.934  -2.615  0.00  0.00     0.029 H 
ATOM     43  H   LIG d   1       4.135  -8.403  -4.068  0.00  0.00     0.029 H 
ATOM     44  H   LIG d   1       4.373  -9.453  -5.506  0.00  0.00     0.029 H 
ENDBRANCH  30  33
ENDBRANCH  19  30
BRANCH   1  45
ATOM     45  C   LIG d   1       6.532  -1.416  -4.530  0.00  0.00    -0.038 C 
ATOM     46  H   LIG d   1       6.418  -0.859  -3.601  0.00  0.00     0.025 H 
ATOM     47  H   LIG d   1       7.323  -2.156  -4.416  0.00  0.00     0.025 H 
ATOM     48  H   LIG d   1       6.790  -0.729  -5.336  0.00  0.00     0.025 H 
ENDBRANCH   1  45
BRANCH   1  49
ATOM     49  C   LIG d   1       4.293  -2.110  -3.644  0.00  0.00    -0.038 C 
ATOM     50  H   LIG d   1       3.527  -2.877  -3.760  0.00  0.00     0.025 H 
ATOM     51  H   LIG d   1       4.877  -2.313  -2.746  0.00  0.00     0.025 H 
ATOM     52  H   LIG d   1       3.819  -1.133  -3.557  0.00  0.00     0.025 H 
ENDBRANCH   1  49
TORSDOF 4
ENDMDL
MODEL 9
REMARK VINA RESULT:      -6.2      7.577      9.862
REMARK  4 active torsions:
REMARK  status: ('A' for Active; 'I' for Inactive)
REMARK    1  A    between atoms: C_1  and  C_2 
REMARK    2  A    between atoms: C_2  and  C_30 
REMARK    3  A    between atoms: N_20  and  C_23 
REMARK    4  A    between atoms: C_23  and  C_24 
ROOT
ATOM      1  C   LIG d   1       9.756   3.650  -7.840  0.00  0.00     0.073 C 
ATOM      2  C   LIG d   1       9.791   5.086  -7.371  0.00  0.00     0.044 A 
ATOM      3  C   LIG d   1       9.570   5.460  -6.092  0.00  0.00    -0.015 A 
ATOM      4  C   LIG d   1       9.697   6.901  -6.043  0.00  0.00     0.003 A 
ATOM      5  C   LIG d   1       9.579   7.829  -5.003  0.00  0.00    -0.052 A 
ATOM      6  C   LIG d   1       9.771   9.149  -5.325  0.00  0.00    -0.061 A 
ATOM      7  C   LIG d   1      10.056   9.559  -6.618  0.00  0.00    -0.060 A 
ATOM      8  C   LIG d   1      10.179   8.663  -7.665  0.00  0.00    -0.038 A 
ATOM      9  C   LIG d   1       9.997   7.314  -7.367  0.00  0.00     0.047 A 
ATOM     10  N   LIG d   1      10.046   6.190  -8.141  0.00  0.00    -0.356 N 
ATOM     11  H   LIG d   1      10.233   6.175  -9.092  0.00  0.00     0.166 HD
ATOM     12  C   LIG d   1       9.250   4.511  -4.965  0.00  0.00     0.002 C 
ATOM     13  C   LIG d   1       9.638   3.087  -5.387  0.00  0.00     0.107 A 
ATOM     14  H   LIG d   1      10.725   3.000  -5.370  0.00  0.00     0.060 H 
ATOM     15  N   LIG d   1       9.166   2.844  -6.749  0.00  0.00    -0.278 N 
ATOM     16  C   LIG d   1       8.232   1.938  -7.047  0.00  0.00     0.234 A 
ATOM     17  O   LIG d   1       7.863   1.864  -8.200  0.00  0.00    -0.274 OA
ATOM     18  C   LIG d   1       7.611   1.008  -6.056  0.00  0.00     0.091 A 
ATOM     19  N   LIG d   1       8.166   1.180  -4.723  0.00  0.00    -0.289 N 
ATOM     20  C   LIG d   1       9.074   2.104  -4.414  0.00  0.00     0.237 A 
ATOM     21  O   LIG d   1       9.469   2.149  -3.267  0.00  0.00    -0.274 OA
ATOM     22  H   LIG d   1       9.352   7.520  -3.994  0.00  0.00     0.062 H 
ATOM     23  H   LIG d   1       9.691   9.894  -4.547  0.00  0.00     0.062 H 
ATOM     24  H   LIG d   1      10.190  10.612  -6.813  0.00  0.00     0.062 H 
ATOM     25  H   LIG d   1      10.407   8.993  -8.668  0.00  0.00     0.064 H 
ATOM     26  H   LIG d   1       9.813   4.796  -4.077  0.00  0.00     0.034 H 
ATOM     27  H   LIG d   1       8.181   4.549  -4.750  0.00  0.00     0.034 H 
ATOM     28  H   LIG d   1       7.780  -0.019  -6.380  0.00  0.00     0.056 H 
ATOM     29  H   LIG d   1       6.538   1.194  -6.019  0.00  0.00     0.056 H 
ENDROOT
BRANCH  19  30
ATOM     30  C   LIG d   1       7.700   0.287  -3.661  0.00  0.00     0.042 C 
ATOM     31  H   LIG d   1       7.986  -0.739  -3.897  0.00  0.00     0.049 H 
ATOM     32  H   LIG d   1       8.153   0.580  -2.714  0.00  0.00     0.049 H 
BRANCH  30  33
ATOM     33  C   LIG d   1       6.178   0.378  -3.548  0.00  0.00     0.074 C 
ATOM     34  H   LIG d   1       5.737   0.576  -4.526  0.00  0.00     0.061 H 
ATOM     35  O   LIG d   1       5.807   1.407  -2.617  0.00  0.00    -0.375 OA
ATOM     36  C   LIG d   1       4.650   1.004  -1.876  0.00  0.00     0.048 C 
ATOM     37  C   LIG d   1       4.270  -0.418  -2.342  0.00  0.00    -0.027 C 
ATOM     38  H   LIG d   1       4.877   0.996  -0.811  0.00  0.00     0.056 H 
ATOM     39  H   LIG d   1       3.826   1.690  -2.074  0.00  0.00     0.056 H 
ATOM     40  C   LIG d   1       5.602  -0.931  -2.953  0.00  0.00    -0.023 C 
ATOM     41  H   LIG d   1       3.967  -1.035  -1.497  0.00  0.00     0.029 H 
ATOM     42  H   LIG d   1       3.482  -0.382  -3.096  0.00  0.00     0.029 H 
ATOM     43  H   LIG d   1       5.418  -1.670  -3.733  0.00  0.00     0.029 H 
ATOM     44  H   LIG d   1       6.259  -1.334  -2.182  0.00  0.00     0.029 H 
ENDBRANCH  30  33
ENDBRANCH  19  30
BRANCH   1  45
ATOM     45  C   LIG d   1       8.894   3.533  -9.099  0.00  0.00    -0.038 C 
ATOM     46  H   LIG d   1       7.960   3.028  -8.852  0.00  0.00     0.025 H 
ATOM     47  H   LIG d   1       8.678   4.528  -9.484  0.00  0.00     0.025 H 
ATOM     48  H   LIG d   1       9.429   2.958  -9.854  0.00  0.00     0.025 H 
ENDBRANCH   1  45
BRANCH   1  49
ATOM     49  C   LIG d   1      11.177   3.164  -8.134  0.00  0.00    -0.038 C 
ATOM     50  H   LIG d   1      11.885   3.719  -7.519  0.00  0.00     0.025 H 
ATOM     51  H   LIG d   1      11.252   2.101  -7.905  0.00  0.00     0.025 H 
ATOM     52  H   LIG d   1      11.406   3.326  -9.187  0.00  0.00     0.025 H 
ENDBRANCH   1  49
TORSDOF 4
ENDMDL
