MODEL 1
REMARK VINA RESULT:      -5.3      0.000      0.000
REMARK  4 active torsions:
REMARK  status: ('A' for Active; 'I' for Inactive)
REMARK    1  A    between atoms: C_1  and  C_2 
REMARK    2  A    between atoms: C_2  and  C_4 
REMARK    3  A    between atoms: C_2  and  N_19 
REMARK    4  A    between atoms: C_8  and  C_11 
REMARK       I    between atoms: C_11  and  N_13 
ROOT
ATOM      1  C   LIG d   1       4.556   0.509  -8.721  0.00  0.00     0.102 C 
ATOM      2  H   LIG d   1       4.947  -0.402  -9.172  0.00  0.00     0.065 H 
ATOM      3  C   LIG d   1       3.017   0.587  -8.892  0.00  0.00    -0.018 C 
ATOM      4  C   LIG d   1       2.517  -0.309  -7.733  0.00  0.00    -0.015 C 
ATOM      5  C   LIG d   1       3.702  -0.349  -6.748  0.00  0.00     0.135 C 
ATOM      6  H   LIG d   1       4.066  -1.372  -6.649  0.00  0.00     0.069 H 
ATOM      7  O   LIG d   1       4.738   0.488  -7.289  0.00  0.00    -0.359 OA
ATOM      8  H   LIG d   1       2.664   1.612  -8.772  0.00  0.00     0.029 H 
ATOM      9  H   LIG d   1       2.712   0.183  -9.857  0.00  0.00     0.029 H 
ATOM     10  H   LIG d   1       1.641   0.134  -7.259  0.00  0.00     0.030 H 
ATOM     11  H   LIG d   1       2.290  -1.311  -8.098  0.00  0.00     0.030 H 
ENDROOT
BRANCH   5  12
ATOM     12  C   LIG d   1       3.265   0.172  -5.402  0.00  0.00     0.245 C 
ATOM     13  O   LIG d   1       2.714   1.249  -5.320  0.00  0.00    -0.273 OA
ATOM     14  N   LIG d   1       3.488  -0.558  -4.292  0.00  0.00    -0.295 N 
ATOM     15  C   LIG d   1       3.072  -0.070  -2.968  0.00  0.00     0.038 C 
ATOM     16  C   LIG d   1       4.162  -1.865  -4.367  0.00  0.00     0.038 C 
ATOM     17  C   LIG d   1       4.261  -0.176  -2.013  0.00  0.00     0.064 C 
ATOM     18  H   LIG d   1       2.754   0.970  -3.043  0.00  0.00     0.049 H 
ATOM     19  H   LIG d   1       2.249  -0.680  -2.594  0.00  0.00     0.049 H 
ATOM     20  O   LIG d   1       4.790  -1.502  -2.062  0.00  0.00    -0.377 OA
ATOM     21  H   LIG d   1       3.934   0.048  -0.997  0.00  0.00     0.058 H 
ATOM     22  H   LIG d   1       5.030   0.536  -2.313  0.00  0.00     0.058 H 
ATOM     23  C   LIG d   1       5.302  -1.880  -3.342  0.00  0.00     0.064 C 
ATOM     24  H   LIG d   1       5.725  -2.883  -3.284  0.00  0.00     0.058 H 
ATOM     25  H   LIG d   1       6.075  -1.176  -3.648  0.00  0.00     0.058 H 
ATOM     26  H   LIG d   1       3.451  -2.658  -4.136  0.00  0.00     0.049 H 
ATOM     27  H   LIG d   1       4.566  -2.013  -5.369  0.00  0.00     0.049 H 
ENDBRANCH   5  12
BRANCH   1  28
ATOM     28  C   LIG d   1       5.229   1.741  -9.331  0.00  0.00    -0.000 C 
ATOM     29  H   LIG d   1       5.324   1.607 -10.409  0.00  0.00     0.087 H 
BRANCH  28  30
ATOM     30  C   LIG d   1       6.617   1.922  -8.715  0.00  0.00    -0.019 C 
ATOM     31  H   LIG d   1       7.178   0.991  -8.804  0.00  0.00     0.029 H 
ATOM     32  H   LIG d   1       7.147   2.717  -9.239  0.00  0.00     0.029 H 
ATOM     33  H   LIG d   1       6.515   2.185  -7.662  0.00  0.00     0.029 H 
ENDBRANCH  28  30
BRANCH  28  34
ATOM     34  N   LIG d   1       4.413   2.931  -9.057  0.00  0.00     0.222 N 
ATOM     35  H   LIG d   1       5.002   3.750  -9.060  0.00  0.00     0.200 HD
ATOM     36  H   LIG d   1       3.705   3.025  -9.771  0.00  0.00     0.200 HD
ATOM     37  H   LIG d   1       3.972   2.837  -8.155  0.00  0.00     0.200 HD
ENDBRANCH  28  34
ENDBRANCH   1  28
TORSDOF 4
ENDMDL
MODEL 2
REMARK VINA RESULT:      -5.2      2.038      5.910
REMARK  4 active torsions:
REMARK  status: ('A' for Active; 'I' for Inactive)
REMARK    1  A    between atoms: C_1  and  C_2 
REMARK    2  A    between atoms: C_2  and  C_4 
REMARK    3  A    between atoms: C_2  and  N_19 
REMARK    4  A    between atoms: C_8  and  C_11 
REMARK       I    between atoms: C_11  and  N_13 
ROOT
ATOM      1  C   LIG d   1       3.700   0.530  -3.513  0.00  0.00     0.102 C 
ATOM      2  H   LIG d   1       3.387   1.531  -3.217  0.00  0.00     0.065 H 
ATOM      3  C   LIG d   1       2.475  -0.410  -3.642  0.00  0.00    -0.018 C 
ATOM      4  C   LIG d   1       1.946  -0.059  -5.054  0.00  0.00    -0.015 C 
ATOM      5  C   LIG d   1       3.155   0.583  -5.762  0.00  0.00     0.135 C 
ATOM      6  H   LIG d   1       2.925   1.617  -6.020  0.00  0.00     0.069 H 
ATOM      7  O   LIG d   1       4.260   0.545  -4.843  0.00  0.00    -0.359 OA
ATOM      8  H   LIG d   1       2.780  -1.456  -3.590  0.00  0.00     0.029 H 
ATOM      9  H   LIG d   1       1.730  -0.185  -2.880  0.00  0.00     0.029 H 
ATOM     10  H   LIG d   1       1.632  -0.963  -5.579  0.00  0.00     0.030 H 
ATOM     11  H   LIG d   1       1.121   0.650  -4.986  0.00  0.00     0.030 H 
ENDROOT
BRANCH   5  12
ATOM     12  C   LIG d   1       3.490  -0.194  -7.009  0.00  0.00     0.245 C 
ATOM     13  O   LIG d   1       3.888  -1.336  -6.922  0.00  0.00    -0.273 OA
ATOM     14  N   LIG d   1       3.348   0.379  -8.220  0.00  0.00    -0.295 N 
ATOM     15  C   LIG d   1       3.670  -0.359  -9.451  0.00  0.00     0.038 C 
ATOM     16  C   LIG d   1       2.873   1.767  -8.350  0.00  0.00     0.038 C 
ATOM     17  C   LIG d   1       4.596   0.503 -10.309  0.00  0.00     0.064 C 
ATOM     18  H   LIG d   1       4.170  -1.294  -9.198  0.00  0.00     0.049 H 
ATOM     19  H   LIG d   1       2.753  -0.570 -10.002  0.00  0.00     0.049 H 
ATOM     20  O   LIG d   1       4.014   1.796 -10.480  0.00  0.00    -0.377 OA
ATOM     21  H   LIG d   1       4.732   0.034 -11.284  0.00  0.00     0.058 H 
ATOM     22  H   LIG d   1       5.562   0.600  -9.814  0.00  0.00     0.058 H 
ATOM     23  C   LIG d   1       3.843   2.526  -9.262  0.00  0.00     0.064 C 
ATOM     24  H   LIG d   1       3.437   3.514  -9.483  0.00  0.00     0.058 H 
ATOM     25  H   LIG d   1       4.806   2.631  -8.763  0.00  0.00     0.058 H 
ATOM     26  H   LIG d   1       1.875   1.773  -8.789  0.00  0.00     0.049 H 
ATOM     27  H   LIG d   1       2.846   2.239  -7.368  0.00  0.00     0.049 H 
ENDBRANCH   5  12
BRANCH   1  28
ATOM     28  C   LIG d   1       4.709  -0.034  -2.510  0.00  0.00    -0.000 C 
ATOM     29  H   LIG d   1       5.693  -0.090  -2.976  0.00  0.00     0.087 H 
BRANCH  28  30
ATOM     30  C   LIG d   1       4.269  -1.435  -2.077  0.00  0.00    -0.019 C 
ATOM     31  H   LIG d   1       3.488  -1.793  -2.747  0.00  0.00     0.029 H 
ATOM     32  H   LIG d   1       5.122  -2.112  -2.117  0.00  0.00     0.029 H 
ATOM     33  H   LIG d   1       3.884  -1.395  -1.058  0.00  0.00     0.029 H 
ENDBRANCH  28  30
BRANCH  28  34
ATOM     34  N   LIG d   1       4.774   0.843  -1.334  0.00  0.00     0.222 N 
ATOM     35  H   LIG d   1       4.805   1.806  -1.635  0.00  0.00     0.200 HD
ATOM     36  H   LIG d   1       3.957   0.697  -0.760  0.00  0.00     0.200 HD
ATOM     37  H   LIG d   1       5.603   0.630  -0.801  0.00  0.00     0.200 HD
ENDBRANCH  28  34
ENDBRANCH   1  28
TORSDOF 4
ENDMDL
MODEL 3
REMARK VINA RESULT:      -5.0      1.918      5.693
REMARK  4 active torsions:
REMARK  status: ('A' for Active; 'I' for Inactive)
REMARK    1  A    between atoms: C_1  and  C_2 
REMARK    2  A    between atoms: C_2  and  C_4 
REMARK    3  A    between atoms: C_2  and  N_19 
REMARK    4  A    between atoms: C_8  and  C_11 
REMARK       I    between atoms: C_11  and  N_13 
ROOT
ATOM      1  C   LIG d   1       4.631  -0.486  -3.648  0.00  0.00     0.102 C 
ATOM      2  H   LIG d   1       3.625  -0.628  -3.254  0.00  0.00     0.065 H 
ATOM      3  C   LIG d   1       5.310  -1.854  -3.916  0.00  0.00    -0.018 C 
ATOM      4  C   LIG d   1       4.725  -2.241  -5.296  0.00  0.00    -0.015 C 
ATOM      5  C   LIG d   1       4.248  -0.902  -5.893  0.00  0.00     0.135 C 
ATOM      6  H   LIG d   1       3.168  -0.928  -6.043  0.00  0.00     0.069 H 
ATOM      7  O   LIG d   1       4.584   0.132  -4.952  0.00  0.00    -0.359 OA
ATOM      8  H   LIG d   1       6.394  -1.746  -3.970  0.00  0.00     0.029 H 
ATOM      9  H   LIG d   1       5.030  -2.583  -3.157  0.00  0.00     0.029 H 
ATOM     10  H   LIG d   1       5.496  -2.687  -5.926  0.00  0.00     0.030 H 
ATOM     11  H   LIG d   1       3.886  -2.926  -5.175  0.00  0.00     0.030 H 
ENDROOT
BRANCH   5  12
ATOM     12  C   LIG d   1       4.942  -0.652  -7.207  0.00  0.00     0.245 C 
ATOM     13  O   LIG d   1       6.085  -1.024  -7.369  0.00  0.00    -0.273 OA
ATOM     14  N   LIG d   1       4.293  -0.016  -8.203  0.00  0.00    -0.295 N 
ATOM     15  C   LIG d   1       4.951   0.240  -9.494  0.00  0.00     0.038 C 
ATOM     16  C   LIG d   1       2.908   0.451  -8.028  0.00  0.00     0.038 C 
ATOM     17  C   LIG d   1       4.777   1.718  -9.845  0.00  0.00     0.064 C 
ATOM     18  H   LIG d   1       6.012   0.004  -9.418  0.00  0.00     0.049 H 
ATOM     19  H   LIG d   1       4.491  -0.375 -10.268  0.00  0.00     0.049 H 
ATOM     20  O   LIG d   1       3.394   2.065  -9.758  0.00  0.00    -0.377 OA
ATOM     21  H   LIG d   1       5.133   1.896 -10.860  0.00  0.00     0.058 H 
ATOM     22  H   LIG d   1       5.351   2.326  -9.146  0.00  0.00     0.058 H 
ATOM     23  C   LIG d   1       2.836   1.922  -8.449  0.00  0.00     0.064 C 
ATOM     24  H   LIG d   1       1.796   2.248  -8.458  0.00  0.00     0.058 H 
ATOM     25  H   LIG d   1       3.402   2.530  -7.744  0.00  0.00     0.058 H 
ATOM     26  H   LIG d   1       2.239  -0.143  -8.651  0.00  0.00     0.049 H 
ATOM     27  H   LIG d   1       2.617   0.353  -6.981  0.00  0.00     0.049 H 
ENDBRANCH   5  12
BRANCH   1  28
ATOM     28  C   LIG d   1       5.472   0.353  -2.684  0.00  0.00    -0.000 C 
ATOM     29  H   LIG d   1       6.205  -0.286  -2.190  0.00  0.00     0.087 H 
BRANCH  28  30
ATOM     30  C   LIG d   1       4.560   0.990  -1.633  0.00  0.00    -0.019 C 
ATOM     31  H   LIG d   1       4.948   1.972  -1.363  0.00  0.00     0.029 H 
ATOM     32  H   LIG d   1       3.554   1.095  -2.040  0.00  0.00     0.029 H 
ATOM     33  H   LIG d   1       4.530   0.356  -0.747  0.00  0.00     0.029 H 
ENDBRANCH  28  30
BRANCH  28  34
ATOM     34  N   LIG d   1       6.168   1.408  -3.432  0.00  0.00     0.222 N 
ATOM     35  H   LIG d   1       6.648   1.000  -4.220  0.00  0.00     0.200 HD
ATOM     36  H   LIG d   1       5.496   2.085  -3.762  0.00  0.00     0.200 HD
ATOM     37  H   LIG d   1       6.836   1.864  -2.829  0.00  0.00     0.200 HD
ENDBRANCH  28  34
ENDBRANCH   1  28
TORSDOF 4
ENDMDL
MODEL 4
REMARK VINA RESULT:      -4.9      2.151      3.054
REMARK  4 active torsions:
REMARK  status: ('A' for Active; 'I' for Inactive)
REMARK    1  A    between atoms: C_1  and  C_2 
REMARK    2  A    between atoms: C_2  and  C_4 
REMARK    3  A    between atoms: C_2  and  N_19 
REMARK    4  A    between atoms: C_8  and  C_11 
REMARK       I    between atoms: C_11  and  N_13 
ROOT
ATOM      1  C   LIG d   1       1.936  -0.155  -9.457  0.00  0.00     0.102 C 
ATOM      2  H   LIG d   1       0.915   0.193  -9.298  0.00  0.00     0.065 H 
ATOM      3  C   LIG d   1       2.907   1.045  -9.593  0.00  0.00    -0.018 C 
ATOM      4  C   LIG d   1       3.168   1.419  -8.114  0.00  0.00    -0.015 C 
ATOM      5  C   LIG d   1       2.802   0.143  -7.331  0.00  0.00     0.135 C 
ATOM      6  H   LIG d   1       1.966   0.347  -6.661  0.00  0.00     0.069 H 
ATOM      7  O   LIG d   1       2.422  -0.856  -8.293  0.00  0.00    -0.359 OA
ATOM      8  H   LIG d   1       3.831   0.744 -10.087  0.00  0.00     0.029 H 
ATOM      9  H   LIG d   1       2.434   1.870 -10.125  0.00  0.00     0.029 H 
ATOM     10  H   LIG d   1       4.219   1.670  -7.964  0.00  0.00     0.030 H 
ATOM     11  H   LIG d   1       2.529   2.249  -7.812  0.00  0.00     0.030 H 
ENDROOT
BRANCH   5  12
ATOM     12  C   LIG d   1       3.992  -0.330  -6.536  0.00  0.00     0.245 C 
ATOM     13  O   LIG d   1       4.961  -0.782  -7.109  0.00  0.00    -0.273 OA
ATOM     14  N   LIG d   1       3.980  -0.249  -5.191  0.00  0.00    -0.295 N 
ATOM     15  C   LIG d   1       5.130  -0.706  -4.395  0.00  0.00     0.038 C 
ATOM     16  C   LIG d   1       2.812   0.289  -4.475  0.00  0.00     0.038 C 
ATOM     17  C   LIG d   1       4.624  -1.646  -3.301  0.00  0.00     0.064 C 
ATOM     18  H   LIG d   1       5.834  -1.235  -5.036  0.00  0.00     0.049 H 
ATOM     19  H   LIG d   1       5.623   0.153  -3.938  0.00  0.00     0.049 H 
ATOM     20  O   LIG d   1       3.567  -1.008  -2.581  0.00  0.00    -0.377 OA
ATOM     21  H   LIG d   1       5.439  -1.881  -2.616  0.00  0.00     0.058 H 
ATOM     22  H   LIG d   1       4.253  -2.564  -3.756  0.00  0.00     0.058 H 
ATOM     23  C   LIG d   1       2.418  -0.705  -3.377  0.00  0.00     0.064 C 
ATOM     24  H   LIG d   1       1.645  -0.264  -2.748  0.00  0.00     0.058 H 
ATOM     25  H   LIG d   1       2.039  -1.619  -3.833  0.00  0.00     0.058 H 
ATOM     26  H   LIG d   1       3.068   1.249  -4.027  0.00  0.00     0.049 H 
ATOM     27  H   LIG d   1       1.982   0.418  -5.170  0.00  0.00     0.049 H 
ENDBRANCH   5  12
BRANCH   1  28
ATOM     28  C   LIG d   1       2.009  -1.050 -10.696  0.00  0.00    -0.000 C 
ATOM     29  H   LIG d   1       2.333  -2.050 -10.403  0.00  0.00     0.087 H 
BRANCH  28  30
ATOM     30  C   LIG d   1       3.009  -0.461 -11.693  0.00  0.00    -0.019 C 
ATOM     31  H   LIG d   1       2.547   0.374 -12.220  0.00  0.00     0.029 H 
ATOM     32  H   LIG d   1       3.892  -0.110 -11.159  0.00  0.00     0.029 H 
ATOM     33  H   LIG d   1       3.300  -1.228 -12.411  0.00  0.00     0.029 H 
ENDBRANCH  28  30
BRANCH  28  34
ATOM     34  N   LIG d   1       0.683  -1.130 -11.322  0.00  0.00     0.222 N 
ATOM     35  H   LIG d   1       0.746  -1.669 -12.173  0.00  0.00     0.200 HD
ATOM     36  H   LIG d   1       0.038  -1.579 -10.688  0.00  0.00     0.200 HD
ATOM     37  H   LIG d   1       0.355  -0.201 -11.536  0.00  0.00     0.200 HD
ENDBRANCH  28  34
ENDBRANCH   1  28
TORSDOF 4
ENDMDL
MODEL 5
REMARK VINA RESULT:      -4.8      1.673      2.120
REMARK  4 active torsions:
REMARK  status: ('A' for Active; 'I' for Inactive)
REMARK    1  A    between atoms: C_1  and  C_2 
REMARK    2  A    between atoms: C_2  and  C_4 
REMARK    3  A    between atoms: C_2  and  N_19 
REMARK    4  A    between atoms: C_8  and  C_11 
REMARK       I    between atoms: C_11  and  N_13 
ROOT
ATOM      1  C   LIG d   1       4.046   0.012  -8.897  0.00  0.00     0.102 C 
ATOM      2  H   LIG d   1       5.091   0.007  -9.209  0.00  0.00     0.065 H 
ATOM      3  C   LIG d   1       3.558  -1.429  -8.603  0.00  0.00    -0.018 C 
ATOM      4  C   LIG d   1       4.082  -1.660  -7.164  0.00  0.00    -0.015 C 
ATOM      5  C   LIG d   1       4.305  -0.239  -6.611  0.00  0.00     0.135 C 
ATOM      6  H   LIG d   1       5.361  -0.094  -6.381  0.00  0.00     0.069 H 
ATOM      7  O   LIG d   1       3.896   0.688  -7.631  0.00  0.00    -0.359 OA
ATOM      8  H   LIG d   1       2.470  -1.486  -8.634  0.00  0.00     0.029 H 
ATOM      9  H   LIG d   1       4.003  -2.141  -9.298  0.00  0.00     0.029 H 
ATOM     10  H   LIG d   1       3.337  -2.190  -6.568  0.00  0.00     0.030 H 
ATOM     11  H   LIG d   1       5.020  -2.215  -7.184  0.00  0.00     0.030 H 
ENDROOT
BRANCH   5  12
ATOM     12  C   LIG d   1       3.478  -0.039  -5.367  0.00  0.00     0.245 C 
ATOM     13  O   LIG d   1       2.274   0.078  -5.453  0.00  0.00    -0.273 OA
ATOM     14  N   LIG d   1       4.075   0.010  -4.160  0.00  0.00    -0.295 N 
ATOM     15  C   LIG d   1       3.289   0.207  -2.932  0.00  0.00     0.038 C 
ATOM     16  C   LIG d   1       5.536  -0.122  -4.032  0.00  0.00     0.038 C 
ATOM     17  C   LIG d   1       3.916   1.345  -2.127  0.00  0.00     0.064 C 
ATOM     18  H   LIG d   1       2.262   0.464  -3.192  0.00  0.00     0.049 H 
ATOM     19  H   LIG d   1       3.300  -0.709  -2.340  0.00  0.00     0.049 H 
ATOM     20  O   LIG d   1       5.311   1.087  -1.952  0.00  0.00    -0.377 OA
ATOM     21  H   LIG d   1       3.434   1.411  -1.152  0.00  0.00     0.058 H 
ATOM     22  H   LIG d   1       3.782   2.284  -2.664  0.00  0.00     0.058 H 
ATOM     23  C   LIG d   1       6.053   1.037  -3.173  0.00  0.00     0.064 C 
ATOM     24  H   LIG d   1       7.109   0.883  -2.952  0.00  0.00     0.058 H 
ATOM     25  H   LIG d   1       5.928   1.975  -3.715  0.00  0.00     0.058 H 
ATOM     26  H   LIG d   1       5.777  -1.071  -3.552  0.00  0.00     0.049 H 
ATOM     27  H   LIG d   1       5.996  -0.083  -5.019  0.00  0.00     0.049 H 
ENDBRANCH   5  12
BRANCH   1  28
ATOM     28  C   LIG d   1       3.171   0.669  -9.967  0.00  0.00    -0.000 C 
ATOM     29  H   LIG d   1       2.265   1.061  -9.504  0.00  0.00     0.087 H 
BRANCH  28  30
ATOM     30  C   LIG d   1       2.794  -0.369 -11.026  0.00  0.00    -0.019 C 
ATOM     31  H   LIG d   1       3.506  -1.193 -10.997  0.00  0.00     0.029 H 
ATOM     32  H   LIG d   1       1.791  -0.746 -10.825  0.00  0.00     0.029 H 
ATOM     33  H   LIG d   1       2.816   0.096 -12.012  0.00  0.00     0.029 H 
ENDBRANCH  28  30
BRANCH  28  34
ATOM     34  N   LIG d   1       3.912   1.767 -10.600  0.00  0.00     0.222 N 
ATOM     35  H   LIG d   1       3.794   2.609 -10.056  0.00  0.00     0.200 HD
ATOM     36  H   LIG d   1       4.892   1.530 -10.643  0.00  0.00     0.200 HD
ATOM     37  H   LIG d   1       3.560   1.918 -11.533  0.00  0.00     0.200 HD
ENDBRANCH  28  34
ENDBRANCH   1  28
TORSDOF 4
ENDMDL
MODEL 6
REMARK VINA RESULT:      -4.4      5.086      6.086
REMARK  4 active torsions:
REMARK  status: ('A' for Active; 'I' for Inactive)
REMARK    1  A    between atoms: C_1  and  C_2 
REMARK    2  A    between atoms: C_2  and  C_4 
REMARK    3  A    between atoms: C_2  and  N_19 
REMARK    4  A    between atoms: C_8  and  C_11 
REMARK       I    between atoms: C_11  and  N_13 
ROOT
ATOM      1  C   LIG d   1       9.975   3.402  -3.550  0.00  0.00     0.102 C 
ATOM      2  H   LIG d   1      10.952   3.007  -3.828  0.00  0.00     0.065 H 
ATOM      3  C   LIG d   1       9.211   3.900  -4.803  0.00  0.00    -0.018 C 
ATOM      4  C   LIG d   1       8.621   2.585  -5.366  0.00  0.00    -0.015 C 
ATOM      5  C   LIG d   1       8.629   1.621  -4.163  0.00  0.00     0.135 C 
ATOM      6  H   LIG d   1       9.281   0.773  -4.373  0.00  0.00     0.069 H 
ATOM      7  O   LIG d   1       9.131   2.352  -3.031  0.00  0.00    -0.359 OA
ATOM      8  H   LIG d   1       8.418   4.595  -4.524  0.00  0.00     0.029 H 
ATOM      9  H   LIG d   1       9.893   4.358  -5.518  0.00  0.00     0.029 H 
ATOM     10  H   LIG d   1       7.602   2.745  -5.720  0.00  0.00     0.030 H 
ATOM     11  H   LIG d   1       9.248   2.198  -6.169  0.00  0.00     0.030 H 
ENDROOT
BRANCH   5  12
ATOM     12  C   LIG d   1       7.230   1.135  -3.887  0.00  0.00     0.245 C 
ATOM     13  O   LIG d   1       6.436   1.861  -3.327  0.00  0.00    -0.273 OA
ATOM     14  N   LIG d   1       6.860  -0.106  -4.261  0.00  0.00    -0.295 N 
ATOM     15  C   LIG d   1       5.500  -0.603  -4.001  0.00  0.00     0.038 C 
ATOM     16  C   LIG d   1       7.809  -1.008  -4.935  0.00  0.00     0.038 C 
ATOM     17  C   LIG d   1       5.601  -1.968  -3.320  0.00  0.00     0.064 C 
ATOM     18  H   LIG d   1       4.973   0.094  -3.348  0.00  0.00     0.049 H 
ATOM     19  H   LIG d   1       4.960  -0.704  -4.943  0.00  0.00     0.049 H 
ATOM     20  O   LIG d   1       6.450  -2.819  -4.093  0.00  0.00    -0.377 OA
ATOM     21  H   LIG d   1       4.608  -2.414  -3.248  0.00  0.00     0.058 H 
ATOM     22  H   LIG d   1       6.019  -1.844  -2.321  0.00  0.00     0.058 H 
ATOM     23  C   LIG d   1       7.797  -2.355  -4.204  0.00  0.00     0.064 C 
ATOM     24  H   LIG d   1       8.387  -3.079  -4.767  0.00  0.00     0.058 H 
ATOM     25  H   LIG d   1       8.224  -2.232  -3.209  0.00  0.00     0.058 H 
ATOM     26  H   LIG d   1       7.506  -1.150  -5.972  0.00  0.00     0.049 H 
ATOM     27  H   LIG d   1       8.811  -0.579  -4.900  0.00  0.00     0.049 H 
ENDBRANCH   5  12
BRANCH   1  28
ATOM     28  C   LIG d   1      10.124   4.529  -2.526  0.00  0.00    -0.000 C 
ATOM     29  H   LIG d   1       9.162   4.716  -2.048  0.00  0.00     0.087 H 
BRANCH  28  30
ATOM     30  C   LIG d   1      10.598   5.801  -3.232  0.00  0.00    -0.019 C 
ATOM     31  H   LIG d   1      11.664   5.723  -3.444  0.00  0.00     0.029 H 
ATOM     32  H   LIG d   1      10.049   5.924  -4.166  0.00  0.00     0.029 H 
ATOM     33  H   LIG d   1      10.418   6.662  -2.588  0.00  0.00     0.029 H 
ENDBRANCH  28  30
BRANCH  28  34
ATOM     34  N   LIG d   1      11.109   4.140  -1.508  0.00  0.00     0.222 N 
ATOM     35  H   LIG d   1      11.995   3.952  -1.952  0.00  0.00     0.200 HD
ATOM     36  H   LIG d   1      11.219   4.891  -0.842  0.00  0.00     0.200 HD
ATOM     37  H   LIG d   1      10.789   3.311  -1.030  0.00  0.00     0.200 HD
ENDBRANCH  28  34
ENDBRANCH   1  28
TORSDOF 4
ENDMDL
MODEL 7
REMARK VINA RESULT:      -4.3      4.082      5.127
REMARK  4 active torsions:
REMARK  status: ('A' for Active; 'I' for Inactive)
REMARK    1  A    between atoms: C_1  and  C_2 
REMARK    2  A    between atoms: C_2  and  C_4 
REMARK    3  A    between atoms: C_2  and  N_19 
REMARK    4  A    between atoms: C_8  and  C_11 
REMARK       I    between atoms: C_11  and  N_13 
ROOT
ATOM      1  C   LIG d   1       9.168   2.123  -3.642  0.00  0.00     0.102 C 
ATOM      2  H   LIG d   1       9.708   1.704  -2.793  0.00  0.00     0.065 H 
ATOM      3  C   LIG d   1       9.643   1.473  -4.966  0.00  0.00    -0.018 C 
ATOM      4  C   LIG d   1       8.837   0.152  -4.987  0.00  0.00    -0.015 C 
ATOM      5  C   LIG d   1       7.652   0.418  -4.037  0.00  0.00     0.135 C 
ATOM      6  H   LIG d   1       7.698  -0.266  -3.189  0.00  0.00     0.069 H 
ATOM      7  O   LIG d   1       7.769   1.775  -3.576  0.00  0.00    -0.359 OA
ATOM      8  H   LIG d   1       9.387   2.099  -5.821  0.00  0.00     0.029 H 
ATOM      9  H   LIG d   1      10.715   1.275  -4.940  0.00  0.00     0.029 H 
ATOM     10  H   LIG d   1       8.478  -0.060  -5.995  0.00  0.00     0.030 H 
ATOM     11  H   LIG d   1       9.446  -0.672  -4.616  0.00  0.00     0.030 H 
ENDROOT
BRANCH   5  12
ATOM     12  C   LIG d   1       6.352   0.231  -4.776  0.00  0.00     0.245 C 
ATOM     13  O   LIG d   1       6.285   0.494  -5.959  0.00  0.00    -0.273 OA
ATOM     14  N   LIG d   1       5.266  -0.227  -4.125  0.00  0.00    -0.295 N 
ATOM     15  C   LIG d   1       3.985  -0.416  -4.825  0.00  0.00     0.038 C 
ATOM     16  C   LIG d   1       5.321  -0.546  -2.688  0.00  0.00     0.038 C 
ATOM     17  C   LIG d   1       2.883   0.277  -4.024  0.00  0.00     0.064 C 
ATOM     18  H   LIG d   1       4.044   0.022  -5.822  0.00  0.00     0.049 H 
ATOM     19  H   LIG d   1       3.764  -1.481  -4.904  0.00  0.00     0.049 H 
ATOM     20  O   LIG d   1       2.935  -0.167  -2.667  0.00  0.00    -0.377 OA
ATOM     21  H   LIG d   1       1.911   0.029  -4.450  0.00  0.00     0.058 H 
ATOM     22  H   LIG d   1       3.033   1.356  -4.061  0.00  0.00     0.058 H 
ATOM     23  C   LIG d   1       4.153   0.158  -1.991  0.00  0.00     0.064 C 
ATOM     24  H   LIG d   1       4.094  -0.173  -0.954  0.00  0.00     0.058 H 
ATOM     25  H   LIG d   1       4.308   1.237  -2.020  0.00  0.00     0.058 H 
ATOM     26  H   LIG d   1       5.237  -1.623  -2.549  0.00  0.00     0.049 H 
ATOM     27  H   LIG d   1       6.265  -0.193  -2.271  0.00  0.00     0.049 H 
ENDBRANCH   5  12
BRANCH   1  28
ATOM     28  C   LIG d   1       9.343   3.642  -3.694  0.00  0.00    -0.000 C 
ATOM     29  H   LIG d   1       8.369   4.124  -3.612  0.00  0.00     0.087 H 
BRANCH  28  30
ATOM     30  C   LIG d   1       9.997   4.036  -5.020  0.00  0.00    -0.019 C 
ATOM     31  H   LIG d   1       9.231   4.379  -5.715  0.00  0.00     0.029 H 
ATOM     32  H   LIG d   1      10.717   4.836  -4.847  0.00  0.00     0.029 H 
ATOM     33  H   LIG d   1      10.509   3.171  -5.442  0.00  0.00     0.029 H 
ENDBRANCH  28  30
BRANCH  28  34
ATOM     34  N   LIG d   1      10.197   4.075  -2.580  0.00  0.00     0.222 N 
ATOM     35  H   LIG d   1       9.630   4.522  -1.876  0.00  0.00     0.200 HD
ATOM     36  H   LIG d   1      10.659   3.272  -2.179  0.00  0.00     0.200 HD
ATOM     37  H   LIG d   1      10.889   4.726  -2.919  0.00  0.00     0.200 HD
ENDBRANCH  28  34
ENDBRANCH   1  28
TORSDOF 4
ENDMDL
MODEL 8
REMARK VINA RESULT:      -4.3      2.491      5.418
REMARK  4 active torsions:
REMARK  status: ('A' for Active; 'I' for Inactive)
REMARK    1  A    between atoms: C_1  and  C_2 
REMARK    2  A    between atoms: C_2  and  C_4 
REMARK    3  A    between atoms: C_2  and  N_19 
REMARK    4  A    between atoms: C_8  and  C_11 
REMARK       I    between atoms: C_11  and  N_13 
ROOT
ATOM      1  C   LIG d   1       5.792   0.220  -3.629  0.00  0.00     0.102 C 
ATOM      2  H   LIG d   1       5.219   0.971  -3.085  0.00  0.00     0.065 H 
ATOM      3  C   LIG d   1       5.394  -1.207  -3.174  0.00  0.00    -0.018 C 
ATOM      4  C   LIG d   1       4.107  -1.461  -3.995  0.00  0.00    -0.015 C 
ATOM      5  C   LIG d   1       4.204  -0.465  -5.167  0.00  0.00     0.135 C 
ATOM      6  H   LIG d   1       3.374   0.242  -5.121  0.00  0.00     0.069 H 
ATOM      7  O   LIG d   1       5.451   0.238  -5.031  0.00  0.00    -0.359 OA
ATOM      8  H   LIG d   1       6.170  -1.928  -3.432  0.00  0.00     0.029 H 
ATOM      9  H   LIG d   1       5.184  -1.230  -2.105  0.00  0.00     0.029 H 
ATOM     10  H   LIG d   1       4.088  -2.487  -4.367  0.00  0.00     0.030 H 
ATOM     11  H   LIG d   1       3.223  -1.257  -3.392  0.00  0.00     0.030 H 
ENDROOT
BRANCH   5  12
ATOM     12  C   LIG d   1       4.169  -1.210  -6.477  0.00  0.00     0.245 C 
ATOM     13  O   LIG d   1       4.746  -2.271  -6.585  0.00  0.00    -0.273 OA
ATOM     14  N   LIG d   1       3.496  -0.699  -7.527  0.00  0.00    -0.295 N 
ATOM     15  C   LIG d   1       3.449  -1.408  -8.815  0.00  0.00     0.038 C 
ATOM     16  C   LIG d   1       2.793   0.591  -7.421  0.00  0.00     0.038 C 
ATOM     17  C   LIG d   1       3.839  -0.431  -9.924  0.00  0.00     0.064 C 
ATOM     18  H   LIG d   1       4.149  -2.244  -8.800  0.00  0.00     0.049 H 
ATOM     19  H   LIG d   1       2.439  -1.778  -8.993  0.00  0.00     0.049 H 
ATOM     20  O   LIG d   1       3.037   0.747  -9.820  0.00  0.00    -0.377 OA
ATOM     21  H   LIG d   1       3.674  -0.897 -10.896  0.00  0.00     0.058 H 
ATOM     22  H   LIG d   1       4.891  -0.167  -9.821  0.00  0.00     0.058 H 
ATOM     23  C   LIG d   1       3.219   1.471  -8.600  0.00  0.00     0.064 C 
ATOM     24  H   LIG d   1       2.610   2.375  -8.618  0.00  0.00     0.058 H 
ATOM     25  H   LIG d   1       4.269   1.743  -8.491  0.00  0.00     0.058 H 
ATOM     26  H   LIG d   1       1.717   0.425  -7.456  0.00  0.00     0.049 H 
ATOM     27  H   LIG d   1       3.060   1.078  -6.483  0.00  0.00     0.049 H 
ENDBRANCH   5  12
BRANCH   1  28
ATOM     28  C   LIG d   1       7.293   0.448  -3.437  0.00  0.00    -0.000 C 
ATOM     29  H   LIG d   1       7.526   0.456  -2.372  0.00  0.00     0.087 H 
BRANCH  28  30
ATOM     30  C   LIG d   1       7.689   1.790  -4.056  0.00  0.00    -0.019 C 
ATOM     31  H   LIG d   1       6.867   2.164  -4.667  0.00  0.00     0.029 H 
ATOM     32  H   LIG d   1       7.909   2.505  -3.264  0.00  0.00     0.029 H 
ATOM     33  H   LIG d   1       8.572   1.654  -4.680  0.00  0.00     0.029 H 
ENDBRANCH  28  30
BRANCH  28  34
ATOM     34  N   LIG d   1       8.040  -0.633  -4.093  0.00  0.00     0.222 N 
ATOM     35  H   LIG d   1       8.501  -0.272  -4.915  0.00  0.00     0.200 HD
ATOM     36  H   LIG d   1       8.732  -0.999  -3.454  0.00  0.00     0.200 HD
ATOM     37  H   LIG d   1       7.404  -1.369  -4.359  0.00  0.00     0.200 HD
ENDBRANCH  28  34
ENDBRANCH   1  28
TORSDOF 4
ENDMDL
MODEL 9
REMARK VINA RESULT:      -4.2     10.380     11.446
REMARK  4 active torsions:
REMARK  status: ('A' for Active; 'I' for Inactive)
REMARK    1  A    between atoms: C_1  and  C_2 
REMARK    2  A    between atoms: C_2  and  C_4 
REMARK    3  A    between atoms: C_2  and  N_19 
REMARK    4  A    between atoms: C_8  and  C_11 
REMARK       I    between atoms: C_11  and  N_13 
ROOT
ATOM      1  C   LIG d   1       9.825  10.746  -4.086  0.00  0.00     0.102 C 
ATOM      2  H   LIG d   1      10.729  11.295  -4.349  0.00  0.00     0.065 H 
ATOM      3  C   LIG d   1       9.427   9.773  -5.224  0.00  0.00    -0.018 C 
ATOM      4  C   LIG d   1      10.351   8.561  -4.953  0.00  0.00    -0.015 C 
ATOM      5  C   LIG d   1      10.749   8.714  -3.472  0.00  0.00     0.135 C 
ATOM      6  H   LIG d   1      11.828   8.854  -3.392  0.00  0.00     0.069 H 
ATOM      7  O   LIG d   1      10.069   9.874  -2.962  0.00  0.00    -0.359 OA
ATOM      8  H   LIG d   1       8.378   9.487  -5.143  0.00  0.00     0.029 H 
ATOM      9  H   LIG d   1       9.635  10.209  -6.201  0.00  0.00     0.029 H 
ATOM     10  H   LIG d   1       9.811   7.627  -5.108  0.00  0.00     0.030 H 
ATOM     11  H   LIG d   1      11.233   8.604  -5.592  0.00  0.00     0.030 H 
ENDROOT
BRANCH   5  12
ATOM     12  C   LIG d   1      10.333   7.488  -2.701  0.00  0.00     0.245 C 
ATOM     13  O   LIG d   1       9.260   6.969  -2.922  0.00  0.00    -0.273 OA
ATOM     14  N   LIG d   1      11.153   6.968  -1.766  0.00  0.00    -0.295 N 
ATOM     15  C   LIG d   1      10.767   5.772  -1.000  0.00  0.00     0.038 C 
ATOM     16  C   LIG d   1      12.458   7.585  -1.474  0.00  0.00     0.038 C 
ATOM     17  C   LIG d   1      10.963   6.062   0.488  0.00  0.00     0.064 C 
ATOM     18  H   LIG d   1       9.721   5.535  -1.192  0.00  0.00     0.049 H 
ATOM     19  H   LIG d   1      11.395   4.931  -1.294  0.00  0.00     0.049 H 
ATOM     20  O   LIG d   1      12.288   6.553   0.703  0.00  0.00    -0.377 OA
ATOM     21  H   LIG d   1      10.819   5.145   1.061  0.00  0.00     0.058 H 
ATOM     22  H   LIG d   1      10.240   6.811   0.810  0.00  0.00     0.058 H 
ATOM     23  C   LIG d   1      12.568   7.788   0.040  0.00  0.00     0.064 C 
ATOM     24  H   LIG d   1      13.578   8.116   0.290  0.00  0.00     0.058 H 
ATOM     25  H   LIG d   1      11.851   8.544   0.360  0.00  0.00     0.058 H 
ATOM     26  H   LIG d   1      13.258   6.929  -1.817  0.00  0.00     0.049 H 
ATOM     27  H   LIG d   1      12.529   8.548  -1.981  0.00  0.00     0.049 H 
ENDBRANCH   5  12
BRANCH   1  28
ATOM     28  C   LIG d   1       8.680  11.714  -3.779  0.00  0.00    -0.000 C 
ATOM     29  H   LIG d   1       8.037  11.805  -4.655  0.00  0.00     0.087 H 
BRANCH  28  30
ATOM     30  C   LIG d   1       9.254  13.086  -3.422  0.00  0.00    -0.019 C 
ATOM     31  H   LIG d   1       9.665  13.056  -2.413  0.00  0.00     0.029 H 
ATOM     32  H   LIG d   1      10.042  13.346  -4.129  0.00  0.00     0.029 H 
ATOM     33  H   LIG d   1       8.462  13.834  -3.469  0.00  0.00     0.029 H 
ENDBRANCH  28  30
BRANCH  28  34
ATOM     34  N   LIG d   1       7.896  11.202  -2.648  0.00  0.00     0.222 N 
ATOM     35  H   LIG d   1       7.024  11.706  -2.588  0.00  0.00     0.200 HD
ATOM     36  H   LIG d   1       7.707  10.220  -2.786  0.00  0.00     0.200 HD
ATOM     37  H   LIG d   1       8.417  11.328  -1.793  0.00  0.00     0.200 HD
ENDBRANCH  28  34
ENDBRANCH   1  28
TORSDOF 4
ENDMDL
MODEL 10
REMARK VINA RESULT:      -4.1      2.333      5.827
REMARK  4 active torsions:
REMARK  status: ('A' for Active; 'I' for Inactive)
REMARK    1  A    between atoms: C_1  and  C_2 
REMARK    2  A    between atoms: C_2  and  C_4 
REMARK    3  A    between atoms: C_2  and  N_19 
REMARK    4  A    between atoms: C_8  and  C_11 
REMARK       I    between atoms: C_11  and  N_13 
ROOT
ATOM      1  C   LIG d   1       5.141  -2.905  -5.294  0.00  0.00     0.102 C 
ATOM      2  H   LIG d   1       6.206  -2.867  -5.069  0.00  0.00     0.065 H 
ATOM      3  C   LIG d   1       4.328  -2.137  -4.221  0.00  0.00    -0.018 C 
ATOM      4  C   LIG d   1       4.470  -0.671  -4.695  0.00  0.00    -0.015 C 
ATOM      5  C   LIG d   1       4.841  -0.790  -6.186  0.00  0.00     0.135 C 
ATOM      6  H   LIG d   1       5.829  -0.362  -6.357  0.00  0.00     0.069 H 
ATOM      7  O   LIG d   1       4.854  -2.190  -6.515  0.00  0.00    -0.359 OA
ATOM      8  H   LIG d   1       3.283  -2.449  -4.227  0.00  0.00     0.029 H 
ATOM      9  H   LIG d   1       4.766  -2.271  -3.232  0.00  0.00     0.029 H 
ATOM     10  H   LIG d   1       3.525  -0.139  -4.578  0.00  0.00     0.030 H 
ATOM     11  H   LIG d   1       5.264  -0.167  -4.143  0.00  0.00     0.030 H 
ENDROOT
BRANCH   5  12
ATOM     12  C   LIG d   1       3.818  -0.069  -7.027  0.00  0.00     0.245 C 
ATOM     13  O   LIG d   1       2.640  -0.155  -6.752  0.00  0.00    -0.273 OA
ATOM     14  N   LIG d   1       4.212   0.669  -8.083  0.00  0.00    -0.295 N 
ATOM     15  C   LIG d   1       3.232   1.380  -8.919  0.00  0.00     0.038 C 
ATOM     16  C   LIG d   1       5.636   0.782  -8.440  0.00  0.00     0.038 C 
ATOM     17  C   LIG d   1       3.501   1.039 -10.384  0.00  0.00     0.064 C 
ATOM     18  H   LIG d   1       2.223   1.067  -8.649  0.00  0.00     0.049 H 
ATOM     19  H   LIG d   1       3.335   2.456  -8.769  0.00  0.00     0.049 H 
ATOM     20  O   LIG d   1       4.879   1.279 -10.679  0.00  0.00    -0.377 OA
ATOM     21  H   LIG d   1       2.878   1.664 -11.025  0.00  0.00     0.058 H 
ATOM     22  H   LIG d   1       3.267  -0.010 -10.560  0.00  0.00     0.058 H 
ATOM     23  C   LIG d   1       5.787   0.466  -9.932  0.00  0.00     0.064 C 
ATOM     24  H   LIG d   1       6.809   0.677 -10.246  0.00  0.00     0.058 H 
ATOM     25  H   LIG d   1       5.562  -0.586 -10.106  0.00  0.00     0.058 H 
ATOM     26  H   LIG d   1       5.985   1.795  -8.242  0.00  0.00     0.049 H 
ATOM     27  H   LIG d   1       6.219   0.071  -7.853  0.00  0.00     0.049 H 
ENDBRANCH   5  12
BRANCH   1  28
ATOM     28  C   LIG d   1       4.665  -4.356  -5.395  0.00  0.00    -0.000 C 
ATOM     29  H   LIG d   1       4.283  -4.681  -4.427  0.00  0.00     0.087 H 
BRANCH  28  30
ATOM     30  C   LIG d   1       5.836  -5.250  -5.809  0.00  0.00    -0.019 C 
ATOM     31  H   LIG d   1       6.726  -4.964  -5.249  0.00  0.00     0.029 H 
ATOM     32  H   LIG d   1       5.591  -6.290  -5.597  0.00  0.00     0.029 H 
ATOM     33  H   LIG d   1       6.024  -5.130  -6.876  0.00  0.00     0.029 H 
ENDBRANCH  28  30
BRANCH  28  34
ATOM     34  N   LIG d   1       3.597  -4.453  -6.399  0.00  0.00     0.222 N 
ATOM     35  H   LIG d   1       4.002  -4.434  -7.323  0.00  0.00     0.200 HD
ATOM     36  H   LIG d   1       3.093  -5.317  -6.271  0.00  0.00     0.200 HD
ATOM     37  H   LIG d   1       2.964  -3.674  -6.294  0.00  0.00     0.200 HD
ENDBRANCH  28  34
ENDBRANCH   1  28
TORSDOF 4
ENDMDL
