MODEL 1
REMARK VINA RESULT:      -6.9      0.000      0.000
REMARK  15 active torsions:
REMARK  status: ('A' for Active; 'I' for Inactive)
REMARK    1  A    between atoms: C_1  and  C_2 
REMARK    2  A    between atoms: C_5  and  O_40 
REMARK    3  A    between atoms: C_7  and  C_37 
REMARK    4  A    between atoms: C_7  and  C_38 
REMARK    5  A    between atoms: C_14  and  N_16 
REMARK       I    between atoms: N_16  and  C_17 
REMARK    6  A    between atoms: C_17  and  C_19 
REMARK    7  A    between atoms: C_19  and  C_20 
REMARK    8  A    between atoms: C_20  and  C_21 
REMARK    9  A    between atoms: C_20  and  C_22 
REMARK   10  A    between atoms: C_20  and  C_23 
REMARK   11  A    between atoms: C_24  and  C_26 
REMARK   12  A    between atoms: C_26  and  C_27 
REMARK       I    between atoms: C_27  and  N_29 
REMARK   13  A    between atoms: N_29  and  C_30 
REMARK   14  A    between atoms: C_34  and  O_36 
REMARK   15  A    between atoms: C_38  and  O_39 
ROOT
ATOM      1  C   LIG d   1      10.098   3.166  -4.606  0.00  0.00    -0.019 C 
ATOM      2  C   LIG d   1      10.205   3.379  -3.092  0.00  0.00    -0.044 C 
ATOM      3  C   LIG d   1      11.538   4.038  -2.741  0.00  0.00    -0.026 C 
ATOM      4  C   LIG d   1      11.612   5.401  -3.436  0.00  0.00     0.063 C 
ATOM      5  H   LIG d   1      10.771   6.019  -3.120  0.00  0.00     0.060 H 
ATOM      6  C   LIG d   1      11.546   5.199  -4.950  0.00  0.00     0.021 C 
ATOM      7  C   LIG d   1      10.237   4.503  -5.338  0.00  0.00    -0.021 C 
ATOM      8  H   LIG d   1       9.390   5.146  -5.101  0.00  0.00     0.032 H 
ATOM      9  C   LIG d   1      10.294   4.240  -6.855  0.00  0.00    -0.016 C 
ATOM     10  C   LIG d   1       9.226   3.269  -7.218  0.00  0.00     0.015 A 
ATOM     11  C   LIG d   1       8.504   2.479  -6.385  0.00  0.00     0.058 A 
ATOM     12  N   LIG d   1       7.603   1.688  -6.964  0.00  0.00    -0.229 NA
ATOM     13  C   LIG d   1       7.418   1.674  -8.268  0.00  0.00     0.165 A 
ATOM     14  S   LIG d   1       8.577   2.848  -8.813  0.00  0.00    -0.057 SA
ATOM     15  C   LIG d   1       8.743   2.533  -4.884  0.00  0.00     0.016 C 
ATOM     16  H   LIG d   1       7.964   3.134  -4.413  0.00  0.00     0.037 H 
ATOM     17  H   LIG d   1       9.388   4.019  -2.759  0.00  0.00     0.027 H 
ATOM     18  H   LIG d   1      10.138   2.416  -2.587  0.00  0.00     0.027 H 
ATOM     19  H   LIG d   1      11.605   4.174  -1.662  0.00  0.00     0.029 H 
ATOM     20  H   LIG d   1      12.359   3.407  -3.084  0.00  0.00     0.029 H 
ATOM     21  H   LIG d   1      10.135   5.175  -7.393  0.00  0.00     0.032 H 
ATOM     22  H   LIG d   1      11.268   3.828  -7.117  0.00  0.00     0.032 H 
ENDROOT
BRANCH  13  23
ATOM     23  N   LIG d   1       6.525   0.914  -9.015  0.00  0.00    -0.265 N 
ATOM     24  C   LIG d   1       5.412   1.483  -9.518  0.00  0.00     0.219 C 
ATOM     25  O   LIG d   1       5.189   2.658  -9.318  0.00  0.00    -0.275 OA
ATOM     26  H   LIG d   1       6.704  -0.027  -9.175  0.00  0.00     0.157 HD
BRANCH  24  27
ATOM     27  C   LIG d   1       4.445   0.658 -10.327  0.00  0.00     0.029 C 
ATOM     28  H   LIG d   1       4.137   1.221 -11.209  0.00  0.00     0.036 H 
ATOM     29  H   LIG d   1       4.927  -0.268 -10.637  0.00  0.00     0.036 H 
BRANCH  27  30
ATOM     30  C   LIG d   1       3.215   0.334  -9.476  0.00  0.00    -0.029 C 
BRANCH  30  31
ATOM     31  C   LIG d   1       3.632  -0.538  -8.289  0.00  0.00    -0.060 C 
ATOM     32  H   LIG d   1       3.834   0.096  -7.427  0.00  0.00     0.024 H 
ATOM     33  H   LIG d   1       2.827  -1.233  -8.050  0.00  0.00     0.024 H 
ATOM     34  H   LIG d   1       4.530  -1.097  -8.548  0.00  0.00     0.024 H 
ENDBRANCH  30  31
BRANCH  30  35
ATOM     35  C   LIG d   1       2.593   1.634  -8.961  0.00  0.00    -0.060 C 
ATOM     36  H   LIG d   1       1.832   1.975  -9.663  0.00  0.00     0.024 H 
ATOM     37  H   LIG d   1       2.136   1.458  -7.988  0.00  0.00     0.024 H 
ATOM     38  H   LIG d   1       3.369   2.394  -8.867  0.00  0.00     0.024 H 
ENDBRANCH  30  35
BRANCH  30  39
ATOM     39  C   LIG d   1       2.191  -0.420 -10.327  0.00  0.00    -0.060 C 
ATOM     40  H   LIG d   1       2.257  -1.486 -10.115  0.00  0.00     0.024 H 
ATOM     41  H   LIG d   1       1.189  -0.063 -10.090  0.00  0.00     0.024 H 
ATOM     42  H   LIG d   1       2.397  -0.246 -11.383  0.00  0.00     0.024 H 
ENDBRANCH  30  39
ENDBRANCH  27  30
ENDBRANCH  24  27
ENDBRANCH  13  23
BRANCH  15  43
ATOM     43  C   LIG d   1       8.710   1.115  -4.310  0.00  0.00     0.033 C 
ATOM     44  H   LIG d   1       8.993   0.403  -5.085  0.00  0.00     0.036 H 
ATOM     45  H   LIG d   1       9.410   1.043  -3.478  0.00  0.00     0.036 H 
BRANCH  43  46
ATOM     46  C   LIG d   1       7.318   0.802  -3.824  0.00  0.00     0.218 C 
ATOM     47  O   LIG d   1       6.737   1.586  -3.104  0.00  0.00    -0.276 OA
ATOM     48  N   LIG d   1       6.719  -0.349  -4.191  0.00  0.00    -0.285 N 
ATOM     49  H   LIG d   1       7.205  -1.001  -4.719  0.00  0.00     0.155 HD
BRANCH  48  50
ATOM     50  C   LIG d   1       5.397  -0.601  -3.810  0.00  0.00     0.037 A 
ATOM     51  C   LIG d   1       4.348  -0.145  -4.595  0.00  0.00     0.001 A 
ATOM     52  C   LIG d   1       3.039  -0.402  -4.216  0.00  0.00     0.119 A 
ATOM     53  H   LIG d   1       4.551   0.406  -5.501  0.00  0.00     0.067 H 
ATOM     54  C   LIG d   1       2.781  -1.105  -3.048  0.00  0.00    -0.020 A 
ATOM     55  C   LIG d   1       3.828  -1.554  -2.265  0.00  0.00    -0.057 A 
ATOM     56  H   LIG d   1       1.761  -1.302  -2.751  0.00  0.00     0.065 H 
ATOM     57  C   LIG d   1       5.132  -1.305  -2.641  0.00  0.00    -0.040 A 
ATOM     58  H   LIG d   1       3.623  -2.101  -1.355  0.00  0.00     0.062 H 
ATOM     59  H   LIG d   1       5.948  -1.656  -2.026  0.00  0.00     0.064 H 
BRANCH  52  60
ATOM     60  O   LIG d   1       2.010   0.039  -4.986  0.00  0.00    -0.507 OA
ATOM     61  H   LIG d   1       1.848   0.990  -4.920  0.00  0.00     0.292 HD
ENDBRANCH  52  60
ENDBRANCH  48  50
ENDBRANCH  43  46
ENDBRANCH  15  43
BRANCH   1  62
ATOM     62  C   LIG d   1      11.194   2.208  -5.076  0.00  0.00    -0.059 C 
ATOM     63  H   LIG d   1      11.151   2.111  -6.161  0.00  0.00     0.024 H 
ATOM     64  H   LIG d   1      12.169   2.599  -4.785  0.00  0.00     0.024 H 
ATOM     65  H   LIG d   1      11.044   1.230  -4.618  0.00  0.00     0.024 H 
ENDBRANCH   1  62
BRANCH   6  66
ATOM     66  C   LIG d   1      11.629   6.551  -5.660  0.00  0.00    -0.055 C 
ATOM     67  H   LIG d   1      11.235   6.454  -6.672  0.00  0.00     0.024 H 
ATOM     68  H   LIG d   1      11.043   7.288  -5.111  0.00  0.00     0.024 H 
ATOM     69  H   LIG d   1      12.669   6.875  -5.704  0.00  0.00     0.024 H 
ENDBRANCH   6  66
BRANCH   6  70
ATOM     70  C   LIG d   1      12.729   4.329  -5.384  0.00  0.00     0.052 C 
ATOM     71  H   LIG d   1      12.995   3.650  -4.575  0.00  0.00     0.056 H 
ATOM     72  H   LIG d   1      12.452   3.754  -6.267  0.00  0.00     0.056 H 
BRANCH  70  73
ATOM     73  O   LIG d   1      13.846   5.166  -5.692  0.00  0.00    -0.394 OA
ATOM     74  H   LIG d   1      14.704   4.734  -5.577  0.00  0.00     0.209 HD
ENDBRANCH  70  73
ENDBRANCH   6  70
BRANCH   4  75
ATOM     75  O   LIG d   1      12.839   6.048  -3.093  0.00  0.00    -0.391 OA
ATOM     76  H   LIG d   1      12.723   6.876  -2.606  0.00  0.00     0.210 HD
ENDBRANCH   4  75
TORSDOF 15
ENDMDL
MODEL 2
REMARK VINA RESULT:      -6.3      3.126      6.844
REMARK  15 active torsions:
REMARK  status: ('A' for Active; 'I' for Inactive)
REMARK    1  A    between atoms: C_1  and  C_2 
REMARK    2  A    between atoms: C_5  and  O_40 
REMARK    3  A    between atoms: C_7  and  C_37 
REMARK    4  A    between atoms: C_7  and  C_38 
REMARK    5  A    between atoms: C_14  and  N_16 
REMARK       I    between atoms: N_16  and  C_17 
REMARK    6  A    between atoms: C_17  and  C_19 
REMARK    7  A    between atoms: C_19  and  C_20 
REMARK    8  A    between atoms: C_20  and  C_21 
REMARK    9  A    between atoms: C_20  and  C_22 
REMARK   10  A    between atoms: C_20  and  C_23 
REMARK   11  A    between atoms: C_24  and  C_26 
REMARK   12  A    between atoms: C_26  and  C_27 
REMARK       I    between atoms: C_27  and  N_29 
REMARK   13  A    between atoms: N_29  and  C_30 
REMARK   14  A    between atoms: C_34  and  O_36 
REMARK   15  A    between atoms: C_38  and  O_39 
ROOT
ATOM      1  C   LIG d   1      11.024   4.417  -5.085  0.00  0.00    -0.019 C 
ATOM      2  C   LIG d   1      11.836   5.655  -4.693  0.00  0.00    -0.044 C 
ATOM      3  C   LIG d   1      12.777   6.055  -5.828  0.00  0.00    -0.026 C 
ATOM      4  C   LIG d   1      11.942   6.386  -7.068  0.00  0.00     0.063 C 
ATOM      5  H   LIG d   1      11.243   7.190  -6.833  0.00  0.00     0.060 H 
ATOM      6  C   LIG d   1      11.156   5.146  -7.492  0.00  0.00     0.021 C 
ATOM      7  C   LIG d   1      10.227   4.691  -6.363  0.00  0.00    -0.021 C 
ATOM      8  H   LIG d   1       9.471   5.453  -6.173  0.00  0.00     0.032 H 
ATOM      9  C   LIG d   1       9.555   3.384  -6.824  0.00  0.00    -0.016 C 
ATOM     10  C   LIG d   1       8.925   2.722  -5.650  0.00  0.00     0.015 A 
ATOM     11  C   LIG d   1       9.129   2.992  -4.336  0.00  0.00     0.058 A 
ATOM     12  N   LIG d   1       8.440   2.249  -3.473  0.00  0.00    -0.229 NA
ATOM     13  C   LIG d   1       7.606   1.309  -3.867  0.00  0.00     0.165 A 
ATOM     14  S   LIG d   1       7.740   1.404  -5.597  0.00  0.00    -0.057 SA
ATOM     15  C   LIG d   1      10.094   4.093  -3.924  0.00  0.00     0.016 C 
ATOM     16  H   LIG d   1       9.533   4.988  -3.656  0.00  0.00     0.037 H 
ATOM     17  H   LIG d   1      11.156   6.480  -4.481  0.00  0.00     0.027 H 
ATOM     18  H   LIG d   1      12.422   5.435  -3.802  0.00  0.00     0.027 H 
ATOM     19  H   LIG d   1      13.355   6.929  -5.531  0.00  0.00     0.029 H 
ATOM     20  H   LIG d   1      13.451   5.227  -6.052  0.00  0.00     0.029 H 
ATOM     21  H   LIG d   1       8.790   3.610  -7.569  0.00  0.00     0.032 H 
ATOM     22  H   LIG d   1      10.304   2.723  -7.259  0.00  0.00     0.032 H 
ENDROOT
BRANCH  13  23
ATOM     23  N   LIG d   1       6.822   0.458  -3.096  0.00  0.00    -0.265 N 
ATOM     24  C   LIG d   1       5.550   0.793  -2.805  0.00  0.00     0.219 C 
ATOM     25  O   LIG d   1       5.088   1.837  -3.216  0.00  0.00    -0.275 OA
ATOM     26  H   LIG d   1       7.191  -0.377  -2.767  0.00  0.00     0.157 HD
BRANCH  24  27
ATOM     27  C   LIG d   1       4.700  -0.129  -1.969  0.00  0.00     0.029 C 
ATOM     28  H   LIG d   1       5.342  -0.729  -1.324  0.00  0.00     0.036 H 
ATOM     29  H   LIG d   1       4.019   0.461  -1.356  0.00  0.00     0.036 H 
BRANCH  27  30
ATOM     30  C   LIG d   1       3.894  -1.051  -2.886  0.00  0.00    -0.029 C 
BRANCH  30  31
ATOM     31  C   LIG d   1       3.739  -2.421  -2.223  0.00  0.00    -0.060 C 
ATOM     32  H   LIG d   1       4.714  -2.902  -2.152  0.00  0.00     0.024 H 
ATOM     33  H   LIG d   1       3.321  -2.296  -1.224  0.00  0.00     0.024 H 
ATOM     34  H   LIG d   1       3.071  -3.040  -2.821  0.00  0.00     0.024 H 
ENDBRANCH  30  31
BRANCH  30  35
ATOM     35  C   LIG d   1       2.511  -0.443  -3.133  0.00  0.00    -0.060 C 
ATOM     36  H   LIG d   1       1.856  -1.197  -3.570  0.00  0.00     0.024 H 
ATOM     37  H   LIG d   1       2.090  -0.101  -2.188  0.00  0.00     0.024 H 
ATOM     38  H   LIG d   1       2.603   0.401  -3.817  0.00  0.00     0.024 H 
ENDBRANCH  30  35
BRANCH  30  39
ATOM     39  C   LIG d   1       4.626  -1.209  -4.221  0.00  0.00    -0.060 C 
ATOM     40  H   LIG d   1       4.090  -1.923  -4.846  0.00  0.00     0.024 H 
ATOM     41  H   LIG d   1       4.672  -0.245  -4.726  0.00  0.00     0.024 H 
ATOM     42  H   LIG d   1       5.637  -1.573  -4.040  0.00  0.00     0.024 H 
ENDBRANCH  30  39
ENDBRANCH  27  30
ENDBRANCH  24  27
ENDBRANCH  13  23
BRANCH  15  43
ATOM     43  C   LIG d   1      10.917   3.627  -2.721  0.00  0.00     0.033 C 
ATOM     44  H   LIG d   1      10.345   2.892  -2.154  0.00  0.00     0.036 H 
ATOM     45  H   LIG d   1      11.846   3.175  -3.069  0.00  0.00     0.036 H 
BRANCH  43  46
ATOM     46  C   LIG d   1      11.231   4.808  -1.840  0.00  0.00     0.218 C 
ATOM     47  O   LIG d   1      12.371   5.007  -1.476  0.00  0.00    -0.276 OA
ATOM     48  N   LIG d   1      10.245   5.644  -1.457  0.00  0.00    -0.285 N 
ATOM     49  H   LIG d   1       9.326   5.453  -1.700  0.00  0.00     0.155 HD
BRANCH  48  50
ATOM     50  C   LIG d   1      10.549   6.787  -0.709  0.00  0.00     0.037 A 
ATOM     51  C   LIG d   1      10.885   6.671   0.632  0.00  0.00     0.001 A 
ATOM     52  C   LIG d   1      11.190   7.805   1.368  0.00  0.00     0.119 A 
ATOM     53  H   LIG d   1      10.911   5.699   1.101  0.00  0.00     0.067 H 
ATOM     54  C   LIG d   1      11.150   9.055   0.765  0.00  0.00    -0.020 A 
ATOM     55  C   LIG d   1      10.811   9.168  -0.570  0.00  0.00    -0.057 A 
ATOM     56  H   LIG d   1      11.385   9.938   1.340  0.00  0.00     0.065 H 
ATOM     57  C   LIG d   1      10.511   8.040  -1.308  0.00  0.00    -0.040 A 
ATOM     58  H   LIG d   1      10.780  10.142  -1.036  0.00  0.00     0.062 H 
ATOM     59  H   LIG d   1      10.246   8.132  -2.351  0.00  0.00     0.064 H 
BRANCH  52  60
ATOM     60  O   LIG d   1      11.524   7.694   2.681  0.00  0.00    -0.507 OA
ATOM     61  H   LIG d   1      11.992   6.878   2.901  0.00  0.00     0.292 HD
ENDBRANCH  52  60
ENDBRANCH  48  50
ENDBRANCH  43  46
ENDBRANCH  15  43
BRANCH   1  62
ATOM     62  C   LIG d   1      11.961   3.229  -5.311  0.00  0.00    -0.059 C 
ATOM     63  H   LIG d   1      12.476   3.349  -6.264  0.00  0.00     0.024 H 
ATOM     64  H   LIG d   1      12.694   3.185  -4.506  0.00  0.00     0.024 H 
ATOM     65  H   LIG d   1      11.382   2.306  -5.325  0.00  0.00     0.024 H 
ENDBRANCH   1  62
BRANCH   6  66
ATOM     66  C   LIG d   1      10.323   5.458  -8.737  0.00  0.00    -0.055 C 
ATOM     67  H   LIG d   1      10.015   6.503  -8.715  0.00  0.00     0.024 H 
ATOM     68  H   LIG d   1      10.921   5.276  -9.630  0.00  0.00     0.024 H 
ATOM     69  H   LIG d   1       9.441   4.819  -8.755  0.00  0.00     0.024 H 
ENDBRANCH   6  66
BRANCH   6  70
ATOM     70  C   LIG d   1      12.144   4.024  -7.818  0.00  0.00     0.052 C 
ATOM     71  H   LIG d   1      13.045   4.149  -7.219  0.00  0.00     0.056 H 
ATOM     72  H   LIG d   1      11.687   3.061  -7.591  0.00  0.00     0.056 H 
BRANCH  70  73
ATOM     73  O   LIG d   1      12.482   4.075  -9.206  0.00  0.00    -0.394 OA
ATOM     74  H   LIG d   1      13.430   3.997  -9.382  0.00  0.00     0.209 HD
ENDBRANCH  70  73
ENDBRANCH   6  70
BRANCH   4  75
ATOM     75  O   LIG d   1      12.803   6.795  -8.132  0.00  0.00    -0.391 OA
ATOM     76  H   LIG d   1      12.417   6.691  -9.012  0.00  0.00     0.210 HD
ENDBRANCH   4  75
TORSDOF 15
ENDMDL
MODEL 3
REMARK VINA RESULT:      -6.3      2.569      8.451
REMARK  15 active torsions:
REMARK  status: ('A' for Active; 'I' for Inactive)
REMARK    1  A    between atoms: C_1  and  C_2 
REMARK    2  A    between atoms: C_5  and  O_40 
REMARK    3  A    between atoms: C_7  and  C_37 
REMARK    4  A    between atoms: C_7  and  C_38 
REMARK    5  A    between atoms: C_14  and  N_16 
REMARK       I    between atoms: N_16  and  C_17 
REMARK    6  A    between atoms: C_17  and  C_19 
REMARK    7  A    between atoms: C_19  and  C_20 
REMARK    8  A    between atoms: C_20  and  C_21 
REMARK    9  A    between atoms: C_20  and  C_22 
REMARK   10  A    between atoms: C_20  and  C_23 
REMARK   11  A    between atoms: C_24  and  C_26 
REMARK   12  A    between atoms: C_26  and  C_27 
REMARK       I    between atoms: C_27  and  N_29 
REMARK   13  A    between atoms: N_29  and  C_30 
REMARK   14  A    between atoms: C_34  and  O_36 
REMARK   15  A    between atoms: C_38  and  O_39 
ROOT
ATOM      1  C   LIG d   1       3.463  -0.941  -9.792  0.00  0.00    -0.019 C 
ATOM      2  C   LIG d   1       2.255  -1.813  -9.436  0.00  0.00    -0.044 C 
ATOM      3  C   LIG d   1       1.588  -2.342 -10.705  0.00  0.00    -0.026 C 
ATOM      4  C   LIG d   1       2.601  -3.196 -11.474  0.00  0.00     0.063 C 
ATOM      5  H   LIG d   1       2.947  -4.013 -10.840  0.00  0.00     0.060 H 
ATOM      6  C   LIG d   1       3.795  -2.327 -11.869  0.00  0.00     0.021 C 
ATOM      7  C   LIG d   1       4.467  -1.745 -10.622  0.00  0.00    -0.021 C 
ATOM      8  H   LIG d   1       4.890  -2.548 -10.018  0.00  0.00     0.032 H 
ATOM      9  C   LIG d   1       5.586  -0.802 -11.105  0.00  0.00    -0.016 C 
ATOM     10  C   LIG d   1       6.031   0.046  -9.967  0.00  0.00     0.015 A 
ATOM     11  C   LIG d   1       5.404   0.235  -8.778  0.00  0.00     0.058 A 
ATOM     12  N   LIG d   1       6.011   1.053  -7.921  0.00  0.00    -0.229 NA
ATOM     13  C   LIG d   1       7.155   1.642  -8.204  0.00  0.00     0.165 A 
ATOM     14  S   LIG d   1       7.481   1.053  -9.806  0.00  0.00    -0.057 SA
ATOM     15  C   LIG d   1       4.089  -0.472  -8.487  0.00  0.00     0.016 C 
ATOM     16  H   LIG d   1       4.274  -1.336  -7.848  0.00  0.00     0.037 H 
ATOM     17  H   LIG d   1       2.584  -2.653  -8.824  0.00  0.00     0.027 H 
ATOM     18  H   LIG d   1       1.534  -1.219  -8.874  0.00  0.00     0.027 H 
ATOM     19  H   LIG d   1       0.726  -2.951 -10.437  0.00  0.00     0.029 H 
ATOM     20  H   LIG d   1       1.269  -1.505 -11.326  0.00  0.00     0.029 H 
ATOM     21  H   LIG d   1       6.427  -1.392 -11.471  0.00  0.00     0.032 H 
ATOM     22  H   LIG d   1       5.208  -0.169 -11.907  0.00  0.00     0.032 H 
ENDROOT
BRANCH  13  23
ATOM     23  N   LIG d   1       7.907   2.512  -7.423  0.00  0.00    -0.265 N 
ATOM     24  C   LIG d   1       8.970   2.052  -6.734  0.00  0.00     0.219 C 
ATOM     25  O   LIG d   1       9.271   0.879  -6.796  0.00  0.00    -0.275 OA
ATOM     26  H   LIG d   1       7.666   3.451  -7.373  0.00  0.00     0.157 HD
BRANCH  24  27
ATOM     27  C   LIG d   1       9.783   2.995  -5.887  0.00  0.00     0.029 C 
ATOM     28  H   LIG d   1      10.844   2.831  -6.077  0.00  0.00     0.036 H 
ATOM     29  H   LIG d   1       9.524   4.024  -6.136  0.00  0.00     0.036 H 
BRANCH  27  30
ATOM     30  C   LIG d   1       9.486   2.738  -4.408  0.00  0.00    -0.029 C 
BRANCH  30  31
ATOM     31  C   LIG d   1       9.530   4.061  -3.641  0.00  0.00    -0.060 C 
ATOM     32  H   LIG d   1      10.541   4.236  -3.277  0.00  0.00     0.024 H 
ATOM     33  H   LIG d   1       9.235   4.875  -4.304  0.00  0.00     0.024 H 
ATOM     34  H   LIG d   1       8.843   4.014  -2.797  0.00  0.00     0.024 H 
ENDBRANCH  30  31
BRANCH  30  35
ATOM     35  C   LIG d   1       8.096   2.113  -4.269  0.00  0.00    -0.060 C 
ATOM     36  H   LIG d   1       7.916   1.855  -3.225  0.00  0.00     0.024 H 
ATOM     37  H   LIG d   1       7.342   2.825  -4.602  0.00  0.00     0.024 H 
ATOM     38  H   LIG d   1       8.041   1.212  -4.880  0.00  0.00     0.024 H 
ENDBRANCH  30  35
BRANCH  30  39
ATOM     39  C   LIG d   1      10.535   1.782  -3.836  0.00  0.00    -0.060 C 
ATOM     40  H   LIG d   1      11.401   2.351  -3.502  0.00  0.00     0.024 H 
ATOM     41  H   LIG d   1      10.109   1.238  -2.993  0.00  0.00     0.024 H 
ATOM     42  H   LIG d   1      10.840   1.074  -4.607  0.00  0.00     0.024 H 
ENDBRANCH  30  39
ENDBRANCH  27  30
ENDBRANCH  24  27
ENDBRANCH  13  23
BRANCH  15  43
ATOM     43  C   LIG d   1       3.137   0.493  -7.777  0.00  0.00     0.033 C 
ATOM     44  H   LIG d   1       3.450   1.519  -7.969  0.00  0.00     0.036 H 
ATOM     45  H   LIG d   1       2.124   0.346  -8.152  0.00  0.00     0.036 H 
BRANCH  43  46
ATOM     46  C   LIG d   1       3.168   0.227  -6.294  0.00  0.00     0.218 C 
ATOM     47  O   LIG d   1       2.160   0.364  -5.633  0.00  0.00    -0.276 OA
ATOM     48  N   LIG d   1       4.315  -0.162  -5.703  0.00  0.00    -0.285 N 
ATOM     49  H   LIG d   1       5.133  -0.215  -6.220  0.00  0.00     0.155 HD
BRANCH  48  50
ATOM     50  C   LIG d   1       4.324  -0.489  -4.343  0.00  0.00     0.037 A 
ATOM     51  C   LIG d   1       4.607   0.484  -3.396  0.00  0.00     0.001 A 
ATOM     52  C   LIG d   1       4.610   0.158  -2.048  0.00  0.00     0.119 A 
ATOM     53  H   LIG d   1       4.821   1.496  -3.707  0.00  0.00     0.067 H 
ATOM     54  C   LIG d   1       4.340  -1.145  -1.651  0.00  0.00    -0.020 A 
ATOM     55  C   LIG d   1       4.064  -2.114  -2.596  0.00  0.00    -0.057 A 
ATOM     56  H   LIG d   1       4.346  -1.400  -0.601  0.00  0.00     0.065 H 
ATOM     57  C   LIG d   1       4.055  -1.791  -3.939  0.00  0.00    -0.040 A 
ATOM     58  H   LIG d   1       3.855  -3.127  -2.283  0.00  0.00     0.062 H 
ATOM     59  H   LIG d   1       3.839  -2.551  -4.675  0.00  0.00     0.064 H 
BRANCH  52  60
ATOM     60  O   LIG d   1       4.882   1.110  -1.118  0.00  0.00    -0.507 OA
ATOM     61  H   LIG d   1       5.487   0.820  -0.422  0.00  0.00     0.292 HD
ENDBRANCH  52  60
ENDBRANCH  48  50
ENDBRANCH  43  46
ENDBRANCH  15  43
BRANCH   1  62
ATOM     62  C   LIG d   1       3.006   0.284 -10.587  0.00  0.00    -0.059 C 
ATOM     63  H   LIG d   1       3.494   0.287 -11.562  0.00  0.00     0.024 H 
ATOM     64  H   LIG d   1       1.925   0.247 -10.722  0.00  0.00     0.024 H 
ATOM     65  H   LIG d   1       3.273   1.190 -10.044  0.00  0.00     0.024 H 
ENDBRANCH   1  62
BRANCH   6  66
ATOM     66  C   LIG d   1       4.812  -3.163 -12.648  0.00  0.00    -0.055 C 
ATOM     67  H   LIG d   1       5.821  -2.834 -12.397  0.00  0.00     0.024 H 
ATOM     68  H   LIG d   1       4.698  -4.215 -12.384  0.00  0.00     0.024 H 
ATOM     69  H   LIG d   1       4.644  -3.037 -13.717  0.00  0.00     0.024 H 
ENDBRANCH   6  66
BRANCH   6  70
ATOM     70  C   LIG d   1       3.299  -1.183 -12.757  0.00  0.00     0.052 C 
ATOM     71  H   LIG d   1       2.287  -0.908 -12.464  0.00  0.00     0.056 H 
ATOM     72  H   LIG d   1       3.959  -0.323 -12.643  0.00  0.00     0.056 H 
BRANCH  70  73
ATOM     73  O   LIG d   1       3.302  -1.606 -14.123  0.00  0.00    -0.394 OA
ATOM     74  H   LIG d   1       3.138  -0.892 -14.755  0.00  0.00     0.209 HD
ENDBRANCH  70  73
ENDBRANCH   6  70
BRANCH   4  75
ATOM     75  O   LIG d   1       1.986  -3.728 -12.648  0.00  0.00    -0.391 OA
ATOM     76  H   LIG d   1       1.191  -4.249 -12.473  0.00  0.00     0.210 HD
ENDBRANCH   4  75
TORSDOF 15
ENDMDL
MODEL 4
REMARK VINA RESULT:      -6.1      3.715      7.167
REMARK  15 active torsions:
REMARK  status: ('A' for Active; 'I' for Inactive)
REMARK    1  A    between atoms: C_1  and  C_2 
REMARK    2  A    between atoms: C_5  and  O_40 
REMARK    3  A    between atoms: C_7  and  C_37 
REMARK    4  A    between atoms: C_7  and  C_38 
REMARK    5  A    between atoms: C_14  and  N_16 
REMARK       I    between atoms: N_16  and  C_17 
REMARK    6  A    between atoms: C_17  and  C_19 
REMARK    7  A    between atoms: C_19  and  C_20 
REMARK    8  A    between atoms: C_20  and  C_21 
REMARK    9  A    between atoms: C_20  and  C_22 
REMARK   10  A    between atoms: C_20  and  C_23 
REMARK   11  A    between atoms: C_24  and  C_26 
REMARK   12  A    between atoms: C_26  and  C_27 
REMARK       I    between atoms: C_27  and  N_29 
REMARK   13  A    between atoms: N_29  and  C_30 
REMARK   14  A    between atoms: C_34  and  O_36 
REMARK   15  A    between atoms: C_38  and  O_39 
ROOT
ATOM      1  C   LIG d   1      11.391   0.612  -4.918  0.00  0.00    -0.019 C 
ATOM      2  C   LIG d   1      10.825  -0.779  -5.218  0.00  0.00    -0.044 C 
ATOM      3  C   LIG d   1      11.914  -1.685  -5.790  0.00  0.00    -0.026 C 
ATOM      4  C   LIG d   1      13.035  -1.822  -4.755  0.00  0.00     0.063 C 
ATOM      5  H   LIG d   1      12.630  -2.230  -3.829  0.00  0.00     0.060 H 
ATOM      6  C   LIG d   1      13.635  -0.445  -4.476  0.00  0.00     0.021 C 
ATOM      7  C   LIG d   1      12.561   0.505  -3.937  0.00  0.00    -0.021 C 
ATOM      8  H   LIG d   1      12.204   0.152  -2.970  0.00  0.00     0.032 H 
ATOM      9  C   LIG d   1      13.214   1.892  -3.784  0.00  0.00    -0.016 C 
ATOM     10  C   LIG d   1      12.148   2.914  -3.604  0.00  0.00     0.015 A 
ATOM     11  C   LIG d   1      10.817   2.774  -3.835  0.00  0.00     0.058 A 
ATOM     12  N   LIG d   1      10.068   3.848  -3.597  0.00  0.00    -0.229 NA
ATOM     13  C   LIG d   1      10.582   4.979  -3.160  0.00  0.00     0.165 A 
ATOM     14  S   LIG d   1      12.272   4.592  -3.046  0.00  0.00    -0.057 SA
ATOM     15  C   LIG d   1      10.264   1.448  -4.330  0.00  0.00     0.016 C 
ATOM     16  H   LIG d   1       9.815   0.907  -3.497  0.00  0.00     0.037 H 
ATOM     17  H   LIG d   1      10.439  -1.218  -4.298  0.00  0.00     0.027 H 
ATOM     18  H   LIG d   1      10.016  -0.692  -5.942  0.00  0.00     0.027 H 
ATOM     19  H   LIG d   1      11.495  -2.667  -6.008  0.00  0.00     0.029 H 
ATOM     20  H   LIG d   1      12.313  -1.244  -6.704  0.00  0.00     0.029 H 
ATOM     21  H   LIG d   1      13.870   1.892  -2.912  0.00  0.00     0.032 H 
ATOM     22  H   LIG d   1      13.794   2.122  -4.677  0.00  0.00     0.032 H 
ENDROOT
BRANCH  13  23
ATOM     23  N   LIG d   1       9.938   6.176  -2.867  0.00  0.00    -0.265 N 
ATOM     24  C   LIG d   1       9.803   6.573  -1.586  0.00  0.00     0.219 C 
ATOM     25  O   LIG d   1      10.244   5.885  -0.689  0.00  0.00    -0.275 OA
ATOM     26  H   LIG d   1       9.585   6.726  -3.584  0.00  0.00     0.157 HD
BRANCH  24  27
ATOM     27  C   LIG d   1       9.104   7.869  -1.268  0.00  0.00     0.029 C 
ATOM     28  H   LIG d   1       8.437   8.133  -2.089  0.00  0.00     0.036 H 
ATOM     29  H   LIG d   1       8.526   7.755  -0.351  0.00  0.00     0.036 H 
BRANCH  27  30
ATOM     30  C   LIG d   1      10.144   8.976  -1.082  0.00  0.00    -0.029 C 
BRANCH  30  31
ATOM     31  C   LIG d   1      10.744   8.882   0.322  0.00  0.00    -0.060 C 
ATOM     32  H   LIG d   1      11.721   9.364   0.332  0.00  0.00     0.024 H 
ATOM     33  H   LIG d   1      10.085   9.382   1.033  0.00  0.00     0.024 H 
ATOM     34  H   LIG d   1      10.852   7.835   0.601  0.00  0.00     0.024 H 
ENDBRANCH  30  31
BRANCH  30  35
ATOM     35  C   LIG d   1      11.253   8.816  -2.124  0.00  0.00    -0.060 C 
ATOM     36  H   LIG d   1      12.061   8.215  -1.705  0.00  0.00     0.024 H 
ATOM     37  H   LIG d   1      10.853   8.320  -3.008  0.00  0.00     0.024 H 
ATOM     38  H   LIG d   1      11.636   9.799  -2.400  0.00  0.00     0.024 H 
ENDBRANCH  30  35
BRANCH  30  39
ATOM     39  C   LIG d   1       9.472  10.340  -1.260  0.00  0.00    -0.060 C 
ATOM     40  H   LIG d   1       9.048  10.408  -2.261  0.00  0.00     0.024 H 
ATOM     41  H   LIG d   1       8.681  10.454  -0.520  0.00  0.00     0.024 H 
ATOM     42  H   LIG d   1      10.212  11.130  -1.125  0.00  0.00     0.024 H 
ENDBRANCH  30  39
ENDBRANCH  27  30
ENDBRANCH  24  27
ENDBRANCH  13  23
BRANCH  15  43
ATOM     43  C   LIG d   1       9.202   1.706  -5.402  0.00  0.00     0.033 C 
ATOM     44  H   LIG d   1       9.133   2.777  -5.593  0.00  0.00     0.036 H 
ATOM     45  H   LIG d   1       9.480   1.190  -6.321  0.00  0.00     0.036 H 
BRANCH  43  46
ATOM     46  C   LIG d   1       7.869   1.194  -4.921  0.00  0.00     0.218 C 
ATOM     47  O   LIG d   1       6.948   1.076  -5.701  0.00  0.00    -0.276 OA
ATOM     48  N   LIG d   1       7.701   0.866  -3.624  0.00  0.00    -0.285 N 
ATOM     49  H   LIG d   1       8.419   1.015  -2.990  0.00  0.00     0.155 HD
BRANCH  48  50
ATOM     50  C   LIG d   1       6.490   0.312  -3.194  0.00  0.00     0.037 A 
ATOM     51  C   LIG d   1       5.463   1.138  -2.762  0.00  0.00     0.001 A 
ATOM     52  C   LIG d   1       4.263   0.586  -2.342  0.00  0.00     0.119 A 
ATOM     53  H   LIG d   1       5.596   2.210  -2.757  0.00  0.00     0.067 H 
ATOM     54  C   LIG d   1       4.095  -0.792  -2.345  0.00  0.00    -0.020 A 
ATOM     55  C   LIG d   1       5.123  -1.613  -2.771  0.00  0.00    -0.057 A 
ATOM     56  H   LIG d   1       3.162  -1.223  -2.014  0.00  0.00     0.065 H 
ATOM     57  C   LIG d   1       6.317  -1.066  -3.195  0.00  0.00    -0.040 A 
ATOM     58  H   LIG d   1       4.989  -2.685  -2.771  0.00  0.00     0.062 H 
ATOM     59  H   LIG d   1       7.118  -1.710  -3.527  0.00  0.00     0.064 H 
BRANCH  52  60
ATOM     60  O   LIG d   1       3.252   1.392  -1.923  0.00  0.00    -0.507 OA
ATOM     61  H   LIG d   1       3.122   2.177  -2.472  0.00  0.00     0.292 HD
ENDBRANCH  52  60
ENDBRANCH  48  50
ENDBRANCH  43  46
ENDBRANCH  15  43
BRANCH   1  62
ATOM     62  C   LIG d   1      11.868   1.271  -6.214  0.00  0.00    -0.059 C 
ATOM     63  H   LIG d   1      12.829   1.756  -6.042  0.00  0.00     0.024 H 
ATOM     64  H   LIG d   1      11.977   0.512  -6.989  0.00  0.00     0.024 H 
ATOM     65  H   LIG d   1      11.138   2.014  -6.534  0.00  0.00     0.024 H 
ENDBRANCH   1  62
BRANCH   6  66
ATOM     66  C   LIG d   1      14.764  -0.566  -3.452  0.00  0.00    -0.055 C 
ATOM     67  H   LIG d   1      14.646  -1.491  -2.889  0.00  0.00     0.024 H 
ATOM     68  H   LIG d   1      15.725  -0.575  -3.967  0.00  0.00     0.024 H 
ATOM     69  H   LIG d   1      14.728   0.282  -2.768  0.00  0.00     0.024 H 
ENDBRANCH   6  66
BRANCH   6  70
ATOM     70  C   LIG d   1      14.200   0.121  -5.782  0.00  0.00     0.052 C 
ATOM     71  H   LIG d   1      13.627  -0.267  -6.623  0.00  0.00     0.056 H 
ATOM     72  H   LIG d   1      14.133   1.208  -5.766  0.00  0.00     0.056 H 
BRANCH  70  73
ATOM     73  O   LIG d   1      15.569  -0.270  -5.916  0.00  0.00    -0.394 OA
ATOM     74  H   LIG d   1      16.166   0.175  -5.299  0.00  0.00     0.209 HD
ENDBRANCH  70  73
ENDBRANCH   6  70
BRANCH   4  75
ATOM     75  O   LIG d   1      14.049  -2.693  -5.259  0.00  0.00    -0.391 OA
ATOM     76  H   LIG d   1      14.905  -2.263  -5.395  0.00  0.00     0.210 HD
ENDBRANCH   4  75
TORSDOF 15
ENDMDL
MODEL 5
REMARK VINA RESULT:      -6.1      5.269      9.463
REMARK  15 active torsions:
REMARK  status: ('A' for Active; 'I' for Inactive)
REMARK    1  A    between atoms: C_1  and  C_2 
REMARK    2  A    between atoms: C_5  and  O_40 
REMARK    3  A    between atoms: C_7  and  C_37 
REMARK    4  A    between atoms: C_7  and  C_38 
REMARK    5  A    between atoms: C_14  and  N_16 
REMARK       I    between atoms: N_16  and  C_17 
REMARK    6  A    between atoms: C_17  and  C_19 
REMARK    7  A    between atoms: C_19  and  C_20 
REMARK    8  A    between atoms: C_20  and  C_21 
REMARK    9  A    between atoms: C_20  and  C_22 
REMARK   10  A    between atoms: C_20  and  C_23 
REMARK   11  A    between atoms: C_24  and  C_26 
REMARK   12  A    between atoms: C_26  and  C_27 
REMARK       I    between atoms: C_27  and  N_29 
REMARK   13  A    between atoms: N_29  and  C_30 
REMARK   14  A    between atoms: C_34  and  O_36 
REMARK   15  A    between atoms: C_38  and  O_39 
ROOT
ATOM      1  C   LIG d   1       3.227  -1.875  -9.888  0.00  0.00    -0.019 C 
ATOM      2  C   LIG d   1       1.974  -1.003  -9.759  0.00  0.00    -0.044 C 
ATOM      3  C   LIG d   1       1.301  -0.835 -11.121  0.00  0.00    -0.026 C 
ATOM      4  C   LIG d   1       0.890  -2.216 -11.641  0.00  0.00     0.063 C 
ATOM      5  H   LIG d   1       0.218  -2.690 -10.925  0.00  0.00     0.060 H 
ATOM      6  C   LIG d   1       2.136  -3.083 -11.811  0.00  0.00     0.021 C 
ATOM      7  C   LIG d   1       2.861  -3.242 -10.470  0.00  0.00    -0.021 C 
ATOM      8  H   LIG d   1       2.230  -3.788  -9.769  0.00  0.00     0.032 H 
ATOM      9  C   LIG d   1       4.155  -4.033 -10.743  0.00  0.00    -0.016 C 
ATOM     10  C   LIG d   1       5.054  -3.913  -9.564  0.00  0.00     0.015 A 
ATOM     11  C   LIG d   1       4.960  -3.034  -8.534  0.00  0.00     0.058 A 
ATOM     12  N   LIG d   1       5.900  -3.130  -7.596  0.00  0.00    -0.229 NA
ATOM     13  C   LIG d   1       6.863  -4.027  -7.658  0.00  0.00     0.165 A 
ATOM     14  S   LIG d   1       6.495  -4.855  -9.141  0.00  0.00    -0.057 SA
ATOM     15  C   LIG d   1       3.827  -2.020  -8.497  0.00  0.00     0.016 C 
ATOM     16  H   LIG d   1       3.055  -2.363  -7.808  0.00  0.00     0.037 H 
ATOM     17  H   LIG d   1       1.275  -1.475  -9.068  0.00  0.00     0.027 H 
ATOM     18  H   LIG d   1       2.254  -0.023  -9.375  0.00  0.00     0.027 H 
ATOM     19  H   LIG d   1       0.419  -0.205 -11.017  0.00  0.00     0.029 H 
ATOM     20  H   LIG d   1       2.001  -0.375 -11.820  0.00  0.00     0.029 H 
ATOM     21  H   LIG d   1       3.912  -5.083 -10.911  0.00  0.00     0.032 H 
ATOM     22  H   LIG d   1       4.651  -3.627 -11.624  0.00  0.00     0.032 H 
ENDROOT
BRANCH  13  23
ATOM     23  N   LIG d   1       7.905  -4.252  -6.766  0.00  0.00    -0.265 N 
ATOM     24  C   LIG d   1       7.674  -4.904  -5.610  0.00  0.00     0.219 C 
ATOM     25  O   LIG d   1       6.556  -5.295  -5.347  0.00  0.00    -0.275 OA
ATOM     26  H   LIG d   1       8.799  -3.940  -6.976  0.00  0.00     0.157 HD
BRANCH  24  27
ATOM     27  C   LIG d   1       8.804  -5.147  -4.643  0.00  0.00     0.029 C 
ATOM     28  H   LIG d   1       8.521  -5.934  -3.944  0.00  0.00     0.036 H 
ATOM     29  H   LIG d   1       9.694  -5.452  -5.193  0.00  0.00     0.036 H 
BRANCH  27  30
ATOM     30  C   LIG d   1       9.098  -3.860  -3.869  0.00  0.00    -0.029 C 
BRANCH  30  31
ATOM     31  C   LIG d   1       7.835  -2.999  -3.812  0.00  0.00    -0.060 C 
ATOM     32  H   LIG d   1       8.069  -1.990  -4.151  0.00  0.00     0.024 H 
ATOM     33  H   LIG d   1       7.071  -3.432  -4.458  0.00  0.00     0.024 H 
ATOM     34  H   LIG d   1       7.468  -2.962  -2.788  0.00  0.00     0.024 H 
ENDBRANCH  30  31
BRANCH  30  35
ATOM     35  C   LIG d   1       9.543  -4.210  -2.447  0.00  0.00    -0.060 C 
ATOM     36  H   LIG d   1       8.942  -5.039  -2.072  0.00  0.00     0.024 H 
ATOM     37  H   LIG d   1      10.594  -4.498  -2.455  0.00  0.00     0.024 H 
ATOM     38  H   LIG d   1       9.409  -3.342  -1.802  0.00  0.00     0.024 H 
ENDBRANCH  30  35
BRANCH  30  39
ATOM     39  C   LIG d   1      10.213  -3.085  -4.575  0.00  0.00    -0.060 C 
ATOM     40  H   LIG d   1      10.998  -2.846  -3.859  0.00  0.00     0.024 H 
ATOM     41  H   LIG d   1      10.627  -3.695  -5.378  0.00  0.00     0.024 H 
ATOM     42  H   LIG d   1       9.808  -2.163  -4.992  0.00  0.00     0.024 H 
ENDBRANCH  30  39
ENDBRANCH  27  30
ENDBRANCH  24  27
ENDBRANCH  13  23
BRANCH  15  43
ATOM     43  C   LIG d   1       4.367  -0.668  -8.026  0.00  0.00     0.033 C 
ATOM     44  H   LIG d   1       5.435  -0.611  -8.236  0.00  0.00     0.036 H 
ATOM     45  H   LIG d   1       3.850   0.134  -8.553  0.00  0.00     0.036 H 
BRANCH  43  46
ATOM     46  C   LIG d   1       4.138  -0.525  -6.543  0.00  0.00     0.218 C 
ATOM     47  O   LIG d   1       3.136   0.023  -6.135  0.00  0.00    -0.276 OA
ATOM     48  N   LIG d   1       5.046  -1.007  -5.672  0.00  0.00    -0.285 N 
ATOM     49  H   LIG d   1       5.874  -1.393  -5.998  0.00  0.00     0.155 HD
BRANCH  48  50
ATOM     50  C   LIG d   1       4.795  -0.949  -4.297  0.00  0.00     0.037 A 
ATOM     51  C   LIG d   1       5.052   0.217  -3.591  0.00  0.00     0.001 A 
ATOM     52  C   LIG d   1       4.796   0.272  -2.230  0.00  0.00     0.119 A 
ATOM     53  H   LIG d   1       5.448   1.082  -4.102  0.00  0.00     0.067 H 
ATOM     54  C   LIG d   1       4.293  -0.843  -1.574  0.00  0.00    -0.020 A 
ATOM     55  C   LIG d   1       4.043  -2.005  -2.278  0.00  0.00    -0.057 A 
ATOM     56  H   LIG d   1       4.097  -0.801  -0.512  0.00  0.00     0.065 H 
ATOM     57  C   LIG d   1       4.291  -2.062  -3.635  0.00  0.00    -0.040 A 
ATOM     58  H   LIG d   1       3.651  -2.872  -1.764  0.00  0.00     0.062 H 
ATOM     59  H   LIG d   1       4.094  -2.972  -4.182  0.00  0.00     0.064 H 
BRANCH  52  60
ATOM     60  O   LIG d   1       5.043   1.415  -1.537  0.00  0.00    -0.507 OA
ATOM     61  H   LIG d   1       5.378   2.140  -2.081  0.00  0.00     0.292 HD
ENDBRANCH  52  60
ENDBRANCH  48  50
ENDBRANCH  43  46
ENDBRANCH  15  43
BRANCH   1  62
ATOM     62  C   LIG d   1       4.249  -1.188 -10.796  0.00  0.00    -0.059 C 
ATOM     63  H   LIG d   1       5.144  -0.951 -10.220  0.00  0.00     0.024 H 
ATOM     64  H   LIG d   1       4.512  -1.854 -11.617  0.00  0.00     0.024 H 
ATOM     65  H   LIG d   1       3.821  -0.270 -11.196  0.00  0.00     0.024 H 
ENDBRANCH   1  62
BRANCH   6  66
ATOM     66  C   LIG d   1       1.743  -4.463 -12.340  0.00  0.00    -0.055 C 
ATOM     67  H   LIG d   1       1.656  -5.160 -11.506  0.00  0.00     0.024 H 
ATOM     68  H   LIG d   1       0.786  -4.396 -12.857  0.00  0.00     0.024 H 
ATOM     69  H   LIG d   1       2.505  -4.819 -13.033  0.00  0.00     0.024 H 
ENDBRANCH   6  66
BRANCH   6  70
ATOM     70  C   LIG d   1       3.074  -2.408 -12.815  0.00  0.00     0.052 C 
ATOM     71  H   LIG d   1       2.959  -1.327 -12.749  0.00  0.00     0.056 H 
ATOM     72  H   LIG d   1       4.105  -2.680 -12.589  0.00  0.00     0.056 H 
BRANCH  70  73
ATOM     73  O   LIG d   1       2.746  -2.842 -14.137  0.00  0.00    -0.394 OA
ATOM     74  H   LIG d   1       3.509  -3.130 -14.657  0.00  0.00     0.209 HD
ENDBRANCH  70  73
ENDBRANCH   6  70
BRANCH   4  75
ATOM     75  O   LIG d   1       0.228  -2.077 -12.900  0.00  0.00    -0.391 OA
ATOM     76  H   LIG d   1      -0.514  -1.457 -12.887  0.00  0.00     0.210 HD
ENDBRANCH   4  75
TORSDOF 15
ENDMDL
MODEL 6
REMARK VINA RESULT:      -6.1      2.971      6.558
REMARK  15 active torsions:
REMARK  status: ('A' for Active; 'I' for Inactive)
REMARK    1  A    between atoms: C_1  and  C_2 
REMARK    2  A    between atoms: C_5  and  O_40 
REMARK    3  A    between atoms: C_7  and  C_37 
REMARK    4  A    between atoms: C_7  and  C_38 
REMARK    5  A    between atoms: C_14  and  N_16 
REMARK       I    between atoms: N_16  and  C_17 
REMARK    6  A    between atoms: C_17  and  C_19 
REMARK    7  A    between atoms: C_19  and  C_20 
REMARK    8  A    between atoms: C_20  and  C_21 
REMARK    9  A    between atoms: C_20  and  C_22 
REMARK   10  A    between atoms: C_20  and  C_23 
REMARK   11  A    between atoms: C_24  and  C_26 
REMARK   12  A    between atoms: C_26  and  C_27 
REMARK       I    between atoms: C_27  and  N_29 
REMARK   13  A    between atoms: N_29  and  C_30 
REMARK   14  A    between atoms: C_34  and  O_36 
REMARK   15  A    between atoms: C_38  and  O_39 
ROOT
ATOM      1  C   LIG d   1      10.469   4.575  -7.507  0.00  0.00    -0.019 C 
ATOM      2  C   LIG d   1      11.138   5.915  -7.186  0.00  0.00    -0.044 C 
ATOM      3  C   LIG d   1      11.811   6.486  -8.433  0.00  0.00    -0.026 C 
ATOM      4  C   LIG d   1      10.744   6.714  -9.508  0.00  0.00     0.063 C 
ATOM      5  H   LIG d   1       9.980   7.393  -9.127  0.00  0.00     0.060 H 
ATOM      6  C   LIG d   1      10.095   5.378  -9.866  0.00  0.00     0.021 C 
ATOM      7  C   LIG d   1       9.442   4.754  -8.629  0.00  0.00    -0.021 C 
ATOM      8  H   LIG d   1       8.621   5.383  -8.284  0.00  0.00     0.032 H 
ATOM      9  C   LIG d   1       8.908   3.370  -9.044  0.00  0.00    -0.016 C 
ATOM     10  C   LIG d   1       8.585   2.587  -7.820  0.00  0.00     0.015 A 
ATOM     11  C   LIG d   1       8.958   2.853  -6.543  0.00  0.00     0.058 A 
ATOM     12  N   LIG d   1       8.539   1.989  -5.620  0.00  0.00    -0.229 NA
ATOM     13  C   LIG d   1       7.803   0.940  -5.925  0.00  0.00     0.165 A 
ATOM     14  S   LIG d   1       7.637   1.100  -7.648  0.00  0.00    -0.057 SA
ATOM     15  C   LIG d   1       9.801   4.080  -6.233  0.00  0.00     0.016 C 
ATOM     16  H   LIG d   1       9.162   4.869  -5.835  0.00  0.00     0.037 H 
ATOM     17  H   LIG d   1      10.385   6.618  -6.829  0.00  0.00     0.027 H 
ATOM     18  H   LIG d   1      11.888   5.767  -6.410  0.00  0.00     0.027 H 
ATOM     19  H   LIG d   1      12.291   7.433  -8.188  0.00  0.00     0.029 H 
ATOM     20  H   LIG d   1      12.556   5.781  -8.801  0.00  0.00     0.029 H 
ATOM     21  H   LIG d   1       8.007   3.492  -9.647  0.00  0.00     0.032 H 
ATOM     22  H   LIG d   1       9.667   2.845  -9.624  0.00  0.00     0.032 H 
ENDROOT
BRANCH  13  23
ATOM     23  N   LIG d   1       7.292  -0.042  -5.085  0.00  0.00    -0.265 N 
ATOM     24  C   LIG d   1       6.684   0.305  -3.933  0.00  0.00     0.219 C 
ATOM     25  O   LIG d   1       6.583   1.476  -3.631  0.00  0.00    -0.275 OA
ATOM     26  H   LIG d   1       7.373  -0.978  -5.327  0.00  0.00     0.157 HD
BRANCH  24  27
ATOM     27  C   LIG d   1       6.132  -0.759  -3.022  0.00  0.00     0.029 C 
ATOM     28  H   LIG d   1       6.286  -1.740  -3.473  0.00  0.00     0.036 H 
ATOM     29  H   LIG d   1       6.643  -0.716  -2.060  0.00  0.00     0.036 H 
BRANCH  27  30
ATOM     30  C   LIG d   1       4.634  -0.526  -2.814  0.00  0.00    -0.029 C 
BRANCH  30  31
ATOM     31  C   LIG d   1       4.429   0.604  -1.802  0.00  0.00    -0.060 C 
ATOM     32  H   LIG d   1       3.469   0.473  -1.303  0.00  0.00     0.024 H 
ATOM     33  H   LIG d   1       5.230   0.578  -1.064  0.00  0.00     0.024 H 
ATOM     34  H   LIG d   1       4.442   1.561  -2.321  0.00  0.00     0.024 H 
ENDBRANCH  30  31
BRANCH  30  35
ATOM     35  C   LIG d   1       3.987  -0.141  -4.147  0.00  0.00    -0.060 C 
ATOM     36  H   LIG d   1       4.013  -0.995  -4.824  0.00  0.00     0.024 H 
ATOM     37  H   LIG d   1       2.953   0.156  -3.977  0.00  0.00     0.024 H 
ATOM     38  H   LIG d   1       4.537   0.690  -4.590  0.00  0.00     0.024 H 
ENDBRANCH  30  35
BRANCH  30  39
ATOM     39  C   LIG d   1       3.987  -1.808  -2.286  0.00  0.00    -0.060 C 
ATOM     40  H   LIG d   1       2.973  -1.591  -1.950  0.00  0.00     0.024 H 
ATOM     41  H   LIG d   1       3.955  -2.553  -3.080  0.00  0.00     0.024 H 
ATOM     42  H   LIG d   1       4.571  -2.193  -1.450  0.00  0.00     0.024 H 
ENDBRANCH  30  39
ENDBRANCH  27  30
ENDBRANCH  24  27
ENDBRANCH  13  23
BRANCH  15  43
ATOM     43  C   LIG d   1      10.869   3.719  -5.199  0.00  0.00     0.033 C 
ATOM     44  H   LIG d   1      10.852   2.644  -5.021  0.00  0.00     0.036 H 
ATOM     45  H   LIG d   1      11.850   4.010  -5.573  0.00  0.00     0.036 H 
BRANCH  43  46
ATOM     46  C   LIG d   1      10.586   4.446  -3.910  0.00  0.00     0.218 C 
ATOM     47  O   LIG d   1       9.996   3.883  -3.013  0.00  0.00    -0.276 OA
ATOM     48  N   LIG d   1      10.989   5.723  -3.755  0.00  0.00    -0.285 N 
ATOM     49  H   LIG d   1      11.409   6.192  -4.492  0.00  0.00     0.155 HD
BRANCH  48  50
ATOM     50  C   LIG d   1      10.801   6.371  -2.529  0.00  0.00     0.037 A 
ATOM     51  C   LIG d   1       9.619   7.050  -2.276  0.00  0.00     0.001 A 
ATOM     52  C   LIG d   1       9.434   7.687  -1.059  0.00  0.00     0.119 A 
ATOM     53  H   LIG d   1       8.841   7.080  -3.025  0.00  0.00     0.067 H 
ATOM     54  C   LIG d   1      10.437   7.652  -0.099  0.00  0.00    -0.020 A 
ATOM     55  C   LIG d   1      11.616   6.980  -0.356  0.00  0.00    -0.057 A 
ATOM     56  H   LIG d   1      10.294   8.151   0.848  0.00  0.00     0.065 H 
ATOM     57  C   LIG d   1      11.802   6.340  -1.565  0.00  0.00    -0.040 A 
ATOM     58  H   LIG d   1      12.395   6.955   0.393  0.00  0.00     0.062 H 
ATOM     59  H   LIG d   1      12.725   5.815  -1.763  0.00  0.00     0.064 H 
BRANCH  52  60
ATOM     60  O   LIG d   1       8.274   8.349  -0.806  0.00  0.00    -0.507 OA
ATOM     61  H   LIG d   1       7.509   7.771  -0.684  0.00  0.00     0.292 HD
ENDBRANCH  52  60
ENDBRANCH  48  50
ENDBRANCH  43  46
ENDBRANCH  15  43
BRANCH   1  62
ATOM     62  C   LIG d   1      11.524   3.555  -7.937  0.00  0.00    -0.059 C 
ATOM     63  H   LIG d   1      11.867   3.790  -8.946  0.00  0.00     0.024 H 
ATOM     64  H   LIG d   1      12.369   3.593  -7.250  0.00  0.00     0.024 H 
ATOM     65  H   LIG d   1      11.091   2.556  -7.924  0.00  0.00     0.024 H 
ENDBRANCH   1  62
BRANCH   6  66
ATOM     66  C   LIG d   1       9.033   5.587 -10.947  0.00  0.00    -0.055 C 
ATOM     67  H   LIG d   1       9.521   5.807 -11.897  0.00  0.00     0.024 H 
ATOM     68  H   LIG d   1       8.434   4.682 -11.049  0.00  0.00     0.024 H 
ATOM     69  H   LIG d   1       8.388   6.419 -10.668  0.00  0.00     0.024 H 
ENDBRANCH   6  66
BRANCH   6  70
ATOM     70  C   LIG d   1      11.175   4.432 -10.399  0.00  0.00     0.052 C 
ATOM     71  H   LIG d   1      12.130   4.673  -9.933  0.00  0.00     0.056 H 
ATOM     72  H   LIG d   1      10.904   3.403 -10.163  0.00  0.00     0.056 H 
BRANCH  70  73
ATOM     73  O   LIG d   1      11.283   4.584 -11.816  0.00  0.00    -0.394 OA
ATOM     74  H   LIG d   1      10.700   3.999 -12.319  0.00  0.00     0.209 HD
ENDBRANCH  70  73
ENDBRANCH   6  70
BRANCH   4  75
ATOM     75  O   LIG d   1      11.349   7.280 -10.672  0.00  0.00    -0.391 OA
ATOM     76  H   LIG d   1      11.297   8.245 -10.712  0.00  0.00     0.210 HD
ENDBRANCH   4  75
TORSDOF 15
ENDMDL
MODEL 7
REMARK VINA RESULT:      -6.0      6.111     10.330
REMARK  15 active torsions:
REMARK  status: ('A' for Active; 'I' for Inactive)
REMARK    1  A    between atoms: C_1  and  C_2 
REMARK    2  A    between atoms: C_5  and  O_40 
REMARK    3  A    between atoms: C_7  and  C_37 
REMARK    4  A    between atoms: C_7  and  C_38 
REMARK    5  A    between atoms: C_14  and  N_16 
REMARK       I    between atoms: N_16  and  C_17 
REMARK    6  A    between atoms: C_17  and  C_19 
REMARK    7  A    between atoms: C_19  and  C_20 
REMARK    8  A    between atoms: C_20  and  C_21 
REMARK    9  A    between atoms: C_20  and  C_22 
REMARK   10  A    between atoms: C_20  and  C_23 
REMARK   11  A    between atoms: C_24  and  C_26 
REMARK   12  A    between atoms: C_26  and  C_27 
REMARK       I    between atoms: C_27  and  N_29 
REMARK   13  A    between atoms: N_29  and  C_30 
REMARK   14  A    between atoms: C_34  and  O_36 
REMARK   15  A    between atoms: C_38  and  O_39 
ROOT
ATOM      1  C   LIG d   1       3.438  -3.189  -9.199  0.00  0.00    -0.019 C 
ATOM      2  C   LIG d   1       3.166  -1.709  -8.917  0.00  0.00    -0.044 C 
ATOM      3  C   LIG d   1       2.574  -1.032 -10.152  0.00  0.00    -0.026 C 
ATOM      4  C   LIG d   1       1.251  -1.718 -10.504  0.00  0.00     0.063 C 
ATOM      5  H   LIG d   1       0.569  -1.654  -9.655  0.00  0.00     0.060 H 
ATOM      6  C   LIG d   1       1.515  -3.188 -10.826  0.00  0.00     0.021 C 
ATOM      7  C   LIG d   1       2.146  -3.893  -9.621  0.00  0.00    -0.021 C 
ATOM      8  H   LIG d   1       1.442  -3.908  -8.789  0.00  0.00     0.032 H 
ATOM      9  C   LIG d   1       2.479  -5.332 -10.058  0.00  0.00    -0.016 C 
ATOM     10  C   LIG d   1       3.397  -5.942  -9.059  0.00  0.00     0.015 A 
ATOM     11  C   LIG d   1       4.105  -5.311  -8.088  0.00  0.00     0.058 A 
ATOM     12  N   LIG d   1       4.863  -6.088  -7.319  0.00  0.00    -0.229 NA
ATOM     13  C   LIG d   1       4.924  -7.394  -7.485  0.00  0.00     0.165 A 
ATOM     14  S   LIG d   1       3.848  -7.641  -8.827  0.00  0.00    -0.057 SA
ATOM     15  C   LIG d   1       3.999  -3.802  -7.925  0.00  0.00     0.016 C 
ATOM     16  H   LIG d   1       3.331  -3.572  -7.093  0.00  0.00     0.037 H 
ATOM     17  H   LIG d   1       2.463  -1.623  -8.088  0.00  0.00     0.027 H 
ATOM     18  H   LIG d   1       4.099  -1.214  -8.650  0.00  0.00     0.027 H 
ATOM     19  H   LIG d   1       2.395   0.022  -9.941  0.00  0.00     0.029 H 
ATOM     20  H   LIG d   1       3.268  -1.126 -10.988  0.00  0.00     0.029 H 
ATOM     21  H   LIG d   1       1.560  -5.918 -10.114  0.00  0.00     0.032 H 
ATOM     22  H   LIG d   1       2.961  -5.314 -11.035  0.00  0.00     0.032 H 
ENDROOT
BRANCH  13  23
ATOM     23  N   LIG d   1       5.661  -8.332  -6.770  0.00  0.00    -0.265 N 
ATOM     24  C   LIG d   1       5.287  -8.672  -5.521  0.00  0.00     0.219 C 
ATOM     25  O   LIG d   1       4.308  -8.160  -5.020  0.00  0.00    -0.275 OA
ATOM     26  H   LIG d   1       6.443  -8.741  -7.171  0.00  0.00     0.157 HD
BRANCH  24  27
ATOM     27  C   LIG d   1       6.086  -9.688  -4.747  0.00  0.00     0.029 C 
ATOM     28  H   LIG d   1       5.531  -9.984  -3.856  0.00  0.00     0.036 H 
ATOM     29  H   LIG d   1       6.264 -10.563  -5.371  0.00  0.00     0.036 H 
BRANCH  27  30
ATOM     30  C   LIG d   1       7.425  -9.076  -4.333  0.00  0.00    -0.029 C 
BRANCH  30  31
ATOM     31  C   LIG d   1       8.564  -9.806  -5.048  0.00  0.00    -0.060 C 
ATOM     32  H   LIG d   1       9.142 -10.376  -4.322  0.00  0.00     0.024 H 
ATOM     33  H   LIG d   1       8.148 -10.482  -5.795  0.00  0.00     0.024 H 
ATOM     34  H   LIG d   1       9.210  -9.078  -5.537  0.00  0.00     0.024 H 
ENDBRANCH  30  31
BRANCH  30  35
ATOM     35  C   LIG d   1       7.449  -7.594  -4.715  0.00  0.00    -0.060 C 
ATOM     36  H   LIG d   1       8.438  -7.182  -4.515  0.00  0.00     0.024 H 
ATOM     37  H   LIG d   1       7.219  -7.488  -5.775  0.00  0.00     0.024 H 
ATOM     38  H   LIG d   1       6.705  -7.056  -4.126  0.00  0.00     0.024 H 
ENDBRANCH  30  35
BRANCH  30  39
ATOM     39  C   LIG d   1       7.602  -9.214  -2.819  0.00  0.00    -0.060 C 
ATOM     40  H   LIG d   1       7.116  -8.377  -2.319  0.00  0.00     0.024 H 
ATOM     41  H   LIG d   1       7.153 -10.148  -2.484  0.00  0.00     0.024 H 
ATOM     42  H   LIG d   1       8.665  -9.215  -2.575  0.00  0.00     0.024 H 
ENDBRANCH  30  39
ENDBRANCH  27  30
ENDBRANCH  24  27
ENDBRANCH  13  23
BRANCH  15  43
ATOM     43  C   LIG d   1       5.386  -3.221  -7.640  0.00  0.00     0.033 C 
ATOM     44  H   LIG d   1       6.121  -4.025  -7.632  0.00  0.00     0.036 H 
ATOM     45  H   LIG d   1       5.644  -2.501  -8.417  0.00  0.00     0.036 H 
BRANCH  43  46
ATOM     46  C   LIG d   1       5.377  -2.534  -6.299  0.00  0.00     0.218 C 
ATOM     47  O   LIG d   1       6.414  -2.130  -5.818  0.00  0.00    -0.276 OA
ATOM     48  N   LIG d   1       4.216  -2.369  -5.635  0.00  0.00    -0.285 N 
ATOM     49  H   LIG d   1       3.395  -2.743  -5.992  0.00  0.00     0.155 HD
BRANCH  48  50
ATOM     50  C   LIG d   1       4.195  -1.658  -4.430  0.00  0.00     0.037 A 
ATOM     51  C   LIG d   1       4.053  -0.278  -4.440  0.00  0.00     0.001 A 
ATOM     52  C   LIG d   1       4.028   0.422  -3.244  0.00  0.00     0.119 A 
ATOM     53  H   LIG d   1       3.960   0.249  -5.378  0.00  0.00     0.067 H 
ATOM     54  C   LIG d   1       4.154  -0.257  -2.040  0.00  0.00    -0.020 A 
ATOM     55  C   LIG d   1       4.300  -1.631  -2.033  0.00  0.00    -0.057 A 
ATOM     56  H   LIG d   1       4.137   0.290  -1.108  0.00  0.00     0.065 H 
ATOM     57  C   LIG d   1       4.321  -2.333  -3.222  0.00  0.00    -0.040 A 
ATOM     58  H   LIG d   1       4.398  -2.157  -1.094  0.00  0.00     0.062 H 
ATOM     59  H   LIG d   1       4.435  -3.407  -3.213  0.00  0.00     0.064 H 
BRANCH  52  60
ATOM     60  O   LIG d   1       3.884   1.774  -3.250  0.00  0.00    -0.507 OA
ATOM     61  H   LIG d   1       4.474   2.229  -3.866  0.00  0.00     0.292 HD
ENDBRANCH  52  60
ENDBRANCH  48  50
ENDBRANCH  43  46
ENDBRANCH  15  43
BRANCH   1  62
ATOM     62  C   LIG d   1       4.481  -3.324 -10.310  0.00  0.00    -0.059 C 
ATOM     63  H   LIG d   1       5.449  -2.980  -9.944  0.00  0.00     0.024 H 
ATOM     64  H   LIG d   1       4.559  -4.369 -10.612  0.00  0.00     0.024 H 
ATOM     65  H   LIG d   1       4.181  -2.721 -11.166  0.00  0.00     0.024 H 
ENDBRANCH   1  62
BRANCH   6  66
ATOM     66  C   LIG d   1       0.203  -3.886 -11.190  0.00  0.00    -0.055 C 
ATOM     67  H   LIG d   1       0.083  -4.776 -10.574  0.00  0.00     0.024 H 
ATOM     68  H   LIG d   1      -0.632  -3.207 -11.013  0.00  0.00     0.024 H 
ATOM     69  H   LIG d   1       0.222  -4.171 -12.242  0.00  0.00     0.024 H 
ENDBRANCH   6  66
BRANCH   6  70
ATOM     70  C   LIG d   1       2.473  -3.267 -12.017  0.00  0.00     0.052 C 
ATOM     71  H   LIG d   1       3.130  -2.399 -12.013  0.00  0.00     0.056 H 
ATOM     72  H   LIG d   1       3.070  -4.176 -11.943  0.00  0.00     0.056 H 
BRANCH  70  73
ATOM     73  O   LIG d   1       1.721  -3.290 -13.233  0.00  0.00    -0.394 OA
ATOM     74  H   LIG d   1       0.765  -3.357 -13.101  0.00  0.00     0.209 HD
ENDBRANCH  70  73
ENDBRANCH   6  70
BRANCH   4  75
ATOM     75  O   LIG d   1       0.665  -1.076 -11.639  0.00  0.00    -0.391 OA
ATOM     76  H   LIG d   1       0.087  -0.334 -11.415  0.00  0.00     0.210 HD
ENDBRANCH   4  75
TORSDOF 15
ENDMDL
MODEL 8
REMARK VINA RESULT:      -5.9      6.461     10.558
REMARK  15 active torsions:
REMARK  status: ('A' for Active; 'I' for Inactive)
REMARK    1  A    between atoms: C_1  and  C_2 
REMARK    2  A    between atoms: C_5  and  O_40 
REMARK    3  A    between atoms: C_7  and  C_37 
REMARK    4  A    between atoms: C_7  and  C_38 
REMARK    5  A    between atoms: C_14  and  N_16 
REMARK       I    between atoms: N_16  and  C_17 
REMARK    6  A    between atoms: C_17  and  C_19 
REMARK    7  A    between atoms: C_19  and  C_20 
REMARK    8  A    between atoms: C_20  and  C_21 
REMARK    9  A    between atoms: C_20  and  C_22 
REMARK   10  A    between atoms: C_20  and  C_23 
REMARK   11  A    between atoms: C_24  and  C_26 
REMARK   12  A    between atoms: C_26  and  C_27 
REMARK       I    between atoms: C_27  and  N_29 
REMARK   13  A    between atoms: N_29  and  C_30 
REMARK   14  A    between atoms: C_34  and  O_36 
REMARK   15  A    between atoms: C_38  and  O_39 
ROOT
ATOM      1  C   LIG d   1       4.615  -4.393  -7.580  0.00  0.00    -0.019 C 
ATOM      2  C   LIG d   1       4.373  -2.890  -7.403  0.00  0.00    -0.044 C 
ATOM      3  C   LIG d   1       4.205  -2.215  -8.764  0.00  0.00    -0.026 C 
ATOM      4  C   LIG d   1       2.994  -2.828  -9.473  0.00  0.00     0.063 C 
ATOM      5  H   LIG d   1       2.105  -2.698  -8.855  0.00  0.00     0.060 H 
ATOM      6  C   LIG d   1       3.240  -4.321  -9.690  0.00  0.00     0.021 C 
ATOM      7  C   LIG d   1       3.452  -5.027  -8.347  0.00  0.00    -0.021 C 
ATOM      8  H   LIG d   1       2.541  -4.975  -7.751  0.00  0.00     0.032 H 
ATOM      9  C   LIG d   1       3.798  -6.497  -8.655  0.00  0.00    -0.016 C 
ATOM     10  C   LIG d   1       4.350  -7.132  -7.428  0.00  0.00     0.015 A 
ATOM     11  C   LIG d   1       4.792  -6.517  -6.302  0.00  0.00     0.058 A 
ATOM     12  N   LIG d   1       5.245  -7.317  -5.339  0.00  0.00    -0.229 NA
ATOM     13  C   LIG d   1       5.263  -8.628  -5.467  0.00  0.00     0.165 A 
ATOM     14  S   LIG d   1       4.600  -8.848  -7.059  0.00  0.00    -0.057 SA
ATOM     15  C   LIG d   1       4.745  -5.001  -6.192  0.00  0.00     0.016 C 
ATOM     16  H   LIG d   1       3.886  -4.706  -5.589  0.00  0.00     0.037 H 
ATOM     17  H   LIG d   1       3.470  -2.737  -6.811  0.00  0.00     0.027 H 
ATOM     18  H   LIG d   1       5.222  -2.447  -6.885  0.00  0.00     0.027 H 
ATOM     19  H   LIG d   1       4.045  -1.147  -8.623  0.00  0.00     0.029 H 
ATOM     20  H   LIG d   1       5.101  -2.376  -9.364  0.00  0.00     0.029 H 
ATOM     21  H   LIG d   1       2.896  -7.026  -8.965  0.00  0.00     0.032 H 
ATOM     22  H   LIG d   1       4.538  -6.537  -9.453  0.00  0.00     0.032 H 
ENDROOT
BRANCH  13  23
ATOM     23  N   LIG d   1       5.700  -9.588  -4.562  0.00  0.00    -0.265 N 
ATOM     24  C   LIG d   1       7.005  -9.920  -4.509  0.00  0.00     0.219 C 
ATOM     25  O   LIG d   1       7.798  -9.380  -5.252  0.00  0.00    -0.275 OA
ATOM     26  H   LIG d   1       5.066 -10.020  -3.968  0.00  0.00     0.157 HD
BRANCH  24  27
ATOM     27  C   LIG d   1       7.479 -10.961  -3.529  0.00  0.00     0.029 C 
ATOM     28  H   LIG d   1       6.831 -11.836  -3.586  0.00  0.00     0.036 H 
ATOM     29  H   LIG d   1       8.502 -11.250  -3.771  0.00  0.00     0.036 H 
BRANCH  27  30
ATOM     30  C   LIG d   1       7.432 -10.386  -2.112  0.00  0.00    -0.029 C 
BRANCH  30  31
ATOM     31  C   LIG d   1       5.988 -10.389  -1.606  0.00  0.00    -0.060 C 
ATOM     32  H   LIG d   1       5.603  -9.370  -1.602  0.00  0.00     0.024 H 
ATOM     33  H   LIG d   1       5.376 -11.007  -2.264  0.00  0.00     0.024 H 
ATOM     34  H   LIG d   1       5.959 -10.794  -0.596  0.00  0.00     0.024 H 
ENDBRANCH  30  31
BRANCH  30  35
ATOM     35  C   LIG d   1       8.300 -11.241  -1.185  0.00  0.00    -0.060 C 
ATOM     36  H   LIG d   1       7.762 -12.152  -0.921  0.00  0.00     0.024 H 
ATOM     37  H   LIG d   1       9.228 -11.502  -1.694  0.00  0.00     0.024 H 
ATOM     38  H   LIG d   1       8.527 -10.678  -0.280  0.00  0.00     0.024 H 
ENDBRANCH  30  35
BRANCH  30  39
ATOM     39  C   LIG d   1       7.965  -8.951  -2.127  0.00  0.00    -0.060 C 
ATOM     40  H   LIG d   1       7.186  -8.272  -1.782  0.00  0.00     0.024 H 
ATOM     41  H   LIG d   1       8.829  -8.878  -1.467  0.00  0.00     0.024 H 
ATOM     42  H   LIG d   1       8.258  -8.683  -3.141  0.00  0.00     0.024 H 
ENDBRANCH  30  39
ENDBRANCH  27  30
ENDBRANCH  24  27
ENDBRANCH  13  23
BRANCH  15  43
ATOM     43  C   LIG d   1       6.029  -4.498  -5.528  0.00  0.00     0.033 C 
ATOM     44  H   LIG d   1       6.381  -5.239  -4.811  0.00  0.00     0.036 H 
ATOM     45  H   LIG d   1       6.793  -4.338  -6.289  0.00  0.00     0.036 H 
BRANCH  43  46
ATOM     46  C   LIG d   1       5.751  -3.201  -4.815  0.00  0.00     0.218 C 
ATOM     47  O   LIG d   1       6.583  -2.319  -4.813  0.00  0.00    -0.276 OA
ATOM     48  N   LIG d   1       4.576  -3.021  -4.178  0.00  0.00    -0.285 N 
ATOM     49  H   LIG d   1       3.934  -3.746  -4.130  0.00  0.00     0.155 HD
BRANCH  48  50
ATOM     50  C   LIG d   1       4.283  -1.787  -3.588  0.00  0.00     0.037 A 
ATOM     51  C   LIG d   1       3.679  -0.785  -4.333  0.00  0.00     0.001 A 
ATOM     52  C   LIG d   1       3.386   0.434  -3.743  0.00  0.00     0.119 A 
ATOM     53  H   LIG d   1       3.435  -0.956  -5.371  0.00  0.00     0.067 H 
ATOM     54  C   LIG d   1       3.706   0.654  -2.410  0.00  0.00    -0.020 A 
ATOM     55  C   LIG d   1       4.312  -0.343  -1.671  0.00  0.00    -0.057 A 
ATOM     56  H   LIG d   1       3.480   1.606  -1.951  0.00  0.00     0.065 H 
ATOM     57  C   LIG d   1       4.602  -1.561  -2.254  0.00  0.00    -0.040 A 
ATOM     58  H   LIG d   1       4.561  -0.169  -0.634  0.00  0.00     0.062 H 
ATOM     59  H   LIG d   1       5.076  -2.339  -1.674  0.00  0.00     0.064 H 
BRANCH  52  60
ATOM     60  O   LIG d   1       2.789   1.416  -4.470  0.00  0.00    -0.507 OA
ATOM     61  H   LIG d   1       2.506   2.177  -3.945  0.00  0.00     0.292 HD
ENDBRANCH  52  60
ENDBRANCH  48  50
ENDBRANCH  43  46
ENDBRANCH  15  43
BRANCH   1  62
ATOM     62  C   LIG d   1       5.919  -4.624  -8.344  0.00  0.00    -0.059 C 
ATOM     63  H   LIG d   1       6.022  -5.685  -8.574  0.00  0.00     0.024 H 
ATOM     64  H   LIG d   1       5.905  -4.051  -9.271  0.00  0.00     0.024 H 
ATOM     65  H   LIG d   1       6.761  -4.303  -7.732  0.00  0.00     0.024 H 
ENDBRANCH   1  62
BRANCH   6  66
ATOM     66  C   LIG d   1       2.042  -4.947 -10.407  0.00  0.00    -0.055 C 
ATOM     67  H   LIG d   1       1.499  -5.589  -9.714  0.00  0.00     0.024 H 
ATOM     68  H   LIG d   1       1.380  -4.159 -10.766  0.00  0.00     0.024 H 
ATOM     69  H   LIG d   1       2.393  -5.539 -11.252  0.00  0.00     0.024 H 
ENDBRANCH   6  66
BRANCH   6  70
ATOM     70  C   LIG d   1       4.490  -4.494 -10.555  0.00  0.00     0.052 C 
ATOM     71  H   LIG d   1       5.178  -3.670 -10.368  0.00  0.00     0.056 H 
ATOM     72  H   LIG d   1       4.976  -5.438 -10.307  0.00  0.00     0.056 H 
BRANCH  70  73
ATOM     73  O   LIG d   1       4.117  -4.500 -11.935  0.00  0.00    -0.394 OA
ATOM     74  H   LIG d   1       3.168  -4.609 -12.084  0.00  0.00     0.209 HD
ENDBRANCH  70  73
ENDBRANCH   6  70
BRANCH   4  75
ATOM     75  O   LIG d   1       2.801  -2.186 -10.734  0.00  0.00    -0.391 OA
ATOM     76  H   LIG d   1       3.596  -1.761 -11.085  0.00  0.00     0.210 HD
ENDBRANCH   4  75
TORSDOF 15
ENDMDL
MODEL 9
REMARK VINA RESULT:      -5.8      6.420     10.684
REMARK  15 active torsions:
REMARK  status: ('A' for Active; 'I' for Inactive)
REMARK    1  A    between atoms: C_1  and  C_2 
REMARK    2  A    between atoms: C_5  and  O_40 
REMARK    3  A    between atoms: C_7  and  C_37 
REMARK    4  A    between atoms: C_7  and  C_38 
REMARK    5  A    between atoms: C_14  and  N_16 
REMARK       I    between atoms: N_16  and  C_17 
REMARK    6  A    between atoms: C_17  and  C_19 
REMARK    7  A    between atoms: C_19  and  C_20 
REMARK    8  A    between atoms: C_20  and  C_21 
REMARK    9  A    between atoms: C_20  and  C_22 
REMARK   10  A    between atoms: C_20  and  C_23 
REMARK   11  A    between atoms: C_24  and  C_26 
REMARK   12  A    between atoms: C_26  and  C_27 
REMARK       I    between atoms: C_27  and  N_29 
REMARK   13  A    between atoms: N_29  and  C_30 
REMARK   14  A    between atoms: C_34  and  O_36 
REMARK   15  A    between atoms: C_38  and  O_39 
ROOT
ATOM      1  C   LIG d   1       6.968  -6.538  -5.531  0.00  0.00    -0.019 C 
ATOM      2  C   LIG d   1       5.499  -6.211  -5.817  0.00  0.00    -0.044 C 
ATOM      3  C   LIG d   1       4.831  -7.368  -6.560  0.00  0.00    -0.026 C 
ATOM      4  C   LIG d   1       4.895  -8.621  -5.681  0.00  0.00     0.063 C 
ATOM      5  H   LIG d   1       4.399  -8.424  -4.729  0.00  0.00     0.060 H 
ATOM      6  C   LIG d   1       6.357  -8.980  -5.420  0.00  0.00     0.021 C 
ATOM      7  C   LIG d   1       7.071  -7.825  -4.710  0.00  0.00    -0.021 C 
ATOM      8  H   LIG d   1       6.638  -7.672  -3.721  0.00  0.00     0.032 H 
ATOM      9  C   LIG d   1       8.555  -8.219  -4.580  0.00  0.00    -0.016 C 
ATOM     10  C   LIG d   1       9.348  -7.011  -4.224  0.00  0.00     0.015 A 
ATOM     11  C   LIG d   1       8.958  -5.713  -4.292  0.00  0.00     0.058 A 
ATOM     12  N   LIG d   1       9.862  -4.811  -3.916  0.00  0.00    -0.229 NA
ATOM     13  C   LIG d   1      11.063  -5.154  -3.499  0.00  0.00     0.165 A 
ATOM     14  S   LIG d   1      11.008  -6.888  -3.614  0.00  0.00    -0.057 SA
ATOM     15  C   LIG d   1       7.559  -5.360  -4.772  0.00  0.00     0.016 C 
ATOM     16  H   LIG d   1       6.926  -5.135  -3.913  0.00  0.00     0.037 H 
ATOM     17  H   LIG d   1       4.977  -6.039  -4.876  0.00  0.00     0.027 H 
ATOM     18  H   LIG d   1       5.442  -5.312  -6.430  0.00  0.00     0.027 H 
ATOM     19  H   LIG d   1       3.791  -7.118  -6.766  0.00  0.00     0.029 H 
ATOM     20  H   LIG d   1       5.358  -7.552  -7.497  0.00  0.00     0.029 H 
ATOM     21  H   LIG d   1       8.666  -8.971  -3.798  0.00  0.00     0.032 H 
ATOM     22  H   LIG d   1       8.910  -8.622  -5.528  0.00  0.00     0.032 H 
ENDROOT
BRANCH  13  23
ATOM     23  N   LIG d   1      12.107  -4.339  -3.076  0.00  0.00    -0.265 N 
ATOM     24  C   LIG d   1      13.087  -3.999  -3.936  0.00  0.00     0.219 C 
ATOM     25  O   LIG d   1      13.058  -4.403  -5.080  0.00  0.00    -0.275 OA
ATOM     26  H   LIG d   1      12.131  -4.016  -2.161  0.00  0.00     0.157 HD
BRANCH  24  27
ATOM     27  C   LIG d   1      14.219  -3.116  -3.478  0.00  0.00     0.029 C 
ATOM     28  H   LIG d   1      14.248  -3.099  -2.388  0.00  0.00     0.036 H 
ATOM     29  H   LIG d   1      15.162  -3.507  -3.860  0.00  0.00     0.036 H 
BRANCH  27  30
ATOM     30  C   LIG d   1      14.003  -1.696  -4.004  0.00  0.00    -0.029 C 
BRANCH  30  31
ATOM     31  C   LIG d   1      12.504  -1.414  -4.114  0.00  0.00    -0.060 C 
ATOM     32  H   LIG d   1      12.102  -1.195  -3.125  0.00  0.00     0.024 H 
ATOM     33  H   LIG d   1      12.343  -0.558  -4.770  0.00  0.00     0.024 H 
ATOM     34  H   LIG d   1      12.000  -2.288  -4.525  0.00  0.00     0.024 H 
ENDBRANCH  30  31
BRANCH  30  35
ATOM     35  C   LIG d   1      14.643  -0.693  -3.041  0.00  0.00    -0.060 C 
ATOM     36  H   LIG d   1      14.512  -1.038  -2.016  0.00  0.00     0.024 H 
ATOM     37  H   LIG d   1      15.706  -0.604  -3.261  0.00  0.00     0.024 H 
ATOM     38  H   LIG d   1      14.164   0.280  -3.161  0.00  0.00     0.024 H 
ENDBRANCH  30  35
BRANCH  30  39
ATOM     39  C   LIG d   1      14.650  -1.560  -5.384  0.00  0.00    -0.060 C 
ATOM     40  H   LIG d   1      13.876  -1.574  -6.150  0.00  0.00     0.024 H 
ATOM     41  H   LIG d   1      15.199  -0.620  -5.437  0.00  0.00     0.024 H 
ATOM     42  H   LIG d   1      15.337  -2.391  -5.547  0.00  0.00     0.024 H 
ENDBRANCH  30  39
ENDBRANCH  27  30
ENDBRANCH  24  27
ENDBRANCH  13  23
BRANCH  15  43
ATOM     43  C   LIG d   1       7.626  -4.137  -5.689  0.00  0.00     0.033 C 
ATOM     44  H   LIG d   1       8.648  -3.759  -5.715  0.00  0.00     0.036 H 
ATOM     45  H   LIG d   1       7.319  -4.421  -6.696  0.00  0.00     0.036 H 
BRANCH  43  46
ATOM     46  C   LIG d   1       6.707  -3.065  -5.165  0.00  0.00     0.218 C 
ATOM     47  O   LIG d   1       6.066  -2.385  -5.939  0.00  0.00    -0.276 OA
ATOM     48  N   LIG d   1       6.597  -2.862  -3.837  0.00  0.00    -0.285 N 
ATOM     49  H   LIG d   1       7.152  -3.365  -3.222  0.00  0.00     0.155 HD
BRANCH  48  50
ATOM     50  C   LIG d   1       5.681  -1.924  -3.347  0.00  0.00     0.037 A 
ATOM     51  C   LIG d   1       6.081  -0.615  -3.121  0.00  0.00     0.001 A 
ATOM     52  C   LIG d   1       5.170   0.313  -2.641  0.00  0.00     0.119 A 
ATOM     53  H   LIG d   1       7.100  -0.318  -3.322  0.00  0.00     0.067 H 
ATOM     54  C   LIG d   1       3.863  -0.072  -2.377  0.00  0.00    -0.020 A 
ATOM     55  C   LIG d   1       3.468  -1.378  -2.598  0.00  0.00    -0.057 A 
ATOM     56  H   LIG d   1       3.154   0.650  -1.999  0.00  0.00     0.065 H 
ATOM     57  C   LIG d   1       4.371  -2.304  -3.082  0.00  0.00    -0.040 A 
ATOM     58  H   LIG d   1       2.450  -1.674  -2.392  0.00  0.00     0.062 H 
ATOM     59  H   LIG d   1       4.060  -3.323  -3.253  0.00  0.00     0.064 H 
BRANCH  52  60
ATOM     60  O   LIG d   1       5.558   1.597  -2.423  0.00  0.00    -0.507 OA
ATOM     61  H   LIG d   1       5.378   2.194  -3.162  0.00  0.00     0.292 HD
ENDBRANCH  52  60
ENDBRANCH  48  50
ENDBRANCH  43  46
ENDBRANCH  15  43
BRANCH   1  62
ATOM     62  C   LIG d   1       7.730  -6.707  -6.847  0.00  0.00    -0.059 C 
ATOM     63  H   LIG d   1       8.774  -6.432  -6.699  0.00  0.00     0.024 H 
ATOM     64  H   LIG d   1       7.670  -7.746  -7.171  0.00  0.00     0.024 H 
ATOM     65  H   LIG d   1       7.289  -6.064  -7.608  0.00  0.00     0.024 H 
ENDBRANCH   1  62
BRANCH   6  66
ATOM     66  C   LIG d   1       6.438 -10.236  -4.550  0.00  0.00    -0.055 C 
ATOM     67  H   LIG d   1       6.627 -11.103  -5.183  0.00  0.00     0.024 H 
ATOM     68  H   LIG d   1       7.249 -10.129  -3.830  0.00  0.00     0.024 H 
ATOM     69  H   LIG d   1       5.497 -10.372  -4.019  0.00  0.00     0.024 H 
ENDBRANCH   6  66
BRANCH   6  70
ATOM     70  C   LIG d   1       7.045  -9.252  -6.760  0.00  0.00     0.052 C 
ATOM     71  H   LIG d   1       6.566  -8.661  -7.540  0.00  0.00     0.056 H 
ATOM     72  H   LIG d   1       8.097  -8.978  -6.690  0.00  0.00     0.056 H 
BRANCH  70  73
ATOM     73  O   LIG d   1       6.934 -10.641  -7.079  0.00  0.00    -0.394 OA
ATOM     74  H   LIG d   1       7.178 -11.231  -6.352  0.00  0.00     0.209 HD
ENDBRANCH  70  73
ENDBRANCH   6  70
BRANCH   4  75
ATOM     75  O   LIG d   1       4.246  -9.706  -6.345  0.00  0.00    -0.391 OA
ATOM     76  H   LIG d   1       4.356  -9.702  -7.305  0.00  0.00     0.210 HD
ENDBRANCH   4  75
TORSDOF 15
ENDMDL
