MODEL 1
REMARK VINA RESULT:      -7.1      0.000      0.000
REMARK  8 active torsions:
REMARK  status: ('A' for Active; 'I' for Inactive)
REMARK    1  A    between atoms: C_1  and  C_2 
REMARK    2  A    between atoms: C_7  and  C_8 
REMARK    3  A    between atoms: C_15  and  O_29 
REMARK    4  A    between atoms: C_16  and  C_19 
REMARK    5  A    between atoms: C_19  and  N_20 
REMARK    6  A    between atoms: N_23  and  C_26 
REMARK    7  A    between atoms: C_26  and  C_27 
REMARK    8  A    between atoms: C_27  and  O_28 
ROOT
ATOM      1  C   LIG d   1       6.999   0.514  -2.995  0.00  0.00    -0.008 C 
ATOM      2  C   LIG d   1       7.488   1.051  -4.140  0.00  0.00     0.176 A 
ATOM      3  C   LIG d   1       8.655   1.941  -4.255  0.00  0.00     0.232 A 
ATOM      4  O   LIG d   1       9.375   2.346  -3.359  0.00  0.00    -0.283 OA
ATOM      5  C   LIG d   1       8.756   2.233  -5.696  0.00  0.00     0.068 A 
ATOM      6  C   LIG d   1       9.636   3.007  -6.454  0.00  0.00    -0.044 A 
ATOM      7  C   LIG d   1       9.476   3.091  -7.807  0.00  0.00    -0.019 A 
ATOM      8  C   LIG d   1       8.437   2.408  -8.433  0.00  0.00     0.129 A 
ATOM      9  C   LIG d   1       7.556   1.637  -7.694  0.00  0.00     0.081 A 
ATOM     10  C   LIG d   1       7.704   1.540  -6.316  0.00  0.00     0.151 A 
ATOM     11  O   LIG d   1       6.994   0.862  -5.387  0.00  0.00    -0.451 OA
ATOM     12  H   LIG d   1       7.401   0.819  -2.041  0.00  0.00     0.066 H 
ATOM     13  H   LIG d   1      10.443   3.539  -5.969  0.00  0.00     0.063 H 
ATOM     14  H   LIG d   1      10.158   3.690  -8.394  0.00  0.00     0.065 H 
ENDROOT
BRANCH   9  15
ATOM     15  C   LIG d   1       6.434   0.903  -8.384  0.00  0.00     0.001 C 
ATOM     16  H   LIG d   1       5.521   1.493  -8.321  0.00  0.00     0.087 H 
ATOM     17  H   LIG d   1       6.694   0.746  -9.431  0.00  0.00     0.087 H 
BRANCH  15  18
ATOM     18  N   LIG d   1       6.225  -0.396  -7.731  0.00  0.00     0.240 N 
ATOM     19  C   LIG d   1       4.818  -0.793  -7.874  0.00  0.00    -0.018 C 
ATOM     20  C   LIG d   1       4.595  -2.137  -7.176  0.00  0.00     0.039 C 
ATOM     21  H   LIG d   1       4.179  -0.038  -7.417  0.00  0.00     0.083 H 
ATOM     22  H   LIG d   1       4.572  -0.887  -8.931  0.00  0.00     0.083 H 
ATOM     23  N   LIG d   1       5.472  -3.151  -7.781  0.00  0.00    -0.290 N 
ATOM     24  H   LIG d   1       3.554  -2.440  -7.295  0.00  0.00     0.048 H 
ATOM     25  H   LIG d   1       4.828  -2.041  -6.116  0.00  0.00     0.048 H 
ATOM     26  C   LIG d   1       6.882  -2.754  -7.669  0.00  0.00     0.039 C 
ATOM     27  C   LIG d   1       7.086  -1.404  -8.361  0.00  0.00    -0.018 C 
ATOM     28  H   LIG d   1       7.510  -3.507  -8.145  0.00  0.00     0.048 H 
ATOM     29  H   LIG d   1       7.152  -2.668  -6.616  0.00  0.00     0.048 H 
ATOM     30  H   LIG d   1       6.829  -1.495  -9.416  0.00  0.00     0.083 H 
ATOM     31  H   LIG d   1       8.129  -1.102  -8.266  0.00  0.00     0.083 H 
ATOM     32  H   LIG d   1       6.455  -0.321  -6.752  0.00  0.00     0.204 HD
BRANCH  23  33
ATOM     33  C   LIG d   1       5.245  -4.470  -7.177  0.00  0.00     0.022 C 
ATOM     34  H   LIG d   1       5.940  -5.191  -7.608  0.00  0.00     0.045 H 
ATOM     35  H   LIG d   1       5.407  -4.410  -6.100  0.00  0.00     0.045 H 
BRANCH  33  36
ATOM     36  C   LIG d   1       3.809  -4.918  -7.452  0.00  0.00     0.057 C 
ATOM     37  H   LIG d   1       3.287  -4.141  -8.011  0.00  0.00     0.057 H 
ATOM     38  H   LIG d   1       3.819  -5.838  -8.035  0.00  0.00     0.057 H 
BRANCH  36  39
ATOM     39  O   LIG d   1       3.135  -5.146  -6.212  0.00  0.00    -0.394 OA
ATOM     40  H   LIG d   1       2.446  -5.823  -6.258  0.00  0.00     0.209 HD
ENDBRANCH  36  39
ENDBRANCH  33  36
ENDBRANCH  23  33
ENDBRANCH  15  18
ENDBRANCH   9  15
BRANCH   8  41
ATOM     41  O   LIG d   1       8.287   2.498  -9.779  0.00  0.00    -0.506 OA
ATOM     42  H   LIG d   1       7.678   3.194 -10.061  0.00  0.00     0.292 HD
ENDBRANCH   8  41
BRANCH   1  43
ATOM     43  C   LIG d   1       5.922  -0.485  -3.054  0.00  0.00    -0.018 A 
ATOM     44  C   LIG d   1       4.693  -0.230  -2.436  0.00  0.00    -0.043 A 
ATOM     45  C   LIG d   1       3.685  -1.169  -2.501  0.00  0.00    -0.058 A 
ATOM     46  C   LIG d   1       3.890  -2.364  -3.168  0.00  0.00    -0.061 A 
ATOM     47  H   LIG d   1       2.733  -0.972  -2.029  0.00  0.00     0.062 H 
ATOM     48  C   LIG d   1       5.104  -2.626  -3.778  0.00  0.00    -0.061 A 
ATOM     49  H   LIG d   1       3.097  -3.095  -3.215  0.00  0.00     0.062 H 
ATOM     50  C   LIG d   1       6.122  -1.698  -3.723  0.00  0.00    -0.054 A 
ATOM     51  H   LIG d   1       5.256  -3.561  -4.297  0.00  0.00     0.062 H 
ATOM     52  H   LIG d   1       7.070  -1.905  -4.197  0.00  0.00     0.062 H 
BRANCH  44  53
ATOM     53  C   LIG d   1       4.467   1.070  -1.707  0.00  0.00    -0.039 C 
ATOM     54  H   LIG d   1       4.844   0.985  -0.688  0.00  0.00     0.028 H 
ATOM     55  H   LIG d   1       4.993   1.873  -2.224  0.00  0.00     0.028 H 
ATOM     56  H   LIG d   1       3.400   1.292  -1.682  0.00  0.00     0.028 H 
ENDBRANCH  44  53
ENDBRANCH   1  43
TORSDOF 8
ENDMDL
MODEL 2
REMARK VINA RESULT:      -6.9      3.634      7.922
REMARK  8 active torsions:
REMARK  status: ('A' for Active; 'I' for Inactive)
REMARK    1  A    between atoms: C_1  and  C_2 
REMARK    2  A    between atoms: C_7  and  C_8 
REMARK    3  A    between atoms: C_15  and  O_29 
REMARK    4  A    between atoms: C_16  and  C_19 
REMARK    5  A    between atoms: C_19  and  N_20 
REMARK    6  A    between atoms: N_23  and  C_26 
REMARK    7  A    between atoms: C_26  and  C_27 
REMARK    8  A    between atoms: C_27  and  O_28 
ROOT
ATOM      1  C   LIG d   1       2.169  -1.472 -10.245  0.00  0.00    -0.008 C 
ATOM      2  C   LIG d   1       2.691  -2.577  -9.657  0.00  0.00     0.176 A 
ATOM      3  C   LIG d   1       2.385  -3.975 -10.005  0.00  0.00     0.232 A 
ATOM      4  O   LIG d   1       1.624  -4.379 -10.866  0.00  0.00    -0.283 OA
ATOM      5  C   LIG d   1       3.206  -4.774  -9.078  0.00  0.00     0.068 A 
ATOM      6  C   LIG d   1       3.372  -6.147  -8.891  0.00  0.00    -0.044 A 
ATOM      7  C   LIG d   1       4.224  -6.605  -7.927  0.00  0.00    -0.019 A 
ATOM      8  C   LIG d   1       4.928  -5.705  -7.130  0.00  0.00     0.129 A 
ATOM      9  C   LIG d   1       4.773  -4.340  -7.304  0.00  0.00     0.081 A 
ATOM     10  C   LIG d   1       3.910  -3.857  -8.280  0.00  0.00     0.151 A 
ATOM     11  O   LIG d   1       3.592  -2.596  -8.647  0.00  0.00    -0.451 OA
ATOM     12  H   LIG d   1       1.373  -1.570 -10.968  0.00  0.00     0.066 H 
ATOM     13  H   LIG d   1       2.826  -6.847  -9.508  0.00  0.00     0.063 H 
ATOM     14  H   LIG d   1       4.353  -7.668  -7.782  0.00  0.00     0.065 H 
ENDROOT
BRANCH   9  15
ATOM     15  C   LIG d   1       5.540  -3.377  -6.434  0.00  0.00     0.001 C 
ATOM     16  H   LIG d   1       6.223  -3.932  -5.793  0.00  0.00     0.087 H 
ATOM     17  H   LIG d   1       6.108  -2.692  -7.063  0.00  0.00     0.087 H 
BRANCH  15  18
ATOM     18  N   LIG d   1       4.599  -2.615  -5.603  0.00  0.00     0.240 N 
ATOM     19  C   LIG d   1       4.858  -2.899  -4.185  0.00  0.00    -0.018 C 
ATOM     20  C   LIG d   1       3.866  -2.119  -3.319  0.00  0.00     0.039 C 
ATOM     21  H   LIG d   1       4.739  -3.966  -4.001  0.00  0.00     0.083 H 
ATOM     22  H   LIG d   1       5.875  -2.597  -3.934  0.00  0.00     0.083 H 
ATOM     23  N   LIG d   1       4.015  -0.680  -3.584  0.00  0.00    -0.290 N 
ATOM     24  H   LIG d   1       4.067  -2.318  -2.266  0.00  0.00     0.048 H 
ATOM     25  H   LIG d   1       2.849  -2.430  -3.561  0.00  0.00     0.048 H 
ATOM     26  C   LIG d   1       3.784  -0.384  -5.004  0.00  0.00     0.039 C 
ATOM     27  C   LIG d   1       4.776  -1.179  -5.856  0.00  0.00    -0.018 C 
ATOM     28  H   LIG d   1       3.924   0.682  -5.181  0.00  0.00     0.048 H 
ATOM     29  H   LIG d   1       2.766  -0.666  -5.273  0.00  0.00     0.048 H 
ATOM     30  H   LIG d   1       5.793  -0.886  -5.597  0.00  0.00     0.083 H 
ATOM     31  H   LIG d   1       4.597  -0.971  -6.911  0.00  0.00     0.083 H 
ATOM     32  H   LIG d   1       3.654  -2.882  -5.832  0.00  0.00     0.204 HD
BRANCH  23  33
ATOM     33  C   LIG d   1       3.118   0.107  -2.728  0.00  0.00     0.022 C 
ATOM     34  H   LIG d   1       2.186   0.302  -3.260  0.00  0.00     0.045 H 
ATOM     35  H   LIG d   1       2.905  -0.449  -1.815  0.00  0.00     0.045 H 
BRANCH  33  36
ATOM     36  C   LIG d   1       3.789   1.435  -2.370  0.00  0.00     0.057 C 
ATOM     37  H   LIG d   1       4.035   1.975  -3.285  0.00  0.00     0.057 H 
ATOM     38  H   LIG d   1       3.110   2.035  -1.766  0.00  0.00     0.057 H 
BRANCH  36  39
ATOM     39  O   LIG d   1       4.986   1.180  -1.631  0.00  0.00    -0.394 OA
ATOM     40  H   LIG d   1       5.776   1.592  -2.007  0.00  0.00     0.209 HD
ENDBRANCH  36  39
ENDBRANCH  33  36
ENDBRANCH  23  33
ENDBRANCH  15  18
ENDBRANCH   9  15
BRANCH   8  41
ATOM     41  O   LIG d   1       5.773  -6.171  -6.176  0.00  0.00    -0.506 OA
ATOM     42  H   LIG d   1       6.572  -5.638  -6.063  0.00  0.00     0.292 HD
ENDBRANCH   8  41
BRANCH   1  43
ATOM     43  C   LIG d   1       2.688  -0.142  -9.899  0.00  0.00    -0.018 A 
ATOM     44  C   LIG d   1       3.527   0.539 -10.788  0.00  0.00    -0.043 A 
ATOM     45  C   LIG d   1       4.004   1.790 -10.459  0.00  0.00    -0.058 A 
ATOM     46  C   LIG d   1       3.662   2.369  -9.250  0.00  0.00    -0.061 A 
ATOM     47  H   LIG d   1       4.648   2.319 -11.147  0.00  0.00     0.062 H 
ATOM     48  C   LIG d   1       2.838   1.701  -8.362  0.00  0.00    -0.061 A 
ATOM     49  H   LIG d   1       4.040   3.349  -8.998  0.00  0.00     0.062 H 
ATOM     50  C   LIG d   1       2.351   0.449  -8.675  0.00  0.00    -0.054 A 
ATOM     51  H   LIG d   1       2.575   2.159  -7.420  0.00  0.00     0.062 H 
ATOM     52  H   LIG d   1       1.709  -0.072  -7.981  0.00  0.00     0.062 H 
BRANCH  44  53
ATOM     53  C   LIG d   1       3.902  -0.090 -12.106  0.00  0.00    -0.039 C 
ATOM     54  H   LIG d   1       3.114  -0.775 -12.419  0.00  0.00     0.028 H 
ATOM     55  H   LIG d   1       4.028   0.689 -12.858  0.00  0.00     0.028 H 
ATOM     56  H   LIG d   1       4.837  -0.639 -11.992  0.00  0.00     0.028 H 
ENDBRANCH  44  53
ENDBRANCH   1  43
TORSDOF 8
ENDMDL
MODEL 3
REMARK VINA RESULT:      -6.7      3.083      7.337
REMARK  8 active torsions:
REMARK  status: ('A' for Active; 'I' for Inactive)
REMARK    1  A    between atoms: C_1  and  C_2 
REMARK    2  A    between atoms: C_7  and  C_8 
REMARK    3  A    between atoms: C_15  and  O_29 
REMARK    4  A    between atoms: C_16  and  C_19 
REMARK    5  A    between atoms: C_19  and  N_20 
REMARK    6  A    between atoms: N_23  and  C_26 
REMARK    7  A    between atoms: C_26  and  C_27 
REMARK    8  A    between atoms: C_27  and  O_28 
ROOT
ATOM      1  C   LIG d   1       2.319   0.681  -7.005  0.00  0.00    -0.008 C 
ATOM      2  C   LIG d   1       3.067   0.155  -6.004  0.00  0.00     0.176 A 
ATOM      3  C   LIG d   1       2.573  -0.298  -4.694  0.00  0.00     0.232 A 
ATOM      4  O   LIG d   1       1.426  -0.282  -4.283  0.00  0.00    -0.283 OA
ATOM      5  C   LIG d   1       3.776  -0.776  -3.990  0.00  0.00     0.068 A 
ATOM      6  C   LIG d   1       3.988  -1.323  -2.723  0.00  0.00    -0.044 A 
ATOM      7  C   LIG d   1       5.248  -1.680  -2.338  0.00  0.00    -0.019 A 
ATOM      8  C   LIG d   1       6.323  -1.500  -3.205  0.00  0.00     0.129 A 
ATOM      9  C   LIG d   1       6.128  -0.958  -4.465  0.00  0.00     0.081 A 
ATOM     10  C   LIG d   1       4.852  -0.589  -4.873  0.00  0.00     0.151 A 
ATOM     11  O   LIG d   1       4.404  -0.054  -6.030  0.00  0.00    -0.451 OA
ATOM     12  H   LIG d   1       1.277   0.908  -6.838  0.00  0.00     0.066 H 
ATOM     13  H   LIG d   1       3.155  -1.463  -2.049  0.00  0.00     0.063 H 
ATOM     14  H   LIG d   1       5.412  -2.104  -1.357  0.00  0.00     0.065 H 
ENDROOT
BRANCH   9  15
ATOM     15  C   LIG d   1       7.301  -0.767  -5.393  0.00  0.00     0.001 C 
ATOM     16  H   LIG d   1       7.710  -1.739  -5.666  0.00  0.00     0.087 H 
ATOM     17  H   LIG d   1       6.971  -0.245  -6.291  0.00  0.00     0.087 H 
BRANCH  15  18
ATOM     18  N   LIG d   1       8.335   0.027  -4.716  0.00  0.00     0.240 N 
ATOM     19  C   LIG d   1       9.546   0.062  -5.547  0.00  0.00    -0.018 C 
ATOM     20  C   LIG d   1      10.630   0.873  -4.834  0.00  0.00     0.039 C 
ATOM     21  H   LIG d   1       9.902  -0.954  -5.712  0.00  0.00     0.083 H 
ATOM     22  H   LIG d   1       9.315   0.526  -6.505  0.00  0.00     0.083 H 
ATOM     23  N   LIG d   1      10.139   2.238  -4.595  0.00  0.00    -0.290 N 
ATOM     24  H   LIG d   1      11.524   0.912  -5.457  0.00  0.00     0.048 H 
ATOM     25  H   LIG d   1      10.870   0.401  -3.881  0.00  0.00     0.048 H 
ATOM     26  C   LIG d   1       8.913   2.218  -3.786  0.00  0.00     0.039 C 
ATOM     27  C   LIG d   1       7.843   1.395  -4.507  0.00  0.00    -0.018 C 
ATOM     28  H   LIG d   1       8.554   3.237  -3.643  0.00  0.00     0.048 H 
ATOM     29  H   LIG d   1       9.125   1.768  -2.816  0.00  0.00     0.048 H 
ATOM     30  H   LIG d   1       7.621   1.853  -5.471  0.00  0.00     0.083 H 
ATOM     31  H   LIG d   1       6.937   1.366  -3.902  0.00  0.00     0.083 H 
ATOM     32  H   LIG d   1       8.551  -0.392  -3.824  0.00  0.00     0.204 HD
BRANCH  23  33
ATOM     33  C   LIG d   1      11.174   3.067  -3.963  0.00  0.00     0.022 C 
ATOM     34  H   LIG d   1      12.071   2.468  -3.804  0.00  0.00     0.045 H 
ATOM     35  H   LIG d   1      11.411   3.910  -4.611  0.00  0.00     0.045 H 
BRANCH  33  36
ATOM     36  C   LIG d   1      10.661   3.586  -2.618  0.00  0.00     0.057 C 
ATOM     37  H   LIG d   1       9.947   4.391  -2.789  0.00  0.00     0.057 H 
ATOM     38  H   LIG d   1      10.174   2.776  -2.077  0.00  0.00     0.057 H 
BRANCH  36  39
ATOM     39  O   LIG d   1      11.760   4.080  -1.848  0.00  0.00    -0.394 OA
ATOM     40  H   LIG d   1      11.666   3.943  -0.895  0.00  0.00     0.209 HD
ENDBRANCH  36  39
ENDBRANCH  33  36
ENDBRANCH  23  33
ENDBRANCH  15  18
ENDBRANCH   9  15
BRANCH   8  41
ATOM     41  O   LIG d   1       7.571  -1.858  -2.812  0.00  0.00    -0.506 OA
ATOM     42  H   LIG d   1       7.872  -2.703  -3.177  0.00  0.00     0.292 HD
ENDBRANCH   8  41
BRANCH   1  43
ATOM     43  C   LIG d   1       2.927   0.941  -8.318  0.00  0.00    -0.018 A 
ATOM     44  C   LIG d   1       3.004  -0.080  -9.272  0.00  0.00    -0.043 A 
ATOM     45  C   LIG d   1       3.570   0.175 -10.503  0.00  0.00    -0.058 A 
ATOM     46  C   LIG d   1       4.067   1.433 -10.794  0.00  0.00    -0.061 A 
ATOM     47  H   LIG d   1       3.627  -0.611 -11.243  0.00  0.00     0.062 H 
ATOM     48  C   LIG d   1       3.998   2.447  -9.855  0.00  0.00    -0.061 A 
ATOM     49  H   LIG d   1       4.509   1.625 -11.760  0.00  0.00     0.062 H 
ATOM     50  C   LIG d   1       3.436   2.210  -8.619  0.00  0.00    -0.054 A 
ATOM     51  H   LIG d   1       4.388   3.427 -10.090  0.00  0.00     0.062 H 
ATOM     52  H   LIG d   1       3.384   3.002  -7.887  0.00  0.00     0.062 H 
BRANCH  44  53
ATOM     53  C   LIG d   1       2.466  -1.452  -8.957  0.00  0.00    -0.039 C 
ATOM     54  H   LIG d   1       1.677  -1.369  -8.208  0.00  0.00     0.028 H 
ATOM     55  H   LIG d   1       2.061  -1.901  -9.864  0.00  0.00     0.028 H 
ATOM     56  H   LIG d   1       3.270  -2.077  -8.569  0.00  0.00     0.028 H 
ENDBRANCH  44  53
ENDBRANCH   1  43
TORSDOF 8
ENDMDL
MODEL 4
REMARK VINA RESULT:      -6.7      2.402      5.777
REMARK  8 active torsions:
REMARK  status: ('A' for Active; 'I' for Inactive)
REMARK    1  A    between atoms: C_1  and  C_2 
REMARK    2  A    between atoms: C_7  and  C_8 
REMARK    3  A    between atoms: C_15  and  O_29 
REMARK    4  A    between atoms: C_16  and  C_19 
REMARK    5  A    between atoms: C_19  and  N_20 
REMARK    6  A    between atoms: N_23  and  C_26 
REMARK    7  A    between atoms: C_26  and  C_27 
REMARK    8  A    between atoms: C_27  and  O_28 
ROOT
ATOM      1  C   LIG d   1       3.013  -0.091  -5.282  0.00  0.00    -0.008 C 
ATOM      2  C   LIG d   1       3.849  -0.066  -6.349  0.00  0.00     0.176 A 
ATOM      3  C   LIG d   1       3.451  -0.001  -7.765  0.00  0.00     0.232 A 
ATOM      4  O   LIG d   1       2.321   0.040  -8.221  0.00  0.00    -0.283 OA
ATOM      5  C   LIG d   1       4.724   0.002  -8.507  0.00  0.00     0.068 A 
ATOM      6  C   LIG d   1       5.037   0.049  -9.867  0.00  0.00    -0.044 A 
ATOM      7  C   LIG d   1       6.343   0.037 -10.265  0.00  0.00    -0.019 A 
ATOM      8  C   LIG d   1       7.363  -0.022  -9.319  0.00  0.00     0.129 A 
ATOM      9  C   LIG d   1       7.068  -0.069  -7.967  0.00  0.00     0.081 A 
ATOM     10  C   LIG d   1       5.744  -0.058  -7.544  0.00  0.00     0.151 A 
ATOM     11  O   LIG d   1       5.202  -0.091  -6.307  0.00  0.00    -0.451 OA
ATOM     12  H   LIG d   1       1.948  -0.181  -5.433  0.00  0.00     0.066 H 
ATOM     13  H   LIG d   1       4.246   0.094 -10.602  0.00  0.00     0.063 H 
ATOM     14  H   LIG d   1       6.585   0.073 -11.318  0.00  0.00     0.065 H 
ENDROOT
BRANCH   9  15
ATOM     15  C   LIG d   1       8.182  -0.135  -6.954  0.00  0.00     0.001 C 
ATOM     16  H   LIG d   1       8.033  -0.997  -6.305  0.00  0.00     0.087 H 
ATOM     17  H   LIG d   1       9.137  -0.228  -7.471  0.00  0.00     0.087 H 
BRANCH  15  18
ATOM     18  N   LIG d   1       8.180   1.092  -6.146  0.00  0.00     0.240 N 
ATOM     19  C   LIG d   1       8.185   0.738  -4.720  0.00  0.00    -0.018 C 
ATOM     20  C   LIG d   1       8.164   2.016  -3.878  0.00  0.00     0.039 C 
ATOM     21  H   LIG d   1       7.305   0.139  -4.492  0.00  0.00     0.083 H 
ATOM     22  H   LIG d   1       9.084   0.167  -4.491  0.00  0.00     0.083 H 
ATOM     23  N   LIG d   1       9.343   2.833  -4.202  0.00  0.00    -0.290 N 
ATOM     24  H   LIG d   1       8.183   1.754  -2.819  0.00  0.00     0.048 H 
ATOM     25  H   LIG d   1       7.258   2.582  -4.097  0.00  0.00     0.048 H 
ATOM     26  C   LIG d   1       9.365   3.173  -5.631  0.00  0.00     0.039 C 
ATOM     27  C   LIG d   1       9.375   1.886  -6.459  0.00  0.00    -0.018 C 
ATOM     28  H   LIG d   1      10.258   3.756  -5.852  0.00  0.00     0.048 H 
ATOM     29  H   LIG d   1       8.479   3.758  -5.879  0.00  0.00     0.048 H 
ATOM     30  H   LIG d   1      10.268   1.309  -6.221  0.00  0.00     0.083 H 
ATOM     31  H   LIG d   1       9.377   2.137  -7.520  0.00  0.00     0.083 H 
ATOM     32  H   LIG d   1       7.354   1.632  -6.355  0.00  0.00     0.204 HD
BRANCH  23  33
ATOM     33  C   LIG d   1       9.389   4.043  -3.371  0.00  0.00     0.022 C 
ATOM     34  H   LIG d   1       9.325   4.924  -4.009  0.00  0.00     0.045 H 
ATOM     35  H   LIG d   1       8.551   4.038  -2.674  0.00  0.00     0.045 H 
BRANCH  33  36
ATOM     36  C   LIG d   1      10.703   4.074  -2.587  0.00  0.00     0.057 C 
ATOM     37  H   LIG d   1      11.524   4.308  -3.265  0.00  0.00     0.057 H 
ATOM     38  H   LIG d   1      10.645   4.834  -1.810  0.00  0.00     0.057 H 
BRANCH  36  39
ATOM     39  O   LIG d   1      10.930   2.796  -1.988  0.00  0.00    -0.394 OA
ATOM     40  H   LIG d   1      10.555   2.705  -1.101  0.00  0.00     0.209 HD
ENDBRANCH  36  39
ENDBRANCH  33  36
ENDBRANCH  23  33
ENDBRANCH  15  18
ENDBRANCH   9  15
BRANCH   8  41
ATOM     41  O   LIG d   1       8.657  -0.033  -9.726  0.00  0.00    -0.506 OA
ATOM     42  H   LIG d   1       8.828  -0.612 -10.483  0.00  0.00     0.292 HD
ENDBRANCH   8  41
BRANCH   1  43
ATOM     43  C   LIG d   1       3.558   0.003  -3.920  0.00  0.00    -0.018 A 
ATOM     44  C   LIG d   1       4.056  -1.138  -3.282  0.00  0.00    -0.043 A 
ATOM     45  C   LIG d   1       4.571  -1.039  -2.006  0.00  0.00    -0.058 A 
ATOM     46  C   LIG d   1       4.590   0.182  -1.356  0.00  0.00    -0.061 A 
ATOM     47  H   LIG d   1       4.961  -1.918  -1.513  0.00  0.00     0.062 H 
ATOM     48  C   LIG d   1       4.095   1.315  -1.978  0.00  0.00    -0.061 A 
ATOM     49  H   LIG d   1       4.995   0.252  -0.357  0.00  0.00     0.062 H 
ATOM     50  C   LIG d   1       3.577   1.234  -3.253  0.00  0.00    -0.054 A 
ATOM     51  H   LIG d   1       4.114   2.264  -1.464  0.00  0.00     0.062 H 
ATOM     52  H   LIG d   1       3.190   2.118  -3.737  0.00  0.00     0.062 H 
BRANCH  44  53
ATOM     53  C   LIG d   1       4.035  -2.470  -3.987  0.00  0.00    -0.039 C 
ATOM     54  H   LIG d   1       4.379  -3.247  -3.304  0.00  0.00     0.028 H 
ATOM     55  H   LIG d   1       3.020  -2.693  -4.312  0.00  0.00     0.028 H 
ATOM     56  H   LIG d   1       4.694  -2.431  -4.855  0.00  0.00     0.028 H 
ENDBRANCH  44  53
ENDBRANCH   1  43
TORSDOF 8
ENDMDL
MODEL 5
REMARK VINA RESULT:      -6.6      2.580      6.892
REMARK  8 active torsions:
REMARK  status: ('A' for Active; 'I' for Inactive)
REMARK    1  A    between atoms: C_1  and  C_2 
REMARK    2  A    between atoms: C_7  and  C_8 
REMARK    3  A    between atoms: C_15  and  O_29 
REMARK    4  A    between atoms: C_16  and  C_19 
REMARK    5  A    between atoms: C_19  and  N_20 
REMARK    6  A    between atoms: N_23  and  C_26 
REMARK    7  A    between atoms: C_26  and  C_27 
REMARK    8  A    between atoms: C_27  and  O_28 
ROOT
ATOM      1  C   LIG d   1       2.449   0.701  -7.133  0.00  0.00    -0.008 C 
ATOM      2  C   LIG d   1       3.243   0.182  -6.164  0.00  0.00     0.176 A 
ATOM      3  C   LIG d   1       2.825  -0.187  -4.801  0.00  0.00     0.232 A 
ATOM      4  O   LIG d   1       1.713  -0.093  -4.311  0.00  0.00    -0.283 OA
ATOM      5  C   LIG d   1       4.053  -0.695  -4.163  0.00  0.00     0.068 A 
ATOM      6  C   LIG d   1       4.330  -1.195  -2.890  0.00  0.00    -0.044 A 
ATOM      7  C   LIG d   1       5.597  -1.599  -2.579  0.00  0.00    -0.019 A 
ATOM      8  C   LIG d   1       6.612  -1.513  -3.528  0.00  0.00     0.129 A 
ATOM      9  C   LIG d   1       6.352  -1.018  -4.795  0.00  0.00     0.081 A 
ATOM     10  C   LIG d   1       5.068  -0.602  -5.128  0.00  0.00     0.151 A 
ATOM     11  O   LIG d   1       4.563  -0.096  -6.275  0.00  0.00    -0.451 OA
ATOM     12  H   LIG d   1       1.434   0.988  -6.903  0.00  0.00     0.066 H 
ATOM     13  H   LIG d   1       3.543  -1.262  -2.152  0.00  0.00     0.063 H 
ATOM     14  H   LIG d   1       5.812  -1.987  -1.593  0.00  0.00     0.065 H 
ENDROOT
BRANCH   9  15
ATOM     15  C   LIG d   1       7.461  -0.928  -5.812  0.00  0.00     0.001 C 
ATOM     16  H   LIG d   1       8.391  -1.281  -5.367  0.00  0.00     0.087 H 
ATOM     17  H   LIG d   1       7.212  -1.546  -6.675  0.00  0.00     0.087 H 
BRANCH  15  18
ATOM     18  N   LIG d   1       7.621   0.468  -6.237  0.00  0.00     0.240 N 
ATOM     19  C   LIG d   1       8.806   1.044  -5.588  0.00  0.00    -0.018 C 
ATOM     20  C   LIG d   1       8.963   2.506  -6.016  0.00  0.00     0.039 C 
ATOM     21  H   LIG d   1       8.687   0.995  -4.506  0.00  0.00     0.083 H 
ATOM     22  H   LIG d   1       9.691   0.482  -5.882  0.00  0.00     0.083 H 
ATOM     23  N   LIG d   1       9.104   2.572  -7.478  0.00  0.00    -0.290 N 
ATOM     24  H   LIG d   1       9.851   2.929  -5.545  0.00  0.00     0.048 H 
ATOM     25  H   LIG d   1       8.083   3.071  -5.710  0.00  0.00     0.048 H 
ATOM     26  C   LIG d   1       7.937   1.975  -8.142  0.00  0.00     0.039 C 
ATOM     27  C   LIG d   1       7.788   0.519  -7.695  0.00  0.00    -0.018 C 
ATOM     28  H   LIG d   1       8.075   2.013  -9.223  0.00  0.00     0.048 H 
ATOM     29  H   LIG d   1       7.041   2.533  -7.871  0.00  0.00     0.048 H 
ATOM     30  H   LIG d   1       8.679  -0.041  -7.980  0.00  0.00     0.083 H 
ATOM     31  H   LIG d   1       6.914   0.079  -8.177  0.00  0.00     0.083 H 
ATOM     32  H   LIG d   1       6.803   0.997  -5.974  0.00  0.00     0.204 HD
BRANCH  23  33
ATOM     33  C   LIG d   1       9.315   3.955  -7.924  0.00  0.00     0.022 C 
ATOM     34  H   LIG d   1       8.615   4.613  -7.409  0.00  0.00     0.045 H 
ATOM     35  H   LIG d   1      10.337   4.260  -7.694  0.00  0.00     0.045 H 
BRANCH  33  36
ATOM     36  C   LIG d   1       9.085   4.045  -9.434  0.00  0.00     0.057 C 
ATOM     37  H   LIG d   1      10.035   4.231  -9.935  0.00  0.00     0.057 H 
ATOM     38  H   LIG d   1       8.662   3.108  -9.794  0.00  0.00     0.057 H 
BRANCH  36  39
ATOM     39  O   LIG d   1       8.181   5.116  -9.715  0.00  0.00    -0.394 OA
ATOM     40  H   LIG d   1       8.568   5.829 -10.242  0.00  0.00     0.209 HD
ENDBRANCH  36  39
ENDBRANCH  33  36
ENDBRANCH  23  33
ENDBRANCH  15  18
ENDBRANCH   9  15
BRANCH   8  41
ATOM     41  O   LIG d   1       7.867  -1.917  -3.208  0.00  0.00    -0.506 OA
ATOM     42  H   LIG d   1       8.566  -1.350  -3.561  0.00  0.00     0.292 HD
ENDBRANCH   8  41
BRANCH   1  43
ATOM     43  C   LIG d   1       2.971   0.872  -8.496  0.00  0.00    -0.018 A 
ATOM     44  C   LIG d   1       2.946  -0.198  -9.398  0.00  0.00    -0.043 A 
ATOM     45  C   LIG d   1       3.432  -0.027 -10.677  0.00  0.00    -0.058 A 
ATOM     46  C   LIG d   1       3.949   1.195 -11.068  0.00  0.00    -0.061 A 
ATOM     47  H   LIG d   1       3.409  -0.851 -11.376  0.00  0.00     0.062 H 
ATOM     48  C   LIG d   1       3.982   2.257 -10.181  0.00  0.00    -0.061 A 
ATOM     49  H   LIG d   1       4.328   1.322 -12.071  0.00  0.00     0.062 H 
ATOM     50  C   LIG d   1       3.500   2.104  -8.898  0.00  0.00    -0.054 A 
ATOM     51  H   LIG d   1       4.387   3.208 -10.494  0.00  0.00     0.062 H 
ATOM     52  H   LIG d   1       3.528   2.933  -8.207  0.00  0.00     0.062 H 
BRANCH  44  53
ATOM     53  C   LIG d   1       2.385  -1.531  -8.974  0.00  0.00    -0.039 C 
ATOM     54  H   LIG d   1       1.301  -1.522  -9.092  0.00  0.00     0.028 H 
ATOM     55  H   LIG d   1       2.812  -2.319  -9.594  0.00  0.00     0.028 H 
ATOM     56  H   LIG d   1       2.635  -1.715  -7.929  0.00  0.00     0.028 H 
ENDBRANCH  44  53
ENDBRANCH   1  43
TORSDOF 8
ENDMDL
MODEL 6
REMARK VINA RESULT:      -6.5      2.682      5.394
REMARK  8 active torsions:
REMARK  status: ('A' for Active; 'I' for Inactive)
REMARK    1  A    between atoms: C_1  and  C_2 
REMARK    2  A    between atoms: C_7  and  C_8 
REMARK    3  A    between atoms: C_15  and  O_29 
REMARK    4  A    between atoms: C_16  and  C_19 
REMARK    5  A    between atoms: C_19  and  N_20 
REMARK    6  A    between atoms: N_23  and  C_26 
REMARK    7  A    between atoms: C_26  and  C_27 
REMARK    8  A    between atoms: C_27  and  O_28 
ROOT
ATOM      1  C   LIG d   1       6.882  -1.754  -3.211  0.00  0.00    -0.008 C 
ATOM      2  C   LIG d   1       6.841  -2.631  -4.244  0.00  0.00     0.176 A 
ATOM      3  C   LIG d   1       7.826  -3.687  -4.529  0.00  0.00     0.232 A 
ATOM      4  O   LIG d   1       8.834  -3.956  -3.899  0.00  0.00    -0.283 OA
ATOM      5  C   LIG d   1       7.320  -4.346  -5.746  0.00  0.00     0.068 A 
ATOM      6  C   LIG d   1       7.787  -5.409  -6.521  0.00  0.00    -0.044 A 
ATOM      7  C   LIG d   1       7.087  -5.807  -7.623  0.00  0.00    -0.019 A 
ATOM      8  C   LIG d   1       5.908  -5.155  -7.977  0.00  0.00     0.129 A 
ATOM      9  C   LIG d   1       5.433  -4.098  -7.218  0.00  0.00     0.081 A 
ATOM     10  C   LIG d   1       6.133  -3.680  -6.093  0.00  0.00     0.151 A 
ATOM     11  O   LIG d   1       5.884  -2.698  -5.199  0.00  0.00    -0.451 OA
ATOM     12  H   LIG d   1       7.750  -1.715  -2.570  0.00  0.00     0.066 H 
ATOM     13  H   LIG d   1       8.702  -5.916  -6.248  0.00  0.00     0.063 H 
ATOM     14  H   LIG d   1       7.448  -6.630  -8.223  0.00  0.00     0.065 H 
ENDROOT
BRANCH   9  15
ATOM     15  C   LIG d   1       4.157  -3.400  -7.613  0.00  0.00     0.001 C 
ATOM     16  H   LIG d   1       3.637  -3.993  -8.365  0.00  0.00     0.087 H 
ATOM     17  H   LIG d   1       3.520  -3.285  -6.736  0.00  0.00     0.087 H 
BRANCH  15  18
ATOM     18  N   LIG d   1       4.475  -2.077  -8.166  0.00  0.00     0.240 N 
ATOM     19  C   LIG d   1       4.502  -2.154  -9.633  0.00  0.00    -0.018 C 
ATOM     20  C   LIG d   1       4.852  -0.780 -10.209  0.00  0.00     0.039 C 
ATOM     21  H   LIG d   1       5.253  -2.880  -9.944  0.00  0.00     0.083 H 
ATOM     22  H   LIG d   1       3.523  -2.463  -9.999  0.00  0.00     0.083 H 
ATOM     23  N   LIG d   1       3.849   0.201  -9.772  0.00  0.00    -0.290 N 
ATOM     24  H   LIG d   1       4.858  -0.833 -11.298  0.00  0.00     0.048 H 
ATOM     25  H   LIG d   1       5.837  -0.476  -9.854  0.00  0.00     0.048 H 
ATOM     26  C   LIG d   1       3.792   0.271  -8.305  0.00  0.00     0.039 C 
ATOM     27  C   LIG d   1       3.452  -1.112  -7.744  0.00  0.00    -0.018 C 
ATOM     28  H   LIG d   1       3.026   0.985  -8.004  0.00  0.00     0.048 H 
ATOM     29  H   LIG d   1       4.759   0.592  -7.919  0.00  0.00     0.048 H 
ATOM     30  H   LIG d   1       2.478  -1.426  -8.119  0.00  0.00     0.083 H 
ATOM     31  H   LIG d   1       3.423  -1.066  -6.655  0.00  0.00     0.083 H 
ATOM     32  H   LIG d   1       5.378  -1.779  -7.829  0.00  0.00     0.204 HD
BRANCH  23  33
ATOM     33  C   LIG d   1       4.118   1.523 -10.352  0.00  0.00     0.022 C 
ATOM     34  H   LIG d   1       4.902   1.437 -11.104  0.00  0.00     0.045 H 
ATOM     35  H   LIG d   1       3.210   1.908 -10.817  0.00  0.00     0.045 H 
BRANCH  33  36
ATOM     36  C   LIG d   1       4.571   2.482  -9.250  0.00  0.00     0.057 C 
ATOM     37  H   LIG d   1       4.078   3.445  -9.381  0.00  0.00     0.057 H 
ATOM     38  H   LIG d   1       4.307   2.069  -8.277  0.00  0.00     0.057 H 
BRANCH  36  39
ATOM     39  O   LIG d   1       5.988   2.659  -9.324  0.00  0.00    -0.394 OA
ATOM     40  H   LIG d   1       6.494   1.964  -8.881  0.00  0.00     0.209 HD
ENDBRANCH  36  39
ENDBRANCH  33  36
ENDBRANCH  23  33
ENDBRANCH  15  18
ENDBRANCH   9  15
BRANCH   8  41
ATOM     41  O   LIG d   1       5.220  -5.558  -9.075  0.00  0.00    -0.506 OA
ATOM     42  H   LIG d   1       4.273  -5.366  -9.038  0.00  0.00     0.292 HD
ENDBRANCH   8  41
BRANCH   1  43
ATOM     43  C   LIG d   1       5.744  -0.857  -2.964  0.00  0.00    -0.018 A 
ATOM     44  C   LIG d   1       5.887   0.524  -3.139  0.00  0.00    -0.043 A 
ATOM     45  C   LIG d   1       4.813   1.359  -2.912  0.00  0.00    -0.058 A 
ATOM     46  C   LIG d   1       3.599   0.835  -2.505  0.00  0.00    -0.061 A 
ATOM     47  H   LIG d   1       4.920   2.425  -3.051  0.00  0.00     0.062 H 
ATOM     48  C   LIG d   1       3.450  -0.529  -2.324  0.00  0.00    -0.061 A 
ATOM     49  H   LIG d   1       2.762   1.494  -2.328  0.00  0.00     0.062 H 
ATOM     50  C   LIG d   1       4.513  -1.378  -2.547  0.00  0.00    -0.054 A 
ATOM     51  H   LIG d   1       2.499  -0.931  -2.006  0.00  0.00     0.062 H 
ATOM     52  H   LIG d   1       4.397  -2.442  -2.405  0.00  0.00     0.062 H 
BRANCH  44  53
ATOM     53  C   LIG d   1       7.209   1.098  -3.582  0.00  0.00    -0.039 C 
ATOM     54  H   LIG d   1       7.095   2.165  -3.772  0.00  0.00     0.028 H 
ATOM     55  H   LIG d   1       7.952   0.944  -2.800  0.00  0.00     0.028 H 
ATOM     56  H   LIG d   1       7.534   0.599  -4.495  0.00  0.00     0.028 H 
ENDBRANCH  44  53
ENDBRANCH   1  43
TORSDOF 8
ENDMDL
MODEL 7
REMARK VINA RESULT:      -6.4      2.300      3.206
REMARK  8 active torsions:
REMARK  status: ('A' for Active; 'I' for Inactive)
REMARK    1  A    between atoms: C_1  and  C_2 
REMARK    2  A    between atoms: C_7  and  C_8 
REMARK    3  A    between atoms: C_15  and  O_29 
REMARK    4  A    between atoms: C_16  and  C_19 
REMARK    5  A    between atoms: C_19  and  N_20 
REMARK    6  A    between atoms: N_23  and  C_26 
REMARK    7  A    between atoms: C_26  and  C_27 
REMARK    8  A    between atoms: C_27  and  O_28 
ROOT
ATOM      1  C   LIG d   1       7.559   0.180  -4.055  0.00  0.00    -0.008 C 
ATOM      2  C   LIG d   1       7.485   0.324  -5.401  0.00  0.00     0.176 A 
ATOM      3  C   LIG d   1       8.622   0.431  -6.330  0.00  0.00     0.232 A 
ATOM      4  O   LIG d   1       9.810   0.410  -6.059  0.00  0.00    -0.283 OA
ATOM      5  C   LIG d   1       8.002   0.569  -7.659  0.00  0.00     0.068 A 
ATOM      6  C   LIG d   1       8.523   0.712  -8.947  0.00  0.00    -0.044 A 
ATOM      7  C   LIG d   1       7.680   0.822 -10.015  0.00  0.00    -0.019 A 
ATOM      8  C   LIG d   1       6.300   0.792  -9.824  0.00  0.00     0.129 A 
ATOM      9  C   LIG d   1       5.769   0.651  -8.552  0.00  0.00     0.081 A 
ATOM     10  C   LIG d   1       6.613   0.538  -7.454  0.00  0.00     0.151 A 
ATOM     11  O   LIG d   1       6.350   0.389  -6.137  0.00  0.00    -0.451 OA
ATOM     12  H   LIG d   1       8.514   0.251  -3.557  0.00  0.00     0.066 H 
ATOM     13  H   LIG d   1       9.593   0.736  -9.096  0.00  0.00     0.063 H 
ATOM     14  H   LIG d   1       8.083   0.932 -11.011  0.00  0.00     0.065 H 
ENDROOT
BRANCH   9  15
ATOM     15  C   LIG d   1       4.274   0.622  -8.360  0.00  0.00     0.001 C 
ATOM     16  H   LIG d   1       4.046   0.390  -7.320  0.00  0.00     0.087 H 
ATOM     17  H   LIG d   1       3.856   1.596  -8.615  0.00  0.00     0.087 H 
BRANCH  15  18
ATOM     18  N   LIG d   1       3.689  -0.406  -9.231  0.00  0.00     0.240 N 
ATOM     19  C   LIG d   1       3.970  -1.736  -8.674  0.00  0.00    -0.018 C 
ATOM     20  C   LIG d   1       3.378  -2.808  -9.592  0.00  0.00     0.039 C 
ATOM     21  H   LIG d   1       5.048  -1.877  -8.600  0.00  0.00     0.083 H 
ATOM     22  H   LIG d   1       3.524  -1.817  -7.684  0.00  0.00     0.083 H 
ATOM     23  N   LIG d   1       1.926  -2.603  -9.706  0.00  0.00    -0.290 N 
ATOM     24  H   LIG d   1       3.574  -3.795  -9.171  0.00  0.00     0.048 H 
ATOM     25  H   LIG d   1       3.834  -2.736 -10.579  0.00  0.00     0.048 H 
ATOM     26  C   LIG d   1       1.628  -1.266 -10.237  0.00  0.00     0.039 C 
ATOM     27  C   LIG d   1       2.237  -0.207  -9.315  0.00  0.00    -0.018 C 
ATOM     28  H   LIG d   1       0.549  -1.128 -10.289  0.00  0.00     0.048 H 
ATOM     29  H   LIG d   1       2.056  -1.168 -11.235  0.00  0.00     0.048 H 
ATOM     30  H   LIG d   1       1.798  -0.295  -8.322  0.00  0.00     0.083 H 
ATOM     31  H   LIG d   1       2.029   0.786  -9.716  0.00  0.00     0.083 H 
ATOM     32  H   LIG d   1       4.092  -0.335 -10.153  0.00  0.00     0.204 HD
BRANCH  23  33
ATOM     33  C   LIG d   1       1.311  -3.649 -10.533  0.00  0.00     0.022 C 
ATOM     34  H   LIG d   1       0.229  -3.626 -10.402  0.00  0.00     0.045 H 
ATOM     35  H   LIG d   1       1.553  -3.473 -11.582  0.00  0.00     0.045 H 
BRANCH  33  36
ATOM     36  C   LIG d   1       1.848  -5.017 -10.110  0.00  0.00     0.057 C 
ATOM     37  H   LIG d   1       2.254  -5.533 -10.980  0.00  0.00     0.057 H 
ATOM     38  H   LIG d   1       2.633  -4.886  -9.366  0.00  0.00     0.057 H 
BRANCH  36  39
ATOM     39  O   LIG d   1       0.786  -5.793  -9.550  0.00  0.00    -0.394 OA
ATOM     40  H   LIG d   1      -0.005  -5.836 -10.105  0.00  0.00     0.209 HD
ENDBRANCH  36  39
ENDBRANCH  33  36
ENDBRANCH  23  33
ENDBRANCH  15  18
ENDBRANCH   9  15
BRANCH   8  41
ATOM     41  O   LIG d   1       5.471   0.901 -10.892  0.00  0.00    -0.506 OA
ATOM     42  H   LIG d   1       4.750   0.256 -10.899  0.00  0.00     0.292 HD
ENDBRANCH   8  41
BRANCH   1  43
ATOM     43  C   LIG d   1       6.340  -0.074  -3.275  0.00  0.00    -0.018 A 
ATOM     44  C   LIG d   1       5.868  -1.381  -3.113  0.00  0.00    -0.043 A 
ATOM     45  C   LIG d   1       4.726  -1.611  -2.374  0.00  0.00    -0.058 A 
ATOM     46  C   LIG d   1       4.045  -0.553  -1.799  0.00  0.00    -0.061 A 
ATOM     47  H   LIG d   1       4.363  -2.620  -2.244  0.00  0.00     0.062 H 
ATOM     48  C   LIG d   1       4.502   0.744  -1.958  0.00  0.00    -0.061 A 
ATOM     49  H   LIG d   1       3.152  -0.740  -1.222  0.00  0.00     0.062 H 
ATOM     50  C   LIG d   1       5.641   0.991  -2.694  0.00  0.00    -0.054 A 
ATOM     51  H   LIG d   1       3.965   1.564  -1.506  0.00  0.00     0.062 H 
ATOM     52  H   LIG d   1       5.997   2.003  -2.819  0.00  0.00     0.062 H 
BRANCH  44  53
ATOM     53  C   LIG d   1       6.608  -2.536  -3.739  0.00  0.00    -0.039 C 
ATOM     54  H   LIG d   1       7.677  -2.323  -3.740  0.00  0.00     0.028 H 
ATOM     55  H   LIG d   1       6.417  -3.443  -3.167  0.00  0.00     0.028 H 
ATOM     56  H   LIG d   1       6.264  -2.673  -4.764  0.00  0.00     0.028 H 
ENDBRANCH  44  53
ENDBRANCH   1  43
TORSDOF 8
ENDMDL
MODEL 8
REMARK VINA RESULT:      -6.4      3.134      5.170
REMARK  8 active torsions:
REMARK  status: ('A' for Active; 'I' for Inactive)
REMARK    1  A    between atoms: C_1  and  C_2 
REMARK    2  A    between atoms: C_7  and  C_8 
REMARK    3  A    between atoms: C_15  and  O_29 
REMARK    4  A    between atoms: C_16  and  C_19 
REMARK    5  A    between atoms: C_19  and  N_20 
REMARK    6  A    between atoms: N_23  and  C_26 
REMARK    7  A    between atoms: C_26  and  C_27 
REMARK    8  A    between atoms: C_27  and  O_28 
ROOT
ATOM      1  C   LIG d   1       3.306   0.672  -5.485  0.00  0.00    -0.008 C 
ATOM      2  C   LIG d   1       3.222   0.198  -6.752  0.00  0.00     0.176 A 
ATOM      3  C   LIG d   1       2.981   0.995  -7.966  0.00  0.00     0.232 A 
ATOM      4  O   LIG d   1       2.816   2.200  -8.047  0.00  0.00    -0.283 OA
ATOM      5  C   LIG d   1       2.982   0.009  -9.062  0.00  0.00     0.068 A 
ATOM      6  C   LIG d   1       2.809   0.117 -10.443  0.00  0.00    -0.044 A 
ATOM      7  C   LIG d   1       2.863  -1.002 -11.224  0.00  0.00    -0.019 A 
ATOM      8  C   LIG d   1       3.090  -2.249 -10.648  0.00  0.00     0.129 A 
ATOM      9  C   LIG d   1       3.263  -2.370  -9.279  0.00  0.00     0.081 A 
ATOM     10  C   LIG d   1       3.211  -1.243  -8.469  0.00  0.00     0.151 A 
ATOM     11  O   LIG d   1       3.351  -1.095  -7.133  0.00  0.00    -0.451 OA
ATOM     12  H   LIG d   1       3.077   1.707  -5.280  0.00  0.00     0.066 H 
ATOM     13  H   LIG d   1       2.632   1.083 -10.892  0.00  0.00     0.063 H 
ATOM     14  H   LIG d   1       2.729  -0.919 -12.294  0.00  0.00     0.065 H 
ENDROOT
BRANCH   9  15
ATOM     15  C   LIG d   1       3.506  -3.727  -8.667  0.00  0.00     0.001 C 
ATOM     16  H   LIG d   1       2.575  -4.111  -8.254  0.00  0.00     0.087 H 
ATOM     17  H   LIG d   1       3.874  -4.409  -9.433  0.00  0.00     0.087 H 
BRANCH  15  18
ATOM     18  N   LIG d   1       4.504  -3.608  -7.596  0.00  0.00     0.240 N 
ATOM     19  C   LIG d   1       4.217  -4.596  -6.548  0.00  0.00    -0.018 C 
ATOM     20  C   LIG d   1       5.245  -4.459  -5.423  0.00  0.00     0.039 C 
ATOM     21  H   LIG d   1       3.218  -4.422  -6.150  0.00  0.00     0.083 H 
ATOM     22  H   LIG d   1       4.270  -5.599  -6.970  0.00  0.00     0.083 H 
ATOM     23  N   LIG d   1       6.594  -4.676  -5.967  0.00  0.00    -0.290 N 
ATOM     24  H   LIG d   1       5.041  -5.203  -4.651  0.00  0.00     0.048 H 
ATOM     25  H   LIG d   1       5.183  -3.460  -4.991  0.00  0.00     0.048 H 
ATOM     26  C   LIG d   1       6.886  -3.710  -7.035  0.00  0.00     0.039 C 
ATOM     27  C   LIG d   1       5.844  -3.852  -8.146  0.00  0.00    -0.018 C 
ATOM     28  H   LIG d   1       7.879  -3.905  -7.440  0.00  0.00     0.048 H 
ATOM     29  H   LIG d   1       6.851  -2.699  -6.630  0.00  0.00     0.048 H 
ATOM     30  H   LIG d   1       5.890  -4.859  -8.561  0.00  0.00     0.083 H 
ATOM     31  H   LIG d   1       6.051  -3.126  -8.933  0.00  0.00     0.083 H 
ATOM     32  H   LIG d   1       4.467  -2.680  -7.202  0.00  0.00     0.204 HD
BRANCH  23  33
ATOM     33  C   LIG d   1       7.606  -4.610  -4.905  0.00  0.00     0.022 C 
ATOM     34  H   LIG d   1       7.137  -4.819  -3.943  0.00  0.00     0.045 H 
ATOM     35  H   LIG d   1       8.384  -5.350  -5.098  0.00  0.00     0.045 H 
BRANCH  33  36
ATOM     36  C   LIG d   1       8.228  -3.213  -4.878  0.00  0.00     0.057 C 
ATOM     37  H   LIG d   1       9.113  -3.197  -5.514  0.00  0.00     0.057 H 
ATOM     38  H   LIG d   1       7.505  -2.485  -5.244  0.00  0.00     0.057 H 
BRANCH  36  39
ATOM     39  O   LIG d   1       8.600  -2.882  -3.538  0.00  0.00    -0.394 OA
ATOM     40  H   LIG d   1       8.067  -2.178  -3.144  0.00  0.00     0.209 HD
ENDBRANCH  36  39
ENDBRANCH  33  36
ENDBRANCH  23  33
ENDBRANCH  15  18
ENDBRANCH   9  15
BRANCH   8  41
ATOM     41  O   LIG d   1       3.142  -3.354 -11.433  0.00  0.00    -0.506 OA
ATOM     42  H   LIG d   1       2.697  -3.251 -12.287  0.00  0.00     0.292 HD
ENDBRANCH   8  41
BRANCH   1  43
ATOM     43  C   LIG d   1       3.710  -0.222  -4.391  0.00  0.00    -0.018 A 
ATOM     44  C   LIG d   1       5.055  -0.572  -4.229  0.00  0.00    -0.043 A 
ATOM     45  C   LIG d   1       5.426  -1.407  -3.196  0.00  0.00    -0.058 A 
ATOM     46  C   LIG d   1       4.472  -1.904  -2.326  0.00  0.00    -0.061 A 
ATOM     47  H   LIG d   1       6.465  -1.675  -3.067  0.00  0.00     0.062 H 
ATOM     48  C   LIG d   1       3.139  -1.567  -2.482  0.00  0.00    -0.061 A 
ATOM     49  H   LIG d   1       4.770  -2.557  -1.519  0.00  0.00     0.062 H 
ATOM     50  C   LIG d   1       2.750  -0.733  -3.509  0.00  0.00    -0.054 A 
ATOM     51  H   LIG d   1       2.400  -1.959  -1.798  0.00  0.00     0.062 H 
ATOM     52  H   LIG d   1       1.710  -0.472  -3.631  0.00  0.00     0.062 H 
BRANCH  44  53
ATOM     53  C   LIG d   1       6.096  -0.033  -5.176  0.00  0.00    -0.039 C 
ATOM     54  H   LIG d   1       6.953  -0.708  -5.196  0.00  0.00     0.028 H 
ATOM     55  H   LIG d   1       5.672   0.046  -6.177  0.00  0.00     0.028 H 
ATOM     56  H   LIG d   1       6.418   0.952  -4.839  0.00  0.00     0.028 H 
ENDBRANCH  44  53
ENDBRANCH   1  43
TORSDOF 8
ENDMDL
MODEL 9
REMARK VINA RESULT:      -6.3      2.562      3.410
REMARK  8 active torsions:
REMARK  status: ('A' for Active; 'I' for Inactive)
REMARK    1  A    between atoms: C_1  and  C_2 
REMARK    2  A    between atoms: C_7  and  C_8 
REMARK    3  A    between atoms: C_15  and  O_29 
REMARK    4  A    between atoms: C_16  and  C_19 
REMARK    5  A    between atoms: C_19  and  N_20 
REMARK    6  A    between atoms: N_23  and  C_26 
REMARK    7  A    between atoms: C_26  and  C_27 
REMARK    8  A    between atoms: C_27  and  O_28 
ROOT
ATOM      1  C   LIG d   1       6.947  -1.173  -3.451  0.00  0.00    -0.008 C 
ATOM      2  C   LIG d   1       7.416  -1.033  -4.715  0.00  0.00     0.176 A 
ATOM      3  C   LIG d   1       8.656  -1.616  -5.254  0.00  0.00     0.232 A 
ATOM      4  O   LIG d   1       9.466  -2.315  -4.669  0.00  0.00    -0.283 OA
ATOM      5  C   LIG d   1       8.697  -1.166  -6.656  0.00  0.00     0.068 A 
ATOM      6  C   LIG d   1       9.604  -1.371  -7.698  0.00  0.00    -0.044 A 
ATOM      7  C   LIG d   1       9.371  -0.812  -8.922  0.00  0.00    -0.019 A 
ATOM      8  C   LIG d   1       8.233  -0.038  -9.133  0.00  0.00     0.129 A 
ATOM      9  C   LIG d   1       7.325   0.174  -8.109  0.00  0.00     0.081 A 
ATOM     10  C   LIG d   1       7.546  -0.387  -6.857  0.00  0.00     0.151 A 
ATOM     11  O   LIG d   1       6.826  -0.337  -5.715  0.00  0.00    -0.451 OA
ATOM     12  H   LIG d   1       7.554  -1.658  -2.701  0.00  0.00     0.066 H 
ATOM     13  H   LIG d   1      10.487  -1.971  -7.536  0.00  0.00     0.063 H 
ATOM     14  H   LIG d   1      10.072  -0.971  -9.729  0.00  0.00     0.065 H 
ENDROOT
BRANCH   9  15
ATOM     15  C   LIG d   1       6.098   1.016  -8.351  0.00  0.00     0.001 C 
ATOM     16  H   LIG d   1       5.659   1.300  -7.395  0.00  0.00     0.087 H 
ATOM     17  H   LIG d   1       6.377   1.912  -8.905  0.00  0.00     0.087 H 
BRANCH  15  18
ATOM     18  N   LIG d   1       5.121   0.242  -9.128  0.00  0.00     0.240 N 
ATOM     19  C   LIG d   1       4.104  -0.310  -8.224  0.00  0.00    -0.018 C 
ATOM     20  C   LIG d   1       3.097  -1.133  -9.031  0.00  0.00     0.039 C 
ATOM     21  H   LIG d   1       4.585  -0.950  -7.485  0.00  0.00     0.083 H 
ATOM     22  H   LIG d   1       3.587   0.504  -7.718  0.00  0.00     0.083 H 
ATOM     23  N   LIG d   1       2.463  -0.271 -10.040  0.00  0.00    -0.290 N 
ATOM     24  H   LIG d   1       2.333  -1.530  -8.362  0.00  0.00     0.048 H 
ATOM     25  H   LIG d   1       3.611  -1.955  -9.527  0.00  0.00     0.048 H 
ATOM     26  C   LIG d   1       3.471   0.310 -10.937  0.00  0.00     0.039 C 
ATOM     27  C   LIG d   1       4.477   1.119 -10.114  0.00  0.00    -0.018 C 
ATOM     28  H   LIG d   1       2.982   0.963 -11.660  0.00  0.00     0.048 H 
ATOM     29  H   LIG d   1       3.992  -0.489 -11.464  0.00  0.00     0.048 H 
ATOM     30  H   LIG d   1       3.957   1.927  -9.599  0.00  0.00     0.083 H 
ATOM     31  H   LIG d   1       5.234   1.539 -10.777  0.00  0.00     0.083 H 
ATOM     32  H   LIG d   1       5.591  -0.512  -9.606  0.00  0.00     0.204 HD
BRANCH  23  33
ATOM     33  C   LIG d   1       1.446  -1.010 -10.799  0.00  0.00     0.022 C 
ATOM     34  H   LIG d   1       0.453  -0.715 -10.459  0.00  0.00     0.045 H 
ATOM     35  H   LIG d   1       1.548  -0.784 -11.861  0.00  0.00     0.045 H 
BRANCH  33  36
ATOM     36  C   LIG d   1       1.635  -2.512 -10.578  0.00  0.00     0.057 C 
ATOM     37  H   LIG d   1       1.959  -2.978 -11.508  0.00  0.00     0.057 H 
ATOM     38  H   LIG d   1       2.389  -2.675  -9.809  0.00  0.00     0.057 H 
BRANCH  36  39
ATOM     39  O   LIG d   1       0.397  -3.092 -10.161  0.00  0.00    -0.394 OA
ATOM     40  H   LIG d   1      -0.264  -2.446  -9.876  0.00  0.00     0.209 HD
ENDBRANCH  36  39
ENDBRANCH  33  36
ENDBRANCH  23  33
ENDBRANCH  15  18
ENDBRANCH   9  15
BRANCH   8  41
ATOM     41  O   LIG d   1       8.011   0.513 -10.353  0.00  0.00    -0.506 OA
ATOM     42  H   LIG d   1       8.724   0.360 -10.990  0.00  0.00     0.292 HD
ENDBRANCH   8  41
BRANCH   1  43
ATOM     43  C   LIG d   1       5.613  -0.664  -3.102  0.00  0.00    -0.018 A 
ATOM     44  C   LIG d   1       4.487  -1.478  -3.262  0.00  0.00    -0.043 A 
ATOM     45  C   LIG d   1       3.239  -0.995  -2.926  0.00  0.00    -0.058 A 
ATOM     46  C   LIG d   1       3.099   0.292  -2.438  0.00  0.00    -0.061 A 
ATOM     47  H   LIG d   1       2.368  -1.624  -3.045  0.00  0.00     0.062 H 
ATOM     48  C   LIG d   1       4.208   1.105  -2.281  0.00  0.00    -0.061 A 
ATOM     49  H   LIG d   1       2.120   0.664  -2.177  0.00  0.00     0.062 H 
ATOM     50  C   LIG d   1       5.462   0.639  -2.612  0.00  0.00    -0.054 A 
ATOM     51  H   LIG d   1       4.091   2.109  -1.899  0.00  0.00     0.062 H 
ATOM     52  H   LIG d   1       6.326   1.275  -2.490  0.00  0.00     0.062 H 
BRANCH  44  53
ATOM     53  C   LIG d   1       4.635  -2.880  -3.795  0.00  0.00    -0.039 C 
ATOM     54  H   LIG d   1       3.836  -3.084  -4.508  0.00  0.00     0.028 H 
ATOM     55  H   LIG d   1       5.601  -2.980  -4.290  0.00  0.00     0.028 H 
ATOM     56  H   LIG d   1       4.575  -3.590  -2.970  0.00  0.00     0.028 H 
ENDBRANCH  44  53
ENDBRANCH   1  43
TORSDOF 8
ENDMDL
MODEL 10
REMARK VINA RESULT:      -6.3      1.994      2.418
REMARK  8 active torsions:
REMARK  status: ('A' for Active; 'I' for Inactive)
REMARK    1  A    between atoms: C_1  and  C_2 
REMARK    2  A    between atoms: C_7  and  C_8 
REMARK    3  A    between atoms: C_15  and  O_29 
REMARK    4  A    between atoms: C_16  and  C_19 
REMARK    5  A    between atoms: C_19  and  N_20 
REMARK    6  A    between atoms: N_23  and  C_26 
REMARK    7  A    between atoms: C_26  and  C_27 
REMARK    8  A    between atoms: C_27  and  O_28 
ROOT
ATOM      1  C   LIG d   1       6.689   0.984  -3.121  0.00  0.00    -0.008 C 
ATOM      2  C   LIG d   1       7.405   1.367  -4.207  0.00  0.00     0.176 A 
ATOM      3  C   LIG d   1       8.378   2.470  -4.263  0.00  0.00     0.232 A 
ATOM      4  O   LIG d   1       8.707   3.221  -3.362  0.00  0.00    -0.283 OA
ATOM      5  C   LIG d   1       8.865   2.462  -5.654  0.00  0.00     0.068 A 
ATOM      6  C   LIG d   1       9.788   3.248  -6.347  0.00  0.00    -0.044 A 
ATOM      7  C   LIG d   1      10.039   2.999  -7.666  0.00  0.00    -0.019 A 
ATOM      8  C   LIG d   1       9.378   1.963  -8.321  0.00  0.00     0.129 A 
ATOM      9  C   LIG d   1       8.459   1.176  -7.647  0.00  0.00     0.081 A 
ATOM     10  C   LIG d   1       8.191   1.416  -6.304  0.00  0.00     0.151 A 
ATOM     11  O   LIG d   1       7.359   0.801  -5.436  0.00  0.00    -0.451 OA
ATOM     12  H   LIG d   1       6.720   1.576  -2.219  0.00  0.00     0.066 H 
ATOM     13  H   LIG d   1      10.302   4.052  -5.840  0.00  0.00     0.063 H 
ATOM     14  H   LIG d   1      10.754   3.607  -8.203  0.00  0.00     0.065 H 
ENDROOT
BRANCH   9  15
ATOM     15  C   LIG d   1       7.749   0.060  -8.369  0.00  0.00     0.001 C 
ATOM     16  H   LIG d   1       8.099   0.013  -9.399  0.00  0.00     0.087 H 
ATOM     17  H   LIG d   1       7.957  -0.886  -7.869  0.00  0.00     0.087 H 
BRANCH  15  18
ATOM     18  N   LIG d   1       6.302   0.313  -8.355  0.00  0.00     0.240 N 
ATOM     19  C   LIG d   1       5.859   0.693  -9.704  0.00  0.00    -0.018 C 
ATOM     20  C   LIG d   1       4.355   0.975  -9.686  0.00  0.00     0.039 C 
ATOM     21  H   LIG d   1       6.392   1.588 -10.022  0.00  0.00     0.083 H 
ATOM     22  H   LIG d   1       6.068  -0.121 -10.397  0.00  0.00     0.083 H 
ATOM     23  N   LIG d   1       3.639  -0.229  -9.238  0.00  0.00    -0.290 N 
ATOM     24  H   LIG d   1       4.023   1.242 -10.690  0.00  0.00     0.048 H 
ATOM     25  H   LIG d   1       4.147   1.798  -9.002  0.00  0.00     0.048 H 
ATOM     26  C   LIG d   1       4.090  -0.636  -7.900  0.00  0.00     0.039 C 
ATOM     27  C   LIG d   1       5.597  -0.904  -7.932  0.00  0.00    -0.018 C 
ATOM     28  H   LIG d   1       3.565  -1.542  -7.599  0.00  0.00     0.048 H 
ATOM     29  H   LIG d   1       3.877   0.160  -7.187  0.00  0.00     0.048 H 
ATOM     30  H   LIG d   1       5.807  -1.710  -8.634  0.00  0.00     0.083 H 
ATOM     31  H   LIG d   1       5.935  -1.192  -6.937  0.00  0.00     0.083 H 
ATOM     32  H   LIG d   1       6.096   1.062  -7.711  0.00  0.00     0.204 HD
BRANCH  23  33
ATOM     33  C   LIG d   1       2.186  -0.016  -9.263  0.00  0.00     0.022 C 
ATOM     34  H   LIG d   1       1.819   0.106  -8.243  0.00  0.00     0.045 H 
ATOM     35  H   LIG d   1       1.959   0.880  -9.840  0.00  0.00     0.045 H 
BRANCH  33  36
ATOM     36  C   LIG d   1       1.505  -1.224  -9.909  0.00  0.00     0.057 C 
ATOM     37  H   LIG d   1       2.247  -1.815 -10.445  0.00  0.00     0.057 H 
ATOM     38  H   LIG d   1       1.041  -1.837  -9.137  0.00  0.00     0.057 H 
BRANCH  36  39
ATOM     39  O   LIG d   1       0.504  -0.773 -10.825  0.00  0.00    -0.394 OA
ATOM     40  H   LIG d   1       0.297  -1.407 -11.525  0.00  0.00     0.209 HD
ENDBRANCH  36  39
ENDBRANCH  33  36
ENDBRANCH  23  33
ENDBRANCH  15  18
ENDBRANCH   9  15
BRANCH   8  41
ATOM     41  O   LIG d   1       9.635   1.724  -9.632  0.00  0.00    -0.506 OA
ATOM     42  H   LIG d   1      10.570   1.573  -9.828  0.00  0.00     0.292 HD
ENDBRANCH   8  41
BRANCH   1  43
ATOM     43  C   LIG d   1       5.872  -0.237  -3.173  0.00  0.00    -0.018 A 
ATOM     44  C   LIG d   1       4.585  -0.245  -2.625  0.00  0.00    -0.043 A 
ATOM     45  C   LIG d   1       3.822  -1.392  -2.683  0.00  0.00    -0.058 A 
ATOM     46  C   LIG d   1       4.329  -2.535  -3.276  0.00  0.00    -0.061 A 
ATOM     47  H   LIG d   1       2.826  -1.399  -2.264  0.00  0.00     0.062 H 
ATOM     48  C   LIG d   1       5.604  -2.537  -3.816  0.00  0.00    -0.061 A 
ATOM     49  H   LIG d   1       3.727  -3.430  -3.318  0.00  0.00     0.062 H 
ATOM     50  C   LIG d   1       6.379  -1.399  -3.766  0.00  0.00    -0.054 A 
ATOM     51  H   LIG d   1       5.992  -3.433  -4.277  0.00  0.00     0.062 H 
ATOM     52  H   LIG d   1       7.374  -1.402  -4.187  0.00  0.00     0.062 H 
BRANCH  44  53
ATOM     53  C   LIG d   1       4.030   0.999  -1.978  0.00  0.00    -0.039 C 
ATOM     54  H   LIG d   1       4.819   1.495  -1.412  0.00  0.00     0.028 H 
ATOM     55  H   LIG d   1       3.654   1.672  -2.747  0.00  0.00     0.028 H 
ATOM     56  H   LIG d   1       3.217   0.725  -1.305  0.00  0.00     0.028 H 
ENDBRANCH  44  53
ENDBRANCH   1  43
TORSDOF 8
ENDMDL
