MODEL 1
REMARK VINA RESULT:      -5.9      0.000      0.000
REMARK  9 active torsions:
REMARK  status: ('A' for Active; 'I' for Inactive)
REMARK    1  A    between atoms: C_1  and  C_2 
REMARK    2  A    between atoms: C_2  and  C_4 
REMARK    3  A    between atoms: C_16  and  O_21 
REMARK    4  A    between atoms: O_21  and  C_22 
REMARK    5  A    between atoms: N_25  and  C_28 
REMARK    6  A    between atoms: C_31  and  O_36 
REMARK    7  A    between atoms: C_33  and  O_34 
REMARK    8  A    between atoms: O_34  and  C_35 
REMARK    9  A    between atoms: O_36  and  C_37 
ROOT
ATOM      1  C   LIG d   1      11.706   6.800  -4.566  0.00  0.00     0.094 C 
ATOM      2  H   LIG d   1      12.499   6.418  -5.210  0.00  0.00     0.059 H 
ATOM      3  C   LIG d   1      12.192   8.056  -3.811  0.00  0.00     0.075 C 
ATOM      4  H   LIG d   1      12.998   8.582  -4.323  0.00  0.00     0.043 H 
ATOM      5  C   LIG d   1      10.900   8.907  -3.643  0.00  0.00     0.072 C 
ATOM      6  H   LIG d   1      11.088   9.979  -3.705  0.00  0.00     0.042 H 
ATOM      7  C   LIG d   1       9.949   8.413  -4.733  0.00  0.00     0.055 C 
ATOM      8  H   LIG d   1       9.000   8.114  -4.285  0.00  0.00     0.055 H 
ATOM      9  N   LIG d   1      10.569   7.231  -5.370  0.00  0.00    -0.311 N 
ATOM     10  C   LIG d   1      10.108   6.733  -6.587  0.00  0.00     0.038 A 
ATOM     11  C   LIG d   1      10.198   5.408  -6.953  0.00  0.00    -0.037 A 
ATOM     12  C   LIG d   1       9.695   5.000  -8.177  0.00  0.00    -0.018 A 
ATOM     13  C   LIG d   1       9.101   5.918  -9.033  0.00  0.00     0.121 A 
ATOM     14  C   LIG d   1       9.012   7.255  -8.678  0.00  0.00    -0.011 A 
ATOM     15  C   LIG d   1       9.521   7.676  -7.455  0.00  0.00    -0.001 A 
ATOM     16  C   LIG d   1       9.492   9.093  -7.044  0.00  0.00    -0.055 C 
ATOM     17  C   LIG d   1       9.706   9.466  -5.780  0.00  0.00    -0.062 C 
ATOM     18  C   LIG d   1      10.409   8.477  -2.276  0.00  0.00     0.232 C 
ATOM     19  O   LIG d   1       9.291   8.650  -1.838  0.00  0.00    -0.274 OA
ATOM     20  N   LIG d   1      11.417   7.874  -1.629  0.00  0.00    -0.206 N 
ATOM     21  C   LIG d   1      12.533   7.671  -2.385  0.00  0.00     0.232 C 
ATOM     22  O   LIG d   1      13.607   7.262  -2.000  0.00  0.00    -0.274 OA
ATOM     23  H   LIG d   1      10.660   4.692  -6.289  0.00  0.00     0.064 H 
ATOM     24  H   LIG d   1       9.766   3.961  -8.467  0.00  0.00     0.066 H 
ATOM     25  H   LIG d   1       8.551   7.965  -9.348  0.00  0.00     0.066 H 
ATOM     26  H   LIG d   1       9.308   9.857  -7.786  0.00  0.00     0.062 H 
ATOM     27  H   LIG d   1       9.686  10.508  -5.497  0.00  0.00     0.059 H 
ENDROOT
BRANCH  20  28
ATOM     28  C   LIG d   1      11.335   7.484  -0.282  0.00  0.00     0.086 A 
ATOM     29  C   LIG d   1      11.536   8.421   0.729  0.00  0.00     0.145 A 
ATOM     30  C   LIG d   1      11.448   8.034   2.056  0.00  0.00     0.024 A 
ATOM     31  C   LIG d   1      11.171   6.714   2.376  0.00  0.00     0.124 A 
ATOM     32  H   LIG d   1      11.599   8.760   2.842  0.00  0.00     0.069 H 
ATOM     33  C   LIG d   1      10.977   5.780   1.368  0.00  0.00    -0.018 A 
ATOM     34  C   LIG d   1      11.058   6.164   0.043  0.00  0.00    -0.033 A 
ATOM     35  H   LIG d   1      10.761   4.752   1.619  0.00  0.00     0.066 H 
ATOM     36  H   LIG d   1      10.906   5.436  -0.740  0.00  0.00     0.064 H 
BRANCH  29  37
ATOM     37  O   LIG d   1      11.813   9.714   0.413  0.00  0.00    -0.493 OA
BRANCH  37  38
ATOM     38  C   LIG d   1      10.795  10.680   0.681  0.00  0.00     0.079 C 
ATOM     39  H   LIG d   1      11.255  11.603   1.035  0.00  0.00     0.066 H 
ATOM     40  H   LIG d   1      10.234  10.880  -0.232  0.00  0.00     0.066 H 
ATOM     41  H   LIG d   1      10.119  10.294   1.445  0.00  0.00     0.066 H 
ENDBRANCH  37  38
ENDBRANCH  29  37
BRANCH  31  42
ATOM     42  O   LIG d   1      11.091   6.333   3.679  0.00  0.00    -0.495 OA
BRANCH  42  43
ATOM     43  C   LIG d   1      11.459   7.302   4.662  0.00  0.00     0.079 C 
ATOM     44  H   LIG d   1      10.683   7.361   5.423  0.00  0.00     0.066 H 
ATOM     45  H   LIG d   1      12.401   7.011   5.125  0.00  0.00     0.066 H 
ATOM     46  H   LIG d   1      11.575   8.277   4.184  0.00  0.00     0.066 H 
ENDBRANCH  42  43
ENDBRANCH  31  42
ENDBRANCH  20  28
BRANCH   1  47
ATOM     47  C   LIG d   1      11.278   5.739  -3.585  0.00  0.00     0.151 C 
ATOM     48  O   LIG d   1      12.108   5.072  -3.016  0.00  0.00    -0.296 OA
BRANCH  47  49
ATOM     49  C   LIG d   1       9.813   5.510  -3.315  0.00  0.00    -0.004 C 
ATOM     50  H   LIG d   1       9.392   4.886  -4.104  0.00  0.00     0.031 H 
ATOM     51  H   LIG d   1       9.695   5.010  -2.354  0.00  0.00     0.031 H 
ATOM     52  H   LIG d   1       9.293   6.467  -3.293  0.00  0.00     0.031 H 
ENDBRANCH  47  49
ENDBRANCH   1  47
BRANCH  13  53
ATOM     53  O   LIG d   1       8.604   5.503 -10.228  0.00  0.00    -0.495 OA
BRANCH  53  54
ATOM     54  C   LIG d   1       9.122   6.136 -11.401  0.00  0.00     0.079 C 
ATOM     55  H   LIG d   1       9.893   6.852 -11.116  0.00  0.00     0.066 H 
ATOM     56  H   LIG d   1       9.551   5.383 -12.062  0.00  0.00     0.066 H 
ATOM     57  H   LIG d   1       8.316   6.656 -11.918  0.00  0.00     0.066 H 
ENDBRANCH  53  54
ENDBRANCH  13  53
TORSDOF 9
ENDMDL
MODEL 2
REMARK VINA RESULT:      -5.6      9.081     12.542
REMARK  9 active torsions:
REMARK  status: ('A' for Active; 'I' for Inactive)
REMARK    1  A    between atoms: C_1  and  C_2 
REMARK    2  A    between atoms: C_2  and  C_4 
REMARK    3  A    between atoms: C_16  and  O_21 
REMARK    4  A    between atoms: O_21  and  C_22 
REMARK    5  A    between atoms: N_25  and  C_28 
REMARK    6  A    between atoms: C_31  and  O_36 
REMARK    7  A    between atoms: C_33  and  O_34 
REMARK    8  A    between atoms: O_34  and  C_35 
REMARK    9  A    between atoms: O_36  and  C_37 
ROOT
ATOM      1  C   LIG d   1       3.286   0.270 -10.839  0.00  0.00     0.094 C 
ATOM      2  H   LIG d   1       2.967   1.123 -11.438  0.00  0.00     0.059 H 
ATOM      3  C   LIG d   1       2.439   0.174  -9.553  0.00  0.00     0.075 C 
ATOM      4  H   LIG d   1       1.459   0.641  -9.646  0.00  0.00     0.043 H 
ATOM      5  C   LIG d   1       2.378  -1.354  -9.264  0.00  0.00     0.072 C 
ATOM      6  H   LIG d   1       1.427  -1.666  -8.833  0.00  0.00     0.042 H 
ATOM      7  C   LIG d   1       2.664  -2.028 -10.607  0.00  0.00     0.055 C 
ATOM      8  H   LIG d   1       3.495  -2.726 -10.498  0.00  0.00     0.055 H 
ATOM      9  N   LIG d   1       3.049  -0.972 -11.567  0.00  0.00    -0.311 N 
ATOM     10  C   LIG d   1       3.078  -1.210 -12.941  0.00  0.00     0.038 A 
ATOM     11  C   LIG d   1       3.918  -0.554 -13.812  0.00  0.00    -0.037 A 
ATOM     12  C   LIG d   1       3.890  -0.870 -15.160  0.00  0.00    -0.018 A 
ATOM     13  C   LIG d   1       3.021  -1.844 -15.634  0.00  0.00     0.121 A 
ATOM     14  C   LIG d   1       2.165  -2.505 -14.767  0.00  0.00    -0.011 A 
ATOM     15  C   LIG d   1       2.180  -2.189 -13.413  0.00  0.00    -0.001 A 
ATOM     16  C   LIG d   1       1.263  -2.831 -12.452  0.00  0.00    -0.055 C 
ATOM     17  C   LIG d   1       1.457  -2.755 -11.133  0.00  0.00    -0.062 C 
ATOM     18  C   LIG d   1       3.543  -1.547  -8.315  0.00  0.00     0.232 C 
ATOM     19  O   LIG d   1       4.068  -2.607  -8.045  0.00  0.00    -0.274 OA
ATOM     20  N   LIG d   1       3.897  -0.352  -7.823  0.00  0.00    -0.206 N 
ATOM     21  C   LIG d   1       3.253   0.707  -8.389  0.00  0.00     0.232 C 
ATOM     22  O   LIG d   1       3.307   1.865  -8.035  0.00  0.00    -0.274 OA
ATOM     23  H   LIG d   1       4.595   0.204 -13.445  0.00  0.00     0.064 H 
ATOM     24  H   LIG d   1       4.548  -0.356 -15.846  0.00  0.00     0.066 H 
ATOM     25  H   LIG d   1       1.491  -3.261 -15.140  0.00  0.00     0.066 H 
ATOM     26  H   LIG d   1       0.398  -3.365 -12.819  0.00  0.00     0.062 H 
ATOM     27  H   LIG d   1       0.772  -3.226 -10.442  0.00  0.00     0.059 H 
ENDROOT
BRANCH  20  28
ATOM     28  C   LIG d   1       4.853  -0.198  -6.804  0.00  0.00     0.086 A 
ATOM     29  C   LIG d   1       4.464  -0.257  -5.468  0.00  0.00     0.145 A 
ATOM     30  C   LIG d   1       5.409  -0.112  -4.466  0.00  0.00     0.024 A 
ATOM     31  C   LIG d   1       6.739   0.103  -4.795  0.00  0.00     0.124 A 
ATOM     32  H   LIG d   1       5.111  -0.162  -3.430  0.00  0.00     0.069 H 
ATOM     33  C   LIG d   1       7.124   0.168  -6.127  0.00  0.00    -0.018 A 
ATOM     34  C   LIG d   1       6.184   0.017  -7.128  0.00  0.00    -0.033 A 
ATOM     35  H   LIG d   1       8.160   0.336  -6.381  0.00  0.00     0.066 H 
ATOM     36  H   LIG d   1       6.486   0.068  -8.163  0.00  0.00     0.064 H 
BRANCH  29  37
ATOM     37  O   LIG d   1       3.159  -0.463  -5.148  0.00  0.00    -0.493 OA
BRANCH  37  38
ATOM     38  C   LIG d   1       2.423   0.665  -4.669  0.00  0.00     0.079 C 
ATOM     39  H   LIG d   1       1.422   0.347  -4.376  0.00  0.00     0.066 H 
ATOM     40  H   LIG d   1       2.935   1.093  -3.807  0.00  0.00     0.066 H 
ATOM     41  H   LIG d   1       2.350   1.414  -5.458  0.00  0.00     0.066 H 
ENDBRANCH  37  38
ENDBRANCH  29  37
BRANCH  31  42
ATOM     42  O   LIG d   1       7.667   0.252  -3.812  0.00  0.00    -0.495 OA
BRANCH  42  43
ATOM     43  C   LIG d   1       8.423   1.464  -3.812  0.00  0.00     0.079 C 
ATOM     44  H   LIG d   1       9.205   1.404  -3.057  0.00  0.00     0.066 H 
ATOM     45  H   LIG d   1       8.874   1.612  -4.792  0.00  0.00     0.066 H 
ATOM     46  H   LIG d   1       7.762   2.303  -3.586  0.00  0.00     0.066 H 
ENDBRANCH  42  43
ENDBRANCH  31  42
ENDBRANCH  20  28
BRANCH   1  47
ATOM     47  C   LIG d   1       4.747   0.398 -10.491  0.00  0.00     0.151 C 
ATOM     48  O   LIG d   1       5.190   1.461 -10.127  0.00  0.00    -0.296 OA
BRANCH  47  49
ATOM     49  C   LIG d   1       5.655  -0.800 -10.597  0.00  0.00    -0.004 C 
ATOM     50  H   LIG d   1       6.236  -0.735 -11.517  0.00  0.00     0.031 H 
ATOM     51  H   LIG d   1       6.330  -0.822  -9.742  0.00  0.00     0.031 H 
ATOM     52  H   LIG d   1       5.056  -1.710 -10.610  0.00  0.00     0.031 H 
ENDBRANCH  47  49
ENDBRANCH   1  47
BRANCH  13  53
ATOM     53  O   LIG d   1       3.009  -2.151 -16.958  0.00  0.00    -0.495 OA
BRANCH  53  54
ATOM     54  C   LIG d   1       3.373  -1.111 -17.868  0.00  0.00     0.079 C 
ATOM     55  H   LIG d   1       4.307  -1.374 -18.365  0.00  0.00     0.066 H 
ATOM     56  H   LIG d   1       2.587  -0.988 -18.614  0.00  0.00     0.066 H 
ATOM     57  H   LIG d   1       3.503  -0.178 -17.320  0.00  0.00     0.066 H 
ENDBRANCH  53  54
ENDBRANCH  13  53
TORSDOF 9
ENDMDL
MODEL 3
REMARK VINA RESULT:      -5.5      2.355      8.577
REMARK  9 active torsions:
REMARK  status: ('A' for Active; 'I' for Inactive)
REMARK    1  A    between atoms: C_1  and  C_2 
REMARK    2  A    between atoms: C_2  and  C_4 
REMARK    3  A    between atoms: C_16  and  O_21 
REMARK    4  A    between atoms: O_21  and  C_22 
REMARK    5  A    between atoms: N_25  and  C_28 
REMARK    6  A    between atoms: C_31  and  O_36 
REMARK    7  A    between atoms: C_33  and  O_34 
REMARK    8  A    between atoms: O_34  and  C_35 
REMARK    9  A    between atoms: O_36  and  C_37 
ROOT
ATOM      1  C   LIG d   1      11.586   8.982  -3.836  0.00  0.00     0.094 C 
ATOM      2  H   LIG d   1      12.506   9.554  -3.709  0.00  0.00     0.059 H 
ATOM      3  C   LIG d   1      11.913   7.492  -4.068  0.00  0.00     0.075 C 
ATOM      4  H   LIG d   1      12.876   7.192  -3.657  0.00  0.00     0.043 H 
ATOM      5  C   LIG d   1      10.704   6.746  -3.432  0.00  0.00     0.072 C 
ATOM      6  H   LIG d   1      10.985   5.802  -2.966  0.00  0.00     0.042 H 
ATOM      7  C   LIG d   1      10.099   7.737  -2.437  0.00  0.00     0.055 C 
ATOM      8  H   LIG d   1       9.038   7.871  -2.650  0.00  0.00     0.055 H 
ATOM      9  N   LIG d   1      10.791   9.032  -2.615  0.00  0.00    -0.311 N 
ATOM     10  C   LIG d   1      10.690  10.049  -1.666  0.00  0.00     0.038 A 
ATOM     11  C   LIG d   1      10.784  11.388  -1.970  0.00  0.00    -0.037 A 
ATOM     12  C   LIG d   1      10.653  12.330  -0.964  0.00  0.00    -0.018 A 
ATOM     13  C   LIG d   1      10.428  11.929   0.347  0.00  0.00     0.121 A 
ATOM     14  C   LIG d   1      10.339  10.583   0.665  0.00  0.00    -0.011 A 
ATOM     15  C   LIG d   1      10.477   9.630  -0.337  0.00  0.00    -0.001 A 
ATOM     16  C   LIG d   1      10.434   8.184  -0.049  0.00  0.00    -0.055 C 
ATOM     17  C   LIG d   1      10.276   7.276  -1.015  0.00  0.00    -0.062 C 
ATOM     18  C   LIG d   1       9.782   6.560  -4.620  0.00  0.00     0.232 C 
ATOM     19  O   LIG d   1       8.601   6.290  -4.564  0.00  0.00    -0.274 OA
ATOM     20  N   LIG d   1      10.490   6.743  -5.744  0.00  0.00    -0.206 N 
ATOM     21  C   LIG d   1      11.764   7.181  -5.545  0.00  0.00     0.232 C 
ATOM     22  O   LIG d   1      12.631   7.301  -6.384  0.00  0.00    -0.274 OA
ATOM     23  H   LIG d   1      10.960  11.702  -2.989  0.00  0.00     0.064 H 
ATOM     24  H   LIG d   1      10.727  13.382  -1.199  0.00  0.00     0.066 H 
ATOM     25  H   LIG d   1      10.165  10.277   1.686  0.00  0.00     0.066 H 
ATOM     26  H   LIG d   1      10.549   7.842   0.970  0.00  0.00     0.062 H 
ATOM     27  H   LIG d   1      10.252   6.220  -0.788  0.00  0.00     0.059 H 
ENDROOT
BRANCH  20  28
ATOM     28  C   LIG d   1       9.965   6.501  -7.025  0.00  0.00     0.086 A 
ATOM     29  C   LIG d   1       9.964   5.209  -7.546  0.00  0.00     0.145 A 
ATOM     30  C   LIG d   1       9.440   4.973  -8.806  0.00  0.00     0.024 A 
ATOM     31  C   LIG d   1       8.928   6.024  -9.551  0.00  0.00     0.124 A 
ATOM     32  H   LIG d   1       9.435   3.972  -9.210  0.00  0.00     0.069 H 
ATOM     33  C   LIG d   1       8.934   7.312  -9.033  0.00  0.00    -0.018 A 
ATOM     34  C   LIG d   1       9.450   7.549  -7.773  0.00  0.00    -0.033 A 
ATOM     35  H   LIG d   1       8.534   8.129  -9.614  0.00  0.00     0.066 H 
ATOM     36  H   LIG d   1       9.454   8.551  -7.372  0.00  0.00     0.064 H 
BRANCH  29  37
ATOM     37  O   LIG d   1      10.473   4.181  -6.817  0.00  0.00    -0.493 OA
BRANCH  37  38
ATOM     38  C   LIG d   1       9.544   3.216  -6.319  0.00  0.00     0.079 C 
ATOM     39  H   LIG d   1       8.801   3.715  -5.697  0.00  0.00     0.066 H 
ATOM     40  H   LIG d   1       9.047   2.726  -7.157  0.00  0.00     0.066 H 
ATOM     41  H   LIG d   1      10.075   2.472  -5.726  0.00  0.00     0.066 H 
ENDBRANCH  37  38
ENDBRANCH  29  37
BRANCH  31  42
ATOM     42  O   LIG d   1       8.418   5.794 -10.791  0.00  0.00    -0.495 OA
BRANCH  42  43
ATOM     43  C   LIG d   1       9.167   6.290 -11.901  0.00  0.00     0.079 C 
ATOM     44  H   LIG d   1      10.087   5.715 -12.005  0.00  0.00     0.066 H 
ATOM     45  H   LIG d   1       8.575   6.196 -12.811  0.00  0.00     0.066 H 
ATOM     46  H   LIG d   1       9.412   7.340 -11.734  0.00  0.00     0.066 H 
ENDBRANCH  42  43
ENDBRANCH  31  42
ENDBRANCH  20  28
BRANCH   1  47
ATOM     47  C   LIG d   1      10.793   9.527  -4.996  0.00  0.00     0.151 C 
ATOM     48  O   LIG d   1       9.586   9.497  -4.969  0.00  0.00    -0.296 OA
BRANCH  47  49
ATOM     49  C   LIG d   1      11.505  10.109  -6.189  0.00  0.00    -0.004 C 
ATOM     50  H   LIG d   1      11.781  11.143  -5.979  0.00  0.00     0.031 H 
ATOM     51  H   LIG d   1      12.405   9.528  -6.394  0.00  0.00     0.031 H 
ATOM     52  H   LIG d   1      10.847  10.078  -7.057  0.00  0.00     0.031 H 
ENDBRANCH  47  49
ENDBRANCH   1  47
BRANCH  13  53
ATOM     53  O   LIG d   1      10.293  12.864   1.325  0.00  0.00    -0.495 OA
BRANCH  53  54
ATOM     54  C   LIG d   1      10.149  14.223   0.907  0.00  0.00     0.079 C 
ATOM     55  H   LIG d   1      11.065  14.771   1.129  0.00  0.00     0.066 H 
ATOM     56  H   LIG d   1       9.959  14.256  -0.167  0.00  0.00     0.066 H 
ATOM     57  H   LIG d   1       9.314  14.680   1.437  0.00  0.00     0.066 H 
ENDBRANCH  53  54
ENDBRANCH  13  53
TORSDOF 9
ENDMDL
MODEL 4
REMARK VINA RESULT:      -5.5      6.370      9.474
REMARK  9 active torsions:
REMARK  status: ('A' for Active; 'I' for Inactive)
REMARK    1  A    between atoms: C_1  and  C_2 
REMARK    2  A    between atoms: C_2  and  C_4 
REMARK    3  A    between atoms: C_16  and  O_21 
REMARK    4  A    between atoms: O_21  and  C_22 
REMARK    5  A    between atoms: N_25  and  C_28 
REMARK    6  A    between atoms: C_31  and  O_36 
REMARK    7  A    between atoms: C_33  and  O_34 
REMARK    8  A    between atoms: O_34  and  C_35 
REMARK    9  A    between atoms: O_36  and  C_37 
ROOT
ATOM      1  C   LIG d   1       9.552   1.669  -6.516  0.00  0.00     0.094 C 
ATOM      2  H   LIG d   1      10.460   1.694  -7.120  0.00  0.00     0.059 H 
ATOM      3  C   LIG d   1       9.743   0.730  -5.306  0.00  0.00     0.075 C 
ATOM      4  H   LIG d   1      10.786   0.608  -5.015  0.00  0.00     0.043 H 
ATOM      5  C   LIG d   1       8.856   1.369  -4.200  0.00  0.00     0.072 C 
ATOM      6  H   LIG d   1       9.280   1.261  -3.201  0.00  0.00     0.042 H 
ATOM      7  C   LIG d   1       8.691   2.832  -4.612  0.00  0.00     0.055 C 
ATOM      8  H   LIG d   1       7.630   3.083  -4.662  0.00  0.00     0.055 H 
ATOM      9  N   LIG d   1       9.281   2.989  -5.959  0.00  0.00    -0.311 N 
ATOM     10  C   LIG d   1       9.565   4.247  -6.489  0.00  0.00     0.038 A 
ATOM     11  C   LIG d   1       9.556   4.527  -7.837  0.00  0.00    -0.037 A 
ATOM     12  C   LIG d   1       9.832   5.812  -8.271  0.00  0.00    -0.018 A 
ATOM     13  C   LIG d   1      10.116   6.817  -7.355  0.00  0.00     0.121 A 
ATOM     14  C   LIG d   1      10.135   6.544  -5.996  0.00  0.00    -0.011 A 
ATOM     15  C   LIG d   1       9.867   5.255  -5.551  0.00  0.00    -0.001 A 
ATOM     16  C   LIG d   1       9.915   4.899  -4.120  0.00  0.00    -0.055 C 
ATOM     17  C   LIG d   1       9.387   3.762  -3.657  0.00  0.00    -0.062 C 
ATOM     18  C   LIG d   1       7.548   0.621  -4.365  0.00  0.00     0.232 C 
ATOM     19  O   LIG d   1       6.474   0.967  -3.923  0.00  0.00    -0.274 OA
ATOM     20  N   LIG d   1       7.778  -0.489  -5.082  0.00  0.00    -0.206 N 
ATOM     21  C   LIG d   1       9.039  -0.583  -5.589  0.00  0.00     0.232 C 
ATOM     22  O   LIG d   1       9.524  -1.537  -6.159  0.00  0.00    -0.274 OA
ATOM     23  H   LIG d   1       9.336   3.747  -8.551  0.00  0.00     0.064 H 
ATOM     24  H   LIG d   1       9.827   6.035  -9.329  0.00  0.00     0.066 H 
ATOM     25  H   LIG d   1      10.357   7.328  -5.288  0.00  0.00     0.066 H 
ATOM     26  H   LIG d   1      10.404   5.564  -3.423  0.00  0.00     0.062 H 
ATOM     27  H   LIG d   1       9.436   3.514  -2.607  0.00  0.00     0.059 H 
ENDROOT
BRANCH  20  28
ATOM     28  C   LIG d   1       6.802  -1.477  -5.293  0.00  0.00     0.086 A 
ATOM     29  C   LIG d   1       6.730  -2.579  -4.443  0.00  0.00     0.145 A 
ATOM     30  C   LIG d   1       5.763  -3.548  -4.650  0.00  0.00     0.024 A 
ATOM     31  C   LIG d   1       4.875  -3.426  -5.708  0.00  0.00     0.124 A 
ATOM     32  H   LIG d   1       5.702  -4.401  -3.991  0.00  0.00     0.069 H 
ATOM     33  C   LIG d   1       4.952  -2.330  -6.557  0.00  0.00    -0.018 A 
ATOM     34  C   LIG d   1       5.912  -1.359  -6.349  0.00  0.00    -0.033 A 
ATOM     35  H   LIG d   1       4.259  -2.237  -7.381  0.00  0.00     0.066 H 
ATOM     36  H   LIG d   1       5.969  -0.507  -7.011  0.00  0.00     0.064 H 
BRANCH  29  37
ATOM     37  O   LIG d   1       7.605  -2.700  -3.410  0.00  0.00    -0.493 OA
BRANCH  37  38
ATOM     38  C   LIG d   1       8.640  -3.676  -3.547  0.00  0.00     0.079 C 
ATOM     39  H   LIG d   1       9.111  -3.843  -2.578  0.00  0.00     0.066 H 
ATOM     40  H   LIG d   1       8.211  -4.611  -3.909  0.00  0.00     0.066 H 
ATOM     41  H   LIG d   1       9.386  -3.319  -4.257  0.00  0.00     0.066 H 
ENDBRANCH  37  38
ENDBRANCH  29  37
BRANCH  31  42
ATOM     42  O   LIG d   1       3.928  -4.380  -5.915  0.00  0.00    -0.495 OA
BRANCH  42  43
ATOM     43  C   LIG d   1       3.855  -4.947  -7.225  0.00  0.00     0.079 C 
ATOM     44  H   LIG d   1       3.704  -4.154  -7.956  0.00  0.00     0.066 H 
ATOM     45  H   LIG d   1       4.783  -5.474  -7.446  0.00  0.00     0.066 H 
ATOM     46  H   LIG d   1       3.020  -5.647  -7.270  0.00  0.00     0.066 H 
ENDBRANCH  42  43
ENDBRANCH  31  42
ENDBRANCH  20  28
BRANCH   1  47
ATOM     47  C   LIG d   1       8.385   1.208  -7.352  0.00  0.00     0.151 C 
ATOM     48  O   LIG d   1       7.280   1.645  -7.138  0.00  0.00    -0.296 OA
BRANCH  47  49
ATOM     49  C   LIG d   1       8.598   0.203  -8.454  0.00  0.00    -0.004 C 
ATOM     50  H   LIG d   1       9.658   0.155  -8.702  0.00  0.00     0.031 H 
ATOM     51  H   LIG d   1       8.258  -0.778  -8.122  0.00  0.00     0.031 H 
ATOM     52  H   LIG d   1       8.032   0.505  -9.335  0.00  0.00     0.031 H 
ENDBRANCH  47  49
ENDBRANCH   1  47
BRANCH  13  53
ATOM     53  O   LIG d   1      10.377   8.077  -7.794  0.00  0.00    -0.495 OA
BRANCH  53  54
ATOM     54  C   LIG d   1       9.252   8.900  -8.108  0.00  0.00     0.079 C 
ATOM     55  H   LIG d   1       9.213   9.067  -9.184  0.00  0.00     0.066 H 
ATOM     56  H   LIG d   1       8.336   8.405  -7.784  0.00  0.00     0.066 H 
ATOM     57  H   LIG d   1       9.348   9.857  -7.595  0.00  0.00     0.066 H 
ENDBRANCH  53  54
ENDBRANCH  13  53
TORSDOF 9
ENDMDL
MODEL 5
REMARK VINA RESULT:      -5.5      2.810      3.975
REMARK  9 active torsions:
REMARK  status: ('A' for Active; 'I' for Inactive)
REMARK    1  A    between atoms: C_1  and  C_2 
REMARK    2  A    between atoms: C_2  and  C_4 
REMARK    3  A    between atoms: C_16  and  O_21 
REMARK    4  A    between atoms: O_21  and  C_22 
REMARK    5  A    between atoms: N_25  and  C_28 
REMARK    6  A    between atoms: C_31  and  O_36 
REMARK    7  A    between atoms: C_33  and  O_34 
REMARK    8  A    between atoms: O_34  and  C_35 
REMARK    9  A    between atoms: O_36  and  C_37 
ROOT
ATOM      1  C   LIG d   1      12.200   6.475  -2.154  0.00  0.00     0.094 C 
ATOM      2  H   LIG d   1      12.971   5.812  -2.546  0.00  0.00     0.059 H 
ATOM      3  C   LIG d   1      12.493   7.935  -2.562  0.00  0.00     0.075 C 
ATOM      4  H   LIG d   1      13.101   8.017  -3.463  0.00  0.00     0.043 H 
ATOM      5  C   LIG d   1      11.080   8.570  -2.701  0.00  0.00     0.072 C 
ATOM      6  H   LIG d   1      11.025   9.311  -3.499  0.00  0.00     0.042 H 
ATOM      7  C   LIG d   1      10.131   7.393  -2.927  0.00  0.00     0.055 C 
ATOM      8  H   LIG d   1       9.329   7.420  -2.187  0.00  0.00     0.055 H 
ATOM      9  N   LIG d   1      10.907   6.148  -2.744  0.00  0.00    -0.311 N 
ATOM     10  C   LIG d   1      10.419   4.914  -3.173  0.00  0.00     0.038 A 
ATOM     11  C   LIG d   1      10.745   3.716  -2.579  0.00  0.00    -0.037 A 
ATOM     12  C   LIG d   1      10.196   2.540  -3.062  0.00  0.00    -0.018 A 
ATOM     13  C   LIG d   1       9.320   2.565  -4.140  0.00  0.00     0.121 A 
ATOM     14  C   LIG d   1       8.991   3.765  -4.750  0.00  0.00    -0.011 A 
ATOM     15  C   LIG d   1       9.543   4.950  -4.278  0.00  0.00    -0.001 A 
ATOM     16  C   LIG d   1       9.261   6.250  -4.915  0.00  0.00    -0.055 C 
ATOM     17  C   LIG d   1       9.543   7.408  -4.312  0.00  0.00    -0.062 C 
ATOM     18  C   LIG d   1      10.862   9.171  -1.328  0.00  0.00     0.232 C 
ATOM     19  O   LIG d   1       9.795   9.517  -0.867  0.00  0.00    -0.274 OA
ATOM     20  N   LIG d   1      12.046   9.257  -0.705  0.00  0.00    -0.206 N 
ATOM     21  C   LIG d   1      13.079   8.668  -1.371  0.00  0.00     0.232 C 
ATOM     22  O   LIG d   1      14.255   8.718  -1.079  0.00  0.00    -0.274 OA
ATOM     23  H   LIG d   1      11.426   3.694  -1.741  0.00  0.00     0.064 H 
ATOM     24  H   LIG d   1      10.451   1.597  -2.598  0.00  0.00     0.066 H 
ATOM     25  H   LIG d   1       8.311   3.779  -5.588  0.00  0.00     0.066 H 
ATOM     26  H   LIG d   1       8.830   6.274  -5.905  0.00  0.00     0.062 H 
ATOM     27  H   LIG d   1       9.335   8.352  -4.794  0.00  0.00     0.059 H 
ENDROOT
BRANCH  20  28
ATOM     28  C   LIG d   1      12.214   9.902   0.532  0.00  0.00     0.086 A 
ATOM     29  C   LIG d   1      12.476  11.270   0.576  0.00  0.00     0.145 A 
ATOM     30  C   LIG d   1      12.634  11.904   1.797  0.00  0.00     0.024 A 
ATOM     31  C   LIG d   1      12.543  11.175   2.972  0.00  0.00     0.124 A 
ATOM     32  H   LIG d   1      12.833  12.964   1.833  0.00  0.00     0.069 H 
ATOM     33  C   LIG d   1      12.288   9.811   2.927  0.00  0.00    -0.018 A 
ATOM     34  C   LIG d   1      12.123   9.177   1.711  0.00  0.00    -0.033 A 
ATOM     35  H   LIG d   1      12.216   9.245   3.844  0.00  0.00     0.066 H 
ATOM     36  H   LIG d   1      11.924   8.116   1.678  0.00  0.00     0.064 H 
BRANCH  29  37
ATOM     37  O   LIG d   1      12.571  11.981  -0.579  0.00  0.00    -0.493 OA
BRANCH  37  38
ATOM     38  C   LIG d   1      11.491  12.865  -0.887  0.00  0.00     0.079 C 
ATOM     39  H   LIG d   1      10.651  12.657  -0.224  0.00  0.00     0.066 H 
ATOM     40  H   LIG d   1      11.816  13.897  -0.749  0.00  0.00     0.066 H 
ATOM     41  H   LIG d   1      11.183  12.717  -1.922  0.00  0.00     0.066 H 
ENDBRANCH  37  38
ENDBRANCH  29  37
BRANCH  31  42
ATOM     42  O   LIG d   1      12.704  11.796   4.171  0.00  0.00    -0.495 OA
BRANCH  42  43
ATOM     43  C   LIG d   1      12.918  10.961   5.310  0.00  0.00     0.079 C 
ATOM     44  H   LIG d   1      13.628  11.439   5.984  0.00  0.00     0.066 H 
ATOM     45  H   LIG d   1      11.973  10.804   5.830  0.00  0.00     0.066 H 
ATOM     46  H   LIG d   1      13.318   9.999   4.985  0.00  0.00     0.066 H 
ENDBRANCH  42  43
ENDBRANCH  31  42
ENDBRANCH  20  28
BRANCH   1  47
ATOM     47  C   LIG d   1      12.130   6.360  -0.653  0.00  0.00     0.151 C 
ATOM     48  O   LIG d   1      13.147   6.341  -0.002  0.00  0.00    -0.296 OA
BRANCH  47  49
ATOM     49  C   LIG d   1      10.793   6.267   0.035  0.00  0.00    -0.004 C 
ATOM     50  H   LIG d   1      10.077   5.780  -0.628  0.00  0.00     0.031 H 
ATOM     51  H   LIG d   1      10.894   5.685   0.951  0.00  0.00     0.031 H 
ATOM     52  H   LIG d   1      10.439   7.269   0.278  0.00  0.00     0.031 H 
ENDBRANCH  47  49
ENDBRANCH   1  47
BRANCH  13  53
ATOM     53  O   LIG d   1       8.782   1.404  -4.599  0.00  0.00    -0.495 OA
BRANCH  53  54
ATOM     54  C   LIG d   1       7.570   0.963  -3.983  0.00  0.00     0.079 C 
ATOM     55  H   LIG d   1       7.432  -0.101  -4.174  0.00  0.00     0.066 H 
ATOM     56  H   LIG d   1       7.625   1.134  -2.908  0.00  0.00     0.066 H 
ATOM     57  H   LIG d   1       6.729   1.519  -4.396  0.00  0.00     0.066 H 
ENDBRANCH  53  54
ENDBRANCH  13  53
TORSDOF 9
ENDMDL
MODEL 6
REMARK VINA RESULT:      -5.4      3.594      5.177
REMARK  9 active torsions:
REMARK  status: ('A' for Active; 'I' for Inactive)
REMARK    1  A    between atoms: C_1  and  C_2 
REMARK    2  A    between atoms: C_2  and  C_4 
REMARK    3  A    between atoms: C_16  and  O_21 
REMARK    4  A    between atoms: O_21  and  C_22 
REMARK    5  A    between atoms: N_25  and  C_28 
REMARK    6  A    between atoms: C_31  and  O_36 
REMARK    7  A    between atoms: C_33  and  O_34 
REMARK    8  A    between atoms: O_34  and  C_35 
REMARK    9  A    between atoms: O_36  and  C_37 
ROOT
ATOM      1  C   LIG d   1      12.440   5.821  -3.390  0.00  0.00     0.094 C 
ATOM      2  H   LIG d   1      12.983   5.831  -4.336  0.00  0.00     0.059 H 
ATOM      3  C   LIG d   1      11.168   6.688  -3.497  0.00  0.00     0.075 C 
ATOM      4  H   LIG d   1      10.801   6.793  -4.517  0.00  0.00     0.043 H 
ATOM      5  C   LIG d   1      10.162   5.985  -2.540  0.00  0.00     0.072 C 
ATOM      6  H   LIG d   1       9.133   6.035  -2.896  0.00  0.00     0.042 H 
ATOM      7  C   LIG d   1      10.669   4.549  -2.409  0.00  0.00     0.055 C 
ATOM      8  H   LIG d   1      10.803   4.302  -1.355  0.00  0.00     0.055 H 
ATOM      9  N   LIG d   1      11.980   4.471  -3.089  0.00  0.00    -0.311 N 
ATOM     10  C   LIG d   1      12.562   3.246  -3.411  0.00  0.00     0.038 A 
ATOM     11  C   LIG d   1      13.922   3.046  -3.494  0.00  0.00    -0.037 A 
ATOM     12  C   LIG d   1      14.411   1.788  -3.803  0.00  0.00    -0.018 A 
ATOM     13  C   LIG d   1      13.538   0.731  -4.029  0.00  0.00     0.121 A 
ATOM     14  C   LIG d   1      12.168   0.924  -3.957  0.00  0.00    -0.011 A 
ATOM     15  C   LIG d   1      11.666   2.185  -3.655  0.00  0.00    -0.001 A 
ATOM     16  C   LIG d   1      10.217   2.457  -3.606  0.00  0.00    -0.055 C 
ATOM     17  C   LIG d   1       9.726   3.565  -3.044  0.00  0.00    -0.062 C 
ATOM     18  C   LIG d   1      10.370   6.742  -1.244  0.00  0.00     0.232 C 
ATOM     19  O   LIG d   1      10.022   6.370  -0.143  0.00  0.00    -0.274 OA
ATOM     20  N   LIG d   1      11.004   7.891  -1.516  0.00  0.00    -0.206 N 
ATOM     21  C   LIG d   1      11.420   8.016  -2.808  0.00  0.00     0.232 C 
ATOM     22  O   LIG d   1      11.899   9.001  -3.325  0.00  0.00    -0.274 OA
ATOM     23  H   LIG d   1      14.603   3.866  -3.318  0.00  0.00     0.064 H 
ATOM     24  H   LIG d   1      15.478   1.627  -3.869  0.00  0.00     0.066 H 
ATOM     25  H   LIG d   1      11.493   0.100  -4.135  0.00  0.00     0.066 H 
ATOM     26  H   LIG d   1       9.529   1.752  -4.050  0.00  0.00     0.062 H 
ATOM     27  H   LIG d   1       8.662   3.751  -3.022  0.00  0.00     0.059 H 
ENDROOT
BRANCH  20  28
ATOM     28  C   LIG d   1      11.222   8.891  -0.552  0.00  0.00     0.086 A 
ATOM     29  C   LIG d   1      10.304   9.928  -0.404  0.00  0.00     0.145 A 
ATOM     30  C   LIG d   1      10.518  10.908   0.552  0.00  0.00     0.024 A 
ATOM     31  C   LIG d   1      11.651  10.860   1.351  0.00  0.00     0.124 A 
ATOM     32  H   LIG d   1       9.806  11.711   0.672  0.00  0.00     0.069 H 
ATOM     33  C   LIG d   1      12.567   9.829   1.197  0.00  0.00    -0.018 A 
ATOM     34  C   LIG d   1      12.352   8.847   0.249  0.00  0.00    -0.033 A 
ATOM     35  H   LIG d   1      13.448   9.793   1.821  0.00  0.00     0.066 H 
ATOM     36  H   LIG d   1      13.066   8.045   0.132  0.00  0.00     0.064 H 
BRANCH  29  37
ATOM     37  O   LIG d   1       9.198   9.976  -1.192  0.00  0.00    -0.493 OA
BRANCH  37  38
ATOM     38  C   LIG d   1       9.170  10.978  -2.211  0.00  0.00     0.079 C 
ATOM     39  H   LIG d   1       9.664  11.879  -1.847  0.00  0.00     0.066 H 
ATOM     40  H   LIG d   1       9.690  10.610  -3.096  0.00  0.00     0.066 H 
ATOM     41  H   LIG d   1       8.136  11.208  -2.467  0.00  0.00     0.066 H 
ENDBRANCH  37  38
ENDBRANCH  29  37
BRANCH  31  42
ATOM     42  O   LIG d   1      11.864  11.825   2.285  0.00  0.00    -0.495 OA
BRANCH  42  43
ATOM     43  C   LIG d   1      13.089  11.757   3.017  0.00  0.00     0.079 C 
ATOM     44  H   LIG d   1      13.783  12.504   2.634  0.00  0.00     0.066 H 
ATOM     45  H   LIG d   1      12.894  11.950   4.072  0.00  0.00     0.066 H 
ATOM     46  H   LIG d   1      13.525  10.763   2.904  0.00  0.00     0.066 H 
ENDBRANCH  42  43
ENDBRANCH  31  42
ENDBRANCH  20  28
BRANCH   1  47
ATOM     47  C   LIG d   1      13.324   6.330  -2.280  0.00  0.00     0.151 C 
ATOM     48  O   LIG d   1      13.997   7.318  -2.449  0.00  0.00    -0.296 OA
BRANCH  47  49
ATOM     49  C   LIG d   1      13.368   5.605  -0.960  0.00  0.00    -0.004 C 
ATOM     50  H   LIG d   1      12.642   4.792  -0.968  0.00  0.00     0.031 H 
ATOM     51  H   LIG d   1      14.367   5.200  -0.800  0.00  0.00     0.031 H 
ATOM     52  H   LIG d   1      13.125   6.300  -0.156  0.00  0.00     0.031 H 
ENDBRANCH  47  49
ENDBRANCH   1  47
BRANCH  13  53
ATOM     53  O   LIG d   1      14.032  -0.501  -4.324  0.00  0.00    -0.495 OA
BRANCH  53  54
ATOM     54  C   LIG d   1      13.175  -1.618  -4.078  0.00  0.00     0.079 C 
ATOM     55  H   LIG d   1      13.501  -2.133  -3.175  0.00  0.00     0.066 H 
ATOM     56  H   LIG d   1      12.150  -1.269  -3.947  0.00  0.00     0.066 H 
ATOM     57  H   LIG d   1      13.220  -2.303  -4.924  0.00  0.00     0.066 H 
ENDBRANCH  53  54
ENDBRANCH  13  53
TORSDOF 9
ENDMDL
MODEL 7
REMARK VINA RESULT:      -5.4      2.686      4.290
REMARK  9 active torsions:
REMARK  status: ('A' for Active; 'I' for Inactive)
REMARK    1  A    between atoms: C_1  and  C_2 
REMARK    2  A    between atoms: C_2  and  C_4 
REMARK    3  A    between atoms: C_16  and  O_21 
REMARK    4  A    between atoms: O_21  and  C_22 
REMARK    5  A    between atoms: N_25  and  C_28 
REMARK    6  A    between atoms: C_31  and  O_36 
REMARK    7  A    between atoms: C_33  and  O_34 
REMARK    8  A    between atoms: O_34  and  C_35 
REMARK    9  A    between atoms: O_36  and  C_37 
ROOT
ATOM      1  C   LIG d   1      11.167   5.619  -2.867  0.00  0.00     0.094 C 
ATOM      2  H   LIG d   1      11.710   4.728  -2.552  0.00  0.00     0.059 H 
ATOM      3  C   LIG d   1      12.158   6.719  -3.305  0.00  0.00     0.075 C 
ATOM      4  H   LIG d   1      13.119   6.327  -3.636  0.00  0.00     0.043 H 
ATOM      5  C   LIG d   1      11.384   7.492  -4.413  0.00  0.00     0.072 C 
ATOM      6  H   LIG d   1      12.034   7.854  -5.210  0.00  0.00     0.042 H 
ATOM      7  C   LIG d   1      10.323   6.514  -4.918  0.00  0.00     0.055 C 
ATOM      8  H   LIG d   1       9.337   6.975  -4.853  0.00  0.00     0.055 H 
ATOM      9  N   LIG d   1      10.353   5.324  -4.040  0.00  0.00    -0.311 N 
ATOM     10  C   LIG d   1       9.729   4.132  -4.406  0.00  0.00     0.038 A 
ATOM     11  C   LIG d   1       9.219   3.229  -3.501  0.00  0.00    -0.037 A 
ATOM     12  C   LIG d   1       8.599   2.078  -3.957  0.00  0.00    -0.018 A 
ATOM     13  C   LIG d   1       8.490   1.833  -5.320  0.00  0.00     0.121 A 
ATOM     14  C   LIG d   1       9.007   2.732  -6.239  0.00  0.00    -0.011 A 
ATOM     15  C   LIG d   1       9.638   3.886  -5.791  0.00  0.00    -0.001 A 
ATOM     16  C   LIG d   1      10.244   4.856  -6.724  0.00  0.00    -0.055 C 
ATOM     17  C   LIG d   1      10.590   6.086  -6.336  0.00  0.00    -0.062 C 
ATOM     18  C   LIG d   1      10.738   8.615  -3.628  0.00  0.00     0.232 C 
ATOM     19  O   LIG d   1       9.812   9.302  -4.006  0.00  0.00    -0.274 OA
ATOM     20  N   LIG d   1      11.361   8.725  -2.446  0.00  0.00    -0.206 N 
ATOM     21  C   LIG d   1      12.274   7.745  -2.194  0.00  0.00     0.232 C 
ATOM     22  O   LIG d   1      13.046   7.693  -1.262  0.00  0.00    -0.274 OA
ATOM     23  H   LIG d   1       9.303   3.417  -2.440  0.00  0.00     0.064 H 
ATOM     24  H   LIG d   1       8.198   1.366  -3.249  0.00  0.00     0.066 H 
ATOM     25  H   LIG d   1       8.920   2.536  -7.298  0.00  0.00     0.066 H 
ATOM     26  H   LIG d   1      10.431   4.563  -7.747  0.00  0.00     0.062 H 
ATOM     27  H   LIG d   1      11.037   6.783  -7.030  0.00  0.00     0.059 H 
ENDROOT
BRANCH  20  28
ATOM     28  C   LIG d   1      11.098   9.765  -1.538  0.00  0.00     0.086 A 
ATOM     29  C   LIG d   1      11.789  10.971  -1.640  0.00  0.00     0.145 A 
ATOM     30  C   LIG d   1      11.523  11.996  -0.747  0.00  0.00     0.024 A 
ATOM     31  C   LIG d   1      10.579  11.817   0.252  0.00  0.00     0.124 A 
ATOM     32  H   LIG d   1      12.054  12.933  -0.827  0.00  0.00     0.069 H 
ATOM     33  C   LIG d   1       9.896  10.613   0.356  0.00  0.00    -0.018 A 
ATOM     34  C   LIG d   1      10.155   9.590  -0.537  0.00  0.00    -0.033 A 
ATOM     35  H   LIG d   1       9.161  10.475   1.135  0.00  0.00     0.066 H 
ATOM     36  H   LIG d   1       9.622   8.655  -0.454  0.00  0.00     0.064 H 
BRANCH  29  37
ATOM     37  O   LIG d   1      12.718  11.142  -2.617  0.00  0.00    -0.493 OA
BRANCH  37  38
ATOM     38  C   LIG d   1      12.383  12.033  -3.682  0.00  0.00     0.079 C 
ATOM     39  H   LIG d   1      12.892  11.716  -4.593  0.00  0.00     0.066 H 
ATOM     40  H   LIG d   1      11.305  12.016  -3.844  0.00  0.00     0.066 H 
ATOM     41  H   LIG d   1      12.697  13.044  -3.423  0.00  0.00     0.066 H 
ENDBRANCH  37  38
ENDBRANCH  29  37
BRANCH  31  42
ATOM     42  O   LIG d   1      10.322  12.821   1.132  0.00  0.00    -0.495 OA
BRANCH  42  43
ATOM     43  C   LIG d   1      10.345  14.154   0.619  0.00  0.00     0.079 C 
ATOM     44  H   LIG d   1      10.507  14.856   1.436  0.00  0.00     0.066 H 
ATOM     45  H   LIG d   1      11.151  14.250  -0.109  0.00  0.00     0.066 H 
ATOM     46  H   LIG d   1       9.391  14.373   0.136  0.00  0.00     0.066 H 
ENDBRANCH  42  43
ENDBRANCH  31  42
ENDBRANCH  20  28
BRANCH   1  47
ATOM     47  C   LIG d   1      10.297   6.121  -1.743  0.00  0.00     0.151 C 
ATOM     48  O   LIG d   1       9.242   6.654  -1.989  0.00  0.00    -0.296 OA
BRANCH  47  49
ATOM     49  C   LIG d   1      10.744   5.958  -0.314  0.00  0.00    -0.004 C 
ATOM     50  H   LIG d   1      11.027   4.920  -0.138  0.00  0.00     0.031 H 
ATOM     51  H   LIG d   1      11.601   6.605  -0.124  0.00  0.00     0.031 H 
ATOM     52  H   LIG d   1       9.928   6.229   0.355  0.00  0.00     0.031 H 
ENDBRANCH  47  49
ENDBRANCH   1  47
BRANCH  13  53
ATOM     53  O   LIG d   1       7.871   0.703  -5.755  0.00  0.00    -0.495 OA
BRANCH  53  54
ATOM     54  C   LIG d   1       7.059   0.004  -4.810  0.00  0.00     0.079 C 
ATOM     55  H   LIG d   1       6.056   0.431  -4.808  0.00  0.00     0.066 H 
ATOM     56  H   LIG d   1       7.004  -1.050  -5.086  0.00  0.00     0.066 H 
ATOM     57  H   LIG d   1       7.496   0.097  -3.816  0.00  0.00     0.066 H 
ENDBRANCH  53  54
ENDBRANCH  13  53
TORSDOF 9
ENDMDL
MODEL 8
REMARK VINA RESULT:      -5.2      9.659     13.034
REMARK  9 active torsions:
REMARK  status: ('A' for Active; 'I' for Inactive)
REMARK    1  A    between atoms: C_1  and  C_2 
REMARK    2  A    between atoms: C_2  and  C_4 
REMARK    3  A    between atoms: C_16  and  O_21 
REMARK    4  A    between atoms: O_21  and  C_22 
REMARK    5  A    between atoms: N_25  and  C_28 
REMARK    6  A    between atoms: C_31  and  O_36 
REMARK    7  A    between atoms: C_33  and  O_34 
REMARK    8  A    between atoms: O_34  and  C_35 
REMARK    9  A    between atoms: O_36  and  C_37 
ROOT
ATOM      1  C   LIG d   1       6.516  -2.049  -4.861  0.00  0.00     0.094 C 
ATOM      2  H   LIG d   1       6.355  -2.253  -3.802  0.00  0.00     0.059 H 
ATOM      3  C   LIG d   1       6.206  -0.569  -5.172  0.00  0.00     0.075 C 
ATOM      4  H   LIG d   1       6.309   0.084  -4.306  0.00  0.00     0.043 H 
ATOM      5  C   LIG d   1       7.183  -0.225  -6.334  0.00  0.00     0.072 C 
ATOM      6  H   LIG d   1       7.549   0.801  -6.289  0.00  0.00     0.042 H 
ATOM      7  C   LIG d   1       8.308  -1.255  -6.232  0.00  0.00     0.055 C 
ATOM      8  H   LIG d   1       8.424  -1.768  -7.187  0.00  0.00     0.055 H 
ATOM      9  N   LIG d   1       7.920  -2.244  -5.203  0.00  0.00    -0.311 N 
ATOM     10  C   LIG d   1       8.848  -3.131  -4.657  0.00  0.00     0.038 A 
ATOM     11  C   LIG d   1       8.520  -4.379  -4.179  0.00  0.00    -0.037 A 
ATOM     12  C   LIG d   1       9.513  -5.200  -3.671  0.00  0.00    -0.018 A 
ATOM     13  C   LIG d   1      10.833  -4.770  -3.643  0.00  0.00     0.121 A 
ATOM     14  C   LIG d   1      11.172  -3.512  -4.114  0.00  0.00    -0.011 A 
ATOM     15  C   LIG d   1      10.182  -2.677  -4.619  0.00  0.00    -0.001 A 
ATOM     16  C   LIG d   1      10.479  -1.313  -5.094  0.00  0.00    -0.055 C 
ATOM     17  C   LIG d   1       9.612  -0.619  -5.836  0.00  0.00    -0.062 C 
ATOM     18  C   LIG d   1       6.331  -0.490  -7.558  0.00  0.00     0.232 C 
ATOM     19  O   LIG d   1       6.743  -0.639  -8.689  0.00  0.00    -0.274 OA
ATOM     20  N   LIG d   1       5.044  -0.532  -7.183  0.00  0.00    -0.206 N 
ATOM     21  C   LIG d   1       4.845  -0.482  -5.836  0.00  0.00     0.232 C 
ATOM     22  O   LIG d   1       3.783  -0.381  -5.261  0.00  0.00    -0.274 OA
ATOM     23  H   LIG d   1       7.494  -4.716  -4.200  0.00  0.00     0.064 H 
ATOM     24  H   LIG d   1       9.258  -6.181  -3.294  0.00  0.00     0.066 H 
ATOM     25  H   LIG d   1      12.200  -3.181  -4.089  0.00  0.00     0.066 H 
ATOM     26  H   LIG d   1      11.418  -0.849  -4.825  0.00  0.00     0.062 H 
ATOM     27  H   LIG d   1       9.843   0.382  -6.172  0.00  0.00     0.059 H 
ENDROOT
BRANCH  20  28
ATOM     28  C   LIG d   1       3.983  -0.618  -8.101  0.00  0.00     0.086 A 
ATOM     29  C   LIG d   1       3.404   0.543  -8.608  0.00  0.00     0.145 A 
ATOM     30  C   LIG d   1       2.363   0.454  -9.518  0.00  0.00     0.024 A 
ATOM     31  C   LIG d   1       1.892  -0.789  -9.913  0.00  0.00     0.124 A 
ATOM     32  H   LIG d   1       1.915   1.353  -9.915  0.00  0.00     0.069 H 
ATOM     33  C   LIG d   1       2.467  -1.945  -9.401  0.00  0.00    -0.018 A 
ATOM     34  C   LIG d   1       3.509  -1.859  -8.499  0.00  0.00    -0.033 A 
ATOM     35  H   LIG d   1       2.099  -2.911  -9.711  0.00  0.00     0.066 H 
ATOM     36  H   LIG d   1       3.955  -2.759  -8.103  0.00  0.00     0.064 H 
BRANCH  29  37
ATOM     37  O   LIG d   1       3.863   1.760  -8.215  0.00  0.00    -0.493 OA
BRANCH  37  38
ATOM     38  C   LIG d   1       4.250   2.672  -9.245  0.00  0.00     0.079 C 
ATOM     39  H   LIG d   1       4.241   2.157 -10.207  0.00  0.00     0.066 H 
ATOM     40  H   LIG d   1       3.549   3.506  -9.274  0.00  0.00     0.066 H 
ATOM     41  H   LIG d   1       5.253   3.046  -9.042  0.00  0.00     0.066 H 
ENDBRANCH  37  38
ENDBRANCH  29  37
BRANCH  31  42
ATOM     42  O   LIG d   1       0.867  -0.876 -10.801  0.00  0.00    -0.495 OA
BRANCH  42  43
ATOM     43  C   LIG d   1       1.130  -1.557 -12.029  0.00  0.00     0.079 C 
ATOM     44  H   LIG d   1       0.420  -1.226 -12.787  0.00  0.00     0.066 H 
ATOM     45  H   LIG d   1       2.144  -1.333 -12.360  0.00  0.00     0.066 H 
ATOM     46  H   LIG d   1       1.025  -2.632 -11.878  0.00  0.00     0.066 H 
ENDBRANCH  42  43
ENDBRANCH  31  42
ENDBRANCH  20  28
BRANCH   1  47
ATOM     47  C   LIG d   1       5.646  -2.949  -5.701  0.00  0.00     0.151 C 
ATOM     48  O   LIG d   1       4.490  -3.124  -5.399  0.00  0.00    -0.296 OA
BRANCH  47  49
ATOM     49  C   LIG d   1       6.219  -3.631  -6.916  0.00  0.00    -0.004 C 
ATOM     50  H   LIG d   1       7.042  -3.036  -7.312  0.00  0.00     0.031 H 
ATOM     51  H   LIG d   1       6.586  -4.620  -6.639  0.00  0.00     0.031 H 
ATOM     52  H   LIG d   1       5.444  -3.730  -7.676  0.00  0.00     0.031 H 
ENDBRANCH  47  49
ENDBRANCH   1  47
BRANCH  13  53
ATOM     53  O   LIG d   1      11.799  -5.589  -3.148  0.00  0.00    -0.495 OA
BRANCH  53  54
ATOM     54  C   LIG d   1      11.398  -6.904  -2.759  0.00  0.00     0.079 C 
ATOM     55  H   LIG d   1      10.311  -6.944  -2.682  0.00  0.00     0.066 H 
ATOM     56  H   LIG d   1      11.734  -7.623  -3.506  0.00  0.00     0.066 H 
ATOM     57  H   LIG d   1      11.840  -7.148  -1.794  0.00  0.00     0.066 H 
ENDBRANCH  53  54
ENDBRANCH  13  53
TORSDOF 9
ENDMDL
MODEL 9
REMARK VINA RESULT:      -5.2      7.798     12.845
REMARK  9 active torsions:
REMARK  status: ('A' for Active; 'I' for Inactive)
REMARK    1  A    between atoms: C_1  and  C_2 
REMARK    2  A    between atoms: C_2  and  C_4 
REMARK    3  A    between atoms: C_16  and  O_21 
REMARK    4  A    between atoms: O_21  and  C_22 
REMARK    5  A    between atoms: N_25  and  C_28 
REMARK    6  A    between atoms: C_31  and  O_36 
REMARK    7  A    between atoms: C_33  and  O_34 
REMARK    8  A    between atoms: O_34  and  C_35 
REMARK    9  A    between atoms: O_36  and  C_37 
ROOT
ATOM      1  C   LIG d   1       7.376  -0.157  -7.444  0.00  0.00     0.094 C 
ATOM      2  H   LIG d   1       8.430  -0.291  -7.693  0.00  0.00     0.059 H 
ATOM      3  C   LIG d   1       6.709  -1.527  -7.200  0.00  0.00     0.075 C 
ATOM      4  H   LIG d   1       7.412  -2.301  -6.894  0.00  0.00     0.043 H 
ATOM      5  C   LIG d   1       5.615  -1.219  -6.137  0.00  0.00     0.072 C 
ATOM      6  H   LIG d   1       5.468  -2.038  -5.431  0.00  0.00     0.042 H 
ATOM      7  C   LIG d   1       6.070   0.071  -5.454  0.00  0.00     0.055 C 
ATOM      8  H   LIG d   1       5.273   0.814  -5.504  0.00  0.00     0.055 H 
ATOM      9  N   LIG d   1       7.245   0.580  -6.193  0.00  0.00    -0.311 N 
ATOM     10  C   LIG d   1       8.076   1.562  -5.655  0.00  0.00     0.038 A 
ATOM     11  C   LIG d   1       8.783   2.465  -6.417  0.00  0.00    -0.037 A 
ATOM     12  C   LIG d   1       9.569   3.420  -5.793  0.00  0.00    -0.018 A 
ATOM     13  C   LIG d   1       9.647   3.469  -4.407  0.00  0.00     0.121 A 
ATOM     14  C   LIG d   1       8.946   2.559  -3.631  0.00  0.00    -0.011 A 
ATOM     15  C   LIG d   1       8.159   1.593  -4.248  0.00  0.00    -0.001 A 
ATOM     16  C   LIG d   1       7.426   0.574  -3.473  0.00  0.00    -0.055 C 
ATOM     17  C   LIG d   1       6.455  -0.164  -4.019  0.00  0.00    -0.062 C 
ATOM     18  C   LIG d   1       4.395  -0.962  -6.997  0.00  0.00     0.232 C 
ATOM     19  O   LIG d   1       3.379  -0.406  -6.637  0.00  0.00    -0.274 OA
ATOM     20  N   LIG d   1       4.625  -1.453  -8.223  0.00  0.00    -0.206 N 
ATOM     21  C   LIG d   1       5.896  -1.901  -8.425  0.00  0.00     0.232 C 
ATOM     22  O   LIG d   1       6.311  -2.495  -9.396  0.00  0.00    -0.274 OA
ATOM     23  H   LIG d   1       8.724   2.429  -7.495  0.00  0.00     0.064 H 
ATOM     24  H   LIG d   1      10.126   4.130  -6.389  0.00  0.00     0.066 H 
ATOM     25  H   LIG d   1       9.010   2.601  -2.555  0.00  0.00     0.066 H 
ATOM     26  H   LIG d   1       7.687   0.404  -2.439  0.00  0.00     0.062 H 
ATOM     27  H   LIG d   1       5.932  -0.910  -3.439  0.00  0.00     0.059 H 
ENDROOT
BRANCH  20  28
ATOM     28  C   LIG d   1       3.637  -1.504  -9.222  0.00  0.00     0.086 A 
ATOM     29  C   LIG d   1       2.912  -2.676  -9.426  0.00  0.00     0.145 A 
ATOM     30  C   LIG d   1       1.935  -2.722 -10.407  0.00  0.00     0.024 A 
ATOM     31  C   LIG d   1       1.689  -1.605 -11.192  0.00  0.00     0.124 A 
ATOM     32  H   LIG d   1       1.369  -3.627 -10.563  0.00  0.00     0.069 H 
ATOM     33  C   LIG d   1       2.417  -0.440 -10.992  0.00  0.00    -0.018 A 
ATOM     34  C   LIG d   1       3.388  -0.390 -10.009  0.00  0.00    -0.033 A 
ATOM     35  H   LIG d   1       2.224   0.428 -11.603  0.00  0.00     0.066 H 
ATOM     36  H   LIG d   1       3.952   0.517  -9.855  0.00  0.00     0.064 H 
BRANCH  29  37
ATOM     37  O   LIG d   1       3.159  -3.771  -8.659  0.00  0.00    -0.493 OA
BRANCH  37  38
ATOM     38  C   LIG d   1       3.209  -5.033  -9.328  0.00  0.00     0.079 C 
ATOM     39  H   LIG d   1       2.421  -5.679  -8.942  0.00  0.00     0.066 H 
ATOM     40  H   LIG d   1       3.066  -4.883 -10.398  0.00  0.00     0.066 H 
ATOM     41  H   LIG d   1       4.179  -5.499  -9.153  0.00  0.00     0.066 H 
ENDBRANCH  37  38
ENDBRANCH  29  37
BRANCH  31  42
ATOM     42  O   LIG d   1       0.734  -1.651 -12.159  0.00  0.00    -0.495 OA
BRANCH  42  43
ATOM     43  C   LIG d   1       0.154  -2.927 -12.436  0.00  0.00     0.079 C 
ATOM     44  H   LIG d   1       0.905  -3.579 -12.882  0.00  0.00     0.066 H 
ATOM     45  H   LIG d   1      -0.208  -3.372 -11.510  0.00  0.00     0.066 H 
ATOM     46  H   LIG d   1      -0.679  -2.804 -13.130  0.00  0.00     0.066 H 
ENDBRANCH  42  43
ENDBRANCH  31  42
ENDBRANCH  20  28
BRANCH   1  47
ATOM     47  C   LIG d   1       6.669   0.575  -8.556  0.00  0.00     0.151 C 
ATOM     48  O   LIG d   1       5.782   1.353  -8.298  0.00  0.00    -0.296 OA
BRANCH  47  49
ATOM     49  C   LIG d   1       7.069   0.337  -9.989  0.00  0.00    -0.004 C 
ATOM     50  H   LIG d   1       6.667  -0.620 -10.324  0.00  0.00     0.031 H 
ATOM     51  H   LIG d   1       6.673   1.137 -10.615  0.00  0.00     0.031 H 
ATOM     52  H   LIG d   1       8.156   0.320 -10.065  0.00  0.00     0.031 H 
ENDBRANCH  47  49
ENDBRANCH   1  47
BRANCH  13  53
ATOM     53  O   LIG d   1      10.417   4.415  -3.807  0.00  0.00    -0.495 OA
BRANCH  53  54
ATOM     54  C   LIG d   1      10.334   4.511  -2.384  0.00  0.00     0.079 C 
ATOM     55  H   LIG d   1      10.349   5.561  -2.089  0.00  0.00     0.066 H 
ATOM     56  H   LIG d   1       9.407   4.051  -2.041  0.00  0.00     0.066 H 
ATOM     57  H   LIG d   1      11.182   3.995  -1.935  0.00  0.00     0.066 H 
ENDBRANCH  53  54
ENDBRANCH  13  53
TORSDOF 9
ENDMDL
