MODEL 1
REMARK VINA RESULT:      -6.2      0.000      0.000
REMARK  9 active torsions:
REMARK  status: ('A' for Active; 'I' for Inactive)
REMARK    1  A    between atoms: C_1  and  C_2 
REMARK    2  A    between atoms: C_2  and  C_3 
REMARK    3  A    between atoms: C_2  and  C_4 
REMARK    4  A    between atoms: C_2  and  C_5 
REMARK    5  A    between atoms: C_13  and  C_19 
REMARK    6  A    between atoms: C_14  and  S_15 
REMARK    7  A    between atoms: C_19  and  C_20 
REMARK    8  A    between atoms: C_19  and  C_21 
REMARK    9  A    between atoms: C_19  and  C_22 
ROOT
ATOM      1  C   LIG d   1       3.255  -0.942  -9.077  0.00  0.00    -0.041 A 
ATOM      2  C   LIG d   1       4.430  -1.606  -8.729  0.00  0.00    -0.057 A 
ATOM      3  C   LIG d   1       4.920  -1.547  -7.461  0.00  0.00    -0.052 A 
ATOM      4  C   LIG d   1       4.234  -0.805  -6.484  0.00  0.00     0.006 A 
ATOM      5  C   LIG d   1       3.040  -0.128  -6.838  0.00  0.00    -0.016 A 
ATOM      6  C   LIG d   1       2.567  -0.208  -8.159  0.00  0.00    -0.050 A 
ATOM      7  C   LIG d   1       2.354   0.615  -5.862  0.00  0.00    -0.054 A 
ATOM      8  C   LIG d   1       2.845   0.675  -4.594  0.00  0.00    -0.056 A 
ATOM      9  C   LIG d   1       4.018   0.010  -4.246  0.00  0.00    -0.018 A 
ATOM     10  C   LIG d   1       4.708  -0.720  -5.165  0.00  0.00     0.088 A 
ATOM     11  H   LIG d   1       4.959  -2.178  -9.477  0.00  0.00     0.062 H 
ATOM     12  H   LIG d   1       5.831  -2.069  -7.205  0.00  0.00     0.062 H 
ATOM     13  H   LIG d   1       1.661   0.305  -8.444  0.00  0.00     0.063 H 
ATOM     14  H   LIG d   1       1.443   1.136  -6.118  0.00  0.00     0.062 H 
ATOM     15  H   LIG d   1       2.315   1.247  -3.846  0.00  0.00     0.062 H 
ENDROOT
BRANCH   1  16
ATOM     16  C   LIG d   1       2.743  -1.030 -10.491  0.00  0.00    -0.013 C 
BRANCH  16  17
ATOM     17  C   LIG d   1       1.235  -0.774 -10.504  0.00  0.00    -0.056 C 
ATOM     18  H   LIG d   1       0.902  -0.507  -9.502  0.00  0.00     0.024 H 
ATOM     19  H   LIG d   1       1.012   0.043 -11.191  0.00  0.00     0.024 H 
ATOM     20  H   LIG d   1       0.716  -1.675 -10.831  0.00  0.00     0.024 H 
ENDBRANCH  16  17
BRANCH  16  21
ATOM     21  C   LIG d   1       3.029  -2.426 -11.049  0.00  0.00    -0.056 C 
ATOM     22  H   LIG d   1       2.401  -3.157 -10.539  0.00  0.00     0.024 H 
ATOM     23  H   LIG d   1       2.810  -2.442 -12.117  0.00  0.00     0.024 H 
ATOM     24  H   LIG d   1       4.078  -2.674 -10.888  0.00  0.00     0.024 H 
ENDBRANCH  16  21
BRANCH  16  25
ATOM     25  C   LIG d   1       3.447   0.017 -11.355  0.00  0.00    -0.056 C 
ATOM     26  H   LIG d   1       3.560   0.941 -10.787  0.00  0.00     0.024 H 
ATOM     27  H   LIG d   1       4.430  -0.352 -11.647  0.00  0.00     0.024 H 
ATOM     28  H   LIG d   1       2.852   0.212 -12.248  0.00  0.00     0.024 H 
ENDBRANCH  16  25
ENDBRANCH   1  16
BRANCH  10  29
ATOM     29  S   LIG d   1       6.191  -1.553  -4.702  0.00  0.00    -0.050 S 
ATOM     30  O   LIG d   1       7.104  -0.540  -4.197  0.00  0.00    -0.180 OA
ATOM     31  O   LIG d   1       5.829  -2.518  -3.676  0.00  0.00    -0.180 OA
ATOM     32  O   LIG d   1       6.704  -2.199  -5.900  0.00  0.00    -0.720 OA
ENDBRANCH  10  29
BRANCH   9  33
ATOM     33  C   LIG d   1       4.531   0.100  -2.832  0.00  0.00    -0.011 C 
BRANCH  33  34
ATOM     34  C   LIG d   1       4.446  -1.277  -2.171  0.00  0.00    -0.056 C 
ATOM     35  H   LIG d   1       3.740  -1.238  -1.340  0.00  0.00     0.024 H 
ATOM     36  H   LIG d   1       4.106  -2.011  -2.902  0.00  0.00     0.024 H 
ATOM     37  H   LIG d   1       5.429  -1.563  -1.799  0.00  0.00     0.024 H 
ENDBRANCH  33  34
BRANCH  33  38
ATOM     38  C   LIG d   1       5.986   0.570  -2.846  0.00  0.00    -0.056 C 
ATOM     39  H   LIG d   1       6.093   1.443  -2.203  0.00  0.00     0.024 H 
ATOM     40  H   LIG d   1       6.631  -0.230  -2.483  0.00  0.00     0.024 H 
ATOM     41  H   LIG d   1       6.273   0.834  -3.865  0.00  0.00     0.024 H 
ENDBRANCH  33  38
BRANCH  33  42
ATOM     42  C   LIG d   1       3.681   1.098  -2.044  0.00  0.00    -0.056 C 
ATOM     43  H   LIG d   1       4.303   1.935  -1.726  0.00  0.00     0.024 H 
ATOM     44  H   LIG d   1       2.873   1.467  -2.675  0.00  0.00     0.024 H 
ATOM     45  H   LIG d   1       3.261   0.605  -1.167  0.00  0.00     0.024 H 
ENDBRANCH  33  42
ENDBRANCH   9  33
TORSDOF 9
ENDMDL
MODEL 2
REMARK VINA RESULT:      -6.1      1.954      2.910
REMARK  9 active torsions:
REMARK  status: ('A' for Active; 'I' for Inactive)
REMARK    1  A    between atoms: C_1  and  C_2 
REMARK    2  A    between atoms: C_2  and  C_3 
REMARK    3  A    between atoms: C_2  and  C_4 
REMARK    4  A    between atoms: C_2  and  C_5 
REMARK    5  A    between atoms: C_13  and  C_19 
REMARK    6  A    between atoms: C_14  and  S_15 
REMARK    7  A    between atoms: C_19  and  C_20 
REMARK    8  A    between atoms: C_19  and  C_21 
REMARK    9  A    between atoms: C_19  and  C_22 
ROOT
ATOM      1  C   LIG d   1       3.200  -0.823  -9.225  0.00  0.00    -0.041 A 
ATOM      2  C   LIG d   1       2.471   0.016  -8.384  0.00  0.00    -0.057 A 
ATOM      3  C   LIG d   1       2.793   0.139  -7.067  0.00  0.00    -0.052 A 
ATOM      4  C   LIG d   1       3.875  -0.589  -6.544  0.00  0.00     0.006 A 
ATOM      5  C   LIG d   1       4.615  -1.444  -7.400  0.00  0.00    -0.016 A 
ATOM      6  C   LIG d   1       4.250  -1.549  -8.753  0.00  0.00    -0.050 A 
ATOM      7  C   LIG d   1       5.697  -2.173  -6.878  0.00  0.00    -0.054 A 
ATOM      8  C   LIG d   1       6.018  -2.051  -5.560  0.00  0.00    -0.056 A 
ATOM      9  C   LIG d   1       5.291  -1.212  -4.720  0.00  0.00    -0.018 A 
ATOM     10  C   LIG d   1       4.237  -0.489  -5.191  0.00  0.00     0.088 A 
ATOM     11  H   LIG d   1       1.640   0.578  -8.783  0.00  0.00     0.062 H 
ATOM     12  H   LIG d   1       2.221   0.795  -6.427  0.00  0.00     0.062 H 
ATOM     13  H   LIG d   1       4.803  -2.198  -9.416  0.00  0.00     0.063 H 
ATOM     14  H   LIG d   1       6.269  -2.828  -7.518  0.00  0.00     0.062 H 
ATOM     15  H   LIG d   1       6.850  -2.613  -5.162  0.00  0.00     0.062 H 
ENDROOT
BRANCH   1  16
ATOM     16  C   LIG d   1       2.814  -0.933 -10.677  0.00  0.00    -0.013 C 
BRANCH  16  17
ATOM     17  C   LIG d   1       1.293  -0.834 -10.810  0.00  0.00    -0.056 C 
ATOM     18  H   LIG d   1       0.824  -1.607 -10.203  0.00  0.00     0.024 H 
ATOM     19  H   LIG d   1       0.962   0.147 -10.468  0.00  0.00     0.024 H 
ATOM     20  H   LIG d   1       1.009  -0.970 -11.854  0.00  0.00     0.024 H 
ENDBRANCH  16  17
BRANCH  16  21
ATOM     21  C   LIG d   1       3.287  -2.279 -11.230  0.00  0.00    -0.056 C 
ATOM     22  H   LIG d   1       2.684  -2.548 -12.097  0.00  0.00     0.024 H 
ATOM     23  H   LIG d   1       4.334  -2.204 -11.524  0.00  0.00     0.024 H 
ATOM     24  H   LIG d   1       3.179  -3.046 -10.461  0.00  0.00     0.024 H 
ENDBRANCH  16  21
BRANCH  16  25
ATOM     25  C   LIG d   1       3.470   0.200 -11.467  0.00  0.00    -0.056 C 
ATOM     26  H   LIG d   1       4.474   0.380 -11.082  0.00  0.00     0.024 H 
ATOM     27  H   LIG d   1       3.530  -0.077 -12.520  0.00  0.00     0.024 H 
ATOM     28  H   LIG d   1       2.874   1.107 -11.365  0.00  0.00     0.024 H 
ENDBRANCH  16  25
ENDBRANCH   1  16
BRANCH  10  29
ATOM     29  S   LIG d   1       3.332   0.566  -4.108  0.00  0.00    -0.050 S 
ATOM     30  O   LIG d   1       2.623  -0.295  -3.174  0.00  0.00    -0.180 OA
ATOM     31  O   LIG d   1       4.304   1.414  -3.436  0.00  0.00    -0.180 OA
ATOM     32  O   LIG d   1       2.418   1.337  -4.937  0.00  0.00    -0.720 OA
ENDBRANCH  10  29
BRANCH   9  33
ATOM     33  C   LIG d   1       5.675  -1.102  -3.267  0.00  0.00    -0.011 C 
BRANCH  33  34
ATOM     34  C   LIG d   1       5.977   0.359  -2.928  0.00  0.00    -0.056 C 
ATOM     35  H   LIG d   1       6.766   0.402  -2.177  0.00  0.00     0.024 H 
ATOM     36  H   LIG d   1       6.303   0.881  -3.828  0.00  0.00     0.024 H 
ATOM     37  H   LIG d   1       5.078   0.834  -2.538  0.00  0.00     0.024 H 
ENDBRANCH  33  34
BRANCH  33  38
ATOM     38  C   LIG d   1       4.522  -1.600  -2.395  0.00  0.00    -0.056 C 
ATOM     39  H   LIG d   1       4.861  -2.439  -1.787  0.00  0.00     0.024 H 
ATOM     40  H   LIG d   1       4.182  -0.795  -1.744  0.00  0.00     0.024 H 
ATOM     41  H   LIG d   1       3.698  -1.925  -3.032  0.00  0.00     0.024 H 
ENDBRANCH  33  38
BRANCH  33  42
ATOM     42  C   LIG d   1       6.918  -1.954  -3.003  0.00  0.00    -0.056 C 
ATOM     43  H   LIG d   1       7.492  -2.056  -3.924  0.00  0.00     0.024 H 
ATOM     44  H   LIG d   1       7.535  -1.473  -2.243  0.00  0.00     0.024 H 
ATOM     45  H   LIG d   1       6.614  -2.941  -2.653  0.00  0.00     0.024 H 
ENDBRANCH  33  42
ENDBRANCH   9  33
TORSDOF 9
ENDMDL
MODEL 3
REMARK VINA RESULT:      -5.4      4.215      6.861
REMARK  9 active torsions:
REMARK  status: ('A' for Active; 'I' for Inactive)
REMARK    1  A    between atoms: C_1  and  C_2 
REMARK    2  A    between atoms: C_2  and  C_3 
REMARK    3  A    between atoms: C_2  and  C_4 
REMARK    4  A    between atoms: C_2  and  C_5 
REMARK    5  A    between atoms: C_13  and  C_19 
REMARK    6  A    between atoms: C_14  and  S_15 
REMARK    7  A    between atoms: C_19  and  C_20 
REMARK    8  A    between atoms: C_19  and  C_21 
REMARK    9  A    between atoms: C_19  and  C_22 
ROOT
ATOM      1  C   LIG d   1       5.173  -1.251  -3.668  0.00  0.00    -0.041 A 
ATOM      2  C   LIG d   1       4.145  -2.008  -4.229  0.00  0.00    -0.057 A 
ATOM      3  C   LIG d   1       4.392  -3.227  -4.779  0.00  0.00    -0.052 A 
ATOM      4  C   LIG d   1       5.703  -3.735  -4.787  0.00  0.00     0.006 A 
ATOM      5  C   LIG d   1       6.749  -2.965  -4.218  0.00  0.00    -0.016 A 
ATOM      6  C   LIG d   1       6.456  -1.708  -3.663  0.00  0.00    -0.050 A 
ATOM      7  C   LIG d   1       8.060  -3.471  -4.226  0.00  0.00    -0.054 A 
ATOM      8  C   LIG d   1       8.307  -4.691  -4.778  0.00  0.00    -0.056 A 
ATOM      9  C   LIG d   1       7.279  -5.447  -5.336  0.00  0.00    -0.018 A 
ATOM     10  C   LIG d   1       5.997  -4.989  -5.346  0.00  0.00     0.088 A 
ATOM     11  H   LIG d   1       3.136  -1.621  -4.223  0.00  0.00     0.062 H 
ATOM     12  H   LIG d   1       3.585  -3.803  -5.208  0.00  0.00     0.062 H 
ATOM     13  H   LIG d   1       7.243  -1.108  -3.229  0.00  0.00     0.063 H 
ATOM     14  H   LIG d   1       8.866  -2.895  -3.797  0.00  0.00     0.062 H 
ATOM     15  H   LIG d   1       9.315  -5.078  -4.782  0.00  0.00     0.062 H 
ENDROOT
BRANCH   1  16
ATOM     16  C   LIG d   1       4.861   0.094  -3.067  0.00  0.00    -0.013 C 
BRANCH  16  17
ATOM     17  C   LIG d   1       4.530  -0.075  -1.583  0.00  0.00    -0.056 C 
ATOM     18  H   LIG d   1       3.530  -0.496  -1.479  0.00  0.00     0.024 H 
ATOM     19  H   LIG d   1       5.257  -0.744  -1.123  0.00  0.00     0.024 H 
ATOM     20  H   LIG d   1       4.567   0.897  -1.090  0.00  0.00     0.024 H 
ENDBRANCH  16  17
BRANCH  16  21
ATOM     21  C   LIG d   1       3.662   0.710  -3.791  0.00  0.00    -0.056 C 
ATOM     22  H   LIG d   1       3.940   0.947  -4.818  0.00  0.00     0.024 H 
ATOM     23  H   LIG d   1       2.835   0.001  -3.793  0.00  0.00     0.024 H 
ATOM     24  H   LIG d   1       3.357   1.623  -3.278  0.00  0.00     0.024 H 
ENDBRANCH  16  21
BRANCH  16  25
ATOM     25  C   LIG d   1       6.074   1.014  -3.218  0.00  0.00    -0.056 C 
ATOM     26  H   LIG d   1       6.983   0.414  -3.260  0.00  0.00     0.024 H 
ATOM     27  H   LIG d   1       5.979   1.593  -4.136  0.00  0.00     0.024 H 
ATOM     28  H   LIG d   1       6.125   1.691  -2.365  0.00  0.00     0.024 H 
ENDBRANCH  16  25
ENDBRANCH   1  16
BRANCH  10  29
ATOM     29  S   LIG d   1       4.713  -5.964  -6.059  0.00  0.00    -0.050 S 
ATOM     30  O   LIG d   1       3.484  -5.195  -5.941  0.00  0.00    -0.180 OA
ATOM     31  O   LIG d   1       5.080  -6.194  -7.447  0.00  0.00    -0.180 OA
ATOM     32  O   LIG d   1       4.654  -7.204  -5.300  0.00  0.00    -0.720 OA
ENDBRANCH  10  29
BRANCH   9  33
ATOM     33  C   LIG d   1       7.591  -6.793  -5.939  0.00  0.00    -0.011 C 
BRANCH  33  34
ATOM     34  C   LIG d   1       6.800  -7.876  -5.204  0.00  0.00    -0.056 C 
ATOM     35  H   LIG d   1       6.309  -7.440  -4.333  0.00  0.00     0.024 H 
ATOM     36  H   LIG d   1       6.048  -8.294  -5.874  0.00  0.00     0.024 H 
ATOM     37  H   LIG d   1       7.478  -8.666  -4.882  0.00  0.00     0.024 H 
ENDBRANCH  33  34
BRANCH  33  38
ATOM     38  C   LIG d   1       7.202  -6.792  -7.418  0.00  0.00    -0.056 C 
ATOM     39  H   LIG d   1       6.986  -7.811  -7.739  0.00  0.00     0.024 H 
ATOM     40  H   LIG d   1       6.318  -6.170  -7.562  0.00  0.00     0.024 H 
ATOM     41  H   LIG d   1       8.027  -6.393  -8.010  0.00  0.00     0.024 H 
ENDBRANCH  33  38
BRANCH  33  42
ATOM     42  C   LIG d   1       9.089  -7.076  -5.806  0.00  0.00    -0.056 C 
ATOM     43  H   LIG d   1       9.473  -6.590  -4.909  0.00  0.00     0.024 H 
ATOM     44  H   LIG d   1       9.250  -8.151  -5.733  0.00  0.00     0.024 H 
ATOM     45  H   LIG d   1       9.611  -6.689  -6.681  0.00  0.00     0.024 H 
ENDBRANCH  33  42
ENDBRANCH   9  33
TORSDOF 9
ENDMDL
MODEL 4
REMARK VINA RESULT:      -5.3      2.006      6.268
REMARK  9 active torsions:
REMARK  status: ('A' for Active; 'I' for Inactive)
REMARK    1  A    between atoms: C_1  and  C_2 
REMARK    2  A    between atoms: C_2  and  C_3 
REMARK    3  A    between atoms: C_2  and  C_4 
REMARK    4  A    between atoms: C_2  and  C_5 
REMARK    5  A    between atoms: C_13  and  C_19 
REMARK    6  A    between atoms: C_14  and  S_15 
REMARK    7  A    between atoms: C_19  and  C_20 
REMARK    8  A    between atoms: C_19  and  C_21 
REMARK    9  A    between atoms: C_19  and  C_22 
ROOT
ATOM      1  C   LIG d   1       4.336  -0.568  -4.261  0.00  0.00    -0.041 A 
ATOM      2  C   LIG d   1       4.920  -1.778  -4.634  0.00  0.00    -0.057 A 
ATOM      3  C   LIG d   1       4.755  -2.278  -5.889  0.00  0.00    -0.052 A 
ATOM      4  C   LIG d   1       3.984  -1.568  -6.826  0.00  0.00     0.006 A 
ATOM      5  C   LIG d   1       3.389  -0.339  -6.446  0.00  0.00    -0.016 A 
ATOM      6  C   LIG d   1       3.578   0.144  -5.139  0.00  0.00    -0.050 A 
ATOM      7  C   LIG d   1       2.617   0.371  -7.381  0.00  0.00    -0.054 A 
ATOM      8  C   LIG d   1       2.451  -0.130  -8.636  0.00  0.00    -0.056 A 
ATOM      9  C   LIG d   1       3.036  -1.338  -9.009  0.00  0.00    -0.018 A 
ATOM     10  C   LIG d   1       3.790  -2.053  -8.130  0.00  0.00     0.088 A 
ATOM     11  H   LIG d   1       5.514  -2.326  -3.918  0.00  0.00     0.062 H 
ATOM     12  H   LIG d   1       5.215  -3.216  -6.165  0.00  0.00     0.062 H 
ATOM     13  H   LIG d   1       3.128   1.077  -4.834  0.00  0.00     0.063 H 
ATOM     14  H   LIG d   1       2.158   1.309  -7.105  0.00  0.00     0.062 H 
ATOM     15  H   LIG d   1       1.858   0.419  -9.352  0.00  0.00     0.062 H 
ENDROOT
BRANCH   1  16
ATOM     16  C   LIG d   1       4.541  -0.046  -2.863  0.00  0.00    -0.013 C 
BRANCH  16  17
ATOM     17  C   LIG d   1       4.427  -1.201  -1.866  0.00  0.00    -0.056 C 
ATOM     18  H   LIG d   1       3.640  -1.882  -2.187  0.00  0.00     0.024 H 
ATOM     19  H   LIG d   1       5.376  -1.736  -1.820  0.00  0.00     0.024 H 
ATOM     20  H   LIG d   1       4.185  -0.806  -0.879  0.00  0.00     0.024 H 
ENDBRANCH  16  17
BRANCH  16  21
ATOM     21  C   LIG d   1       3.475   1.006  -2.550  0.00  0.00    -0.056 C 
ATOM     22  H   LIG d   1       3.170   1.498  -3.473  0.00  0.00     0.024 H 
ATOM     23  H   LIG d   1       2.612   0.523  -2.093  0.00  0.00     0.024 H 
ATOM     24  H   LIG d   1       3.886   1.746  -1.863  0.00  0.00     0.024 H 
ENDBRANCH  16  21
BRANCH  16  25
ATOM     25  C   LIG d   1       5.929   0.587  -2.754  0.00  0.00    -0.056 C 
ATOM     26  H   LIG d   1       5.934   1.546  -3.271  0.00  0.00     0.024 H 
ATOM     27  H   LIG d   1       6.177   0.741  -1.703  0.00  0.00     0.024 H 
ATOM     28  H   LIG d   1       6.668  -0.073  -3.208  0.00  0.00     0.024 H 
ENDBRANCH  16  25
ENDBRANCH   1  16
BRANCH  10  29
ATOM     29  S   LIG d   1       4.520  -3.579  -8.625  0.00  0.00    -0.050 S 
ATOM     30  O   LIG d   1       3.428  -4.481  -8.955  0.00  0.00    -0.180 OA
ATOM     31  O   LIG d   1       5.356  -3.291  -9.780  0.00  0.00    -0.180 OA
ATOM     32  O   LIG d   1       5.300  -4.060  -7.495  0.00  0.00    -0.720 OA
ENDBRANCH  10  29
BRANCH   9  33
ATOM     33  C   LIG d   1       2.830  -1.861 -10.407  0.00  0.00    -0.011 C 
BRANCH  33  34
ATOM     34  C   LIG d   1       1.978  -0.870 -11.202  0.00  0.00    -0.056 C 
ATOM     35  H   LIG d   1       2.585  -0.417 -11.986  0.00  0.00     0.024 H 
ATOM     36  H   LIG d   1       1.135  -1.395 -11.653  0.00  0.00     0.024 H 
ATOM     37  H   LIG d   1       1.607  -0.093 -10.535  0.00  0.00     0.024 H 
ENDBRANCH  33  34
BRANCH  33  38
ATOM     38  C   LIG d   1       4.186  -2.033 -11.092  0.00  0.00    -0.056 C 
ATOM     39  H   LIG d   1       4.834  -2.649 -10.468  0.00  0.00     0.024 H 
ATOM     40  H   LIG d   1       4.047  -2.516 -12.059  0.00  0.00     0.024 H 
ATOM     41  H   LIG d   1       4.647  -1.055 -11.237  0.00  0.00     0.024 H 
ENDBRANCH  33  38
BRANCH  33  42
ATOM     42  C   LIG d   1       2.116  -3.213 -10.345  0.00  0.00    -0.056 C 
ATOM     43  H   LIG d   1       1.498  -3.258  -9.447  0.00  0.00     0.024 H 
ATOM     44  H   LIG d   1       1.484  -3.331 -11.225  0.00  0.00     0.024 H 
ATOM     45  H   LIG d   1       2.855  -4.013 -10.318  0.00  0.00     0.024 H 
ENDBRANCH  33  42
ENDBRANCH   9  33
TORSDOF 9
ENDMDL
MODEL 5
REMARK VINA RESULT:      -5.2      3.005      6.746
REMARK  9 active torsions:
REMARK  status: ('A' for Active; 'I' for Inactive)
REMARK    1  A    between atoms: C_1  and  C_2 
REMARK    2  A    between atoms: C_2  and  C_3 
REMARK    3  A    between atoms: C_2  and  C_4 
REMARK    4  A    between atoms: C_2  and  C_5 
REMARK    5  A    between atoms: C_13  and  C_19 
REMARK    6  A    between atoms: C_14  and  S_15 
REMARK    7  A    between atoms: C_19  and  C_20 
REMARK    8  A    between atoms: C_19  and  C_21 
REMARK    9  A    between atoms: C_19  and  C_22 
ROOT
ATOM      1  C   LIG d   1       4.033  -0.770  -4.602  0.00  0.00    -0.041 A 
ATOM      2  C   LIG d   1       3.227   0.162  -5.253  0.00  0.00    -0.057 A 
ATOM      3  C   LIG d   1       3.090   0.145  -6.607  0.00  0.00    -0.052 A 
ATOM      4  C   LIG d   1       3.771  -0.824  -7.363  0.00  0.00     0.006 A 
ATOM      5  C   LIG d   1       4.592  -1.771  -6.701  0.00  0.00    -0.016 A 
ATOM      6  C   LIG d   1       4.713  -1.719  -5.302  0.00  0.00    -0.050 A 
ATOM      7  C   LIG d   1       5.274  -2.739  -7.457  0.00  0.00    -0.054 A 
ATOM      8  C   LIG d   1       5.138  -2.755  -8.812  0.00  0.00    -0.056 A 
ATOM      9  C   LIG d   1       4.331  -1.825  -9.462  0.00  0.00    -0.018 A 
ATOM     10  C   LIG d   1       3.655  -0.872  -8.763  0.00  0.00     0.088 A 
ATOM     11  H   LIG d   1       2.701   0.907  -4.674  0.00  0.00     0.062 H 
ATOM     12  H   LIG d   1       2.460   0.873  -7.098  0.00  0.00     0.062 H 
ATOM     13  H   LIG d   1       5.338  -2.432  -4.784  0.00  0.00     0.063 H 
ATOM     14  H   LIG d   1       5.903  -3.467  -6.966  0.00  0.00     0.062 H 
ATOM     15  H   LIG d   1       5.663  -3.501  -9.390  0.00  0.00     0.062 H 
ENDROOT
BRANCH   1  16
ATOM     16  C   LIG d   1       4.160  -0.721  -3.102  0.00  0.00    -0.013 C 
BRANCH  16  17
ATOM     17  C   LIG d   1       5.615  -0.433  -2.722  0.00  0.00    -0.056 C 
ATOM     18  H   LIG d   1       5.705  -0.389  -1.637  0.00  0.00     0.024 H 
ATOM     19  H   LIG d   1       6.254  -1.226  -3.109  0.00  0.00     0.024 H 
ATOM     20  H   LIG d   1       5.920   0.522  -3.150  0.00  0.00     0.024 H 
ENDBRANCH  16  17
BRANCH  16  21
ATOM     21  C   LIG d   1       3.735  -2.066  -2.510  0.00  0.00    -0.056 C 
ATOM     22  H   LIG d   1       4.620  -2.668  -2.305  0.00  0.00     0.024 H 
ATOM     23  H   LIG d   1       3.187  -1.899  -1.583  0.00  0.00     0.024 H 
ATOM     24  H   LIG d   1       3.097  -2.591  -3.222  0.00  0.00     0.024 H 
ENDBRANCH  16  21
BRANCH  16  25
ATOM     25  C   LIG d   1       3.260   0.385  -2.549  0.00  0.00    -0.056 C 
ATOM     26  H   LIG d   1       3.865   1.260  -2.307  0.00  0.00     0.024 H 
ATOM     27  H   LIG d   1       2.516   0.656  -3.297  0.00  0.00     0.024 H 
ATOM     28  H   LIG d   1       2.758   0.031  -1.649  0.00  0.00     0.024 H 
ENDBRANCH  16  25
ENDBRANCH   1  16
BRANCH  10  29
ATOM     29  S   LIG d   1       2.640   0.295  -9.608  0.00  0.00    -0.050 S 
ATOM     30  O   LIG d   1       2.412   1.400  -8.690  0.00  0.00    -0.180 OA
ATOM     31  O   LIG d   1       3.375   0.713 -10.791  0.00  0.00    -0.180 OA
ATOM     32  O   LIG d   1       1.403  -0.391  -9.950  0.00  0.00    -0.720 OA
ENDBRANCH  10  29
BRANCH   9  33
ATOM     33  C   LIG d   1       4.204  -1.873 -10.963  0.00  0.00    -0.011 C 
BRANCH  33  34
ATOM     34  C   LIG d   1       4.695  -0.552 -11.559  0.00  0.00    -0.056 C 
ATOM     35  H   LIG d   1       3.907   0.197 -11.480  0.00  0.00     0.024 H 
ATOM     36  H   LIG d   1       5.576  -0.212 -11.012  0.00  0.00     0.024 H 
ATOM     37  H   LIG d   1       4.954  -0.701 -12.607  0.00  0.00     0.024 H 
ENDBRANCH  33  34
BRANCH  33  38
ATOM     38  C   LIG d   1       5.049  -3.025 -11.509  0.00  0.00    -0.056 C 
ATOM     39  H   LIG d   1       5.716  -2.651 -12.286  0.00  0.00     0.024 H 
ATOM     40  H   LIG d   1       5.639  -3.459 -10.702  0.00  0.00     0.024 H 
ATOM     41  H   LIG d   1       4.394  -3.788 -11.931  0.00  0.00     0.024 H 
ENDBRANCH  33  38
BRANCH  33  42
ATOM     42  C   LIG d   1       2.739  -2.091 -11.345  0.00  0.00    -0.056 C 
ATOM     43  H   LIG d   1       2.686  -2.663 -12.271  0.00  0.00     0.024 H 
ATOM     44  H   LIG d   1       2.234  -2.640 -10.551  0.00  0.00     0.024 H 
ATOM     45  H   LIG d   1       2.253  -1.125 -11.485  0.00  0.00     0.024 H 
ENDBRANCH  33  42
ENDBRANCH   9  33
TORSDOF 9
ENDMDL
MODEL 6
REMARK VINA RESULT:      -5.0      3.696      5.782
REMARK  9 active torsions:
REMARK  status: ('A' for Active; 'I' for Inactive)
REMARK    1  A    between atoms: C_1  and  C_2 
REMARK    2  A    between atoms: C_2  and  C_3 
REMARK    3  A    between atoms: C_2  and  C_4 
REMARK    4  A    between atoms: C_2  and  C_5 
REMARK    5  A    between atoms: C_13  and  C_19 
REMARK    6  A    between atoms: C_14  and  S_15 
REMARK    7  A    between atoms: C_19  and  C_20 
REMARK    8  A    between atoms: C_19  and  C_21 
REMARK    9  A    between atoms: C_19  and  C_22 
ROOT
ATOM      1  C   LIG d   1       9.958  -0.506  -5.574  0.00  0.00    -0.041 A 
ATOM      2  C   LIG d   1       9.275  -1.690  -5.849  0.00  0.00    -0.057 A 
ATOM      3  C   LIG d   1       7.997  -1.877  -5.422  0.00  0.00    -0.052 A 
ATOM      4  C   LIG d   1       7.352  -0.864  -4.693  0.00  0.00     0.006 A 
ATOM      5  C   LIG d   1       8.046   0.340  -4.412  0.00  0.00    -0.016 A 
ATOM      6  C   LIG d   1       9.367   0.495  -4.865  0.00  0.00    -0.050 A 
ATOM      7  C   LIG d   1       7.402   1.353  -3.682  0.00  0.00    -0.054 A 
ATOM      8  C   LIG d   1       6.123   1.165  -3.254  0.00  0.00    -0.056 A 
ATOM      9  C   LIG d   1       5.441  -0.017  -3.530  0.00  0.00    -0.018 A 
ATOM     10  C   LIG d   1       6.033  -1.020  -4.235  0.00  0.00     0.088 A 
ATOM     11  H   LIG d   1       9.768  -2.470  -6.411  0.00  0.00     0.062 H 
ATOM     12  H   LIG d   1       7.479  -2.799  -5.644  0.00  0.00     0.062 H 
ATOM     13  H   LIG d   1       9.911   1.405  -4.656  0.00  0.00     0.063 H 
ATOM     14  H   LIG d   1       7.920   2.275  -3.461  0.00  0.00     0.062 H 
ATOM     15  H   LIG d   1       5.631   1.946  -2.693  0.00  0.00     0.062 H 
ENDROOT
BRANCH   1  16
ATOM     16  C   LIG d   1      11.373  -0.335  -6.063  0.00  0.00    -0.013 C 
BRANCH  16  17
ATOM     17  C   LIG d   1      12.332  -0.371  -4.872  0.00  0.00    -0.056 C 
ATOM     18  H   LIG d   1      12.049  -1.181  -4.201  0.00  0.00     0.024 H 
ATOM     19  H   LIG d   1      13.349  -0.533  -5.230  0.00  0.00     0.024 H 
ATOM     20  H   LIG d   1      12.282   0.577  -4.336  0.00  0.00     0.024 H 
ENDBRANCH  16  17
BRANCH  16  21
ATOM     21  C   LIG d   1      11.504   1.008  -6.784  0.00  0.00    -0.056 C 
ATOM     22  H   LIG d   1      10.865   1.011  -7.667  0.00  0.00     0.024 H 
ATOM     23  H   LIG d   1      11.201   1.812  -6.113  0.00  0.00     0.024 H 
ATOM     24  H   LIG d   1      12.541   1.158  -7.086  0.00  0.00     0.024 H 
ENDBRANCH  16  21
BRANCH  16  25
ATOM     25  C   LIG d   1      11.719  -1.468  -7.031  0.00  0.00    -0.056 C 
ATOM     26  H   LIG d   1      11.457  -1.172  -8.047  0.00  0.00     0.024 H 
ATOM     27  H   LIG d   1      12.787  -1.677  -6.979  0.00  0.00     0.024 H 
ATOM     28  H   LIG d   1      11.160  -2.363  -6.759  0.00  0.00     0.024 H 
ENDBRANCH  16  25
ENDBRANCH   1  16
BRANCH  10  29
ATOM     29  S   LIG d   1       5.149  -2.508  -4.571  0.00  0.00    -0.050 S 
ATOM     30  O   LIG d   1       4.341  -2.794  -3.396  0.00  0.00    -0.180 OA
ATOM     31  O   LIG d   1       4.331  -2.255  -5.747  0.00  0.00    -0.180 OA
ATOM     32  O   LIG d   1       6.143  -3.543  -4.813  0.00  0.00    -0.720 OA
ENDBRANCH  10  29
BRANCH   9  33
ATOM     33  C   LIG d   1       4.027  -0.189  -3.040  0.00  0.00    -0.011 C 
BRANCH  33  34
ATOM     34  C   LIG d   1       3.088  -0.348  -4.237  0.00  0.00    -0.056 C 
ATOM     35  H   LIG d   1       2.870  -1.405  -4.391  0.00  0.00     0.024 H 
ATOM     36  H   LIG d   1       2.159   0.190  -4.044  0.00  0.00     0.024 H 
ATOM     37  H   LIG d   1       3.564   0.059  -5.128  0.00  0.00     0.024 H 
ENDBRANCH  33  34
BRANCH  33  38
ATOM     38  C   LIG d   1       3.941  -1.435  -2.156  0.00  0.00    -0.056 C 
ATOM     39  H   LIG d   1       3.309  -2.181  -2.637  0.00  0.00     0.024 H 
ATOM     40  H   LIG d   1       4.939  -1.846  -2.008  0.00  0.00     0.024 H 
ATOM     41  H   LIG d   1       3.512  -1.166  -1.189  0.00  0.00     0.024 H 
ENDBRANCH  33  38
BRANCH  33  42
ATOM     42  C   LIG d   1       3.615   1.040  -2.228  0.00  0.00    -0.056 C 
ATOM     43  H   LIG d   1       2.594   1.322  -2.486  0.00  0.00     0.024 H 
ATOM     44  H   LIG d   1       3.669   0.809  -1.164  0.00  0.00     0.024 H 
ATOM     45  H   LIG d   1       4.288   1.867  -2.455  0.00  0.00     0.024 H 
ENDBRANCH  33  42
ENDBRANCH   9  33
TORSDOF 9
ENDMDL
MODEL 7
REMARK VINA RESULT:      -4.9      4.271      6.688
REMARK  9 active torsions:
REMARK  status: ('A' for Active; 'I' for Inactive)
REMARK    1  A    between atoms: C_1  and  C_2 
REMARK    2  A    between atoms: C_2  and  C_3 
REMARK    3  A    between atoms: C_2  and  C_4 
REMARK    4  A    between atoms: C_2  and  C_5 
REMARK    5  A    between atoms: C_13  and  C_19 
REMARK    6  A    between atoms: C_14  and  S_15 
REMARK    7  A    between atoms: C_19  and  C_20 
REMARK    8  A    between atoms: C_19  and  C_21 
REMARK    9  A    between atoms: C_19  and  C_22 
ROOT
ATOM      1  C   LIG d   1       5.755  -0.117  -3.298  0.00  0.00    -0.041 A 
ATOM      2  C   LIG d   1       6.367  -1.271  -3.786  0.00  0.00    -0.057 A 
ATOM      3  C   LIG d   1       7.576  -1.214  -4.408  0.00  0.00    -0.052 A 
ATOM      4  C   LIG d   1       8.220   0.026  -4.564  0.00  0.00     0.006 A 
ATOM      5  C   LIG d   1       7.597   1.199  -4.070  0.00  0.00    -0.016 A 
ATOM      6  C   LIG d   1       6.346   1.101  -3.437  0.00  0.00    -0.050 A 
ATOM      7  C   LIG d   1       8.240   2.439  -4.226  0.00  0.00    -0.054 A 
ATOM      8  C   LIG d   1       9.449   2.496  -4.850  0.00  0.00    -0.056 A 
ATOM      9  C   LIG d   1      10.061   1.343  -5.336  0.00  0.00    -0.018 A 
ATOM     10  C   LIG d   1       9.468   0.125  -5.202  0.00  0.00     0.088 A 
ATOM     11  H   LIG d   1       5.875  -2.225  -3.666  0.00  0.00     0.062 H 
ATOM     12  H   LIG d   1       8.039  -2.116  -4.779  0.00  0.00     0.062 H 
ATOM     13  H   LIG d   1       5.858   1.987  -3.058  0.00  0.00     0.063 H 
ATOM     14  H   LIG d   1       7.777   3.341  -3.855  0.00  0.00     0.062 H 
ATOM     15  H   LIG d   1       9.941   3.450  -4.969  0.00  0.00     0.062 H 
ENDROOT
BRANCH   1  16
ATOM     16  C   LIG d   1       4.417  -0.220  -2.615  0.00  0.00    -0.013 C 
BRANCH  16  17
ATOM     17  C   LIG d   1       3.301  -0.061  -3.650  0.00  0.00    -0.056 C 
ATOM     18  H   LIG d   1       3.372  -0.861  -4.386  0.00  0.00     0.024 H 
ATOM     19  H   LIG d   1       2.334  -0.110  -3.151  0.00  0.00     0.024 H 
ATOM     20  H   LIG d   1       3.405   0.902  -4.151  0.00  0.00     0.024 H 
ENDBRANCH  16  17
BRANCH  16  21
ATOM     21  C   LIG d   1       4.296   0.884  -1.562  0.00  0.00    -0.056 C 
ATOM     22  H   LIG d   1       3.547   1.609  -1.880  0.00  0.00     0.024 H 
ATOM     23  H   LIG d   1       3.998   0.448  -0.609  0.00  0.00     0.024 H 
ATOM     24  H   LIG d   1       5.258   1.385  -1.448  0.00  0.00     0.024 H 
ENDBRANCH  16  21
BRANCH  16  25
ATOM     25  C   LIG d   1       4.293  -1.585  -1.937  0.00  0.00    -0.056 C 
ATOM     26  H   LIG d   1       3.374  -2.072  -2.264  0.00  0.00     0.024 H 
ATOM     27  H   LIG d   1       5.147  -2.205  -2.209  0.00  0.00     0.024 H 
ATOM     28  H   LIG d   1       4.269  -1.454  -0.855  0.00  0.00     0.024 H 
ENDBRANCH  16  25
ENDBRANCH   1  16
BRANCH  10  29
ATOM     29  S   LIG d   1      10.261  -1.320  -5.825  0.00  0.00    -0.050 S 
ATOM     30  O   LIG d   1      11.521  -1.453  -5.109  0.00  0.00    -0.180 OA
ATOM     31  O   LIG d   1       9.367  -2.438  -5.564  0.00  0.00    -0.180 OA
ATOM     32  O   LIG d   1      10.465  -1.109  -7.250  0.00  0.00    -0.720 OA
ENDBRANCH  10  29
BRANCH   9  33
ATOM     33  C   LIG d   1      11.399   1.445  -6.021  0.00  0.00    -0.011 C 
BRANCH  33  34
ATOM     34  C   LIG d   1      11.283   0.911  -7.449  0.00  0.00    -0.056 C 
ATOM     35  H   LIG d   1      10.239   0.686  -7.669  0.00  0.00     0.024 H 
ATOM     36  H   LIG d   1      11.648   1.663  -8.150  0.00  0.00     0.024 H 
ATOM     37  H   LIG d   1      11.879   0.004  -7.548  0.00  0.00     0.024 H 
ENDBRANCH  33  34
BRANCH  33  38
ATOM     38  C   LIG d   1      11.843   2.909  -6.058  0.00  0.00    -0.056 C 
ATOM     39  H   LIG d   1      12.420   3.091  -6.964  0.00  0.00     0.024 H 
ATOM     40  H   LIG d   1      10.965   3.556  -6.050  0.00  0.00     0.024 H 
ATOM     41  H   LIG d   1      12.460   3.123  -5.184  0.00  0.00     0.024 H 
ENDBRANCH  33  38
BRANCH  33  42
ATOM     42  C   LIG d   1      12.431   0.620  -5.250  0.00  0.00    -0.056 C 
ATOM     43  H   LIG d   1      13.402   0.703  -5.739  0.00  0.00     0.024 H 
ATOM     44  H   LIG d   1      12.507   0.993  -4.229  0.00  0.00     0.024 H 
ATOM     45  H   LIG d   1      12.121  -0.425  -5.233  0.00  0.00     0.024 H 
ENDBRANCH  33  42
ENDBRANCH   9  33
TORSDOF 9
ENDMDL
MODEL 8
REMARK VINA RESULT:      -4.8      8.612     11.120
REMARK  9 active torsions:
REMARK  status: ('A' for Active; 'I' for Inactive)
REMARK    1  A    between atoms: C_1  and  C_2 
REMARK    2  A    between atoms: C_2  and  C_3 
REMARK    3  A    between atoms: C_2  and  C_4 
REMARK    4  A    between atoms: C_2  and  C_5 
REMARK    5  A    between atoms: C_13  and  C_19 
REMARK    6  A    between atoms: C_14  and  S_15 
REMARK    7  A    between atoms: C_19  and  C_20 
REMARK    8  A    between atoms: C_19  and  C_21 
REMARK    9  A    between atoms: C_19  and  C_22 
ROOT
ATOM      1  C   LIG d   1       9.758   4.380  -3.825  0.00  0.00    -0.041 A 
ATOM      2  C   LIG d   1       9.597   5.563  -4.546  0.00  0.00    -0.057 A 
ATOM      3  C   LIG d   1       9.814   6.774  -3.963  0.00  0.00    -0.052 A 
ATOM      4  C   LIG d   1      10.205   6.837  -2.614  0.00  0.00     0.006 A 
ATOM      5  C   LIG d   1      10.367   5.634  -1.881  0.00  0.00    -0.016 A 
ATOM      6  C   LIG d   1      10.129   4.403  -2.516  0.00  0.00    -0.050 A 
ATOM      7  C   LIG d   1      10.757   5.697  -0.533  0.00  0.00    -0.054 A 
ATOM      8  C   LIG d   1      10.973   6.908   0.050  0.00  0.00    -0.056 A 
ATOM      9  C   LIG d   1      10.814   8.089  -0.670  0.00  0.00    -0.018 A 
ATOM     10  C   LIG d   1      10.438   8.068  -1.978  0.00  0.00     0.088 A 
ATOM     11  H   LIG d   1       9.298   5.518  -5.582  0.00  0.00     0.062 H 
ATOM     12  H   LIG d   1       9.688   7.682  -4.534  0.00  0.00     0.062 H 
ATOM     13  H   LIG d   1      10.245   3.479  -1.969  0.00  0.00     0.063 H 
ATOM     14  H   LIG d   1      10.884   4.788   0.038  0.00  0.00     0.062 H 
ATOM     15  H   LIG d   1      11.273   6.952   1.087  0.00  0.00     0.062 H 
ENDROOT
BRANCH   1  16
ATOM     16  C   LIG d   1       9.509   3.059  -4.504  0.00  0.00    -0.013 C 
BRANCH  16  17
ATOM     17  C   LIG d   1       8.210   2.449  -3.971  0.00  0.00    -0.056 C 
ATOM     18  H   LIG d   1       8.073   1.456  -4.398  0.00  0.00     0.024 H 
ATOM     19  H   LIG d   1       8.263   2.374  -2.885  0.00  0.00     0.024 H 
ATOM     20  H   LIG d   1       7.369   3.083  -4.251  0.00  0.00     0.024 H 
ENDBRANCH  16  17
BRANCH  16  21
ATOM     21  C   LIG d   1      10.674   2.110  -4.215  0.00  0.00    -0.056 C 
ATOM     22  H   LIG d   1      11.582   2.690  -4.048  0.00  0.00     0.024 H 
ATOM     23  H   LIG d   1      10.451   1.520  -3.327  0.00  0.00     0.024 H 
ATOM     24  H   LIG d   1      10.821   1.446  -5.067  0.00  0.00     0.024 H 
ENDBRANCH  16  21
BRANCH  16  25
ATOM     25  C   LIG d   1       9.389   3.275  -6.013  0.00  0.00    -0.056 C 
ATOM     26  H   LIG d   1       8.361   3.535  -6.264  0.00  0.00     0.024 H 
ATOM     27  H   LIG d   1      10.052   4.085  -6.318  0.00  0.00     0.024 H 
ATOM     28  H   LIG d   1       9.670   2.360  -6.535  0.00  0.00     0.024 H 
ENDBRANCH  16  25
ENDBRANCH   1  16
BRANCH  10  29
ATOM     29  S   LIG d   1      10.243   9.575  -2.869  0.00  0.00    -0.050 S 
ATOM     30  O   LIG d   1       9.224  10.347  -2.174  0.00  0.00    -0.180 OA
ATOM     31  O   LIG d   1      11.535  10.243  -2.856  0.00  0.00    -0.180 OA
ATOM     32  O   LIG d   1       9.829   9.218  -4.217  0.00  0.00    -0.720 OA
ENDBRANCH  10  29
BRANCH   9  33
ATOM     33  C   LIG d   1      11.062   9.411   0.009  0.00  0.00    -0.011 C 
BRANCH  33  34
ATOM     34  C   LIG d   1      12.162  10.169  -0.736  0.00  0.00    -0.056 C 
ATOM     35  H   LIG d   1      12.825   9.456  -1.228  0.00  0.00     0.024 H 
ATOM     36  H   LIG d   1      11.711  10.822  -1.484  0.00  0.00     0.024 H 
ATOM     37  H   LIG d   1      12.734  10.768  -0.028  0.00  0.00     0.024 H 
ENDBRANCH  33  34
BRANCH  33  38
ATOM     38  C   LIG d   1       9.775  10.239  -0.001  0.00  0.00    -0.056 C 
ATOM     39  H   LIG d   1       9.989  11.249   0.347  0.00  0.00     0.024 H 
ATOM     40  H   LIG d   1       9.377  10.281  -1.015  0.00  0.00     0.024 H 
ATOM     41  H   LIG d   1       9.040   9.776   0.659  0.00  0.00     0.024 H 
ENDBRANCH  33  38
BRANCH  33  42
ATOM     42  C   LIG d   1      11.499   9.168   1.455  0.00  0.00    -0.056 C 
ATOM     43  H   LIG d   1      11.940  10.079   1.860  0.00  0.00     0.024 H 
ATOM     44  H   LIG d   1      10.634   8.887   2.055  0.00  0.00     0.024 H 
ATOM     45  H   LIG d   1      12.236   8.365   1.481  0.00  0.00     0.024 H 
ENDBRANCH  33  42
ENDBRANCH   9  33
TORSDOF 9
ENDMDL
MODEL 9
REMARK VINA RESULT:      -4.5      9.801     11.470
REMARK  9 active torsions:
REMARK  status: ('A' for Active; 'I' for Inactive)
REMARK    1  A    between atoms: C_1  and  C_2 
REMARK    2  A    between atoms: C_2  and  C_3 
REMARK    3  A    between atoms: C_2  and  C_4 
REMARK    4  A    between atoms: C_2  and  C_5 
REMARK    5  A    between atoms: C_13  and  C_19 
REMARK    6  A    between atoms: C_14  and  S_15 
REMARK    7  A    between atoms: C_19  and  C_20 
REMARK    8  A    between atoms: C_19  and  C_21 
REMARK    9  A    between atoms: C_19  and  C_22 
ROOT
ATOM      1  C   LIG d   1       6.035 -10.038  -3.379  0.00  0.00    -0.041 A 
ATOM      2  C   LIG d   1       6.915  -9.007  -3.706  0.00  0.00    -0.057 A 
ATOM      3  C   LIG d   1       8.075  -8.831  -3.016  0.00  0.00    -0.052 A 
ATOM      4  C   LIG d   1       8.393  -9.699  -1.957  0.00  0.00     0.006 A 
ATOM      5  C   LIG d   1       7.497 -10.746  -1.624  0.00  0.00    -0.016 A 
ATOM      6  C   LIG d   1       6.307 -10.893  -2.356  0.00  0.00    -0.050 A 
ATOM      7  C   LIG d   1       7.814 -11.614  -0.565  0.00  0.00    -0.054 A 
ATOM      8  C   LIG d   1       8.974 -11.437   0.126  0.00  0.00    -0.056 A 
ATOM      9  C   LIG d   1       9.854 -10.408  -0.201  0.00  0.00    -0.018 A 
ATOM     10  C   LIG d   1       9.581  -9.549  -1.221  0.00  0.00     0.088 A 
ATOM     11  H   LIG d   1       6.674  -8.339  -4.520  0.00  0.00     0.062 H 
ATOM     12  H   LIG d   1       8.749  -8.030  -3.281  0.00  0.00     0.062 H 
ATOM     13  H   LIG d   1       5.613 -11.684  -2.112  0.00  0.00     0.063 H 
ATOM     14  H   LIG d   1       7.141 -12.415  -0.301  0.00  0.00     0.062 H 
ATOM     15  H   LIG d   1       9.215 -12.106   0.939  0.00  0.00     0.062 H 
ENDROOT
BRANCH   1  16
ATOM     16  C   LIG d   1       4.760 -10.201  -4.166  0.00  0.00    -0.013 C 
BRANCH  16  17
ATOM     17  C   LIG d   1       4.690  -9.126  -5.252  0.00  0.00    -0.056 C 
ATOM     18  H   LIG d   1       5.674  -8.677  -5.384  0.00  0.00     0.024 H 
ATOM     19  H   LIG d   1       4.368  -9.579  -6.190  0.00  0.00     0.024 H 
ATOM     20  H   LIG d   1       3.977  -8.356  -4.956  0.00  0.00     0.024 H 
ENDBRANCH  16  17
BRANCH  16  21
ATOM     21  C   LIG d   1       3.560 -10.057  -3.228  0.00  0.00    -0.056 C 
ATOM     22  H   LIG d   1       3.906  -9.750  -2.241  0.00  0.00     0.024 H 
ATOM     23  H   LIG d   1       2.877  -9.306  -3.624  0.00  0.00     0.024 H 
ATOM     24  H   LIG d   1       3.044 -11.014  -3.149  0.00  0.00     0.024 H 
ENDBRANCH  16  21
BRANCH  16  25
ATOM     25  C   LIG d   1       4.736 -11.585  -4.816  0.00  0.00    -0.056 C 
ATOM     26  H   LIG d   1       4.269 -11.518  -5.798  0.00  0.00     0.024 H 
ATOM     27  H   LIG d   1       5.755 -11.954  -4.924  0.00  0.00     0.024 H 
ATOM     28  H   LIG d   1       4.166 -12.271  -4.190  0.00  0.00     0.024 H 
ENDBRANCH  16  25
ENDBRANCH   1  16
BRANCH  10  29
ATOM     29  S   LIG d   1      10.709  -8.255  -1.617  0.00  0.00    -0.050 S 
ATOM     30  O   LIG d   1      10.884  -7.463  -0.409  0.00  0.00    -0.180 OA
ATOM     31  O   LIG d   1      11.949  -8.890  -2.035  0.00  0.00    -0.180 OA
ATOM     32  O   LIG d   1      10.105  -7.482  -2.691  0.00  0.00    -0.720 OA
ENDBRANCH  10  29
BRANCH   9  33
ATOM     33  C   LIG d   1      11.128 -10.244   0.586  0.00  0.00    -0.011 C 
BRANCH  33  34
ATOM     34  C   LIG d   1      11.192 -11.309   1.681  0.00  0.00    -0.056 C 
ATOM     35  H   LIG d   1      10.519 -12.130   1.430  0.00  0.00     0.024 H 
ATOM     36  H   LIG d   1      12.212 -11.687   1.762  0.00  0.00     0.024 H 
ATOM     37  H   LIG d   1      10.892 -10.871   2.632  0.00  0.00     0.024 H 
ENDBRANCH  33  34
BRANCH  33  38
ATOM     38  C   LIG d   1      12.329 -10.400  -0.349  0.00  0.00    -0.056 C 
ATOM     39  H   LIG d   1      13.194  -9.897   0.083  0.00  0.00     0.024 H 
ATOM     40  H   LIG d   1      12.553 -11.458  -0.481  0.00  0.00     0.024 H 
ATOM     41  H   LIG d   1      12.096  -9.954  -1.317  0.00  0.00     0.024 H 
ENDBRANCH  33  38
BRANCH  33  42
ATOM     42  C   LIG d   1      11.157  -8.853   1.224  0.00  0.00    -0.056 C 
ATOM     43  H   LIG d   1      11.851  -8.854   2.065  0.00  0.00     0.024 H 
ATOM     44  H   LIG d   1      11.484  -8.121   0.486  0.00  0.00     0.024 H 
ATOM     45  H   LIG d   1      10.159  -8.594   1.577  0.00  0.00     0.024 H 
ENDBRANCH  33  42
ENDBRANCH   9  33
TORSDOF 9
ENDMDL
