MODEL 1
REMARK VINA RESULT:      -7.9      0.000      0.000
REMARK  5 active torsions:
REMARK  status: ('A' for Active; 'I' for Inactive)
REMARK    1  A    between atoms: C_5  and  C_7 
REMARK    2  A    between atoms: C_7  and  N_8 
REMARK    3  A    between atoms: C_13  and  C_30 
REMARK    4  A    between atoms: C_30  and  C_31 
REMARK    5  A    between atoms: C_31  and  C_32 
ROOT
ATOM      1  N   LIG d   1       7.030  -2.239  -5.281  0.00  0.00    -0.237 N 
ATOM      2  C   LIG d   1       7.053  -3.568  -5.127  0.00  0.00     0.232 A 
ATOM      3  O   LIG d   1       7.482  -4.152  -4.155  0.00  0.00    -0.275 OA
ATOM      4  C   LIG d   1       6.461  -4.226  -6.351  0.00  0.00     0.096 A 
ATOM      5  H   LIG d   1       7.155  -4.911  -6.836  0.00  0.00     0.046 H 
ATOM      6  C   LIG d   1       5.126  -4.903  -5.972  0.00  0.00    -0.009 C 
ATOM      7  H   LIG d   1       5.161  -5.259  -4.943  0.00  0.00     0.086 H 
ATOM      8  N   LIG d   1       4.102  -3.834  -6.115  0.00  0.00     0.245 N 
ATOM      9  C   LIG d   1       4.526  -3.086  -7.313  0.00  0.00     0.106 A 
ATOM     10  C   LIG d   1       6.073  -3.022  -7.254  0.00  0.00     0.111 A 
ATOM     11  H   LIG d   1       6.542  -3.063  -8.238  0.00  0.00     0.047 H 
ATOM     12  C   LIG d   1       6.499  -1.824  -6.437  0.00  0.00     0.233 A 
ATOM     13  O   LIG d   1       6.380  -0.665  -6.776  0.00  0.00    -0.275 OA
ATOM     14  C   LIG d   1       3.914  -1.715  -7.353  0.00  0.00     0.034 A 
ATOM     15  C   LIG d   1       3.960  -0.630  -6.507  0.00  0.00    -0.051 A 
ATOM     16  C   LIG d   1       3.271   0.526  -6.825  0.00  0.00    -0.061 A 
ATOM     17  C   LIG d   1       2.535   0.589  -7.994  0.00  0.00    -0.060 A 
ATOM     18  C   LIG d   1       2.486  -0.494  -8.846  0.00  0.00    -0.040 A 
ATOM     19  C   LIG d   1       3.179  -1.662  -8.534  0.00  0.00     0.043 A 
ATOM     20  N   LIG d   1       3.284  -2.872  -9.223  0.00  0.00    -0.280 N 
ATOM     21  C   LIG d   1       4.059  -3.761  -8.573  0.00  0.00     0.274 A 
ATOM     22  O   LIG d   1       4.329  -4.888  -8.934  0.00  0.00    -0.269 OA
ATOM     23  H   LIG d   1       3.188  -4.238  -6.256  0.00  0.00     0.203 HD
ATOM     24  H   LIG d   1       4.536  -0.681  -5.594  0.00  0.00     0.062 H 
ATOM     25  H   LIG d   1       3.307   1.379  -6.161  0.00  0.00     0.062 H 
ATOM     26  H   LIG d   1       1.996   1.492  -8.241  0.00  0.00     0.062 H 
ATOM     27  H   LIG d   1       1.909  -0.437  -9.757  0.00  0.00     0.064 H 
ATOM     28  H   LIG d   1       2.848  -3.050 -10.071  0.00  0.00     0.155 HD
ATOM     29  H   LIG d   1       4.103  -3.233  -5.304  0.00  0.00     0.203 HD
ENDROOT
BRANCH   1  30
ATOM     30  C   LIG d   1       7.540  -1.314  -4.266  0.00  0.00     0.049 C 
ATOM     31  H   LIG d   1       8.050  -0.484  -4.755  0.00  0.00     0.052 H 
ATOM     32  H   LIG d   1       8.242  -1.838  -3.616  0.00  0.00     0.052 H 
BRANCH  30  33
ATOM     33  C   LIG d   1       6.393  -0.786  -3.443  0.00  0.00    -0.011 A 
ATOM     34  C   LIG d   1       6.275   0.573  -3.213  0.00  0.00     0.046 A 
ATOM     35  C   LIG d   1       5.221   1.057  -2.458  0.00  0.00    -0.043 A 
ATOM     36 CL   LIG d   1       7.448   1.670  -3.871  0.00  0.00    -0.083 Cl
ATOM     37  C   LIG d   1       4.287   0.182  -1.934  0.00  0.00    -0.060 A 
ATOM     38  H   LIG d   1       5.128   2.117  -2.277  0.00  0.00     0.063 H 
ATOM     39  C   LIG d   1       4.406  -1.177  -2.166  0.00  0.00    -0.061 A 
ATOM     40  H   LIG d   1       3.465   0.559  -1.345  0.00  0.00     0.062 H 
ATOM     41  C   LIG d   1       5.459  -1.659  -2.920  0.00  0.00    -0.056 A 
ATOM     42  H   LIG d   1       3.678  -1.860  -1.753  0.00  0.00     0.062 H 
ATOM     43  H   LIG d   1       5.550  -2.721  -3.100  0.00  0.00     0.062 H 
ENDBRANCH  30  33
ENDBRANCH   1  30
BRANCH   6  44
ATOM     44  C   LIG d   1       4.827  -6.061  -6.925  0.00  0.00    -0.004 C 
ATOM     45  H   LIG d   1       3.766  -6.305  -6.878  0.00  0.00     0.032 H 
ATOM     46  H   LIG d   1       5.089  -5.770  -7.943  0.00  0.00     0.032 H 
BRANCH  44  47
ATOM     47  C   LIG d   1       5.651  -7.284  -6.517  0.00  0.00    -0.008 C 
ATOM     48  H   LIG d   1       6.233  -7.631  -7.370  0.00  0.00     0.033 H 
ATOM     49  H   LIG d   1       6.323  -7.012  -5.703  0.00  0.00     0.033 H 
BRANCH  47  50
ATOM     50  C   LIG d   1       4.727  -8.382  -6.058  0.00  0.00     0.042 C 
ATOM     51  O   LIG d   1       4.336  -9.221  -6.853  0.00  0.00    -0.550 OA
ATOM     52  O   LIG d   1       4.372  -8.434  -4.893  0.00  0.00    -0.550 OA
ENDBRANCH  47  50
ENDBRANCH  44  47
ENDBRANCH   6  44
TORSDOF 5
ENDMDL
MODEL 2
REMARK VINA RESULT:      -7.7      2.870      6.792
REMARK  5 active torsions:
REMARK  status: ('A' for Active; 'I' for Inactive)
REMARK    1  A    between atoms: C_5  and  C_7 
REMARK    2  A    between atoms: C_7  and  N_8 
REMARK    3  A    between atoms: C_13  and  C_30 
REMARK    4  A    between atoms: C_30  and  C_31 
REMARK    5  A    between atoms: C_31  and  C_32 
ROOT
ATOM      1  N   LIG d   1       3.340  -0.715  -7.171  0.00  0.00    -0.237 N 
ATOM      2  C   LIG d   1       3.401  -0.084  -5.992  0.00  0.00     0.232 A 
ATOM      3  O   LIG d   1       2.611   0.750  -5.604  0.00  0.00    -0.275 OA
ATOM      4  C   LIG d   1       4.605  -0.574  -5.222  0.00  0.00     0.096 A 
ATOM      5  H   LIG d   1       5.293   0.230  -4.964  0.00  0.00     0.046 H 
ATOM      6  C   LIG d   1       4.131  -1.368  -3.986  0.00  0.00    -0.009 C 
ATOM      7  H   LIG d   1       3.188  -0.966  -3.616  0.00  0.00     0.086 H 
ATOM      8  N   LIG d   1       3.944  -2.760  -4.475  0.00  0.00     0.245 N 
ATOM      9  C   LIG d   1       5.063  -2.965  -5.414  0.00  0.00     0.106 A 
ATOM     10  C   LIG d   1       5.237  -1.626  -6.174  0.00  0.00     0.111 A 
ATOM     11  H   LIG d   1       6.276  -1.405  -6.419  0.00  0.00     0.047 H 
ATOM     12  C   LIG d   1       4.320  -1.603  -7.375  0.00  0.00     0.233 A 
ATOM     13  O   LIG d   1       4.452  -2.283  -8.371  0.00  0.00    -0.275 OA
ATOM     14  C   LIG d   1       4.792  -4.106  -6.353  0.00  0.00     0.034 A 
ATOM     15  C   LIG d   1       3.806  -4.360  -7.279  0.00  0.00    -0.051 A 
ATOM     16  C   LIG d   1       3.828  -5.533  -8.011  0.00  0.00    -0.061 A 
ATOM     17  C   LIG d   1       4.843  -6.451  -7.810  0.00  0.00    -0.060 A 
ATOM     18  C   LIG d   1       5.835  -6.201  -6.885  0.00  0.00    -0.040 A 
ATOM     19  C   LIG d   1       5.821  -5.021  -6.145  0.00  0.00     0.043 A 
ATOM     20  N   LIG d   1       6.698  -4.547  -5.167  0.00  0.00    -0.280 N 
ATOM     21  C   LIG d   1       6.324  -3.345  -4.688  0.00  0.00     0.274 A 
ATOM     22  O   LIG d   1       6.893  -2.695  -3.837  0.00  0.00    -0.269 OA
ATOM     23  H   LIG d   1       4.002  -3.414  -3.709  0.00  0.00     0.203 HD
ATOM     24  H   LIG d   1       3.013  -3.642  -7.434  0.00  0.00     0.062 H 
ATOM     25  H   LIG d   1       3.053  -5.733  -8.738  0.00  0.00     0.062 H 
ATOM     26  H   LIG d   1       4.860  -7.367  -8.382  0.00  0.00     0.062 H 
ATOM     27  H   LIG d   1       6.625  -6.922  -6.735  0.00  0.00     0.064 H 
ATOM     28  H   LIG d   1       7.485  -5.029  -4.867  0.00  0.00     0.155 HD
ATOM     29  H   LIG d   1       3.060  -2.850  -4.953  0.00  0.00     0.203 HD
ENDROOT
BRANCH   1  30
ATOM     30  C   LIG d   1       2.286  -0.457  -8.155  0.00  0.00     0.049 C 
ATOM     31  H   LIG d   1       1.691   0.398  -7.834  0.00  0.00     0.052 H 
ATOM     32  H   LIG d   1       1.645  -1.335  -8.239  0.00  0.00     0.052 H 
BRANCH  30  33
ATOM     33  C   LIG d   1       2.910  -0.161  -9.495  0.00  0.00    -0.011 A 
ATOM     34  C   LIG d   1       2.633  -0.971 -10.581  0.00  0.00     0.046 A 
ATOM     35  C   LIG d   1       3.206  -0.698 -11.811  0.00  0.00    -0.043 A 
ATOM     36 CL   LIG d   1       1.566  -2.329 -10.402  0.00  0.00    -0.083 Cl
ATOM     37  C   LIG d   1       4.055   0.384 -11.953  0.00  0.00    -0.060 A 
ATOM     38  H   LIG d   1       2.990  -1.330 -12.660  0.00  0.00     0.063 H 
ATOM     39  C   LIG d   1       4.330   1.194 -10.866  0.00  0.00    -0.061 A 
ATOM     40  H   LIG d   1       4.502   0.597 -12.912  0.00  0.00     0.062 H 
ATOM     41  C   LIG d   1       3.758   0.921  -9.638  0.00  0.00    -0.056 A 
ATOM     42  H   LIG d   1       4.997   2.036 -10.977  0.00  0.00     0.062 H 
ATOM     43  H   LIG d   1       3.975   1.554  -8.790  0.00  0.00     0.062 H 
ENDBRANCH  30  33
ENDBRANCH   1  30
BRANCH   6  44
ATOM     44  C   LIG d   1       5.194  -1.327  -2.887  0.00  0.00    -0.004 C 
ATOM     45  H   LIG d   1       5.455  -2.343  -2.595  0.00  0.00     0.032 H 
ATOM     46  H   LIG d   1       6.082  -0.815  -3.260  0.00  0.00     0.032 H 
BRANCH  44  47
ATOM     47  C   LIG d   1       4.645  -0.573  -1.674  0.00  0.00    -0.008 C 
ATOM     48  H   LIG d   1       3.663  -0.967  -1.415  0.00  0.00     0.033 H 
ATOM     49  H   LIG d   1       5.323  -0.701  -0.830  0.00  0.00     0.033 H 
BRANCH  47  50
ATOM     50  C   LIG d   1       4.527   0.893  -2.005  0.00  0.00     0.042 C 
ATOM     51  O   LIG d   1       3.438   1.440  -1.972  0.00  0.00    -0.550 OA
ATOM     52  O   LIG d   1       5.521   1.533  -2.304  0.00  0.00    -0.550 OA
ENDBRANCH  47  50
ENDBRANCH  44  47
ENDBRANCH   6  44
TORSDOF 5
ENDMDL
MODEL 3
REMARK VINA RESULT:      -7.3      3.940      7.400
REMARK  5 active torsions:
REMARK  status: ('A' for Active; 'I' for Inactive)
REMARK    1  A    between atoms: C_5  and  C_7 
REMARK    2  A    between atoms: C_7  and  N_8 
REMARK    3  A    between atoms: C_13  and  C_30 
REMARK    4  A    between atoms: C_30  and  C_31 
REMARK    5  A    between atoms: C_31  and  C_32 
ROOT
ATOM      1  N   LIG d   1       5.127   0.615  -8.196  0.00  0.00    -0.237 N 
ATOM      2  C   LIG d   1       6.359   1.108  -8.376  0.00  0.00     0.232 A 
ATOM      3  O   LIG d   1       6.641   2.040  -9.097  0.00  0.00    -0.275 OA
ATOM      4  C   LIG d   1       7.341   0.321  -7.539  0.00  0.00     0.096 A 
ATOM      5  H   LIG d   1       8.129  -0.136  -8.136  0.00  0.00     0.046 H 
ATOM      6  C   LIG d   1       7.896   1.226  -6.418  0.00  0.00    -0.009 C 
ATOM      7  H   LIG d   1       7.947   2.261  -6.757  0.00  0.00     0.086 H 
ATOM      8  N   LIG d   1       6.920   1.095  -5.303  0.00  0.00     0.245 N 
ATOM      9  C   LIG d   1       6.537  -0.329  -5.326  0.00  0.00     0.106 A 
ATOM     10  C   LIG d   1       6.444  -0.725  -6.821  0.00  0.00     0.111 A 
ATOM     11  H   LIG d   1       6.757  -1.752  -7.012  0.00  0.00     0.047 H 
ATOM     12  C   LIG d   1       5.060  -0.413  -7.342  0.00  0.00     0.233 A 
ATOM     13  O   LIG d   1       4.046  -1.003  -7.036  0.00  0.00    -0.275 OA
ATOM     14  C   LIG d   1       5.239  -0.562  -4.607  0.00  0.00     0.034 A 
ATOM     15  C   LIG d   1       3.959  -0.087  -4.782  0.00  0.00    -0.051 A 
ATOM     16  C   LIG d   1       2.946  -0.497  -3.934  0.00  0.00    -0.061 A 
ATOM     17  C   LIG d   1       3.222  -1.385  -2.911  0.00  0.00    -0.060 A 
ATOM     18  C   LIG d   1       4.502  -1.866  -2.732  0.00  0.00    -0.040 A 
ATOM     19  C   LIG d   1       5.528  -1.459  -3.582  0.00  0.00     0.043 A 
ATOM     20  N   LIG d   1       6.883  -1.799  -3.606  0.00  0.00    -0.280 N 
ATOM     21  C   LIG d   1       7.545  -1.179  -4.601  0.00  0.00     0.274 A 
ATOM     22  O   LIG d   1       8.725  -1.285  -4.863  0.00  0.00    -0.269 OA
ATOM     23  H   LIG d   1       7.357   1.329  -4.423  0.00  0.00     0.203 HD
ATOM     24  H   LIG d   1       3.745   0.607  -5.582  0.00  0.00     0.062 H 
ATOM     25  H   LIG d   1       1.940  -0.124  -4.071  0.00  0.00     0.062 H 
ATOM     26  H   LIG d   1       2.430  -1.705  -2.248  0.00  0.00     0.062 H 
ATOM     27  H   LIG d   1       4.710  -2.560  -1.931  0.00  0.00     0.064 H 
ATOM     28  H   LIG d   1       7.297  -2.411  -2.978  0.00  0.00     0.155 HD
ATOM     29  H   LIG d   1       6.115   1.681  -5.467  0.00  0.00     0.203 HD
ENDROOT
BRANCH   1  30
ATOM     30  C   LIG d   1       3.949   1.160  -8.875  0.00  0.00     0.049 C 
ATOM     31  H   LIG d   1       4.115   2.213  -9.101  0.00  0.00     0.052 H 
ATOM     32  H   LIG d   1       3.078   1.060  -8.227  0.00  0.00     0.052 H 
BRANCH  30  33
ATOM     33  C   LIG d   1       3.711   0.402 -10.156  0.00  0.00    -0.011 A 
ATOM     34  C   LIG d   1       2.598  -0.409 -10.284  0.00  0.00     0.046 A 
ATOM     35  C   LIG d   1       2.380  -1.104 -11.460  0.00  0.00    -0.043 A 
ATOM     36 CL   LIG d   1       1.473  -0.553  -8.969  0.00  0.00    -0.083 Cl
ATOM     37  C   LIG d   1       3.275  -0.988 -12.507  0.00  0.00    -0.060 A 
ATOM     38  H   LIG d   1       1.511  -1.737 -11.560  0.00  0.00     0.063 H 
ATOM     39  C   LIG d   1       4.388  -0.177 -12.378  0.00  0.00    -0.061 A 
ATOM     40  H   LIG d   1       3.106  -1.531 -13.424  0.00  0.00     0.062 H 
ATOM     41  C   LIG d   1       4.605   0.517 -11.203  0.00  0.00    -0.056 A 
ATOM     42  H   LIG d   1       5.090  -0.091 -13.195  0.00  0.00     0.062 H 
ATOM     43  H   LIG d   1       5.475   1.150 -11.104  0.00  0.00     0.062 H 
ENDBRANCH  30  33
ENDBRANCH   1  30
BRANCH   6  44
ATOM     44  C   LIG d   1       9.279   0.742  -5.978  0.00  0.00    -0.004 C 
ATOM     45  H   LIG d   1       9.173   0.049  -5.145  0.00  0.00     0.032 H 
ATOM     46  H   LIG d   1       9.768   0.238  -6.812  0.00  0.00     0.032 H 
BRANCH  44  47
ATOM     47  C   LIG d   1      10.123   1.941  -5.542  0.00  0.00    -0.008 C 
ATOM     48  H   LIG d   1      11.134   1.838  -5.936  0.00  0.00     0.033 H 
ATOM     49  H   LIG d   1       9.675   2.858  -5.924  0.00  0.00     0.033 H 
BRANCH  47  50
ATOM     50  C   LIG d   1      10.175   1.998  -4.037  0.00  0.00     0.042 C 
ATOM     51  O   LIG d   1      11.249   1.941  -3.461  0.00  0.00    -0.550 OA
ATOM     52  O   LIG d   1       9.144   2.102  -3.394  0.00  0.00    -0.550 OA
ENDBRANCH  47  50
ENDBRANCH  44  47
ENDBRANCH   6  44
TORSDOF 5
ENDMDL
MODEL 4
REMARK VINA RESULT:      -7.2      3.481      5.923
REMARK  5 active torsions:
REMARK  status: ('A' for Active; 'I' for Inactive)
REMARK    1  A    between atoms: C_5  and  C_7 
REMARK    2  A    between atoms: C_7  and  N_8 
REMARK    3  A    between atoms: C_13  and  C_30 
REMARK    4  A    between atoms: C_30  and  C_31 
REMARK    5  A    between atoms: C_31  and  C_32 
ROOT
ATOM      1  N   LIG d   1       7.098  -1.348  -4.875  0.00  0.00    -0.237 N 
ATOM      2  C   LIG d   1       6.365  -1.858  -5.871  0.00  0.00     0.232 A 
ATOM      3  O   LIG d   1       5.365  -2.529  -5.731  0.00  0.00    -0.275 OA
ATOM      4  C   LIG d   1       6.976  -1.466  -7.196  0.00  0.00     0.096 A 
ATOM      5  H   LIG d   1       7.243  -2.329  -7.807  0.00  0.00     0.046 H 
ATOM      6  C   LIG d   1       6.029  -0.492  -7.928  0.00  0.00    -0.009 C 
ATOM      7  H   LIG d   1       4.991  -0.718  -7.684  0.00  0.00     0.086 H 
ATOM      8  N   LIG d   1       6.399   0.855  -7.418  0.00  0.00     0.245 N 
ATOM      9  C   LIG d   1       7.868   0.805  -7.302  0.00  0.00     0.106 A 
ATOM     10  C   LIG d   1       8.210  -0.615  -6.785  0.00  0.00     0.111 A 
ATOM     11  H   LIG d   1       9.145  -1.004  -7.188  0.00  0.00     0.047 H 
ATOM     12  C   LIG d   1       8.155  -0.631  -5.275  0.00  0.00     0.233 A 
ATOM     13  O   LIG d   1       8.947  -0.081  -4.538  0.00  0.00    -0.275 OA
ATOM     14  C   LIG d   1       8.384   1.872  -6.378  0.00  0.00     0.034 A 
ATOM     15  C   LIG d   1       8.164   2.166  -5.052  0.00  0.00    -0.051 A 
ATOM     16  C   LIG d   1       8.803   3.244  -4.466  0.00  0.00    -0.061 A 
ATOM     17  C   LIG d   1       9.662   4.026  -5.217  0.00  0.00    -0.060 A 
ATOM     18  C   LIG d   1       9.887   3.735  -6.546  0.00  0.00    -0.040 A 
ATOM     19  C   LIG d   1       9.249   2.650  -7.143  0.00  0.00     0.043 A 
ATOM     20  N   LIG d   1       9.313   2.159  -8.449  0.00  0.00    -0.280 N 
ATOM     21  C   LIG d   1       8.532   1.076  -8.623  0.00  0.00     0.274 A 
ATOM     22  O   LIG d   1       8.391   0.442  -9.648  0.00  0.00    -0.269 OA
ATOM     23  H   LIG d   1       6.121   1.569  -8.076  0.00  0.00     0.203 HD
ATOM     24  H   LIG d   1       7.492   1.554  -4.466  0.00  0.00     0.062 H 
ATOM     25  H   LIG d   1       8.631   3.476  -3.424  0.00  0.00     0.062 H 
ATOM     26  H   LIG d   1      10.160   4.868  -4.759  0.00  0.00     0.062 H 
ATOM     27  H   LIG d   1      10.560   4.349  -7.125  0.00  0.00     0.064 H 
ATOM     28  H   LIG d   1       9.857   2.553  -9.148  0.00  0.00     0.155 HD
ATOM     29  H   LIG d   1       5.977   1.020  -6.517  0.00  0.00     0.203 HD
ENDROOT
BRANCH   1  30
ATOM     30  C   LIG d   1       6.769  -1.554  -3.462  0.00  0.00     0.049 C 
ATOM     31  H   LIG d   1       7.653  -1.367  -2.852  0.00  0.00     0.052 H 
ATOM     32  H   LIG d   1       6.435  -2.581  -3.313  0.00  0.00     0.052 H 
BRANCH  30  33
ATOM     33  C   LIG d   1       5.670  -0.605  -3.058  0.00  0.00    -0.011 A 
ATOM     34  C   LIG d   1       4.415  -1.094  -2.743  0.00  0.00     0.046 A 
ATOM     35  C   LIG d   1       3.406  -0.223  -2.372  0.00  0.00    -0.043 A 
ATOM     36 CL   LIG d   1       4.106  -2.801  -2.813  0.00  0.00    -0.083 Cl
ATOM     37  C   LIG d   1       3.653   1.136  -2.316  0.00  0.00    -0.060 A 
ATOM     38  H   LIG d   1       2.426  -0.605  -2.126  0.00  0.00     0.063 H 
ATOM     39  C   LIG d   1       4.908   1.624  -2.631  0.00  0.00    -0.061 A 
ATOM     40  H   LIG d   1       2.866   1.816  -2.027  0.00  0.00     0.062 H 
ATOM     41  C   LIG d   1       5.916   0.753  -3.002  0.00  0.00    -0.056 A 
ATOM     42  H   LIG d   1       5.099   2.687  -2.591  0.00  0.00     0.062 H 
ATOM     43  H   LIG d   1       6.895   1.137  -3.247  0.00  0.00     0.062 H 
ENDBRANCH  30  33
ENDBRANCH   1  30
BRANCH   6  44
ATOM     44  C   LIG d   1       6.248  -0.571  -9.440  0.00  0.00    -0.004 C 
ATOM     45  H   LIG d   1       6.899   0.244  -9.755  0.00  0.00     0.032 H 
ATOM     46  H   LIG d   1       6.712  -1.525  -9.690  0.00  0.00     0.032 H 
BRANCH  44  47
ATOM     47  C   LIG d   1       4.901  -0.456 -10.157  0.00  0.00    -0.008 C 
ATOM     48  H   LIG d   1       4.933  -1.027 -11.084  0.00  0.00     0.033 H 
ATOM     49  H   LIG d   1       4.114  -0.849  -9.514  0.00  0.00     0.033 H 
BRANCH  47  50
ATOM     50  C   LIG d   1       4.619   0.991 -10.468  0.00  0.00     0.042 C 
ATOM     51  O   LIG d   1       3.705   1.287 -11.219  0.00  0.00    -0.550 OA
ATOM     52  O   LIG d   1       5.303   1.868  -9.967  0.00  0.00    -0.550 OA
ENDBRANCH  47  50
ENDBRANCH  44  47
ENDBRANCH   6  44
TORSDOF 5
ENDMDL
MODEL 5
REMARK VINA RESULT:      -7.1      2.984      5.942
REMARK  5 active torsions:
REMARK  status: ('A' for Active; 'I' for Inactive)
REMARK    1  A    between atoms: C_5  and  C_7 
REMARK    2  A    between atoms: C_7  and  N_8 
REMARK    3  A    between atoms: C_13  and  C_30 
REMARK    4  A    between atoms: C_30  and  C_31 
REMARK    5  A    between atoms: C_31  and  C_32 
ROOT
ATOM      1  N   LIG d   1       6.987  -1.691  -7.460  0.00  0.00    -0.237 N 
ATOM      2  C   LIG d   1       6.473  -1.333  -8.643  0.00  0.00     0.232 A 
ATOM      3  O   LIG d   1       6.779  -1.814  -9.712  0.00  0.00    -0.275 OA
ATOM      4  C   LIG d   1       5.452  -0.239  -8.437  0.00  0.00     0.096 A 
ATOM      5  H   LIG d   1       5.694   0.670  -8.988  0.00  0.00     0.046 H 
ATOM      6  C   LIG d   1       4.047  -0.781  -8.774  0.00  0.00    -0.009 C 
ATOM      7  H   LIG d   1       4.110  -1.530  -9.562  0.00  0.00     0.086 H 
ATOM      8  N   LIG d   1       3.563  -1.399  -7.511  0.00  0.00     0.245 N 
ATOM      9  C   LIG d   1       4.044  -0.487  -6.456  0.00  0.00     0.106 A 
ATOM     10  C   LIG d   1       5.457  -0.028  -6.897  0.00  0.00     0.111 A 
ATOM     11  H   LIG d   1       5.682   1.000  -6.611  0.00  0.00     0.047 H 
ATOM     12  C   LIG d   1       6.486  -1.024  -6.413  0.00  0.00     0.233 A 
ATOM     13  O   LIG d   1       6.809  -1.192  -5.257  0.00  0.00    -0.275 OA
ATOM     14  C   LIG d   1       4.072  -1.162  -5.114  0.00  0.00     0.034 A 
ATOM     15  C   LIG d   1       4.721  -2.272  -4.624  0.00  0.00    -0.051 A 
ATOM     16  C   LIG d   1       4.541  -2.654  -3.307  0.00  0.00    -0.061 A 
ATOM     17  C   LIG d   1       3.706  -1.919  -2.485  0.00  0.00    -0.060 A 
ATOM     18  C   LIG d   1       3.054  -0.805  -2.971  0.00  0.00    -0.040 A 
ATOM     19  C   LIG d   1       3.232  -0.412  -4.295  0.00  0.00     0.043 A 
ATOM     20  N   LIG d   1       2.692   0.661  -5.009  0.00  0.00    -0.280 N 
ATOM     21  C   LIG d   1       3.121   0.688  -6.285  0.00  0.00     0.274 A 
ATOM     22  O   LIG d   1       2.821   1.503  -7.133  0.00  0.00    -0.269 OA
ATOM     23  H   LIG d   1       2.554  -1.445  -7.504  0.00  0.00     0.203 HD
ATOM     24  H   LIG d   1       5.373  -2.845  -5.268  0.00  0.00     0.062 H 
ATOM     25  H   LIG d   1       5.050  -3.526  -2.921  0.00  0.00     0.062 H 
ATOM     26  H   LIG d   1       3.565  -2.219  -1.456  0.00  0.00     0.062 H 
ATOM     27  H   LIG d   1       2.405  -0.235  -2.322  0.00  0.00     0.064 H 
ATOM     28  H   LIG d   1       2.080   1.309  -4.628  0.00  0.00     0.155 HD
ATOM     29  H   LIG d   1       3.960  -2.318  -7.392  0.00  0.00     0.203 HD
ENDROOT
BRANCH   1  30
ATOM     30  C   LIG d   1       8.011  -2.729  -7.321  0.00  0.00     0.049 C 
ATOM     31  H   LIG d   1       8.779  -2.391  -6.626  0.00  0.00     0.052 H 
ATOM     32  H   LIG d   1       8.463  -2.926  -8.294  0.00  0.00     0.052 H 
BRANCH  30  33
ATOM     33  C   LIG d   1       7.379  -3.993  -6.797  0.00  0.00    -0.011 A 
ATOM     34  C   LIG d   1       7.823  -4.548  -5.611  0.00  0.00     0.046 A 
ATOM     35  C   LIG d   1       7.241  -5.708  -5.130  0.00  0.00    -0.043 A 
ATOM     36 CL   LIG d   1       9.109  -3.790  -4.725  0.00  0.00    -0.083 Cl
ATOM     37  C   LIG d   1       6.217  -6.311  -5.835  0.00  0.00    -0.060 A 
ATOM     38  H   LIG d   1       7.588  -6.142  -4.204  0.00  0.00     0.063 H 
ATOM     39  C   LIG d   1       5.773  -5.755  -7.021  0.00  0.00    -0.061 A 
ATOM     40  H   LIG d   1       5.764  -7.217  -5.461  0.00  0.00     0.062 H 
ATOM     41  C   LIG d   1       6.354  -4.596  -7.501  0.00  0.00    -0.056 A 
ATOM     42  H   LIG d   1       4.975  -6.229  -7.574  0.00  0.00     0.062 H 
ATOM     43  H   LIG d   1       6.006  -4.163  -8.428  0.00  0.00     0.062 H 
ENDBRANCH  30  33
ENDBRANCH   1  30
BRANCH   6  44
ATOM     44  C   LIG d   1       3.123   0.362  -9.199  0.00  0.00    -0.004 C 
ATOM     45  H   LIG d   1       2.132  -0.035  -9.418  0.00  0.00     0.032 H 
ATOM     46  H   LIG d   1       3.053   1.091  -8.391  0.00  0.00     0.032 H 
BRANCH  44  47
ATOM     47  C   LIG d   1       3.690   1.038 -10.449  0.00  0.00    -0.008 C 
ATOM     48  H   LIG d   1       3.067   1.892 -10.715  0.00  0.00     0.033 H 
ATOM     49  H   LIG d   1       4.706   1.377 -10.247  0.00  0.00     0.033 H 
BRANCH  47  50
ATOM     50  C   LIG d   1       3.707   0.054 -11.589  0.00  0.00     0.042 C 
ATOM     51  O   LIG d   1       4.742  -0.156 -12.199  0.00  0.00    -0.550 OA
ATOM     52  O   LIG d   1       2.686  -0.536 -11.902  0.00  0.00    -0.550 OA
ENDBRANCH  47  50
ENDBRANCH  44  47
ENDBRANCH   6  44
TORSDOF 5
ENDMDL
MODEL 6
REMARK VINA RESULT:      -6.9      3.437      6.637
REMARK  5 active torsions:
REMARK  status: ('A' for Active; 'I' for Inactive)
REMARK    1  A    between atoms: C_5  and  C_7 
REMARK    2  A    between atoms: C_7  and  N_8 
REMARK    3  A    between atoms: C_13  and  C_30 
REMARK    4  A    between atoms: C_30  and  C_31 
REMARK    5  A    between atoms: C_31  and  C_32 
ROOT
ATOM      1  N   LIG d   1       8.189  -2.888  -5.829  0.00  0.00    -0.237 N 
ATOM      2  C   LIG d   1       8.623  -2.044  -6.773  0.00  0.00     0.232 A 
ATOM      3  O   LIG d   1       8.944  -2.360  -7.899  0.00  0.00    -0.275 OA
ATOM      4  C   LIG d   1       8.651  -0.640  -6.218  0.00  0.00     0.096 A 
ATOM      5  H   LIG d   1       9.642  -0.190  -6.263  0.00  0.00     0.046 H 
ATOM      6  C   LIG d   1       7.580   0.213  -6.931  0.00  0.00    -0.009 C 
ATOM      7  H   LIG d   1       7.452  -0.123  -7.960  0.00  0.00     0.086 H 
ATOM      8  N   LIG d   1       6.332  -0.015  -6.155  0.00  0.00     0.245 N 
ATOM      9  C   LIG d   1       6.784  -0.063  -4.752  0.00  0.00     0.106 A 
ATOM     10  C   LIG d   1       8.136  -0.819  -4.762  0.00  0.00     0.111 A 
ATOM     11  H   LIG d   1       8.840  -0.449  -4.016  0.00  0.00     0.047 H 
ATOM     12  C   LIG d   1       7.885  -2.306  -4.664  0.00  0.00     0.233 A 
ATOM     13  O   LIG d   1       7.473  -2.884  -3.680  0.00  0.00    -0.275 OA
ATOM     14  C   LIG d   1       5.774  -0.742  -3.870  0.00  0.00     0.034 A 
ATOM     15  C   LIG d   1       5.213  -1.998  -3.863  0.00  0.00    -0.051 A 
ATOM     16  C   LIG d   1       4.284  -2.337  -2.896  0.00  0.00    -0.061 A 
ATOM     17  C   LIG d   1       3.919  -1.409  -1.937  0.00  0.00    -0.060 A 
ATOM     18  C   LIG d   1       4.479  -0.149  -1.939  0.00  0.00    -0.040 A 
ATOM     19  C   LIG d   1       5.417   0.200  -2.908  0.00  0.00     0.043 A 
ATOM     20  N   LIG d   1       6.115   1.391  -3.116  0.00  0.00    -0.280 N 
ATOM     21  C   LIG d   1       6.939   1.319  -4.179  0.00  0.00     0.274 A 
ATOM     22  O   LIG d   1       7.666   2.197  -4.593  0.00  0.00    -0.269 OA
ATOM     23  H   LIG d   1       5.687   0.750  -6.292  0.00  0.00     0.203 HD
ATOM     24  H   LIG d   1       5.499  -2.722  -4.613  0.00  0.00     0.062 H 
ATOM     25  H   LIG d   1       3.843  -3.324  -2.890  0.00  0.00     0.062 H 
ATOM     26  H   LIG d   1       3.193  -1.674  -1.182  0.00  0.00     0.062 H 
ATOM     27  H   LIG d   1       4.190   0.570  -1.186  0.00  0.00     0.064 H 
ATOM     28  H   LIG d   1       6.016   2.179  -2.560  0.00  0.00     0.155 HD
ATOM     29  H   LIG d   1       5.905  -0.890  -6.420  0.00  0.00     0.203 HD
ENDROOT
BRANCH   1  30
ATOM     30  C   LIG d   1       8.054  -4.329  -6.055  0.00  0.00     0.049 C 
ATOM     31  H   LIG d   1       8.484  -4.871  -5.212  0.00  0.00     0.052 H 
ATOM     32  H   LIG d   1       8.580  -4.604  -6.970  0.00  0.00     0.052 H 
BRANCH  30  33
ATOM     33  C   LIG d   1       6.595  -4.683  -6.190  0.00  0.00    -0.011 A 
ATOM     34  C   LIG d   1       6.128  -5.891  -5.703  0.00  0.00     0.046 A 
ATOM     35  C   LIG d   1       4.789  -6.214  -5.827  0.00  0.00    -0.043 A 
ATOM     36 CL   LIG d   1       7.223  -6.999  -4.937  0.00  0.00    -0.083 Cl
ATOM     37  C   LIG d   1       3.918  -5.331  -6.437  0.00  0.00    -0.060 A 
ATOM     38  H   LIG d   1       4.424  -7.157  -5.447  0.00  0.00     0.063 H 
ATOM     39  C   LIG d   1       4.386  -4.123  -6.923  0.00  0.00    -0.061 A 
ATOM     40  H   LIG d   1       2.873  -5.584  -6.534  0.00  0.00     0.062 H 
ATOM     41  C   LIG d   1       5.724  -3.800  -6.799  0.00  0.00    -0.056 A 
ATOM     42  H   LIG d   1       3.705  -3.435  -7.403  0.00  0.00     0.062 H 
ATOM     43  H   LIG d   1       6.087  -2.856  -7.179  0.00  0.00     0.062 H 
ENDBRANCH  30  33
ENDBRANCH   1  30
BRANCH   6  44
ATOM     44  C   LIG d   1       7.967   1.692  -6.899  0.00  0.00    -0.004 C 
ATOM     45  H   LIG d   1       7.237   2.246  -6.311  0.00  0.00     0.032 H 
ATOM     46  H   LIG d   1       8.955   1.798  -6.447  0.00  0.00     0.032 H 
BRANCH  44  47
ATOM     47  C   LIG d   1       7.998   2.242  -8.326  0.00  0.00    -0.008 C 
ATOM     48  H   LIG d   1       8.030   3.331  -8.296  0.00  0.00     0.033 H 
ATOM     49  H   LIG d   1       8.882   1.866  -8.840  0.00  0.00     0.033 H 
BRANCH  47  50
ATOM     50  C   LIG d   1       6.762   1.797  -9.063  0.00  0.00     0.042 C 
ATOM     51  O   LIG d   1       5.661   2.161  -8.684  0.00  0.00    -0.550 OA
ATOM     52  O   LIG d   1       6.861   1.073 -10.039  0.00  0.00    -0.550 OA
ENDBRANCH  47  50
ENDBRANCH  44  47
ENDBRANCH   6  44
TORSDOF 5
ENDMDL
MODEL 7
REMARK VINA RESULT:      -6.8      3.145      4.670
REMARK  5 active torsions:
REMARK  status: ('A' for Active; 'I' for Inactive)
REMARK    1  A    between atoms: C_5  and  C_7 
REMARK    2  A    between atoms: C_7  and  N_8 
REMARK    3  A    between atoms: C_13  and  C_30 
REMARK    4  A    between atoms: C_30  and  C_31 
REMARK    5  A    between atoms: C_31  and  C_32 
ROOT
ATOM      1  N   LIG d   1       8.637   0.052  -5.666  0.00  0.00    -0.237 N 
ATOM      2  C   LIG d   1       8.708  -1.010  -6.478  0.00  0.00     0.232 A 
ATOM      3  O   LIG d   1       9.708  -1.661  -6.692  0.00  0.00    -0.275 OA
ATOM      4  C   LIG d   1       7.349  -1.270  -7.085  0.00  0.00     0.096 A 
ATOM      5  H   LIG d   1       7.363  -1.239  -8.174  0.00  0.00     0.046 H 
ATOM      6  C   LIG d   1       6.791  -2.601  -6.536  0.00  0.00    -0.009 C 
ATOM      7  H   LIG d   1       7.604  -3.297  -6.334  0.00  0.00     0.086 H 
ATOM      8  N   LIG d   1       6.099  -2.232  -5.273  0.00  0.00     0.245 N 
ATOM      9  C   LIG d   1       5.455  -0.941  -5.578  0.00  0.00     0.106 A 
ATOM     10  C   LIG d   1       6.459  -0.159  -6.462  0.00  0.00     0.111 A 
ATOM     11  H   LIG d   1       5.973   0.465  -7.213  0.00  0.00     0.047 H 
ATOM     12  C   LIG d   1       7.421   0.604  -5.581  0.00  0.00     0.233 A 
ATOM     13  O   LIG d   1       7.137   1.569  -4.903  0.00  0.00    -0.275 OA
ATOM     14  C   LIG d   1       5.112  -0.186  -4.325  0.00  0.00     0.034 A 
ATOM     15  C   LIG d   1       5.858   0.293  -3.272  0.00  0.00    -0.051 A 
ATOM     16  C   LIG d   1       5.239   0.968  -2.235  0.00  0.00    -0.061 A 
ATOM     17  C   LIG d   1       3.869   1.159  -2.259  0.00  0.00    -0.060 A 
ATOM     18  C   LIG d   1       3.118   0.682  -3.312  0.00  0.00    -0.040 A 
ATOM     19  C   LIG d   1       3.733   0.003  -4.362  0.00  0.00     0.043 A 
ATOM     20  N   LIG d   1       3.198  -0.564  -5.520  0.00  0.00    -0.280 N 
ATOM     21  C   LIG d   1       4.144  -1.137  -6.289  0.00  0.00     0.274 A 
ATOM     22  O   LIG d   1       3.972  -1.702  -7.348  0.00  0.00    -0.269 OA
ATOM     23  H   LIG d   1       5.404  -2.926  -5.036  0.00  0.00     0.203 HD
ATOM     24  H   LIG d   1       6.928   0.143  -3.255  0.00  0.00     0.062 H 
ATOM     25  H   LIG d   1       5.824   1.344  -1.408  0.00  0.00     0.062 H 
ATOM     26  H   LIG d   1       3.386   1.685  -1.448  0.00  0.00     0.062 H 
ATOM     27  H   LIG d   1       2.048   0.836  -3.324  0.00  0.00     0.064 H 
ATOM     28  H   LIG d   1       2.255  -0.546  -5.744  0.00  0.00     0.155 HD
ATOM     29  H   LIG d   1       6.765  -2.127  -4.522  0.00  0.00     0.203 HD
ENDROOT
BRANCH   1  30
ATOM     30  C   LIG d   1       9.794   0.564  -4.928  0.00  0.00     0.049 C 
ATOM     31  H   LIG d   1      10.592  -0.178  -4.944  0.00  0.00     0.052 H 
ATOM     32  H   LIG d   1       9.506   0.766  -3.896  0.00  0.00     0.052 H 
BRANCH  30  33
ATOM     33  C   LIG d   1      10.278   1.837  -5.572  0.00  0.00    -0.011 A 
ATOM     34  C   LIG d   1      10.274   3.020  -4.856  0.00  0.00     0.046 A 
ATOM     35  C   LIG d   1      10.719   4.189  -5.449  0.00  0.00    -0.043 A 
ATOM     36 CL   LIG d   1       9.709   3.039  -3.215  0.00  0.00    -0.083 Cl
ATOM     37  C   LIG d   1      11.169   4.173  -6.756  0.00  0.00    -0.060 A 
ATOM     38  H   LIG d   1      10.715   5.113  -4.890  0.00  0.00     0.063 H 
ATOM     39  C   LIG d   1      11.174   2.989  -7.471  0.00  0.00    -0.061 A 
ATOM     40  H   LIG d   1      11.516   5.085  -7.218  0.00  0.00     0.062 H 
ATOM     41  C   LIG d   1      10.729   1.822  -6.879  0.00  0.00    -0.056 A 
ATOM     42  H   LIG d   1      11.521   2.978  -8.493  0.00  0.00     0.062 H 
ATOM     43  H   LIG d   1      10.733   0.898  -7.439  0.00  0.00     0.062 H 
ENDBRANCH  30  33
ENDBRANCH   1  30
BRANCH   6  44
ATOM     44  C   LIG d   1       5.801  -3.213  -7.529  0.00  0.00    -0.004 C 
ATOM     45  H   LIG d   1       4.833  -2.725  -7.425  0.00  0.00     0.032 H 
ATOM     46  H   LIG d   1       6.173  -3.072  -8.545  0.00  0.00     0.032 H 
BRANCH  44  47
ATOM     47  C   LIG d   1       5.653  -4.709  -7.244  0.00  0.00    -0.008 C 
ATOM     48  H   LIG d   1       5.720  -5.266  -8.178  0.00  0.00     0.033 H 
ATOM     49  H   LIG d   1       6.447  -5.030  -6.570  0.00  0.00     0.033 H 
BRANCH  47  50
ATOM     50  C   LIG d   1       4.315  -4.967  -6.600  0.00  0.00     0.042 C 
ATOM     51  O   LIG d   1       4.122  -4.638  -5.442  0.00  0.00    -0.550 OA
ATOM     52  O   LIG d   1       3.424  -5.503  -7.237  0.00  0.00    -0.550 OA
ENDBRANCH  47  50
ENDBRANCH  44  47
ENDBRANCH   6  44
TORSDOF 5
ENDMDL
MODEL 8
REMARK VINA RESULT:      -6.7     10.963     14.420
REMARK  5 active torsions:
REMARK  status: ('A' for Active; 'I' for Inactive)
REMARK    1  A    between atoms: C_5  and  C_7 
REMARK    2  A    between atoms: C_7  and  N_8 
REMARK    3  A    between atoms: C_13  and  C_30 
REMARK    4  A    between atoms: C_30  and  C_31 
REMARK    5  A    between atoms: C_31  and  C_32 
ROOT
ATOM      1  N   LIG d   1      10.689   6.164  -1.027  0.00  0.00    -0.237 N 
ATOM      2  C   LIG d   1      11.313   6.489   0.111  0.00  0.00     0.232 A 
ATOM      3  O   LIG d   1      12.134   5.802   0.680  0.00  0.00    -0.275 OA
ATOM      4  C   LIG d   1      10.835   7.845   0.577  0.00  0.00     0.096 A 
ATOM      5  H   LIG d   1      10.397   7.816   1.574  0.00  0.00     0.046 H 
ATOM      6  C   LIG d   1      11.993   8.860   0.467  0.00  0.00    -0.009 C 
ATOM      7  H   LIG d   1      12.947   8.365   0.640  0.00  0.00     0.086 H 
ATOM      8  N   LIG d   1      11.921   9.371  -0.928  0.00  0.00     0.245 N 
ATOM      9  C   LIG d   1      10.475   9.487  -1.196  0.00  0.00     0.106 A 
ATOM     10  C   LIG d   1       9.813   8.261  -0.518  0.00  0.00     0.111 A 
ATOM     11  H   LIG d   1       8.824   8.477  -0.114  0.00  0.00     0.047 H 
ATOM     12  C   LIG d   1       9.828   7.087  -1.471  0.00  0.00     0.233 A 
ATOM     13  O   LIG d   1       9.162   6.995  -2.481  0.00  0.00    -0.275 OA
ATOM     14  C   LIG d   1      10.189   9.529  -2.670  0.00  0.00     0.034 A 
ATOM     15  C   LIG d   1      10.439   8.664  -3.710  0.00  0.00    -0.051 A 
ATOM     16  C   LIG d   1      10.043   8.992  -4.995  0.00  0.00    -0.061 A 
ATOM     17  C   LIG d   1       9.398  10.192  -5.231  0.00  0.00    -0.060 A 
ATOM     18  C   LIG d   1       9.144  11.063  -4.192  0.00  0.00    -0.040 A 
ATOM     19  C   LIG d   1       9.537  10.739  -2.895  0.00  0.00     0.043 A 
ATOM     20  N   LIG d   1       9.395  11.441  -1.696  0.00  0.00    -0.280 N 
ATOM     21  C   LIG d   1       9.919  10.773  -0.651  0.00  0.00     0.274 A 
ATOM     22  O   LIG d   1       9.939  11.139   0.506  0.00  0.00    -0.269 OA
ATOM     23  H   LIG d   1      12.366  10.274  -0.996  0.00  0.00     0.203 HD
ATOM     24  H   LIG d   1      10.943   7.726  -3.524  0.00  0.00     0.062 H 
ATOM     25  H   LIG d   1      10.239   8.312  -5.812  0.00  0.00     0.062 H 
ATOM     26  H   LIG d   1       9.090  10.448  -6.234  0.00  0.00     0.062 H 
ATOM     27  H   LIG d   1       8.639  11.998  -4.384  0.00  0.00     0.064 H 
ATOM     28  H   LIG d   1       8.969  12.310  -1.626  0.00  0.00     0.155 HD
ATOM     29  H   LIG d   1      12.348   8.716  -1.567  0.00  0.00     0.203 HD
ENDROOT
BRANCH   1  30
ATOM     30  C   LIG d   1      10.931   4.902  -1.731  0.00  0.00     0.049 C 
ATOM     31  H   LIG d   1       9.978   4.424  -1.959  0.00  0.00     0.052 H 
ATOM     32  H   LIG d   1      11.527   4.242  -1.100  0.00  0.00     0.052 H 
BRANCH  30  33
ATOM     33  C   LIG d   1      11.675   5.176  -3.013  0.00  0.00    -0.011 A 
ATOM     34  C   LIG d   1      11.108   4.837  -4.228  0.00  0.00     0.046 A 
ATOM     35  C   LIG d   1      11.791   5.089  -5.405  0.00  0.00    -0.043 A 
ATOM     36 CL   LIG d   1       9.539   4.095  -4.277  0.00  0.00    -0.083 Cl
ATOM     37  C   LIG d   1      13.040   5.680  -5.365  0.00  0.00    -0.060 A 
ATOM     38  H   LIG d   1      11.349   4.824  -6.353  0.00  0.00     0.063 H 
ATOM     39  C   LIG d   1      13.606   6.020  -4.149  0.00  0.00    -0.061 A 
ATOM     40  H   LIG d   1      13.574   5.876  -6.283  0.00  0.00     0.062 H 
ATOM     41  C   LIG d   1      12.923   5.767  -2.974  0.00  0.00    -0.056 A 
ATOM     42  H   LIG d   1      14.584   6.477  -4.119  0.00  0.00     0.062 H 
ATOM     43  H   LIG d   1      13.367   6.033  -2.026  0.00  0.00     0.062 H 
ENDBRANCH  30  33
ENDBRANCH   1  30
BRANCH   6  44
ATOM     44  C   LIG d   1      11.796  10.002   1.465  0.00  0.00    -0.004 C 
ATOM     45  H   LIG d   1      11.836  10.955   0.939  0.00  0.00     0.032 H 
ATOM     46  H   LIG d   1      10.827   9.895   1.952  0.00  0.00     0.032 H 
BRANCH  44  47
ATOM     47  C   LIG d   1      12.904   9.953   2.519  0.00  0.00    -0.008 C 
ATOM     48  H   LIG d   1      13.684   9.264   2.197  0.00  0.00     0.033 H 
ATOM     49  H   LIG d   1      13.328  10.950   2.645  0.00  0.00     0.033 H 
BRANCH  47  50
ATOM     50  C   LIG d   1      12.330   9.484   3.830  0.00  0.00     0.042 C 
ATOM     51  O   LIG d   1      12.259  10.252   4.775  0.00  0.00    -0.550 OA
ATOM     52  O   LIG d   1      11.934   8.336   3.948  0.00  0.00    -0.550 OA
ENDBRANCH  47  50
ENDBRANCH  44  47
ENDBRANCH   6  44
TORSDOF 5
ENDMDL
MODEL 9
REMARK VINA RESULT:      -6.4     11.330     14.583
REMARK  5 active torsions:
REMARK  status: ('A' for Active; 'I' for Inactive)
REMARK    1  A    between atoms: C_5  and  C_7 
REMARK    2  A    between atoms: C_7  and  N_8 
REMARK    3  A    between atoms: C_13  and  C_30 
REMARK    4  A    between atoms: C_30  and  C_31 
REMARK    5  A    between atoms: C_31  and  C_32 
ROOT
ATOM      1  N   LIG d   1      10.525   7.016  -0.493  0.00  0.00    -0.237 N 
ATOM      2  C   LIG d   1      10.969   8.012   0.281  0.00  0.00     0.232 A 
ATOM      3  O   LIG d   1      11.722   7.884   1.223  0.00  0.00    -0.275 OA
ATOM      4  C   LIG d   1      10.387   9.321  -0.201  0.00  0.00     0.096 A 
ATOM      5  H   LIG d   1       9.812   9.834   0.569  0.00  0.00     0.046 H 
ATOM      6  C   LIG d   1      11.517  10.199  -0.781  0.00  0.00    -0.009 C 
ATOM      7  H   LIG d   1      12.452  10.008  -0.256  0.00  0.00     0.086 H 
ATOM      8  N   LIG d   1      11.630   9.784  -2.205  0.00  0.00     0.245 N 
ATOM      9  C   LIG d   1      10.234   9.561  -2.627  0.00  0.00     0.106 A 
ATOM     10  C   LIG d   1       9.521   8.901  -1.421  0.00  0.00     0.111 A 
ATOM     11  H   LIG d   1       8.477   9.202  -1.323  0.00  0.00     0.047 H 
ATOM     12  C   LIG d   1       9.709   7.402  -1.480  0.00  0.00     0.233 A 
ATOM     13  O   LIG d   1       9.197   6.663  -2.295  0.00  0.00    -0.275 OA
ATOM     14  C   LIG d   1      10.161   8.700  -3.856  0.00  0.00     0.034 A 
ATOM     15  C   LIG d   1      10.584   7.423  -4.146  0.00  0.00    -0.051 A 
ATOM     16  C   LIG d   1      10.366   6.890  -5.404  0.00  0.00    -0.061 A 
ATOM     17  C   LIG d   1       9.724   7.644  -6.369  0.00  0.00    -0.060 A 
ATOM     18  C   LIG d   1       9.297   8.924  -6.083  0.00  0.00    -0.040 A 
ATOM     19  C   LIG d   1       9.510   9.467  -4.819  0.00  0.00     0.043 A 
ATOM     20  N   LIG d   1       9.177  10.718  -4.294  0.00  0.00    -0.280 N 
ATOM     21  C   LIG d   1       9.566  10.852  -3.012  0.00  0.00     0.274 A 
ATOM     22  O   LIG d   1       9.409  11.825  -2.305  0.00  0.00    -0.269 OA
ATOM     23  H   LIG d   1      12.052  10.518  -2.754  0.00  0.00     0.203 HD
ATOM     24  H   LIG d   1      11.085   6.835  -3.391  0.00  0.00     0.062 H 
ATOM     25  H   LIG d   1      10.698   5.887  -5.633  0.00  0.00     0.062 H 
ATOM     26  H   LIG d   1       9.555   7.228  -7.352  0.00  0.00     0.062 H 
ATOM     27  H   LIG d   1       8.795   9.506  -6.842  0.00  0.00     0.064 H 
ATOM     28  H   LIG d   1       8.718  11.409  -4.797  0.00  0.00     0.155 HD
ATOM     29  H   LIG d   1      12.164   8.931  -2.283  0.00  0.00     0.203 HD
ENDROOT
BRANCH   1  30
ATOM     30  C   LIG d   1      10.905   5.617  -0.281  0.00  0.00     0.049 C 
ATOM     31  H   LIG d   1      10.055   4.972  -0.503  0.00  0.00     0.052 H 
ATOM     32  H   LIG d   1      11.206   5.476   0.758  0.00  0.00     0.052 H 
BRANCH  30  33
ATOM     33  C   LIG d   1      12.055   5.264  -1.188  0.00  0.00    -0.011 A 
ATOM     34  C   LIG d   1      11.847   4.442  -2.281  0.00  0.00     0.046 A 
ATOM     35  C   LIG d   1      12.904   4.119  -3.115  0.00  0.00    -0.043 A 
ATOM     36 CL   LIG d   1      10.261   3.817  -2.608  0.00  0.00    -0.083 Cl
ATOM     37  C   LIG d   1      14.166   4.617  -2.854  0.00  0.00    -0.060 A 
ATOM     38  H   LIG d   1      12.742   3.477  -3.968  0.00  0.00     0.063 H 
ATOM     39  C   LIG d   1      14.373   5.440  -1.761  0.00  0.00    -0.061 A 
ATOM     40  H   LIG d   1      14.991   4.365  -3.503  0.00  0.00     0.062 H 
ATOM     41  C   LIG d   1      13.318   5.762  -0.929  0.00  0.00    -0.056 A 
ATOM     42  H   LIG d   1      15.361   5.825  -1.556  0.00  0.00     0.062 H 
ATOM     43  H   LIG d   1      13.481   6.405  -0.076  0.00  0.00     0.062 H 
ENDBRANCH  30  33
ENDBRANCH   1  30
BRANCH   6  44
ATOM     44  C   LIG d   1      11.144  11.679  -0.684  0.00  0.00    -0.004 C 
ATOM     45  H   LIG d   1      10.997  12.083  -1.685  0.00  0.00     0.032 H 
ATOM     46  H   LIG d   1      10.223  11.784  -0.110  0.00  0.00     0.032 H 
BRANCH  44  47
ATOM     47  C   LIG d   1      12.270  12.443   0.016  0.00  0.00    -0.008 C 
ATOM     48  H   LIG d   1      13.177  11.841   0.009  0.00  0.00     0.033 H 
ATOM     49  H   LIG d   1      12.451  13.381  -0.509  0.00  0.00     0.033 H 
BRANCH  47  50
ATOM     50  C   LIG d   1      11.870  12.734   1.439  0.00  0.00     0.042 C 
ATOM     51  O   LIG d   1      11.406  13.823   1.732  0.00  0.00    -0.550 OA
ATOM     52  O   LIG d   1      12.009  11.881   2.299  0.00  0.00    -0.550 OA
ENDBRANCH  47  50
ENDBRANCH  44  47
ENDBRANCH   6  44
TORSDOF 5
ENDMDL
