MODEL 1
REMARK VINA RESULT:      -6.6      0.000      0.000
REMARK  6 active torsions:
REMARK  status: ('A' for Active; 'I' for Inactive)
REMARK    1  A    between atoms: C_5  and  C_7 
REMARK    2  A    between atoms: N_8  and  C_9 
REMARK    3  A    between atoms: C_9  and  C_10 
REMARK    4  A    between atoms: C_10  and  N_11 
REMARK    5  A    between atoms: C_12  and  C_13 
REMARK    6  A    between atoms: C_18  and  O_19 
ROOT
ATOM      1  C   LIG d   1       7.095   0.119  -7.454  0.00  0.00     0.201 C 
ATOM      2  H   LIG d   1       7.352  -0.950  -7.481  0.00  0.00     0.109 H 
ATOM      3  H   LIG d   1       8.005   0.710  -7.268  0.00  0.00     0.109 H 
ENDROOT
BRANCH   1   4
ATOM      4  C   LIG d   1       6.483   0.531  -8.793  0.00  0.00     0.201 C 
ATOM      5  H   LIG d   1       5.615  -0.107  -9.012  0.00  0.00     0.109 H 
ATOM      6  H   LIG d   1       7.233   0.415  -9.590  0.00  0.00     0.109 H 
BRANCH   4   7
ATOM      7  N   LIG d   1       6.055   1.930  -8.725  0.00  0.00    -0.241 N 
ATOM      8  C   LIG d   1       4.899   2.278  -9.193  0.00  0.00     0.171 C 
ATOM      9  H   LIG d   1       4.666   3.341  -9.351  0.00  0.00     0.138 H 
ATOM     10  H   LIG d   1       6.716   2.686  -8.276  0.00  0.00     0.445 HD
BRANCH   8  11
ATOM     11  C   LIG d   1       3.895   1.248  -9.515  0.00  0.00     0.030 A 
ATOM     12  C   LIG d   1       3.100   0.696  -8.502  0.00  0.00    -0.095 A 
ATOM     13  C   LIG d   1       2.159  -0.272  -8.817  0.00  0.00    -0.069 A 
ATOM     14  O   LIG d   1       3.252   1.106  -7.218  0.00  0.00    -0.873 OA
ATOM     15  C   LIG d   1       2.005  -0.688 -10.125  0.00  0.00    -0.062 A 
ATOM     16  H   LIG d   1       1.545  -0.701  -8.040  0.00  0.00     0.061 H 
ATOM     17  C   LIG d   1       2.789  -0.145 -11.130  0.00  0.00    -0.061 A 
ATOM     18  H   LIG d   1       1.270  -1.442 -10.366  0.00  0.00     0.062 H 
ATOM     19  C   LIG d   1       3.726   0.821 -10.835  0.00  0.00    -0.050 A 
ATOM     20  H   LIG d   1       2.661  -0.477 -12.151  0.00  0.00     0.062 H 
ATOM     21  H   LIG d   1       4.332   1.245 -11.623  0.00  0.00     0.062 H 
ENDBRANCH   8  11
ENDBRANCH   4   7
ENDBRANCH   1   4
BRANCH   1  22
ATOM     22  N   LIG d   1       6.129   0.361  -6.379  0.00  0.00    -0.241 N 
ATOM     23  C   LIG d   1       6.287  -0.206  -5.227  0.00  0.00     0.175 C 
ATOM     24  H   LIG d   1       7.147  -0.870  -5.054  0.00  0.00     0.138 H 
ATOM     25  H   LIG d   1       5.268   1.025  -6.553  0.00  0.00     0.445 HD
BRANCH  23  26
ATOM     26  C   LIG d   1       5.314   0.037  -4.146  0.00  0.00     0.079 A 
ATOM     27  C   LIG d   1       4.005  -0.453  -4.254  0.00  0.00     0.130 A 
ATOM     28  C   LIG d   1       3.096  -0.212  -3.234  0.00  0.00    -0.019 A 
ATOM     29  C   LIG d   1       3.482   0.501  -2.116  0.00  0.00    -0.058 A 
ATOM     30  H   LIG d   1       2.085  -0.583  -3.315  0.00  0.00     0.065 H 
ATOM     31  C   LIG d   1       4.777   0.980  -2.004  0.00  0.00    -0.061 A 
ATOM     32  H   LIG d   1       2.771   0.685  -1.325  0.00  0.00     0.062 H 
ATOM     33  C   LIG d   1       5.693   0.751  -3.007  0.00  0.00    -0.045 A 
ATOM     34  H   LIG d   1       5.069   1.536  -1.124  0.00  0.00     0.062 H 
ATOM     35  H   LIG d   1       6.701   1.128  -2.915  0.00  0.00     0.063 H 
BRANCH  27  36
ATOM     36  O   LIG d   1       3.627  -1.153  -5.353  0.00  0.00    -0.506 OA
ATOM     37  H   LIG d   1       2.896  -1.970  -5.261  0.00  0.00     0.292 HD
ENDBRANCH  27  36
ENDBRANCH  23  26
ENDBRANCH   1  22
TORSDOF 6
ENDMDL
MODEL 2
REMARK VINA RESULT:      -6.4      2.176      2.970
REMARK  6 active torsions:
REMARK  status: ('A' for Active; 'I' for Inactive)
REMARK    1  A    between atoms: C_5  and  C_7 
REMARK    2  A    between atoms: N_8  and  C_9 
REMARK    3  A    between atoms: C_9  and  C_10 
REMARK    4  A    between atoms: C_10  and  N_11 
REMARK    5  A    between atoms: C_12  and  C_13 
REMARK    6  A    between atoms: C_18  and  O_19 
ROOT
ATOM      1  C   LIG d   1       4.426  -3.087  -7.022  0.00  0.00     0.201 C 
ATOM      2  H   LIG d   1       3.632  -3.848  -7.057  0.00  0.00     0.109 H 
ATOM      3  H   LIG d   1       5.407  -3.576  -7.118  0.00  0.00     0.109 H 
ENDROOT
BRANCH   1   4
ATOM      4  C   LIG d   1       4.235  -2.096  -8.171  0.00  0.00     0.201 C 
ATOM      5  H   LIG d   1       5.104  -2.142  -8.844  0.00  0.00     0.109 H 
ATOM      6  H   LIG d   1       4.139  -1.079  -7.765  0.00  0.00     0.109 H 
BRANCH   4   7
ATOM      7  N   LIG d   1       3.023  -2.441  -8.916  0.00  0.00    -0.241 N 
ATOM      8  C   LIG d   1       2.270  -1.504  -9.397  0.00  0.00     0.171 C 
ATOM      9  H   LIG d   1       1.257  -1.740  -9.755  0.00  0.00     0.138 H 
ATOM     10  H   LIG d   1       2.751  -3.496  -9.068  0.00  0.00     0.445 HD
BRANCH   8  11
ATOM     11  C   LIG d   1       2.770  -0.118  -9.464  0.00  0.00     0.030 A 
ATOM     12  C   LIG d   1       3.486   0.320 -10.586  0.00  0.00    -0.095 A 
ATOM     13  C   LIG d   1       3.952   1.624 -10.638  0.00  0.00    -0.069 A 
ATOM     14  O   LIG d   1       3.725  -0.531 -11.616  0.00  0.00    -0.873 OA
ATOM     15  C   LIG d   1       3.708   2.489  -9.589  0.00  0.00    -0.062 A 
ATOM     16  H   LIG d   1       4.504   1.966 -11.499  0.00  0.00     0.061 H 
ATOM     17  C   LIG d   1       3.000   2.060  -8.477  0.00  0.00    -0.061 A 
ATOM     18  H   LIG d   1       4.071   3.505  -9.634  0.00  0.00     0.062 H 
ATOM     19  C   LIG d   1       2.525   0.768  -8.412  0.00  0.00    -0.050 A 
ATOM     20  H   LIG d   1       2.813   2.743  -7.662  0.00  0.00     0.062 H 
ATOM     21  H   LIG d   1       1.970   0.439  -7.546  0.00  0.00     0.062 H 
ENDBRANCH   8  11
ENDBRANCH   4   7
ENDBRANCH   1   4
BRANCH   1  22
ATOM     22  N   LIG d   1       4.360  -2.373  -5.744  0.00  0.00    -0.241 N 
ATOM     23  C   LIG d   1       4.600  -1.103  -5.699  0.00  0.00     0.175 C 
ATOM     24  H   LIG d   1       4.854  -0.558  -6.621  0.00  0.00     0.138 H 
ATOM     25  H   LIG d   1       4.107  -2.918  -4.822  0.00  0.00     0.445 HD
BRANCH  23  26
ATOM     26  C   LIG d   1       4.535  -0.385  -4.414  0.00  0.00     0.079 A 
ATOM     27  C   LIG d   1       3.309  -0.234  -3.752  0.00  0.00     0.130 A 
ATOM     28  C   LIG d   1       3.259   0.449  -2.546  0.00  0.00    -0.019 A 
ATOM     29  C   LIG d   1       4.413   0.973  -1.998  0.00  0.00    -0.058 A 
ATOM     30  H   LIG d   1       2.314   0.572  -2.036  0.00  0.00     0.065 H 
ATOM     31  C   LIG d   1       5.627   0.820  -2.646  0.00  0.00    -0.061 A 
ATOM     32  H   LIG d   1       4.368   1.504  -1.060  0.00  0.00     0.062 H 
ATOM     33  C   LIG d   1       5.696   0.144  -3.845  0.00  0.00    -0.045 A 
ATOM     34  H   LIG d   1       6.525   1.234  -2.209  0.00  0.00     0.062 H 
ATOM     35  H   LIG d   1       6.646   0.029  -4.347  0.00  0.00     0.063 H 
BRANCH  27  36
ATOM     36  O   LIG d   1       2.175  -0.749  -4.292  0.00  0.00    -0.506 OA
ATOM     37  H   LIG d   1       1.514  -1.383  -3.682  0.00  0.00     0.292 HD
ENDBRANCH  27  36
ENDBRANCH  23  26
ENDBRANCH   1  22
TORSDOF 6
ENDMDL
MODEL 3
REMARK VINA RESULT:      -6.3      2.105      2.696
REMARK  6 active torsions:
REMARK  status: ('A' for Active; 'I' for Inactive)
REMARK    1  A    between atoms: C_5  and  C_7 
REMARK    2  A    between atoms: N_8  and  C_9 
REMARK    3  A    between atoms: C_9  and  C_10 
REMARK    4  A    between atoms: C_10  and  N_11 
REMARK    5  A    between atoms: C_12  and  C_13 
REMARK    6  A    between atoms: C_18  and  O_19 
ROOT
ATOM      1  C   LIG d   1       4.555  -3.167  -7.140  0.00  0.00     0.201 C 
ATOM      2  H   LIG d   1       3.824  -3.989  -7.163  0.00  0.00     0.109 H 
ATOM      3  H   LIG d   1       5.573  -3.583  -7.111  0.00  0.00     0.109 H 
ENDROOT
BRANCH   1   4
ATOM      4  C   LIG d   1       4.392  -2.303  -8.391  0.00  0.00     0.201 C 
ATOM      5  H   LIG d   1       5.210  -2.516  -9.095  0.00  0.00     0.109 H 
ATOM      6  H   LIG d   1       4.419  -1.241  -8.109  0.00  0.00     0.109 H 
BRANCH   4   7
ATOM      7  N   LIG d   1       3.109  -2.606  -9.030  0.00  0.00    -0.241 N 
ATOM      8  C   LIG d   1       2.320  -1.643  -9.387  0.00  0.00     0.171 C 
ATOM      9  H   LIG d   1       1.275  -1.858  -9.654  0.00  0.00     0.138 H 
ATOM     10  H   LIG d   1       2.815  -3.651  -9.206  0.00  0.00     0.445 HD
BRANCH   8  11
ATOM     11  C   LIG d   1       2.822  -0.258  -9.434  0.00  0.00     0.030 A 
ATOM     12  C   LIG d   1       2.836   0.527  -8.273  0.00  0.00    -0.095 A 
ATOM     13  C   LIG d   1       3.310   1.829  -8.330  0.00  0.00    -0.069 A 
ATOM     14  O   LIG d   1       2.387   0.016  -7.099  0.00  0.00    -0.873 OA
ATOM     15  C   LIG d   1       3.768   2.348  -9.525  0.00  0.00    -0.062 A 
ATOM     16  H   LIG d   1       3.323   2.437  -7.438  0.00  0.00     0.061 H 
ATOM     17  C   LIG d   1       3.756   1.575 -10.675  0.00  0.00    -0.061 A 
ATOM     18  H   LIG d   1       4.138   3.362  -9.564  0.00  0.00     0.062 H 
ATOM     19  C   LIG d   1       3.292   0.278 -10.636  0.00  0.00    -0.050 A 
ATOM     20  H   LIG d   1       4.116   1.990 -11.605  0.00  0.00     0.062 H 
ATOM     21  H   LIG d   1       3.288  -0.322 -11.534  0.00  0.00     0.062 H 
ENDBRANCH   8  11
ENDBRANCH   4   7
ENDBRANCH   1   4
BRANCH   1  22
ATOM     22  N   LIG d   1       4.329  -2.347  -5.947  0.00  0.00    -0.241 N 
ATOM     23  C   LIG d   1       5.336  -1.918  -5.257  0.00  0.00     0.175 C 
ATOM     24  H   LIG d   1       6.362  -2.168  -5.566  0.00  0.00     0.138 H 
ATOM     25  H   LIG d   1       3.303  -2.098  -5.637  0.00  0.00     0.445 HD
BRANCH  23  26
ATOM     26  C   LIG d   1       5.109  -1.094  -4.056  0.00  0.00     0.079 A 
ATOM     27  C   LIG d   1       4.410  -1.622  -2.961  0.00  0.00     0.130 A 
ATOM     28  C   LIG d   1       4.196  -0.836  -1.839  0.00  0.00    -0.019 A 
ATOM     29  C   LIG d   1       4.675   0.459  -1.799  0.00  0.00    -0.058 A 
ATOM     30  H   LIG d   1       3.653  -1.237  -0.996  0.00  0.00     0.065 H 
ATOM     31  C   LIG d   1       5.372   0.981  -2.876  0.00  0.00    -0.061 A 
ATOM     32  H   LIG d   1       4.506   1.067  -0.923  0.00  0.00     0.062 H 
ATOM     33  C   LIG d   1       5.593   0.214  -3.999  0.00  0.00    -0.045 A 
ATOM     34  H   LIG d   1       5.743   1.995  -2.834  0.00  0.00     0.062 H 
ATOM     35  H   LIG d   1       6.137   0.627  -4.837  0.00  0.00     0.063 H 
BRANCH  27  36
ATOM     36  O   LIG d   1       3.939  -2.895  -3.002  0.00  0.00    -0.506 OA
ATOM     37  H   LIG d   1       4.575  -3.704  -3.391  0.00  0.00     0.292 HD
ENDBRANCH  27  36
ENDBRANCH  23  26
ENDBRANCH   1  22
TORSDOF 6
ENDMDL
MODEL 4
REMARK VINA RESULT:      -6.2      1.614      5.915
REMARK  6 active torsions:
REMARK  status: ('A' for Active; 'I' for Inactive)
REMARK    1  A    between atoms: C_5  and  C_7 
REMARK    2  A    between atoms: N_8  and  C_9 
REMARK    3  A    between atoms: C_9  and  C_10 
REMARK    4  A    between atoms: C_10  and  N_11 
REMARK    5  A    between atoms: C_12  and  C_13 
REMARK    6  A    between atoms: C_18  and  O_19 
ROOT
ATOM      1  C   LIG d   1       7.812   0.073  -5.895  0.00  0.00     0.201 C 
ATOM      2  H   LIG d   1       8.709   0.586  -6.270  0.00  0.00     0.109 H 
ATOM      3  H   LIG d   1       7.867  -0.996  -6.151  0.00  0.00     0.109 H 
ENDROOT
BRANCH   1   4
ATOM      4  C   LIG d   1       7.729   0.231  -4.376  0.00  0.00     0.201 C 
ATOM      5  H   LIG d   1       6.842   0.827  -4.117  0.00  0.00     0.109 H 
ATOM      6  H   LIG d   1       8.633   0.740  -4.011  0.00  0.00     0.109 H 
BRANCH   4   7
ATOM      7  N   LIG d   1       7.628  -1.091  -3.753  0.00  0.00    -0.241 N 
ATOM      8  C   LIG d   1       6.578  -1.402  -3.062  0.00  0.00     0.171 C 
ATOM      9  H   LIG d   1       6.590  -2.289  -2.412  0.00  0.00     0.138 H 
ATOM     10  H   LIG d   1       8.443  -1.819  -3.871  0.00  0.00     0.445 HD
BRANCH   8  11
ATOM     11  C   LIG d   1       5.367  -0.566  -3.144  0.00  0.00     0.030 A 
ATOM     12  C   LIG d   1       4.470  -0.727  -4.210  0.00  0.00    -0.095 A 
ATOM     13  C   LIG d   1       3.335   0.065  -4.277  0.00  0.00    -0.069 A 
ATOM     14  O   LIG d   1       4.714  -1.652  -5.172  0.00  0.00    -0.873 OA
ATOM     15  C   LIG d   1       3.087   1.006  -3.297  0.00  0.00    -0.062 A 
ATOM     16  H   LIG d   1       2.641  -0.055  -5.096  0.00  0.00     0.061 H 
ATOM     17  C   LIG d   1       3.971   1.168  -2.242  0.00  0.00    -0.061 A 
ATOM     18  H   LIG d   1       2.200   1.620  -3.353  0.00  0.00     0.062 H 
ATOM     19  C   LIG d   1       5.102   0.386  -2.157  0.00  0.00    -0.050 A 
ATOM     20  H   LIG d   1       3.769   1.907  -1.480  0.00  0.00     0.062 H 
ATOM     21  H   LIG d   1       5.786   0.513  -1.331  0.00  0.00     0.062 H 
ENDBRANCH   8  11
ENDBRANCH   4   7
ENDBRANCH   1   4
BRANCH   1  22
ATOM     22  N   LIG d   1       6.620   0.661  -6.514  0.00  0.00    -0.241 N 
ATOM     23  C   LIG d   1       6.152   0.166  -7.614  0.00  0.00     0.175 C 
ATOM     24  H   LIG d   1       6.647  -0.695  -8.085  0.00  0.00     0.138 H 
ATOM     25  H   LIG d   1       6.125   1.523  -6.042  0.00  0.00     0.445 HD
BRANCH  23  26
ATOM     26  C   LIG d   1       4.954   0.758  -8.236  0.00  0.00     0.079 A 
ATOM     27  C   LIG d   1       5.065   1.921  -9.012  0.00  0.00     0.130 A 
ATOM     28  C   LIG d   1       3.930   2.473  -9.587  0.00  0.00    -0.019 A 
ATOM     29  C   LIG d   1       2.699   1.877  -9.402  0.00  0.00    -0.058 A 
ATOM     30  H   LIG d   1       4.011   3.372 -10.182  0.00  0.00     0.065 H 
ATOM     31  C   LIG d   1       2.587   0.725  -8.641  0.00  0.00    -0.061 A 
ATOM     32  H   LIG d   1       1.819   2.311  -9.852  0.00  0.00     0.062 H 
ATOM     33  C   LIG d   1       3.704   0.162  -8.062  0.00  0.00    -0.045 A 
ATOM     34  H   LIG d   1       1.619   0.265  -8.502  0.00  0.00     0.062 H 
ATOM     35  H   LIG d   1       3.611  -0.736  -7.469  0.00  0.00     0.063 H 
BRANCH  27  36
ATOM     36  O   LIG d   1       6.276   2.507  -9.194  0.00  0.00    -0.506 OA
ATOM     37  H   LIG d   1       7.126   1.911  -9.558  0.00  0.00     0.292 HD
ENDBRANCH  27  36
ENDBRANCH  23  26
ENDBRANCH   1  22
TORSDOF 6
ENDMDL
MODEL 5
REMARK VINA RESULT:      -6.1      2.654      5.599
REMARK  6 active torsions:
REMARK  status: ('A' for Active; 'I' for Inactive)
REMARK    1  A    between atoms: C_5  and  C_7 
REMARK    2  A    between atoms: N_8  and  C_9 
REMARK    3  A    between atoms: C_9  and  C_10 
REMARK    4  A    between atoms: C_10  and  N_11 
REMARK    5  A    between atoms: C_12  and  C_13 
REMARK    6  A    between atoms: C_18  and  O_19 
ROOT
ATOM      1  C   LIG d   1       4.804  -0.136  -7.417  0.00  0.00     0.201 C 
ATOM      2  H   LIG d   1       5.037  -0.923  -8.149  0.00  0.00     0.109 H 
ATOM      3  H   LIG d   1       4.221   0.658  -7.907  0.00  0.00     0.109 H 
ENDROOT
BRANCH   1   4
ATOM      4  C   LIG d   1       3.990  -0.731  -6.268  0.00  0.00     0.201 C 
ATOM      5  H   LIG d   1       4.577  -0.687  -5.340  0.00  0.00     0.109 H 
ATOM      6  H   LIG d   1       3.745  -1.779  -6.496  0.00  0.00     0.109 H 
BRANCH   4   7
ATOM      7  N   LIG d   1       2.752   0.033  -6.099  0.00  0.00    -0.241 N 
ATOM      8  C   LIG d   1       2.265   0.223  -4.914  0.00  0.00     0.171 C 
ATOM      9  H   LIG d   1       1.236   0.593  -4.795  0.00  0.00     0.138 H 
ATOM     10  H   LIG d   1       2.236   0.446  -6.978  0.00  0.00     0.445 HD
BRANCH   8  11
ATOM     11  C   LIG d   1       3.089  -0.057  -3.725  0.00  0.00     0.030 A 
ATOM     12  C   LIG d   1       3.746   0.987  -3.060  0.00  0.00    -0.095 A 
ATOM     13  C   LIG d   1       4.519   0.711  -1.942  0.00  0.00    -0.069 A 
ATOM     14  O   LIG d   1       3.628   2.262  -3.509  0.00  0.00    -0.873 OA
ATOM     15  C   LIG d   1       4.638  -0.587  -1.486  0.00  0.00    -0.062 A 
ATOM     16  H   LIG d   1       5.027   1.512  -1.427  0.00  0.00     0.061 H 
ATOM     17  C   LIG d   1       3.990  -1.622  -2.140  0.00  0.00    -0.061 A 
ATOM     18  H   LIG d   1       5.240  -0.797  -0.614  0.00  0.00     0.062 H 
ATOM     19  C   LIG d   1       3.214  -1.365  -3.250  0.00  0.00    -0.050 A 
ATOM     20  H   LIG d   1       4.089  -2.634  -1.776  0.00  0.00     0.062 H 
ATOM     21  H   LIG d   1       2.708  -2.175  -3.754  0.00  0.00     0.062 H 
ENDBRANCH   8  11
ENDBRANCH   4   7
ENDBRANCH   1   4
BRANCH   1  22
ATOM     22  N   LIG d   1       6.051   0.427  -6.893  0.00  0.00    -0.241 N 
ATOM     23  C   LIG d   1       6.402   0.195  -5.670  0.00  0.00     0.175 C 
ATOM     24  H   LIG d   1       5.764  -0.425  -5.023  0.00  0.00     0.138 H 
ATOM     25  H   LIG d   1       6.688   1.049  -7.541  0.00  0.00     0.445 HD
BRANCH  23  26
ATOM     26  C   LIG d   1       7.655   0.763  -5.143  0.00  0.00     0.079 A 
ATOM     27  C   LIG d   1       8.887   0.389  -5.699  0.00  0.00     0.130 A 
ATOM     28  C   LIG d   1      10.061   0.924  -5.190  0.00  0.00    -0.019 A 
ATOM     29  C   LIG d   1      10.015   1.826  -4.145  0.00  0.00    -0.058 A 
ATOM     30  H   LIG d   1      11.012   0.635  -5.612  0.00  0.00     0.065 H 
ATOM     31  C   LIG d   1       8.800   2.203  -3.598  0.00  0.00    -0.061 A 
ATOM     32  H   LIG d   1      10.932   2.239  -3.752  0.00  0.00     0.062 H 
ATOM     33  C   LIG d   1       7.624   1.681  -4.090  0.00  0.00    -0.045 A 
ATOM     34  H   LIG d   1       8.775   2.909  -2.780  0.00  0.00     0.062 H 
ATOM     35  H   LIG d   1       6.678   1.977  -3.660  0.00  0.00     0.063 H 
BRANCH  27  36
ATOM     36  O   LIG d   1       8.931  -0.497  -6.726  0.00  0.00    -0.506 OA
ATOM     37  H   LIG d   1       9.611  -1.360  -6.679  0.00  0.00     0.292 HD
ENDBRANCH  27  36
ENDBRANCH  23  26
ENDBRANCH   1  22
TORSDOF 6
ENDMDL
MODEL 6
REMARK VINA RESULT:      -6.0      3.745      6.329
REMARK  6 active torsions:
REMARK  status: ('A' for Active; 'I' for Inactive)
REMARK    1  A    between atoms: C_5  and  C_7 
REMARK    2  A    between atoms: N_8  and  C_9 
REMARK    3  A    between atoms: C_9  and  C_10 
REMARK    4  A    between atoms: C_10  and  N_11 
REMARK    5  A    between atoms: C_12  and  C_13 
REMARK    6  A    between atoms: C_18  and  O_19 
ROOT
ATOM      1  C   LIG d   1       7.228   0.515  -6.684  0.00  0.00     0.201 C 
ATOM      2  H   LIG d   1       8.101   0.066  -7.182  0.00  0.00     0.109 H 
ATOM      3  H   LIG d   1       6.546   0.926  -7.443  0.00  0.00     0.109 H 
ENDROOT
BRANCH   1   4
ATOM      4  C   LIG d   1       6.500  -0.554  -5.868  0.00  0.00     0.201 C 
ATOM      5  H   LIG d   1       6.116  -1.333  -6.542  0.00  0.00     0.109 H 
ATOM      6  H   LIG d   1       5.662  -0.093  -5.326  0.00  0.00     0.109 H 
BRANCH   4   7
ATOM      7  N   LIG d   1       7.431  -1.154  -4.909  0.00  0.00    -0.241 N 
ATOM      8  C   LIG d   1       7.152  -1.146  -3.645  0.00  0.00     0.171 C 
ATOM      9  H   LIG d   1       7.933  -1.385  -2.908  0.00  0.00     0.138 H 
ATOM     10  H   LIG d   1       8.366  -1.611  -5.263  0.00  0.00     0.445 HD
BRANCH   8  11
ATOM     11  C   LIG d   1       5.789  -0.815  -3.192  0.00  0.00     0.030 A 
ATOM     12  C   LIG d   1       5.442   0.513  -2.911  0.00  0.00    -0.095 A 
ATOM     13  C   LIG d   1       4.157   0.812  -2.486  0.00  0.00    -0.069 A 
ATOM     14  O   LIG d   1       6.360   1.502  -3.054  0.00  0.00    -0.873 OA
ATOM     15  C   LIG d   1       3.223  -0.195  -2.343  0.00  0.00    -0.062 A 
ATOM     16  H   LIG d   1       3.885   1.834  -2.269  0.00  0.00     0.061 H 
ATOM     17  C   LIG d   1       3.561  -1.510  -2.619  0.00  0.00    -0.061 A 
ATOM     18  H   LIG d   1       2.222   0.043  -2.012  0.00  0.00     0.062 H 
ATOM     19  C   LIG d   1       4.833  -1.824  -3.047  0.00  0.00    -0.050 A 
ATOM     20  H   LIG d   1       2.824  -2.291  -2.504  0.00  0.00     0.062 H 
ATOM     21  H   LIG d   1       5.091  -2.850  -3.266  0.00  0.00     0.062 H 
ENDBRANCH   8  11
ENDBRANCH   4   7
ENDBRANCH   1   4
BRANCH   1  22
ATOM     22  N   LIG d   1       7.674   1.591  -5.795  0.00  0.00    -0.241 N 
ATOM     23  C   LIG d   1       8.776   2.221  -6.043  0.00  0.00     0.175 C 
ATOM     24  H   LIG d   1       9.379   1.948  -6.922  0.00  0.00     0.138 H 
ATOM     25  H   LIG d   1       7.070   1.862  -4.916  0.00  0.00     0.445 HD
BRANCH  23  26
ATOM     26  C   LIG d   1       9.225   3.302  -5.148  0.00  0.00     0.079 A 
ATOM     27  C   LIG d   1       9.451   3.044  -3.789  0.00  0.00     0.130 A 
ATOM     28  C   LIG d   1       9.866   4.071  -2.955  0.00  0.00    -0.019 A 
ATOM     29  C   LIG d   1      10.061   5.340  -3.463  0.00  0.00    -0.058 A 
ATOM     30  H   LIG d   1      10.036   3.877  -1.906  0.00  0.00     0.065 H 
ATOM     31  C   LIG d   1       9.846   5.597  -4.806  0.00  0.00    -0.061 A 
ATOM     32  H   LIG d   1      10.384   6.136  -2.809  0.00  0.00     0.062 H 
ATOM     33  C   LIG d   1       9.433   4.589  -5.650  0.00  0.00    -0.045 A 
ATOM     34  H   LIG d   1      10.002   6.594  -5.195  0.00  0.00     0.062 H 
ATOM     35  H   LIG d   1       9.265   4.795  -6.697  0.00  0.00     0.063 H 
BRANCH  27  36
ATOM     36  O   LIG d   1       9.258   1.796  -3.291  0.00  0.00    -0.506 OA
ATOM     37  H   LIG d   1       9.967   0.992  -3.533  0.00  0.00     0.292 HD
ENDBRANCH  27  36
ENDBRANCH  23  26
ENDBRANCH   1  22
TORSDOF 6
ENDMDL
MODEL 7
REMARK VINA RESULT:      -5.9      2.058      3.442
REMARK  6 active torsions:
REMARK  status: ('A' for Active; 'I' for Inactive)
REMARK    1  A    between atoms: C_5  and  C_7 
REMARK    2  A    between atoms: N_8  and  C_9 
REMARK    3  A    between atoms: C_9  and  C_10 
REMARK    4  A    between atoms: C_10  and  N_11 
REMARK    5  A    between atoms: C_12  and  C_13 
REMARK    6  A    between atoms: C_18  and  O_19 
ROOT
ATOM      1  C   LIG d   1       2.443  -0.052  -7.651  0.00  0.00     0.201 C 
ATOM      2  H   LIG d   1       2.370   1.024  -7.868  0.00  0.00     0.109 H 
ATOM      3  H   LIG d   1       1.432  -0.486  -7.608  0.00  0.00     0.109 H 
ENDROOT
BRANCH   1   4
ATOM      4  C   LIG d   1       3.249  -0.742  -8.752  0.00  0.00     0.201 C 
ATOM      5  H   LIG d   1       3.036  -1.821  -8.743  0.00  0.00     0.109 H 
ATOM      6  H   LIG d   1       4.322  -0.579  -8.576  0.00  0.00     0.109 H 
BRANCH   4   7
ATOM      7  N   LIG d   1       2.877  -0.182 -10.053  0.00  0.00    -0.241 N 
ATOM      8  C   LIG d   1       3.647   0.684 -10.630  0.00  0.00     0.171 C 
ATOM      9  H   LIG d   1       3.274   1.270 -11.483  0.00  0.00     0.138 H 
ATOM     10  H   LIG d   1       1.943  -0.498 -10.541  0.00  0.00     0.445 HD
BRANCH   8  11
ATOM     11  C   LIG d   1       5.024   0.886 -10.143  0.00  0.00     0.030 A 
ATOM     12  C   LIG d   1       6.050   0.024 -10.551  0.00  0.00    -0.095 A 
ATOM     13  C   LIG d   1       7.341   0.223 -10.086  0.00  0.00    -0.069 A 
ATOM     14  O   LIG d   1       5.781  -1.003 -11.396  0.00  0.00    -0.873 OA
ATOM     15  C   LIG d   1       7.613   1.269  -9.226  0.00  0.00    -0.062 A 
ATOM     16  H   LIG d   1       8.135  -0.438 -10.398  0.00  0.00     0.061 H 
ATOM     17  C   LIG d   1       6.601   2.124  -8.820  0.00  0.00    -0.061 A 
ATOM     18  H   LIG d   1       8.620   1.422  -8.868  0.00  0.00     0.062 H 
ATOM     19  C   LIG d   1       5.313   1.943  -9.276  0.00  0.00    -0.050 A 
ATOM     20  H   LIG d   1       6.824   2.940  -8.147  0.00  0.00     0.062 H 
ATOM     21  H   LIG d   1       4.529   2.614  -8.960  0.00  0.00     0.062 H 
ENDBRANCH   8  11
ENDBRANCH   4   7
ENDBRANCH   1   4
BRANCH   1  22
ATOM     22  N   LIG d   1       3.111  -0.245  -6.361  0.00  0.00    -0.241 N 
ATOM     23  C   LIG d   1       2.628   0.305  -5.294  0.00  0.00     0.175 C 
ATOM     24  H   LIG d   1       1.717   0.917  -5.354  0.00  0.00     0.138 H 
ATOM     25  H   LIG d   1       4.024  -0.857  -6.301  0.00  0.00     0.445 HD
BRANCH  23  26
ATOM     26  C   LIG d   1       3.301   0.111  -3.997  0.00  0.00     0.079 A 
ATOM     27  C   LIG d   1       3.702  -1.171  -3.595  0.00  0.00     0.130 A 
ATOM     28  C   LIG d   1       4.327  -1.342  -2.369  0.00  0.00    -0.019 A 
ATOM     29  C   LIG d   1       4.560  -0.253  -1.552  0.00  0.00    -0.058 A 
ATOM     30  H   LIG d   1       4.633  -2.329  -2.054  0.00  0.00     0.065 H 
ATOM     31  C   LIG d   1       4.171   1.016  -1.949  0.00  0.00    -0.061 A 
ATOM     32  H   LIG d   1       5.047  -0.391  -0.599  0.00  0.00     0.062 H 
ATOM     33  C   LIG d   1       3.548   1.204  -3.163  0.00  0.00    -0.045 A 
ATOM     34  H   LIG d   1       4.358   1.862  -1.303  0.00  0.00     0.062 H 
ATOM     35  H   LIG d   1       3.246   2.196  -3.468  0.00  0.00     0.063 H 
BRANCH  27  36
ATOM     36  O   LIG d   1       3.473  -2.240  -4.399  0.00  0.00    -0.506 OA
ATOM     37  H   LIG d   1       2.563  -2.279  -5.015  0.00  0.00     0.292 HD
ENDBRANCH  27  36
ENDBRANCH  23  26
ENDBRANCH   1  22
TORSDOF 6
ENDMDL
MODEL 8
REMARK VINA RESULT:      -5.7      4.700      7.292
REMARK  6 active torsions:
REMARK  status: ('A' for Active; 'I' for Inactive)
REMARK    1  A    between atoms: C_5  and  C_7 
REMARK    2  A    between atoms: N_8  and  C_9 
REMARK    3  A    between atoms: C_9  and  C_10 
REMARK    4  A    between atoms: C_10  and  N_11 
REMARK    5  A    between atoms: C_12  and  C_13 
REMARK    6  A    between atoms: C_18  and  O_19 
ROOT
ATOM      1  C   LIG d   1       8.152   1.828  -4.876  0.00  0.00     0.201 C 
ATOM      2  H   LIG d   1       7.948   2.747  -5.444  0.00  0.00     0.109 H 
ATOM      3  H   LIG d   1       8.807   1.170  -5.466  0.00  0.00     0.109 H 
ENDROOT
BRANCH   1   4
ATOM      4  C   LIG d   1       8.842   2.184  -3.558  0.00  0.00     0.201 C 
ATOM      5  H   LIG d   1       8.474   1.522  -2.760  0.00  0.00     0.109 H 
ATOM      6  H   LIG d   1       8.619   3.229  -3.299  0.00  0.00     0.109 H 
BRANCH   4   7
ATOM      7  N   LIG d   1      10.289   2.016  -3.703  0.00  0.00    -0.241 N 
ATOM      8  C   LIG d   1      11.064   3.053  -3.718  0.00  0.00     0.171 C 
ATOM      9  H   LIG d   1      12.108   2.955  -4.048  0.00  0.00     0.138 H 
ATOM     10  H   LIG d   1      10.719   1.008  -3.800  0.00  0.00     0.445 HD
BRANCH   8  11
ATOM     11  C   LIG d   1      10.546   4.366  -3.293  0.00  0.00     0.030 A 
ATOM     12  C   LIG d   1       9.929   5.215  -4.222  0.00  0.00    -0.095 A 
ATOM     13  C   LIG d   1       9.446   6.448  -3.811  0.00  0.00    -0.069 A 
ATOM     14  O   LIG d   1       9.808   4.833  -5.518  0.00  0.00    -0.873 OA
ATOM     15  C   LIG d   1       9.570   6.835  -2.491  0.00  0.00    -0.062 A 
ATOM     16  H   LIG d   1       8.971   7.106  -4.523  0.00  0.00     0.061 H 
ATOM     17  C   LIG d   1      10.179   5.999  -1.569  0.00  0.00    -0.061 A 
ATOM     18  H   LIG d   1       9.191   7.796  -2.175  0.00  0.00     0.062 H 
ATOM     19  C   LIG d   1      10.661   4.768  -1.960  0.00  0.00    -0.050 A 
ATOM     20  H   LIG d   1      10.271   6.310  -0.539  0.00  0.00     0.062 H 
ATOM     21  H   LIG d   1      11.131   4.118  -1.237  0.00  0.00     0.062 H 
ENDBRANCH   8  11
ENDBRANCH   4   7
ENDBRANCH   1   4
BRANCH   1  22
ATOM     22  N   LIG d   1       6.890   1.137  -4.596  0.00  0.00    -0.241 N 
ATOM     23  C   LIG d   1       6.677   0.628  -3.426  0.00  0.00     0.175 C 
ATOM     24  H   LIG d   1       7.442   0.715  -2.641  0.00  0.00     0.138 H 
ATOM     25  H   LIG d   1       6.126   1.050  -5.383  0.00  0.00     0.445 HD
BRANCH  23  26
ATOM     26  C   LIG d   1       5.408  -0.068  -3.146  0.00  0.00     0.079 A 
ATOM     27  C   LIG d   1       4.207   0.653  -3.087  0.00  0.00     0.130 A 
ATOM     28  C   LIG d   1       3.020  -0.012  -2.815  0.00  0.00    -0.019 A 
ATOM     29  C   LIG d   1       3.022  -1.377  -2.611  0.00  0.00    -0.058 A 
ATOM     30  H   LIG d   1       2.093   0.541  -2.764  0.00  0.00     0.065 H 
ATOM     31  C   LIG d   1       4.206  -2.093  -2.675  0.00  0.00    -0.061 A 
ATOM     32  H   LIG d   1       2.096  -1.890  -2.399  0.00  0.00     0.062 H 
ATOM     33  C   LIG d   1       5.395  -1.449  -2.943  0.00  0.00    -0.045 A 
ATOM     34  H   LIG d   1       4.197  -3.162  -2.514  0.00  0.00     0.062 H 
ATOM     35  H   LIG d   1       6.315  -2.012  -2.991  0.00  0.00     0.063 H 
BRANCH  27  36
ATOM     36  O   LIG d   1       4.206   1.995  -3.288  0.00  0.00    -0.506 OA
ATOM     37  H   LIG d   1       4.508   2.405  -4.263  0.00  0.00     0.292 HD
ENDBRANCH  27  36
ENDBRANCH  23  26
ENDBRANCH   1  22
TORSDOF 6
ENDMDL
MODEL 9
REMARK VINA RESULT:      -5.6      1.862      6.276
REMARK  6 active torsions:
REMARK  status: ('A' for Active; 'I' for Inactive)
REMARK    1  A    between atoms: C_5  and  C_7 
REMARK    2  A    between atoms: N_8  and  C_9 
REMARK    3  A    between atoms: C_9  and  C_10 
REMARK    4  A    between atoms: C_10  and  N_11 
REMARK    5  A    between atoms: C_12  and  C_13 
REMARK    6  A    between atoms: C_18  and  O_19 
ROOT
ATOM      1  C   LIG d   1       6.667  -1.860  -6.116  0.00  0.00     0.201 C 
ATOM      2  H   LIG d   1       7.470  -1.818  -6.866  0.00  0.00     0.109 H 
ATOM      3  H   LIG d   1       6.576  -2.888  -5.734  0.00  0.00     0.109 H 
ENDROOT
BRANCH   1   4
ATOM      4  C   LIG d   1       6.998  -0.913  -4.961  0.00  0.00     0.201 C 
ATOM      5  H   LIG d   1       6.114  -0.305  -4.721  0.00  0.00     0.109 H 
ATOM      6  H   LIG d   1       7.827  -0.254  -5.255  0.00  0.00     0.109 H 
BRANCH   4   7
ATOM      7  N   LIG d   1       7.387  -1.694  -3.786  0.00  0.00    -0.241 N 
ATOM      8  C   LIG d   1       6.685  -1.624  -2.700  0.00  0.00     0.171 C 
ATOM      9  H   LIG d   1       7.089  -2.022  -1.757  0.00  0.00     0.138 H 
ATOM     10  H   LIG d   1       8.276  -2.341  -3.824  0.00  0.00     0.445 HD
BRANCH   8  11
ATOM     11  C   LIG d   1       5.345  -1.011  -2.727  0.00  0.00     0.030 A 
ATOM     12  C   LIG d   1       4.243  -1.744  -3.187  0.00  0.00    -0.095 A 
ATOM     13  C   LIG d   1       2.988  -1.156  -3.208  0.00  0.00    -0.069 A 
ATOM     14  O   LIG d   1       4.404  -3.022  -3.612  0.00  0.00    -0.873 OA
ATOM     15  C   LIG d   1       2.824   0.145  -2.775  0.00  0.00    -0.062 A 
ATOM     16  H   LIG d   1       2.135  -1.716  -3.562  0.00  0.00     0.061 H 
ATOM     17  C   LIG d   1       3.911   0.874  -2.320  0.00  0.00    -0.061 A 
ATOM     18  H   LIG d   1       1.844   0.599  -2.792  0.00  0.00     0.062 H 
ATOM     19  C   LIG d   1       5.166   0.303  -2.287  0.00  0.00    -0.050 A 
ATOM     20  H   LIG d   1       3.774   1.891  -1.983  0.00  0.00     0.062 H 
ATOM     21  H   LIG d   1       6.009   0.873  -1.927  0.00  0.00     0.062 H 
ENDBRANCH   8  11
ENDBRANCH   4   7
ENDBRANCH   1   4
BRANCH   1  22
ATOM     22  N   LIG d   1       5.401  -1.455  -6.733  0.00  0.00    -0.241 N 
ATOM     23  C   LIG d   1       5.223  -1.611  -8.005  0.00  0.00     0.175 C 
ATOM     24  H   LIG d   1       6.021  -2.047  -8.623  0.00  0.00     0.138 H 
ATOM     25  H   LIG d   1       4.603  -1.018  -6.115  0.00  0.00     0.445 HD
BRANCH  23  26
ATOM     26  C   LIG d   1       3.950  -1.203  -8.626  0.00  0.00     0.079 A 
ATOM     27  C   LIG d   1       3.574   0.148  -8.642  0.00  0.00     0.130 A 
ATOM     28  C   LIG d   1       2.371   0.520  -9.222  0.00  0.00    -0.019 A 
ATOM     29  C   LIG d   1       1.551  -0.436  -9.788  0.00  0.00    -0.058 A 
ATOM     30  H   LIG d   1       2.076   1.559  -9.232  0.00  0.00     0.065 H 
ATOM     31  C   LIG d   1       1.922  -1.771  -9.781  0.00  0.00    -0.061 A 
ATOM     32  H   LIG d   1       0.615  -0.142 -10.239  0.00  0.00     0.062 H 
ATOM     33  C   LIG d   1       3.114  -2.158  -9.208  0.00  0.00    -0.045 A 
ATOM     34  H   LIG d   1       1.273  -2.511 -10.227  0.00  0.00     0.062 H 
ATOM     35  H   LIG d   1       3.398  -3.200  -9.204  0.00  0.00     0.063 H 
BRANCH  27  36
ATOM     36  O   LIG d   1       4.382   1.087  -8.085  0.00  0.00    -0.506 OA
ATOM     37  H   LIG d   1       4.024   1.685  -7.235  0.00  0.00     0.292 HD
ENDBRANCH  27  36
ENDBRANCH  23  26
ENDBRANCH   1  22
TORSDOF 6
ENDMDL
