MODEL 1
REMARK VINA RESULT:      -6.8      0.000      0.000
REMARK  2 active torsions:
REMARK  status: ('A' for Active; 'I' for Inactive)
REMARK    1  A    between atoms: C_1  and  C_2 
REMARK    2  A    between atoms: N_20  and  C_21 
ROOT
ATOM      1  C   LIG d   1       3.829   0.470  -6.843  0.00  0.00     0.009 C 
ATOM      2  H   LIG d   1       4.509   1.243  -6.487  0.00  0.00     0.040 H 
ATOM      3  C   LIG d   1       3.827   0.537  -8.331  0.00  0.00    -0.037 A 
ATOM      4  C   LIG d   1       3.564   1.842  -8.796  0.00  0.00    -0.058 A 
ATOM      5  C   LIG d   1       3.589   2.146 -10.135  0.00  0.00    -0.061 A 
ATOM      6  C   LIG d   1       3.898   1.139 -11.031  0.00  0.00    -0.061 A 
ATOM      7  C   LIG d   1       4.124  -0.127 -10.564  0.00  0.00    -0.058 A 
ATOM      8  C   LIG d   1       4.045  -0.452  -9.184  0.00  0.00    -0.043 A 
ATOM      9  C   LIG d   1       4.144  -1.953  -9.048  0.00  0.00    -0.022 C 
ATOM     10  C   LIG d   1       5.050  -2.444  -7.954  0.00  0.00    -0.008 C 
ATOM     11  C   LIG d   1       4.616  -1.932  -6.584  0.00  0.00     0.024 A 
ATOM     12  C   LIG d   1       4.190  -0.789  -6.140  0.00  0.00    -0.012 A 
ATOM     13  C   LIG d   1       4.082  -0.902  -4.675  0.00  0.00     0.004 A 
ATOM     14  C   LIG d   1       3.753   0.033  -3.693  0.00  0.00    -0.052 A 
ATOM     15  C   LIG d   1       3.739  -0.422  -2.396  0.00  0.00    -0.061 A 
ATOM     16  C   LIG d   1       4.038  -1.737  -2.075  0.00  0.00    -0.060 A 
ATOM     17  C   LIG d   1       4.371  -2.678  -3.035  0.00  0.00    -0.038 A 
ATOM     18  C   LIG d   1       4.394  -2.242  -4.359  0.00  0.00     0.049 A 
ATOM     19  N   LIG d   1       4.682  -2.854  -5.531  0.00  0.00    -0.346 N 
ATOM     20  H   LIG d   1       3.335   2.620  -8.083  0.00  0.00     0.062 H 
ATOM     21  H   LIG d   1       3.374   3.148 -10.478  0.00  0.00     0.062 H 
ATOM     22  H   LIG d   1       3.960   1.350 -12.088  0.00  0.00     0.062 H 
ATOM     23  H   LIG d   1       4.371  -0.906 -11.269  0.00  0.00     0.062 H 
ATOM     24  H   LIG d   1       3.143  -2.346  -8.865  0.00  0.00     0.032 H 
ATOM     25  H   LIG d   1       4.498  -2.359  -9.994  0.00  0.00     0.032 H 
ATOM     26  H   LIG d   1       5.036  -3.534  -7.946  0.00  0.00     0.033 H 
ATOM     27  H   LIG d   1       6.066  -2.105  -8.156  0.00  0.00     0.033 H 
ATOM     28  H   LIG d   1       3.520   1.059  -3.939  0.00  0.00     0.062 H 
ATOM     29  H   LIG d   1       3.489   0.266  -1.601  0.00  0.00     0.062 H 
ATOM     30  H   LIG d   1       4.010  -2.039  -1.039  0.00  0.00     0.062 H 
ATOM     31  H   LIG d   1       4.600  -3.700  -2.770  0.00  0.00     0.064 H 
ENDROOT
BRANCH   1  32
ATOM     32  C   LIG d   1       2.428   0.865  -6.371  0.00  0.00    -0.054 C 
ATOM     33  H   LIG d   1       1.707   0.123  -6.715  0.00  0.00     0.024 H 
ATOM     34  H   LIG d   1       2.410   0.913  -5.283  0.00  0.00     0.024 H 
ATOM     35  H   LIG d   1       2.168   1.841  -6.783  0.00  0.00     0.024 H 
ENDBRANCH   1  32
BRANCH  19  36
ATOM     36  C   LIG d   1       5.011  -4.274  -5.678  0.00  0.00     0.012 C 
ATOM     37  H   LIG d   1       5.200  -4.497  -6.728  0.00  0.00     0.046 H 
ATOM     38  H   LIG d   1       5.903  -4.501  -5.093  0.00  0.00     0.046 H 
ATOM     39  H   LIG d   1       4.179  -4.879  -5.322  0.00  0.00     0.046 H 
ENDBRANCH  19  36
TORSDOF 2
ENDMDL
MODEL 2
REMARK VINA RESULT:      -6.6      1.807      5.534
REMARK  2 active torsions:
REMARK  status: ('A' for Active; 'I' for Inactive)
REMARK    1  A    between atoms: C_1  and  C_2 
REMARK    2  A    between atoms: N_20  and  C_21 
ROOT
ATOM      1  C   LIG d   1       5.033  -1.755  -4.623  0.00  0.00     0.009 C 
ATOM      2  H   LIG d   1       6.116  -1.655  -4.579  0.00  0.00     0.040 H 
ATOM      3  C   LIG d   1       4.455  -0.627  -3.840  0.00  0.00    -0.037 A 
ATOM      4  C   LIG d   1       5.008  -0.551  -2.545  0.00  0.00    -0.058 A 
ATOM      5  C   LIG d   1       4.674   0.461  -1.680  0.00  0.00    -0.061 A 
ATOM      6  C   LIG d   1       3.785   1.428  -2.112  0.00  0.00    -0.061 A 
ATOM      7  C   LIG d   1       3.238   1.323  -3.362  0.00  0.00    -0.058 A 
ATOM      8  C   LIG d   1       3.543   0.248  -4.236  0.00  0.00    -0.043 A 
ATOM      9  C   LIG d   1       2.620   0.334  -5.428  0.00  0.00    -0.022 C 
ATOM     10  C   LIG d   1       3.270   0.122  -6.767  0.00  0.00    -0.008 C 
ATOM     11  C   LIG d   1       3.942  -1.244  -6.861  0.00  0.00     0.024 A 
ATOM     12  C   LIG d   1       4.668  -1.953  -6.051  0.00  0.00    -0.012 A 
ATOM     13  C   LIG d   1       5.138  -3.130  -6.802  0.00  0.00     0.004 A 
ATOM     14  C   LIG d   1       6.002  -4.169  -6.453  0.00  0.00    -0.052 A 
ATOM     15  C   LIG d   1       6.222  -5.129  -7.412  0.00  0.00    -0.061 A 
ATOM     16  C   LIG d   1       5.622  -5.071  -8.661  0.00  0.00    -0.060 A 
ATOM     17  C   LIG d   1       4.766  -4.046  -9.026  0.00  0.00    -0.038 A 
ATOM     18  C   LIG d   1       4.528  -3.058  -8.071  0.00  0.00     0.049 A 
ATOM     19  N   LIG d   1       3.783  -1.928  -8.074  0.00  0.00    -0.346 N 
ATOM     20  H   LIG d   1       5.711  -1.307  -2.227  0.00  0.00     0.062 H 
ATOM     21  H   LIG d   1       5.096   0.500  -0.686  0.00  0.00     0.062 H 
ATOM     22  H   LIG d   1       3.524   2.256  -1.470  0.00  0.00     0.062 H 
ATOM     23  H   LIG d   1       2.549   2.086  -3.694  0.00  0.00     0.062 H 
ATOM     24  H   LIG d   1       1.835  -0.414  -5.308  0.00  0.00     0.032 H 
ATOM     25  H   LIG d   1       2.151   1.318  -5.428  0.00  0.00     0.032 H 
ATOM     26  H   LIG d   1       2.512   0.199  -7.546  0.00  0.00     0.033 H 
ATOM     27  H   LIG d   1       4.019   0.899  -6.924  0.00  0.00     0.033 H 
ATOM     28  H   LIG d   1       6.472  -4.217  -5.482  0.00  0.00     0.062 H 
ATOM     29  H   LIG d   1       6.883  -5.953  -7.188  0.00  0.00     0.062 H 
ATOM     30  H   LIG d   1       5.830  -5.854  -9.374  0.00  0.00     0.062 H 
ATOM     31  H   LIG d   1       4.305  -4.015 -10.002  0.00  0.00     0.064 H 
ENDROOT
BRANCH   1  32
ATOM     32  C   LIG d   1       4.678  -3.046  -3.883  0.00  0.00    -0.054 C 
ATOM     33  H   LIG d   1       3.940  -2.830  -3.110  0.00  0.00     0.024 H 
ATOM     34  H   LIG d   1       4.266  -3.768  -4.587  0.00  0.00     0.024 H 
ATOM     35  H   LIG d   1       5.576  -3.458  -3.422  0.00  0.00     0.024 H 
ENDBRANCH   1  32
BRANCH  19  36
ATOM     36  C   LIG d   1       2.934  -1.484  -9.182  0.00  0.00     0.012 C 
ATOM     37  H   LIG d   1       1.896  -1.736  -8.969  0.00  0.00     0.046 H 
ATOM     38  H   LIG d   1       3.028  -0.404  -9.301  0.00  0.00     0.046 H 
ATOM     39  H   LIG d   1       3.247  -1.979 -10.101  0.00  0.00     0.046 H 
ENDBRANCH  19  36
TORSDOF 2
ENDMDL
MODEL 3
REMARK VINA RESULT:      -6.6      1.912      5.963
REMARK  2 active torsions:
REMARK  status: ('A' for Active; 'I' for Inactive)
REMARK    1  A    between atoms: C_1  and  C_2 
REMARK    2  A    between atoms: N_20  and  C_21 
ROOT
ATOM      1  C   LIG d   1       3.619  -0.517  -5.848  0.00  0.00     0.009 C 
ATOM      2  H   LIG d   1       3.077  -1.407  -6.166  0.00  0.00     0.040 H 
ATOM      3  C   LIG d   1       4.127  -0.780  -4.473  0.00  0.00    -0.037 A 
ATOM      4  C   LIG d   1       3.099  -1.210  -3.608  0.00  0.00    -0.058 A 
ATOM      5  C   LIG d   1       3.359  -1.581  -2.312  0.00  0.00    -0.061 A 
ATOM      6  C   LIG d   1       4.668  -1.540  -1.868  0.00  0.00    -0.061 A 
ATOM      7  C   LIG d   1       5.648  -1.094  -2.712  0.00  0.00    -0.058 A 
ATOM      8  C   LIG d   1       5.371  -0.661  -4.035  0.00  0.00    -0.043 A 
ATOM      9  C   LIG d   1       6.629  -0.049  -4.603  0.00  0.00    -0.022 C 
ATOM     10  C   LIG d   1       6.964  -0.452  -6.012  0.00  0.00    -0.008 C 
ATOM     11  C   LIG d   1       5.849  -0.085  -6.987  0.00  0.00     0.024 A 
ATOM     12  C   LIG d   1       4.553  -0.156  -6.947  0.00  0.00    -0.012 A 
ATOM     13  C   LIG d   1       4.053   0.221  -8.280  0.00  0.00     0.004 A 
ATOM     14  C   LIG d   1       2.765   0.244  -8.816  0.00  0.00    -0.052 A 
ATOM     15  C   LIG d   1       2.653   0.665 -10.120  0.00  0.00    -0.061 A 
ATOM     16  C   LIG d   1       3.757   1.046 -10.867  0.00  0.00    -0.060 A 
ATOM     17  C   LIG d   1       5.043   1.026 -10.353  0.00  0.00    -0.038 A 
ATOM     18  C   LIG d   1       5.184   0.601  -9.033  0.00  0.00     0.049 A 
ATOM     19  N   LIG d   1       6.255   0.439  -8.222  0.00  0.00    -0.346 N 
ATOM     20  H   LIG d   1       2.083  -1.248  -3.974  0.00  0.00     0.062 H 
ATOM     21  H   LIG d   1       2.560  -1.897  -1.657  0.00  0.00     0.062 H 
ATOM     22  H   LIG d   1       4.914  -1.855  -0.864  0.00  0.00     0.062 H 
ATOM     23  H   LIG d   1       6.668  -1.072  -2.359  0.00  0.00     0.062 H 
ATOM     24  H   LIG d   1       6.526   1.036  -4.573  0.00  0.00     0.032 H 
ATOM     25  H   LIG d   1       7.464  -0.327  -3.961  0.00  0.00     0.032 H 
ATOM     26  H   LIG d   1       7.881   0.053  -6.317  0.00  0.00     0.033 H 
ATOM     27  H   LIG d   1       7.126  -1.529  -6.045  0.00  0.00     0.033 H 
ATOM     28  H   LIG d   1       1.902  -0.053  -8.238  0.00  0.00     0.062 H 
ATOM     29  H   LIG d   1       1.675   0.700 -10.578  0.00  0.00     0.062 H 
ATOM     30  H   LIG d   1       3.609   1.370 -11.886  0.00  0.00     0.062 H 
ATOM     31  H   LIG d   1       5.894   1.327 -10.946  0.00  0.00     0.064 H 
ENDROOT
BRANCH   1  32
ATOM     32  C   LIG d   1       2.590   0.610  -5.741  0.00  0.00    -0.054 C 
ATOM     33  H   LIG d   1       3.040   1.545  -6.076  0.00  0.00     0.024 H 
ATOM     34  H   LIG d   1       1.728   0.377  -6.366  0.00  0.00     0.024 H 
ATOM     35  H   LIG d   1       2.270   0.712  -4.704  0.00  0.00     0.024 H 
ENDBRANCH   1  32
BRANCH  19  36
ATOM     36  C   LIG d   1       7.638   0.766  -8.580  0.00  0.00     0.012 C 
ATOM     37  H   LIG d   1       8.287   0.595  -7.721  0.00  0.00     0.046 H 
ATOM     38  H   LIG d   1       7.957   0.132  -9.408  0.00  0.00     0.046 H 
ATOM     39  H   LIG d   1       7.698   1.811  -8.879  0.00  0.00     0.046 H 
ENDBRANCH  19  36
TORSDOF 2
ENDMDL
MODEL 4
REMARK VINA RESULT:      -6.5      2.184      5.024
REMARK  2 active torsions:
REMARK  status: ('A' for Active; 'I' for Inactive)
REMARK    1  A    between atoms: C_1  and  C_2 
REMARK    2  A    between atoms: N_20  and  C_21 
ROOT
ATOM      1  C   LIG d   1       6.201  -3.020  -4.403  0.00  0.00     0.009 C 
ATOM      2  H   LIG d   1       5.764  -3.653  -3.633  0.00  0.00     0.040 H 
ATOM      3  C   LIG d   1       6.735  -3.921  -5.463  0.00  0.00    -0.037 A 
ATOM      4  C   LIG d   1       7.587  -4.909  -4.929  0.00  0.00    -0.058 A 
ATOM      5  C   LIG d   1       8.130  -5.892  -5.719  0.00  0.00    -0.061 A 
ATOM      6  C   LIG d   1       7.809  -5.906  -7.065  0.00  0.00    -0.061 A 
ATOM      7  C   LIG d   1       7.002  -4.923  -7.570  0.00  0.00    -0.058 A 
ATOM      8  C   LIG d   1       6.484  -3.876  -6.762  0.00  0.00    -0.043 A 
ATOM      9  C   LIG d   1       5.817  -2.869  -7.669  0.00  0.00    -0.022 C 
ATOM     10  C   LIG d   1       4.481  -2.364  -7.202  0.00  0.00    -0.008 C 
ATOM     11  C   LIG d   1       4.574  -1.694  -5.835  0.00  0.00     0.024 A 
ATOM     12  C   LIG d   1       5.199  -1.972  -4.732  0.00  0.00    -0.012 A 
ATOM     13  C   LIG d   1       4.753  -0.999  -3.719  0.00  0.00     0.004 A 
ATOM     14  C   LIG d   1       5.037  -0.880  -2.358  0.00  0.00    -0.052 A 
ATOM     15  C   LIG d   1       4.444   0.171  -1.699  0.00  0.00    -0.061 A 
ATOM     16  C   LIG d   1       3.607   1.066  -2.348  0.00  0.00    -0.060 A 
ATOM     17  C   LIG d   1       3.310   0.960  -3.696  0.00  0.00    -0.038 A 
ATOM     18  C   LIG d   1       3.897  -0.099  -4.387  0.00  0.00     0.049 A 
ATOM     19  N   LIG d   1       3.828  -0.518  -5.672  0.00  0.00    -0.346 N 
ATOM     20  H   LIG d   1       7.820  -4.892  -3.874  0.00  0.00     0.062 H 
ATOM     21  H   LIG d   1       8.791  -6.637  -5.300  0.00  0.00     0.062 H 
ATOM     22  H   LIG d   1       8.191  -6.683  -7.709  0.00  0.00     0.062 H 
ATOM     23  H   LIG d   1       6.750  -4.944  -8.619  0.00  0.00     0.062 H 
ATOM     24  H   LIG d   1       6.486  -2.014  -7.779  0.00  0.00     0.032 H 
ATOM     25  H   LIG d   1       5.687  -3.325  -8.650  0.00  0.00     0.032 H 
ATOM     26  H   LIG d   1       4.102  -1.643  -7.925  0.00  0.00     0.033 H 
ATOM     27  H   LIG d   1       3.787  -3.202  -7.141  0.00  0.00     0.033 H 
ATOM     28  H   LIG d   1       5.689  -1.575  -1.849  0.00  0.00     0.062 H 
ATOM     29  H   LIG d   1       4.636   0.304  -0.645  0.00  0.00     0.062 H 
ATOM     30  H   LIG d   1       3.171   1.874  -1.780  0.00  0.00     0.062 H 
ATOM     31  H   LIG d   1       2.656   1.666  -4.188  0.00  0.00     0.064 H 
ENDROOT
BRANCH   1  32
ATOM     32  C   LIG d   1       7.400  -2.315  -3.765  0.00  0.00    -0.054 C 
ATOM     33  H   LIG d   1       8.266  -2.405  -4.422  0.00  0.00     0.024 H 
ATOM     34  H   LIG d   1       7.165  -1.261  -3.616  0.00  0.00     0.024 H 
ATOM     35  H   LIG d   1       7.624  -2.777  -2.804  0.00  0.00     0.024 H 
ENDBRANCH   1  32
BRANCH  19  36
ATOM     36  C   LIG d   1       3.087   0.159  -6.738  0.00  0.00     0.012 C 
ATOM     37  H   LIG d   1       2.843   1.174  -6.425  0.00  0.00     0.046 H 
ATOM     38  H   LIG d   1       3.699   0.195  -7.640  0.00  0.00     0.046 H 
ATOM     39  H   LIG d   1       2.167  -0.388  -6.945  0.00  0.00     0.046 H 
ENDBRANCH  19  36
TORSDOF 2
ENDMDL
MODEL 5
REMARK VINA RESULT:      -5.9      1.873      3.519
REMARK  2 active torsions:
REMARK  status: ('A' for Active; 'I' for Inactive)
REMARK    1  A    between atoms: C_1  and  C_2 
REMARK    2  A    between atoms: N_20  and  C_21 
ROOT
ATOM      1  C   LIG d   1       4.447  -2.281  -7.664  0.00  0.00     0.009 C 
ATOM      2  H   LIG d   1       4.144  -3.319  -7.539  0.00  0.00     0.040 H 
ATOM      3  C   LIG d   1       3.433  -1.629  -8.539  0.00  0.00    -0.037 A 
ATOM      4  C   LIG d   1       3.229  -2.352  -9.732  0.00  0.00    -0.058 A 
ATOM      5  C   LIG d   1       2.282  -1.971 -10.650  0.00  0.00    -0.061 A 
ATOM      6  C   LIG d   1       1.510  -0.858 -10.373  0.00  0.00    -0.061 A 
ATOM      7  C   LIG d   1       1.740  -0.153  -9.223  0.00  0.00    -0.058 A 
ATOM      8  C   LIG d   1       2.755  -0.517  -8.300  0.00  0.00    -0.043 A 
ATOM      9  C   LIG d   1       2.869   0.580  -7.268  0.00  0.00    -0.022 C 
ATOM     10  C   LIG d   1       2.979   0.117  -5.842  0.00  0.00    -0.008 C 
ATOM     11  C   LIG d   1       4.196  -0.779  -5.630  0.00  0.00     0.024 A 
ATOM     12  C   LIG d   1       4.738  -1.743  -6.308  0.00  0.00    -0.012 A 
ATOM     13  C   LIG d   1       5.820  -2.305  -5.481  0.00  0.00     0.004 A 
ATOM     14  C   LIG d   1       6.670  -3.394  -5.680  0.00  0.00    -0.052 A 
ATOM     15  C   LIG d   1       7.589  -3.640  -4.688  0.00  0.00    -0.061 A 
ATOM     16  C   LIG d   1       7.670  -2.853  -3.549  0.00  0.00    -0.060 A 
ATOM     17  C   LIG d   1       6.833  -1.772  -3.333  0.00  0.00    -0.038 A 
ATOM     18  C   LIG d   1       5.890  -1.502  -4.323  0.00  0.00     0.049 A 
ATOM     19  N   LIG d   1       4.920  -0.566  -4.449  0.00  0.00    -0.346 N 
ATOM     20  H   LIG d   1       3.833  -3.226  -9.929  0.00  0.00     0.062 H 
ATOM     21  H   LIG d   1       2.144  -2.527 -11.566  0.00  0.00     0.062 H 
ATOM     22  H   LIG d   1       0.733  -0.548 -11.056  0.00  0.00     0.062 H 
ATOM     23  H   LIG d   1       1.128   0.711  -9.010  0.00  0.00     0.062 H 
ATOM     24  H   LIG d   1       3.749   1.180  -7.502  0.00  0.00     0.032 H 
ATOM     25  H   LIG d   1       1.991   1.221  -7.352  0.00  0.00     0.032 H 
ATOM     26  H   LIG d   1       3.062   0.988  -5.192  0.00  0.00     0.033 H 
ATOM     27  H   LIG d   1       2.079  -0.437  -5.578  0.00  0.00     0.033 H 
ATOM     28  H   LIG d   1       6.610  -4.010  -6.565  0.00  0.00     0.062 H 
ATOM     29  H   LIG d   1       8.269  -4.473  -4.797  0.00  0.00     0.062 H 
ATOM     30  H   LIG d   1       8.414  -3.093  -2.804  0.00  0.00     0.062 H 
ATOM     31  H   LIG d   1       6.908  -1.167  -2.441  0.00  0.00     0.064 H 
ENDROOT
BRANCH   1  32
ATOM     32  C   LIG d   1       5.767  -2.297  -8.437  0.00  0.00    -0.054 C 
ATOM     33  H   LIG d   1       6.573  -1.955  -7.787  0.00  0.00     0.024 H 
ATOM     34  H   LIG d   1       5.978  -3.312  -8.775  0.00  0.00     0.024 H 
ATOM     35  H   LIG d   1       5.691  -1.635  -9.299  0.00  0.00     0.024 H 
ENDBRANCH   1  32
BRANCH  19  36
ATOM     36  C   LIG d   1       4.667   0.514  -3.493  0.00  0.00     0.012 C 
ATOM     37  H   LIG d   1       3.610   0.527  -3.229  0.00  0.00     0.046 H 
ATOM     38  H   LIG d   1       5.263   0.350  -2.594  0.00  0.00     0.046 H 
ATOM     39  H   LIG d   1       4.942   1.469  -3.940  0.00  0.00     0.046 H 
ENDBRANCH  19  36
TORSDOF 2
ENDMDL
MODEL 6
REMARK VINA RESULT:      -5.8      1.880      5.541
REMARK  2 active torsions:
REMARK  status: ('A' for Active; 'I' for Inactive)
REMARK    1  A    between atoms: C_1  and  C_2 
REMARK    2  A    between atoms: N_20  and  C_21 
ROOT
ATOM      1  C   LIG d   1       2.792  -0.237  -7.071  0.00  0.00     0.009 C 
ATOM      2  H   LIG d   1       1.756  -0.513  -6.880  0.00  0.00     0.040 H 
ATOM      3  C   LIG d   1       3.465  -0.114  -5.748  0.00  0.00    -0.037 A 
ATOM      4  C   LIG d   1       2.757   0.739  -4.877  0.00  0.00    -0.058 A 
ATOM      5  C   LIG d   1       3.159   0.935  -3.579  0.00  0.00    -0.061 A 
ATOM      6  C   LIG d   1       4.279   0.259  -3.129  0.00  0.00    -0.061 A 
ATOM      7  C   LIG d   1       4.969  -0.544  -3.996  0.00  0.00    -0.058 A 
ATOM      8  C   LIG d   1       4.583  -0.705  -5.353  0.00  0.00    -0.043 A 
ATOM      9  C   LIG d   1       5.667  -1.480  -6.062  0.00  0.00    -0.022 C 
ATOM     10  C   LIG d   1       5.188  -2.575  -6.973  0.00  0.00    -0.008 C 
ATOM     11  C   LIG d   1       4.276  -2.040  -8.072  0.00  0.00     0.024 A 
ATOM     12  C   LIG d   1       3.312  -1.171  -8.104  0.00  0.00    -0.012 A 
ATOM     13  C   LIG d   1       2.728  -1.215  -9.456  0.00  0.00     0.004 A 
ATOM     14  C   LIG d   1       1.631  -0.558 -10.015  0.00  0.00    -0.052 A 
ATOM     15  C   LIG d   1       1.363  -0.831 -11.335  0.00  0.00    -0.061 A 
ATOM     16  C   LIG d   1       2.137  -1.711 -12.076  0.00  0.00    -0.060 A 
ATOM     17  C   LIG d   1       3.226  -2.375 -11.537  0.00  0.00    -0.038 A 
ATOM     18  C   LIG d   1       3.518  -2.118 -10.198  0.00  0.00     0.049 A 
ATOM     19  N   LIG d   1       4.467  -2.580  -9.351  0.00  0.00    -0.346 N 
ATOM     20  H   LIG d   1       1.878   1.251  -5.240  0.00  0.00     0.062 H 
ATOM     21  H   LIG d   1       2.614   1.601  -2.926  0.00  0.00     0.062 H 
ATOM     22  H   LIG d   1       4.605   0.363  -2.105  0.00  0.00     0.062 H 
ATOM     23  H   LIG d   1       5.837  -1.074  -3.636  0.00  0.00     0.062 H 
ATOM     24  H   LIG d   1       6.259  -0.779  -6.652  0.00  0.00     0.032 H 
ATOM     25  H   LIG d   1       6.319  -1.922  -5.309  0.00  0.00     0.032 H 
ATOM     26  H   LIG d   1       6.051  -3.057  -7.432  0.00  0.00     0.033 H 
ATOM     27  H   LIG d   1       4.643  -3.313  -6.385  0.00  0.00     0.033 H 
ATOM     28  H   LIG d   1       1.025   0.128  -9.442  0.00  0.00     0.062 H 
ATOM     29  H   LIG d   1       0.524  -0.345 -11.812  0.00  0.00     0.062 H 
ATOM     30  H   LIG d   1       1.881  -1.886 -13.110  0.00  0.00     0.062 H 
ATOM     31  H   LIG d   1       3.821  -3.058 -12.126  0.00  0.00     0.064 H 
ENDROOT
BRANCH   1  32
ATOM     32  C   LIG d   1       2.767   1.160  -7.696  0.00  0.00    -0.054 C 
ATOM     33  H   LIG d   1       3.585   1.754  -7.288  0.00  0.00     0.024 H 
ATOM     34  H   LIG d   1       2.882   1.077  -8.776  0.00  0.00     0.024 H 
ATOM     35  H   LIG d   1       1.818   1.643  -7.466  0.00  0.00     0.024 H 
ENDBRANCH   1  32
BRANCH  19  36
ATOM     36  C   LIG d   1       5.540  -3.507  -9.718  0.00  0.00     0.012 C 
ATOM     37  H   LIG d   1       6.330  -2.964 -10.236  0.00  0.00     0.046 H 
ATOM     38  H   LIG d   1       5.947  -3.967  -8.816  0.00  0.00     0.046 H 
ATOM     39  H   LIG d   1       5.143  -4.283 -10.373  0.00  0.00     0.046 H 
ENDBRANCH  19  36
TORSDOF 2
ENDMDL
MODEL 7
REMARK VINA RESULT:      -5.7      3.494      6.681
REMARK  2 active torsions:
REMARK  status: ('A' for Active; 'I' for Inactive)
REMARK    1  A    between atoms: C_1  and  C_2 
REMARK    2  A    between atoms: N_20  and  C_21 
ROOT
ATOM      1  C   LIG d   1       5.920  -0.778  -5.770  0.00  0.00     0.009 C 
ATOM      2  H   LIG d   1       6.342  -1.751  -6.018  0.00  0.00     0.040 H 
ATOM      3  C   LIG d   1       5.355  -0.882  -4.396  0.00  0.00    -0.037 A 
ATOM      4  C   LIG d   1       4.476  -1.978  -4.272  0.00  0.00    -0.058 A 
ATOM      5  C   LIG d   1       3.900  -2.305  -3.070  0.00  0.00    -0.061 A 
ATOM      6  C   LIG d   1       4.214  -1.540  -1.962  0.00  0.00    -0.061 A 
ATOM      7  C   LIG d   1       5.047  -0.465  -2.105  0.00  0.00    -0.058 A 
ATOM      8  C   LIG d   1       5.600  -0.095  -3.360  0.00  0.00    -0.043 A 
ATOM      9  C   LIG d   1       6.292   1.238  -3.195  0.00  0.00    -0.022 C 
ATOM     10  C   LIG d   1       7.645   1.347  -3.839  0.00  0.00    -0.008 C 
ATOM     11  C   LIG d   1       7.579   1.098  -5.343  0.00  0.00     0.024 A 
ATOM     12  C   LIG d   1       6.952   0.244  -6.091  0.00  0.00    -0.012 A 
ATOM     13  C   LIG d   1       7.431   0.435  -7.471  0.00  0.00     0.004 A 
ATOM     14  C   LIG d   1       7.157  -0.255  -8.653  0.00  0.00    -0.052 A 
ATOM     15  C   LIG d   1       7.784   0.204  -9.787  0.00  0.00    -0.061 A 
ATOM     16  C   LIG d   1       8.645   1.291  -9.763  0.00  0.00    -0.060 A 
ATOM     17  C   LIG d   1       8.932   1.984  -8.599  0.00  0.00    -0.038 A 
ATOM     18  C   LIG d   1       8.310   1.537  -7.434  0.00  0.00     0.049 A 
ATOM     19  N   LIG d   1       8.360   1.943  -6.143  0.00  0.00    -0.346 N 
ATOM     20  H   LIG d   1       4.249  -2.573  -5.145  0.00  0.00     0.062 H 
ATOM     21  H   LIG d   1       3.219  -3.140  -2.992  0.00  0.00     0.062 H 
ATOM     22  H   LIG d   1       3.806  -1.789  -0.993  0.00  0.00     0.062 H 
ATOM     23  H   LIG d   1       5.293   0.124  -1.234  0.00  0.00     0.062 H 
ATOM     24  H   LIG d   1       5.649   2.011  -3.616  0.00  0.00     0.032 H 
ATOM     25  H   LIG d   1       6.404   1.435  -2.129  0.00  0.00     0.032 H 
ATOM     26  H   LIG d   1       8.042   2.347  -3.662  0.00  0.00     0.033 H 
ATOM     27  H   LIG d   1       8.314   0.616  -3.386  0.00  0.00     0.033 H 
ATOM     28  H   LIG d   1       6.488  -1.102  -8.676  0.00  0.00     0.062 H 
ATOM     29  H   LIG d   1       7.602  -0.298 -10.726  0.00  0.00     0.062 H 
ATOM     30  H   LIG d   1       9.108   1.608 -10.685  0.00  0.00     0.062 H 
ATOM     31  H   LIG d   1       9.604   2.830  -8.595  0.00  0.00     0.064 H 
ENDROOT
BRANCH   1  32
ATOM     32  C   LIG d   1       4.746  -0.551  -6.725  0.00  0.00    -0.054 C 
ATOM     33  H   LIG d   1       4.075   0.199  -6.303  0.00  0.00     0.024 H 
ATOM     34  H   LIG d   1       5.121  -0.203  -7.687  0.00  0.00     0.024 H 
ATOM     35  H   LIG d   1       4.204  -1.486  -6.862  0.00  0.00     0.024 H 
ENDBRANCH   1  32
BRANCH  19  36
ATOM     36  C   LIG d   1       9.117   3.098  -5.655  0.00  0.00     0.012 C 
ATOM     37  H   LIG d   1      10.177   2.951  -5.857  0.00  0.00     0.046 H 
ATOM     38  H   LIG d   1       8.772   4.000  -6.164  0.00  0.00     0.046 H 
ATOM     39  H   LIG d   1       8.962   3.207  -4.582  0.00  0.00     0.046 H 
ENDBRANCH  19  36
TORSDOF 2
ENDMDL
MODEL 8
REMARK VINA RESULT:      -5.7     10.152     12.595
REMARK  2 active torsions:
REMARK  status: ('A' for Active; 'I' for Inactive)
REMARK    1  A    between atoms: C_1  and  C_2 
REMARK    2  A    between atoms: N_20  and  C_21 
ROOT
ATOM      1  C   LIG d   1      10.586   6.563  -3.127  0.00  0.00     0.009 C 
ATOM      2  H   LIG d   1      11.538   6.171  -3.483  0.00  0.00     0.040 H 
ATOM      3  C   LIG d   1      10.709   6.746  -1.654  0.00  0.00    -0.037 A 
ATOM      4  C   LIG d   1      11.162   5.572  -1.016  0.00  0.00    -0.058 A 
ATOM      5  C   LIG d   1      11.418   5.540   0.332  0.00  0.00    -0.061 A 
ATOM      6  C   LIG d   1      11.237   6.700   1.062  0.00  0.00    -0.061 A 
ATOM      7  C   LIG d   1      10.772   7.822   0.432  0.00  0.00    -0.058 A 
ATOM      8  C   LIG d   1      10.457   7.840  -0.952  0.00  0.00    -0.043 A 
ATOM      9  C   LIG d   1       9.784   9.155  -1.264  0.00  0.00    -0.022 C 
ATOM     10  C   LIG d   1      10.255   9.840  -2.517  0.00  0.00    -0.008 C 
ATOM     11  C   LIG d   1      10.051   8.968  -3.751  0.00  0.00     0.024 A 
ATOM     12  C   LIG d   1      10.226   7.707  -4.006  0.00  0.00    -0.012 A 
ATOM     13  C   LIG d   1       9.986   7.514  -5.447  0.00  0.00     0.004 A 
ATOM     14  C   LIG d   1      10.108   6.392  -6.267  0.00  0.00    -0.052 A 
ATOM     15  C   LIG d   1       9.789   6.566  -7.593  0.00  0.00    -0.061 A 
ATOM     16  C   LIG d   1       9.371   7.789  -8.094  0.00  0.00    -0.060 A 
ATOM     17  C   LIG d   1       9.248   8.915  -7.296  0.00  0.00    -0.038 A 
ATOM     18  C   LIG d   1       9.567   8.765  -5.948  0.00  0.00     0.049 A 
ATOM     19  N   LIG d   1       9.583   9.621  -4.899  0.00  0.00    -0.346 N 
ATOM     20  H   LIG d   1      11.309   4.677  -1.603  0.00  0.00     0.062 H 
ATOM     21  H   LIG d   1      11.753   4.630   0.809  0.00  0.00     0.062 H 
ATOM     22  H   LIG d   1      11.461   6.720   2.119  0.00  0.00     0.062 H 
ATOM     23  H   LIG d   1      10.640   8.726   1.008  0.00  0.00     0.062 H 
ATOM     24  H   LIG d   1       8.712   8.978  -1.354  0.00  0.00     0.032 H 
ATOM     25  H   LIG d   1       9.946   9.830  -0.424  0.00  0.00     0.032 H 
ATOM     26  H   LIG d   1       9.698  10.769  -2.643  0.00  0.00     0.033 H 
ATOM     27  H   LIG d   1      11.314  10.074  -2.417  0.00  0.00     0.033 H 
ATOM     28  H   LIG d   1      10.434   5.438  -5.881  0.00  0.00     0.062 H 
ATOM     29  H   LIG d   1       9.868   5.725  -8.266  0.00  0.00     0.062 H 
ATOM     30  H   LIG d   1       9.132   7.867  -9.144  0.00  0.00     0.062 H 
ATOM     31  H   LIG d   1       8.920   9.861  -7.700  0.00  0.00     0.064 H 
ENDROOT
BRANCH   1  32
ATOM     32  C   LIG d   1       9.543   5.468  -3.360  0.00  0.00    -0.054 C 
ATOM     33  H   LIG d   1       9.932   4.514  -3.002  0.00  0.00     0.024 H 
ATOM     34  H   LIG d   1       8.630   5.715  -2.819  0.00  0.00     0.024 H 
ATOM     35  H   LIG d   1       9.326   5.395  -4.426  0.00  0.00     0.024 H 
ENDBRANCH   1  32
BRANCH  19  36
ATOM     36  C   LIG d   1       9.168  11.025  -4.954  0.00  0.00     0.012 C 
ATOM     37  H   LIG d   1       9.044  11.409  -3.942  0.00  0.00     0.046 H 
ATOM     38  H   LIG d   1       9.930  11.608  -5.473  0.00  0.00     0.046 H 
ATOM     39  H   LIG d   1       8.223  11.105  -5.492  0.00  0.00     0.046 H 
ENDBRANCH  19  36
TORSDOF 2
ENDMDL
MODEL 9
REMARK VINA RESULT:      -5.7      9.211     10.535
REMARK  2 active torsions:
REMARK  status: ('A' for Active; 'I' for Inactive)
REMARK    1  A    between atoms: C_1  and  C_2 
REMARK    2  A    between atoms: N_20  and  C_21 
ROOT
ATOM      1  C   LIG d   1       9.961   4.646  -2.509  0.00  0.00     0.009 C 
ATOM      2  H   LIG d   1       9.206   4.383  -1.769  0.00  0.00     0.040 H 
ATOM      3  C   LIG d   1       9.660   3.864  -3.741  0.00  0.00    -0.037 A 
ATOM      4  C   LIG d   1       9.528   2.487  -3.468  0.00  0.00    -0.058 A 
ATOM      5  C   LIG d   1       9.176   1.591  -4.448  0.00  0.00    -0.061 A 
ATOM      6  C   LIG d   1       8.934   2.073  -5.721  0.00  0.00    -0.061 A 
ATOM      7  C   LIG d   1       9.093   3.408  -5.974  0.00  0.00    -0.058 A 
ATOM      8  C   LIG d   1       9.509   4.325  -4.973  0.00  0.00    -0.043 A 
ATOM      9  C   LIG d   1       9.778   5.655  -5.637  0.00  0.00    -0.022 C 
ATOM     10  C   LIG d   1       9.235   6.858  -4.918  0.00  0.00    -0.008 C 
ATOM     11  C   LIG d   1       9.799   6.978  -3.506  0.00  0.00     0.024 A 
ATOM     12  C   LIG d   1      10.034   6.131  -2.551  0.00  0.00    -0.012 A 
ATOM     13  C   LIG d   1      10.447   6.907  -1.369  0.00  0.00     0.004 A 
ATOM     14  C   LIG d   1      10.741   6.520  -0.061  0.00  0.00    -0.052 A 
ATOM     15  C   LIG d   1      11.106   7.523   0.806  0.00  0.00    -0.061 A 
ATOM     16  C   LIG d   1      11.179   8.849   0.406  0.00  0.00    -0.060 A 
ATOM     17  C   LIG d   1      10.887   9.251  -0.886  0.00  0.00    -0.038 A 
ATOM     18  C   LIG d   1      10.511   8.254  -1.784  0.00  0.00     0.049 A 
ATOM     19  N   LIG d   1      10.147   8.270  -3.088  0.00  0.00    -0.346 N 
ATOM     20  H   LIG d   1       9.709   2.128  -2.466  0.00  0.00     0.062 H 
ATOM     21  H   LIG d   1       9.091   0.537  -4.227  0.00  0.00     0.062 H 
ATOM     22  H   LIG d   1       8.624   1.402  -6.508  0.00  0.00     0.062 H 
ATOM     23  H   LIG d   1       8.896   3.777  -6.969  0.00  0.00     0.062 H 
ATOM     24  H   LIG d   1      10.857   5.775  -5.736  0.00  0.00     0.032 H 
ATOM     25  H   LIG d   1       9.348   5.631  -6.637  0.00  0.00     0.032 H 
ATOM     26  H   LIG d   1       9.494   7.754  -5.481  0.00  0.00     0.033 H 
ATOM     27  H   LIG d   1       8.149   6.778  -4.862  0.00  0.00     0.033 H 
ATOM     28  H   LIG d   1      10.685   5.489   0.255  0.00  0.00     0.062 H 
ATOM     29  H   LIG d   1      11.344   7.272   1.829  0.00  0.00     0.062 H 
ATOM     30  H   LIG d   1      11.474   9.594   1.129  0.00  0.00     0.062 H 
ATOM     31  H   LIG d   1      10.949  10.288  -1.183  0.00  0.00     0.064 H 
ENDROOT
BRANCH   1  32
ATOM     32  C   LIG d   1      11.301   4.141  -1.971  0.00  0.00    -0.054 C 
ATOM     33  H   LIG d   1      11.875   4.982  -1.580  0.00  0.00     0.024 H 
ATOM     34  H   LIG d   1      11.124   3.420  -1.174  0.00  0.00     0.024 H 
ATOM     35  H   LIG d   1      11.859   3.664  -2.776  0.00  0.00     0.024 H 
ENDBRANCH   1  32
BRANCH  19  36
ATOM     36  C   LIG d   1      10.123   9.462  -3.938  0.00  0.00     0.012 C 
ATOM     37  H   LIG d   1      10.824   9.335  -4.763  0.00  0.00     0.046 H 
ATOM     38  H   LIG d   1       9.117   9.603  -4.336  0.00  0.00     0.046 H 
ATOM     39  H   LIG d   1      10.406  10.334  -3.350  0.00  0.00     0.046 H 
ENDBRANCH  19  36
TORSDOF 2
ENDMDL
MODEL 10
REMARK VINA RESULT:      -5.6      9.322     11.470
REMARK  2 active torsions:
REMARK  status: ('A' for Active; 'I' for Inactive)
REMARK    1  A    between atoms: C_1  and  C_2 
REMARK    2  A    between atoms: N_20  and  C_21 
ROOT
ATOM      1  C   LIG d   1      10.196   7.573  -2.879  0.00  0.00     0.009 C 
ATOM      2  H   LIG d   1       9.257   8.112  -2.763  0.00  0.00     0.040 H 
ATOM      3  C   LIG d   1      10.587   7.077  -1.530  0.00  0.00    -0.037 A 
ATOM      4  C   LIG d   1      10.592   8.113  -0.572  0.00  0.00    -0.058 A 
ATOM      5  C   LIG d   1      10.850   7.865   0.753  0.00  0.00    -0.061 A 
ATOM      6  C   LIG d   1      11.093   6.559   1.141  0.00  0.00    -0.061 A 
ATOM      7  C   LIG d   1      11.110   5.572   0.195  0.00  0.00    -0.058 A 
ATOM      8  C   LIG d   1      10.895   5.837  -1.183  0.00  0.00    -0.043 A 
ATOM      9  C   LIG d   1      11.187   4.573  -1.957  0.00  0.00    -0.022 C 
ATOM     10  C   LIG d   1      10.190   4.226  -3.027  0.00  0.00    -0.008 C 
ATOM     11  C   LIG d   1      10.071   5.332  -4.071  0.00  0.00     0.024 A 
ATOM     12  C   LIG d   1      10.022   6.628  -4.014  0.00  0.00    -0.012 A 
ATOM     13  C   LIG d   1       9.753   7.116  -5.378  0.00  0.00     0.004 A 
ATOM     14  C   LIG d   1       9.525   8.400  -5.876  0.00  0.00    -0.052 A 
ATOM     15  C   LIG d   1       9.309   8.500  -7.230  0.00  0.00    -0.061 A 
ATOM     16  C   LIG d   1       9.314   7.389  -8.059  0.00  0.00    -0.060 A 
ATOM     17  C   LIG d   1       9.533   6.107  -7.582  0.00  0.00    -0.038 A 
ATOM     18  C   LIG d   1       9.753   5.978  -6.211  0.00  0.00     0.049 A 
ATOM     19  N   LIG d   1       9.980   4.914  -5.406  0.00  0.00    -0.346 N 
ATOM     20  H   LIG d   1      10.389   9.125  -0.890  0.00  0.00     0.062 H 
ATOM     21  H   LIG d   1      10.863   8.669   1.474  0.00  0.00     0.062 H 
ATOM     22  H   LIG d   1      11.267   6.323   2.180  0.00  0.00     0.062 H 
ATOM     23  H   LIG d   1      11.293   4.555   0.507  0.00  0.00     0.062 H 
ATOM     24  H   LIG d   1      12.167   4.675  -2.423  0.00  0.00     0.032 H 
ATOM     25  H   LIG d   1      11.233   3.744  -1.251  0.00  0.00     0.032 H 
ATOM     26  H   LIG d   1      10.505   3.306  -3.520  0.00  0.00     0.033 H 
ATOM     27  H   LIG d   1       9.216   4.065  -2.566  0.00  0.00     0.033 H 
ATOM     28  H   LIG d   1       9.520   9.268  -5.234  0.00  0.00     0.062 H 
ATOM     29  H   LIG d   1       9.130   9.474  -7.662  0.00  0.00     0.062 H 
ATOM     30  H   LIG d   1       9.140   7.527  -9.116  0.00  0.00     0.062 H 
ATOM     31  H   LIG d   1       9.535   5.251  -8.240  0.00  0.00     0.064 H 
ENDROOT
BRANCH   1  32
ATOM     32  C   LIG d   1      11.246   8.602  -3.303  0.00  0.00    -0.054 C 
ATOM     33  H   LIG d   1      11.992   8.704  -2.515  0.00  0.00     0.024 H 
ATOM     34  H   LIG d   1      11.730   8.270  -4.222  0.00  0.00     0.024 H 
ATOM     35  H   LIG d   1      10.763   9.564  -3.473  0.00  0.00     0.024 H 
ENDBRANCH   1  32
BRANCH  19  36
ATOM     36  C   LIG d   1      10.113   3.529  -5.862  0.00  0.00     0.012 C 
ATOM     37  H   LIG d   1      10.466   3.517  -6.893  0.00  0.00     0.046 H 
ATOM     38  H   LIG d   1      10.829   3.005  -5.227  0.00  0.00     0.046 H 
ATOM     39  H   LIG d   1       9.145   3.032  -5.803  0.00  0.00     0.046 H 
ENDBRANCH  19  36
TORSDOF 2
ENDMDL
