MODEL 1
REMARK VINA RESULT:      -9.3      0.000      0.000
REMARK  3 active torsions:
REMARK  status: ('A' for Active; 'I' for Inactive)
REMARK    1  A    between atoms: C_3  and  C_11 
REMARK    2  A    between atoms: C_5  and  C_7 
REMARK       I    between atoms: N_25  and  C_27 
REMARK    3  A    between atoms: C_27  and  C_29 
ROOT
ATOM      1  C   LIG d   1       4.288  -0.696  -7.211  0.00  0.00     0.047 A 
ATOM      2  C   LIG d   1       5.198  -1.728  -7.044  0.00  0.00    -0.047 A 
ATOM      3  C   LIG d   1       5.400  -2.239  -5.761  0.00  0.00    -0.041 A 
ATOM      4  C   LIG d   1       4.722  -1.735  -4.694  0.00  0.00     0.027 A 
ATOM      5  N   LIG d   1       3.774  -0.784  -4.864  0.00  0.00    -0.311 N 
ATOM      6  C   LIG d   1       3.588  -0.219  -6.082  0.00  0.00     0.259 A 
ATOM      7  O   LIG d   1       2.808   0.712  -6.203  0.00  0.00    -0.267 OA
ATOM      8  C   LIG d   1       2.883  -0.341  -3.790  0.00  0.00     0.031 C 
ATOM      9  C   LIG d   1       3.427  -0.670  -2.411  0.00  0.00    -0.006 C 
ATOM     10  H   LIG d   1       2.614  -0.564  -1.693  0.00  0.00     0.033 H 
ATOM     11  C   LIG d   1       3.907  -2.121  -2.374  0.00  0.00    -0.037 C 
ATOM     12  C   LIG d   1       5.097  -2.260  -3.327  0.00  0.00     0.016 C 
ATOM     13  H   LIG d   1       5.410  -3.303  -3.387  0.00  0.00     0.038 H 
ATOM     14  C   LIG d   1       6.249  -1.391  -2.794  0.00  0.00     0.023 C 
ATOM     15  N   LIG d   1       5.764  -0.002  -2.743  0.00  0.00    -0.300 N 
ATOM     16  C   LIG d   1       4.536   0.285  -1.993  0.00  0.00     0.019 C 
ATOM     17  C   LIG d   1       6.434   0.983  -3.373  0.00  0.00     0.219 C 
ATOM     18  O   LIG d   1       5.981   2.109  -3.389  0.00  0.00    -0.275 OA
ATOM     19  H   LIG d   1       5.736  -2.132  -7.889  0.00  0.00     0.063 H 
ATOM     20  H   LIG d   1       6.109  -3.041  -5.612  0.00  0.00     0.064 H 
ATOM     21  H   LIG d   1       2.747   0.737  -3.867  0.00  0.00     0.050 H 
ATOM     22  H   LIG d   1       1.915  -0.828  -3.910  0.00  0.00     0.050 H 
ATOM     23  H   LIG d   1       4.215  -2.380  -1.362  0.00  0.00     0.028 H 
ATOM     24  H   LIG d   1       3.102  -2.782  -2.694  0.00  0.00     0.028 H 
ATOM     25  H   LIG d   1       6.530  -1.723  -1.794  0.00  0.00     0.047 H 
ATOM     26  H   LIG d   1       7.107  -1.462  -3.462  0.00  0.00     0.047 H 
ATOM     27  H   LIG d   1       4.225   1.310  -2.189  0.00  0.00     0.047 H 
ATOM     28  H   LIG d   1       4.730   0.167  -0.926  0.00  0.00     0.047 H 
ENDROOT
BRANCH  17  29
ATOM     29  C   LIG d   1       7.743   0.688  -4.057  0.00  0.00     0.036 C 
ATOM     30  C   LIG d   1       7.524   0.618  -5.570  0.00  0.00    -0.042 C 
ATOM     31  C   LIG d   1       8.855   0.318  -6.264  0.00  0.00    -0.052 C 
ATOM     32  H   LIG d   1       6.810  -0.173  -5.797  0.00  0.00     0.027 H 
ATOM     33  H   LIG d   1       7.136   1.572  -5.924  0.00  0.00     0.027 H 
ATOM     34  C   LIG d   1       9.858   1.428  -5.945  0.00  0.00    -0.053 C 
ATOM     35  H   LIG d   1       9.243  -0.637  -5.908  0.00  0.00     0.026 H 
ATOM     36  H   LIG d   1       8.699   0.268  -7.342  0.00  0.00     0.026 H 
ATOM     37  C   LIG d   1      10.077   1.499  -4.432  0.00  0.00    -0.052 C 
ATOM     38  H   LIG d   1      10.806   1.215  -6.440  0.00  0.00     0.026 H 
ATOM     39  H   LIG d   1       9.470   2.382  -6.301  0.00  0.00     0.026 H 
ATOM     40  C   LIG d   1       8.746   1.798  -3.738  0.00  0.00    -0.042 C 
ATOM     41  H   LIG d   1      10.465   0.543  -4.077  0.00  0.00     0.026 H 
ATOM     42  H   LIG d   1      10.791   2.289  -4.205  0.00  0.00     0.026 H 
ATOM     43  H   LIG d   1       8.359   2.752  -4.093  0.00  0.00     0.027 H 
ATOM     44  H   LIG d   1       8.903   1.847  -2.660  0.00  0.00     0.027 H 
ATOM     45  H   LIG d   1       8.132  -0.267  -3.701  0.00  0.00     0.039 H 
ENDBRANCH  17  29
BRANCH   1  46
ATOM     46  C   LIG d   1       4.054  -0.105  -8.550  0.00  0.00    -0.012 A 
ATOM     47  C   LIG d   1       4.522   1.175  -8.842  0.00  0.00    -0.054 A 
ATOM     48  C   LIG d   1       4.303   1.719 -10.092  0.00  0.00    -0.061 A 
ATOM     49  H   LIG d   1       5.055   1.741  -8.092  0.00  0.00     0.062 H 
ATOM     50  C   LIG d   1       3.621   0.995 -11.054  0.00  0.00    -0.050 A 
ATOM     51  H   LIG d   1       4.664   2.710 -10.319  0.00  0.00     0.062 H 
ATOM     52  C   LIG d   1       3.155  -0.276 -10.770  0.00  0.00     0.055 A 
ATOM     53  H   LIG d   1       3.452   1.425 -12.030  0.00  0.00     0.062 H 
ATOM     54  C   LIG d   1       3.373  -0.832  -9.526  0.00  0.00    -0.042 A 
ATOM     55  H   LIG d   1       3.013  -1.827  -9.308  0.00  0.00     0.063 H 
BRANCH  52  56
ATOM     56  C   LIG d   1       2.414  -1.058 -11.824  0.00  0.00     0.417 C 
ATOM     57  F   LIG d   1       1.068  -0.675 -11.828  0.00  0.00    -0.166 F 
ATOM     58  F   LIG d   1       2.976  -0.801 -13.079  0.00  0.00    -0.166 F 
ATOM     59  F   LIG d   1       2.509  -2.426 -11.543  0.00  0.00    -0.166 F 
ENDBRANCH  52  56
ENDBRANCH   1  46
TORSDOF 3
ENDMDL
MODEL 2
REMARK VINA RESULT:      -8.3      1.452      1.941
REMARK  3 active torsions:
REMARK  status: ('A' for Active; 'I' for Inactive)
REMARK    1  A    between atoms: C_3  and  C_11 
REMARK    2  A    between atoms: C_5  and  C_7 
REMARK       I    between atoms: N_25  and  C_27 
REMARK    3  A    between atoms: C_27  and  C_29 
ROOT
ATOM      1  C   LIG d   1       3.828  -1.185  -7.097  0.00  0.00     0.047 A 
ATOM      2  C   LIG d   1       4.437  -2.379  -6.743  0.00  0.00    -0.047 A 
ATOM      3  C   LIG d   1       4.790  -2.579  -5.408  0.00  0.00    -0.041 A 
ATOM      4  C   LIG d   1       4.545  -1.624  -4.470  0.00  0.00     0.027 A 
ATOM      5  N   LIG d   1       3.877  -0.492  -4.795  0.00  0.00    -0.311 N 
ATOM      6  C   LIG d   1       3.570  -0.230  -6.089  0.00  0.00     0.259 A 
ATOM      7  O   LIG d   1       3.066   0.840  -6.386  0.00  0.00    -0.267 OA
ATOM      8  C   LIG d   1       3.420   0.480  -3.801  0.00  0.00     0.031 C 
ATOM      9  C   LIG d   1       4.163   0.357  -2.483  0.00  0.00    -0.006 C 
ATOM     10  H   LIG d   1       3.603   0.906  -1.726  0.00  0.00     0.033 H 
ATOM     11  C   LIG d   1       4.227  -1.110  -2.057  0.00  0.00    -0.037 C 
ATOM     12  C   LIG d   1       5.075  -1.872  -3.077  0.00  0.00     0.016 C 
ATOM     13  H   LIG d   1       5.071  -2.938  -2.847  0.00  0.00     0.038 H 
ATOM     14  C   LIG d   1       6.511  -1.325  -3.020  0.00  0.00     0.023 C 
ATOM     15  N   LIG d   1       6.447   0.110  -3.344  0.00  0.00    -0.300 N 
ATOM     16  C   LIG d   1       5.556   0.968  -2.554  0.00  0.00     0.019 C 
ATOM     17  C   LIG d   1       7.190   0.623  -4.344  0.00  0.00     0.219 C 
ATOM     18  O   LIG d   1       7.069   1.790  -4.651  0.00  0.00    -0.275 OA
ATOM     19  H   LIG d   1       4.630  -3.141  -7.485  0.00  0.00     0.063 H 
ATOM     20  H   LIG d   1       5.269  -3.503  -5.116  0.00  0.00     0.064 H 
ATOM     21  H   LIG d   1       3.566   1.485  -4.196  0.00  0.00     0.050 H 
ATOM     22  H   LIG d   1       2.356   0.325  -3.619  0.00  0.00     0.050 H 
ATOM     23  H   LIG d   1       4.682  -1.186  -1.070  0.00  0.00     0.028 H 
ATOM     24  H   LIG d   1       3.220  -1.527  -2.030  0.00  0.00     0.028 H 
ATOM     25  H   LIG d   1       6.919  -1.461  -2.018  0.00  0.00     0.047 H 
ATOM     26  H   LIG d   1       7.135  -1.842  -3.747  0.00  0.00     0.047 H 
ATOM     27  H   LIG d   1       5.496   1.951  -3.020  0.00  0.00     0.047 H 
ATOM     28  H   LIG d   1       5.956   1.072  -1.545  0.00  0.00     0.047 H 
ENDROOT
BRANCH  17  29
ATOM     29  C   LIG d   1       8.171  -0.252  -5.080  0.00  0.00     0.036 C 
ATOM     30  C   LIG d   1       7.668  -0.496  -6.504  0.00  0.00    -0.042 C 
ATOM     31  C   LIG d   1       8.665  -1.385  -7.252  0.00  0.00    -0.052 C 
ATOM     32  H   LIG d   1       6.698  -0.990  -6.467  0.00  0.00     0.027 H 
ATOM     33  H   LIG d   1       7.570   0.457  -7.023  0.00  0.00     0.027 H 
ATOM     34  C   LIG d   1      10.027  -0.690  -7.304  0.00  0.00    -0.053 C 
ATOM     35  H   LIG d   1       8.762  -2.339  -6.732  0.00  0.00     0.026 H 
ATOM     36  H   LIG d   1       8.306  -1.559  -8.266  0.00  0.00     0.026 H 
ATOM     37  C   LIG d   1      10.531  -0.446  -5.881  0.00  0.00    -0.052 C 
ATOM     38  H   LIG d   1      10.737  -1.324  -7.837  0.00  0.00     0.026 H 
ATOM     39  H   LIG d   1       9.929   0.262  -7.825  0.00  0.00     0.026 H 
ATOM     40  C   LIG d   1       9.533   0.442  -5.133  0.00  0.00    -0.042 C 
ATOM     41  H   LIG d   1      10.628  -1.400  -5.361  0.00  0.00     0.026 H 
ATOM     42  H   LIG d   1      11.500   0.048  -5.918  0.00  0.00     0.026 H 
ATOM     43  H   LIG d   1       9.437   1.395  -5.652  0.00  0.00     0.027 H 
ATOM     44  H   LIG d   1       9.893   0.616  -4.119  0.00  0.00     0.027 H 
ATOM     45  H   LIG d   1       8.269  -1.205  -4.560  0.00  0.00     0.039 H 
ENDBRANCH  17  29
BRANCH   1  46
ATOM     46  C   LIG d   1       3.454  -0.917  -8.506  0.00  0.00    -0.012 A 
ATOM     47  C   LIG d   1       2.129  -0.643  -8.838  0.00  0.00    -0.054 A 
ATOM     48  C   LIG d   1       1.787  -0.392 -10.152  0.00  0.00    -0.061 A 
ATOM     49  H   LIG d   1       1.370  -0.626  -8.070  0.00  0.00     0.062 H 
ATOM     50  C   LIG d   1       2.758  -0.413 -11.138  0.00  0.00    -0.050 A 
ATOM     51  H   LIG d   1       0.761  -0.180 -10.411  0.00  0.00     0.062 H 
ATOM     52  C   LIG d   1       4.075  -0.684 -10.814  0.00  0.00     0.055 A 
ATOM     53  H   LIG d   1       2.485  -0.217 -12.164  0.00  0.00     0.062 H 
ATOM     54  C   LIG d   1       4.429  -0.930  -9.503  0.00  0.00    -0.042 A 
ATOM     55  H   LIG d   1       5.459  -1.137  -9.251  0.00  0.00     0.063 H 
BRANCH  52  56
ATOM     56  C   LIG d   1       5.126  -0.703 -11.893  0.00  0.00     0.417 C 
ATOM     57  F   LIG d   1       6.295  -0.102 -11.415  0.00  0.00    -0.166 F 
ATOM     58  F   LIG d   1       5.397  -2.026 -12.259  0.00  0.00    -0.166 F 
ATOM     59  F   LIG d   1       4.661   0.002 -13.009  0.00  0.00    -0.166 F 
ENDBRANCH  52  56
ENDBRANCH   1  46
TORSDOF 3
ENDMDL
MODEL 3
REMARK VINA RESULT:      -8.1      4.336      8.012
REMARK  3 active torsions:
REMARK  status: ('A' for Active; 'I' for Inactive)
REMARK    1  A    between atoms: C_3  and  C_11 
REMARK    2  A    between atoms: C_5  and  C_7 
REMARK       I    between atoms: N_25  and  C_27 
REMARK    3  A    between atoms: C_27  and  C_29 
ROOT
ATOM      1  C   LIG d   1       4.821  -1.158  -6.615  0.00  0.00     0.047 A 
ATOM      2  C   LIG d   1       5.965  -1.674  -7.207  0.00  0.00    -0.047 A 
ATOM      3  C   LIG d   1       6.109  -1.564  -8.590  0.00  0.00    -0.041 A 
ATOM      4  C   LIG d   1       5.149  -0.965  -9.347  0.00  0.00     0.027 A 
ATOM      5  N   LIG d   1       4.071  -0.388  -8.766  0.00  0.00    -0.311 N 
ATOM      6  C   LIG d   1       3.861  -0.524  -7.433  0.00  0.00     0.259 A 
ATOM      7  O   LIG d   1       2.833  -0.094  -6.937  0.00  0.00    -0.267 OA
ATOM      8  C   LIG d   1       3.107   0.431  -9.503  0.00  0.00     0.031 C 
ATOM      9  C   LIG d   1       3.149   0.172 -10.998  0.00  0.00    -0.006 C 
ATOM     10  H   LIG d   1       2.620   0.984 -11.497  0.00  0.00     0.033 H 
ATOM     11  C   LIG d   1       4.598   0.179 -11.487  0.00  0.00    -0.037 C 
ATOM     12  C   LIG d   1       5.328  -1.004 -10.846  0.00  0.00     0.016 C 
ATOM     13  H   LIG d   1       6.386  -0.979 -11.109  0.00  0.00     0.038 H 
ATOM     14  C   LIG d   1       4.686  -2.305 -11.359  0.00  0.00     0.023 C 
ATOM     15  N   LIG d   1       3.267  -2.278 -10.969  0.00  0.00    -0.300 N 
ATOM     16  C   LIG d   1       2.451  -1.128 -11.373  0.00  0.00     0.019 C 
ATOM     17  C   LIG d   1       2.731  -3.288 -10.256  0.00  0.00     0.219 C 
ATOM     18  O   LIG d   1       1.582  -3.216  -9.873  0.00  0.00    -0.275 OA
ATOM     19  H   LIG d   1       6.730  -2.147  -6.608  0.00  0.00     0.063 H 
ATOM     20  H   LIG d   1       6.991  -1.964  -9.068  0.00  0.00     0.064 H 
ATOM     21  H   LIG d   1       2.105   0.212  -9.136  0.00  0.00     0.050 H 
ATOM     22  H   LIG d   1       3.327   1.483  -9.323  0.00  0.00     0.050 H 
ATOM     23  H   LIG d   1       4.620   0.081 -12.571  0.00  0.00     0.028 H 
ATOM     24  H   LIG d   1       5.079   1.111 -11.192  0.00  0.00     0.028 H 
ATOM     25  H   LIG d   1       4.771  -2.356 -12.445  0.00  0.00     0.047 H 
ATOM     26  H   LIG d   1       5.180  -3.165 -10.909  0.00  0.00     0.047 H 
ATOM     27  H   LIG d   1       1.485  -1.177 -10.871  0.00  0.00     0.047 H 
ATOM     28  H   LIG d   1       2.296  -1.157 -12.452  0.00  0.00     0.047 H 
ENDROOT
BRANCH  17  29
ATOM     29  C   LIG d   1       3.558  -4.505  -9.932  0.00  0.00     0.036 C 
ATOM     30  C   LIG d   1       3.856  -4.536  -8.432  0.00  0.00    -0.042 C 
ATOM     31  C   LIG d   1       4.695  -5.773  -8.105  0.00  0.00    -0.052 C 
ATOM     32  H   LIG d   1       4.407  -3.639  -8.153  0.00  0.00     0.027 H 
ATOM     33  H   LIG d   1       2.919  -4.575  -7.877  0.00  0.00     0.027 H 
ATOM     34  C   LIG d   1       3.922  -7.033  -8.497  0.00  0.00    -0.053 C 
ATOM     35  H   LIG d   1       5.633  -5.733  -8.661  0.00  0.00     0.026 H 
ATOM     36  H   LIG d   1       4.908  -5.795  -7.036  0.00  0.00     0.026 H 
ATOM     37  C   LIG d   1       3.624  -7.002  -9.997  0.00  0.00    -0.052 C 
ATOM     38  H   LIG d   1       4.520  -7.914  -8.263  0.00  0.00     0.026 H 
ATOM     39  H   LIG d   1       2.986  -7.073  -7.941  0.00  0.00     0.026 H 
ATOM     40  C   LIG d   1       2.784  -5.765 -10.325  0.00  0.00    -0.042 C 
ATOM     41  H   LIG d   1       4.561  -6.962 -10.553  0.00  0.00     0.026 H 
ATOM     42  H   LIG d   1       3.073  -7.899 -10.277  0.00  0.00     0.026 H 
ATOM     43  H   LIG d   1       1.848  -5.805  -9.770  0.00  0.00     0.027 H 
ATOM     44  H   LIG d   1       2.573  -5.744 -11.394  0.00  0.00     0.027 H 
ATOM     45  H   LIG d   1       4.495  -4.466 -10.489  0.00  0.00     0.039 H 
ENDBRANCH  17  29
BRANCH   1  46
ATOM     46  C   LIG d   1       4.612  -1.271  -5.152  0.00  0.00    -0.012 A 
ATOM     47  C   LIG d   1       4.411  -2.520  -4.568  0.00  0.00    -0.054 A 
ATOM     48  C   LIG d   1       4.218  -2.618  -3.204  0.00  0.00    -0.061 A 
ATOM     49  H   LIG d   1       4.406  -3.409  -5.180  0.00  0.00     0.062 H 
ATOM     50  C   LIG d   1       4.226  -1.480  -2.418  0.00  0.00    -0.050 A 
ATOM     51  H   LIG d   1       4.063  -3.585  -2.751  0.00  0.00     0.062 H 
ATOM     52  C   LIG d   1       4.425  -0.237  -2.992  0.00  0.00     0.055 A 
ATOM     53  H   LIG d   1       4.074  -1.562  -1.352  0.00  0.00     0.062 H 
ATOM     54  C   LIG d   1       4.624  -0.127  -4.354  0.00  0.00    -0.042 A 
ATOM     55  H   LIG d   1       4.785   0.843  -4.800  0.00  0.00     0.063 H 
BRANCH  52  56
ATOM     56  C   LIG d   1       4.432   0.998  -2.130  0.00  0.00     0.417 C 
ATOM     57  F   LIG d   1       4.795   0.651  -0.824  0.00  0.00    -0.166 F 
ATOM     58  F   LIG d   1       5.352   1.920  -2.640  0.00  0.00    -0.166 F 
ATOM     59  F   LIG d   1       3.155   1.569  -2.123  0.00  0.00    -0.166 F 
ENDBRANCH  52  56
ENDBRANCH   1  46
TORSDOF 3
ENDMDL
MODEL 4
REMARK VINA RESULT:      -7.7      4.089      7.557
REMARK  3 active torsions:
REMARK  status: ('A' for Active; 'I' for Inactive)
REMARK    1  A    between atoms: C_3  and  C_11 
REMARK    2  A    between atoms: C_5  and  C_7 
REMARK       I    between atoms: N_25  and  C_27 
REMARK    3  A    between atoms: C_27  and  C_29 
ROOT
ATOM      1  C   LIG d   1       6.083  -1.835  -5.882  0.00  0.00     0.047 A 
ATOM      2  C   LIG d   1       5.864  -2.961  -6.662  0.00  0.00    -0.047 A 
ATOM      3  C   LIG d   1       6.561  -3.087  -7.864  0.00  0.00    -0.041 A 
ATOM      4  C   LIG d   1       7.438  -2.127  -8.267  0.00  0.00     0.027 A 
ATOM      5  N   LIG d   1       7.717  -1.068  -7.472  0.00  0.00    -0.311 N 
ATOM      6  C   LIG d   1       7.019  -0.875  -6.325  0.00  0.00     0.259 A 
ATOM      7  O   LIG d   1       7.201   0.138  -5.671  0.00  0.00    -0.267 OA
ATOM      8  C   LIG d   1       8.783  -0.108  -7.762  0.00  0.00     0.031 C 
ATOM      9  C   LIG d   1       9.197  -0.124  -9.222  0.00  0.00    -0.006 C 
ATOM     10  H   LIG d   1      10.151   0.398  -9.309  0.00  0.00     0.033 H 
ATOM     11  C   LIG d   1       9.401  -1.565  -9.689  0.00  0.00    -0.037 C 
ATOM     12  C   LIG d   1       8.050  -2.284  -9.639  0.00  0.00     0.016 C 
ATOM     13  H   LIG d   1       8.177  -3.338  -9.887  0.00  0.00     0.038 H 
ATOM     14  C   LIG d   1       7.106  -1.612 -10.652  0.00  0.00     0.023 C 
ATOM     15  N   LIG d   1       6.975  -0.199 -10.259  0.00  0.00    -0.300 N 
ATOM     16  C   LIG d   1       8.195   0.602 -10.108  0.00  0.00     0.019 C 
ATOM     17  C   LIG d   1       5.761   0.344 -10.042  0.00  0.00     0.219 C 
ATOM     18  O   LIG d   1       5.671   1.486  -9.643  0.00  0.00    -0.275 OA
ATOM     19  H   LIG d   1       5.171  -3.726  -6.343  0.00  0.00     0.063 H 
ATOM     20  H   LIG d   1       6.399  -3.955  -8.486  0.00  0.00     0.064 H 
ATOM     21  H   LIG d   1       8.437   0.893  -7.505  0.00  0.00     0.050 H 
ATOM     22  H   LIG d   1       9.652  -0.349  -7.148  0.00  0.00     0.050 H 
ATOM     23  H   LIG d   1       9.782  -1.570 -10.710  0.00  0.00     0.028 H 
ATOM     24  H   LIG d   1      10.109  -2.068  -9.030  0.00  0.00     0.028 H 
ATOM     25  H   LIG d   1       7.530  -1.680 -11.654  0.00  0.00     0.047 H 
ATOM     26  H   LIG d   1       6.131  -2.097 -10.628  0.00  0.00     0.047 H 
ATOM     27  H   LIG d   1       7.942   1.562  -9.657  0.00  0.00     0.047 H 
ATOM     28  H   LIG d   1       8.637   0.773 -11.090  0.00  0.00     0.047 H 
ENDROOT
BRANCH  17  29
ATOM     29  C   LIG d   1       4.516  -0.466 -10.295  0.00  0.00     0.036 C 
ATOM     30  C   LIG d   1       3.795  -0.720  -8.969  0.00  0.00    -0.042 C 
ATOM     31  C   LIG d   1       2.530  -1.542  -9.227  0.00  0.00    -0.052 C 
ATOM     32  H   LIG d   1       4.454  -1.268  -8.297  0.00  0.00     0.027 H 
ATOM     33  H   LIG d   1       3.523   0.233  -8.516  0.00  0.00     0.027 H 
ATOM     34  C   LIG d   1       1.605  -0.772 -10.171  0.00  0.00    -0.053 C 
ATOM     35  H   LIG d   1       2.803  -2.496  -9.681  0.00  0.00     0.026 H 
ATOM     36  H   LIG d   1       2.017  -1.724  -8.283  0.00  0.00     0.026 H 
ATOM     37  C   LIG d   1       2.326  -0.518 -11.497  0.00  0.00    -0.052 C 
ATOM     38  H   LIG d   1       0.704  -1.358 -10.355  0.00  0.00     0.026 H 
ATOM     39  H   LIG d   1       1.332   0.180  -9.717  0.00  0.00     0.026 H 
ATOM     40  C   LIG d   1       3.591   0.304 -11.239  0.00  0.00    -0.042 C 
ATOM     41  H   LIG d   1       2.599  -1.471 -11.951  0.00  0.00     0.026 H 
ATOM     42  H   LIG d   1       1.667   0.030 -12.169  0.00  0.00     0.026 H 
ATOM     43  H   LIG d   1       3.318   1.256 -10.786  0.00  0.00     0.027 H 
ATOM     44  H   LIG d   1       4.104   0.485 -12.184  0.00  0.00     0.027 H 
ATOM     45  H   LIG d   1       4.788  -1.419 -10.750  0.00  0.00     0.039 H 
ENDBRANCH  17  29
BRANCH   1  46
ATOM     46  C   LIG d   1       5.351  -1.645  -4.608  0.00  0.00    -0.012 A 
ATOM     47  C   LIG d   1       4.754  -2.734  -3.976  0.00  0.00    -0.054 A 
ATOM     48  C   LIG d   1       4.074  -2.552  -2.788  0.00  0.00    -0.061 A 
ATOM     49  H   LIG d   1       4.822  -3.719  -4.413  0.00  0.00     0.062 H 
ATOM     50  C   LIG d   1       3.985  -1.290  -2.226  0.00  0.00    -0.050 A 
ATOM     51  H   LIG d   1       3.611  -3.394  -2.297  0.00  0.00     0.062 H 
ATOM     52  C   LIG d   1       4.576  -0.206  -2.849  0.00  0.00     0.055 A 
ATOM     53  H   LIG d   1       3.452  -1.153  -1.297  0.00  0.00     0.062 H 
ATOM     54  C   LIG d   1       5.263  -0.377  -4.034  0.00  0.00    -0.042 A 
ATOM     55  H   LIG d   1       5.728   0.469  -4.516  0.00  0.00     0.063 H 
BRANCH  52  56
ATOM     56  C   LIG d   1       4.476   1.164  -2.230  0.00  0.00     0.417 C 
ATOM     57  F   LIG d   1       4.791   1.084  -0.869  0.00  0.00    -0.166 F 
ATOM     58  F   LIG d   1       5.371   2.031  -2.865  0.00  0.00    -0.166 F 
ATOM     59  F   LIG d   1       3.172   1.649  -2.379  0.00  0.00    -0.166 F 
ENDBRANCH  52  56
ENDBRANCH   1  46
TORSDOF 3
ENDMDL
MODEL 5
REMARK VINA RESULT:      -7.6      5.037      7.758
REMARK  3 active torsions:
REMARK  status: ('A' for Active; 'I' for Inactive)
REMARK    1  A    between atoms: C_3  and  C_11 
REMARK    2  A    between atoms: C_5  and  C_7 
REMARK       I    between atoms: N_25  and  C_27 
REMARK    3  A    between atoms: C_27  and  C_29 
ROOT
ATOM      1  C   LIG d   1       6.716  -4.625  -6.036  0.00  0.00     0.047 A 
ATOM      2  C   LIG d   1       5.351  -4.835  -5.908  0.00  0.00    -0.047 A 
ATOM      3  C   LIG d   1       4.481  -4.048  -6.663  0.00  0.00    -0.041 A 
ATOM      4  C   LIG d   1       4.957  -3.093  -7.508  0.00  0.00     0.027 A 
ATOM      5  N   LIG d   1       6.289  -2.940  -7.698  0.00  0.00    -0.311 N 
ATOM      6  C   LIG d   1       7.169  -3.641  -6.940  0.00  0.00     0.259 A 
ATOM      7  O   LIG d   1       8.364  -3.418  -7.042  0.00  0.00    -0.267 OA
ATOM      8  C   LIG d   1       6.855  -2.066  -8.726  0.00  0.00     0.031 C 
ATOM      9  C   LIG d   1       5.869  -1.017  -9.205  0.00  0.00    -0.006 C 
ATOM     10  H   LIG d   1       6.251  -0.593 -10.134  0.00  0.00     0.033 H 
ATOM     11  C   LIG d   1       4.518  -1.670  -9.502  0.00  0.00    -0.037 C 
ATOM     12  C   LIG d   1       3.942  -2.204  -8.188  0.00  0.00     0.016 C 
ATOM     13  H   LIG d   1       3.018  -2.750  -8.378  0.00  0.00     0.038 H 
ATOM     14  C   LIG d   1       3.670  -1.010  -7.257  0.00  0.00     0.023 C 
ATOM     15  N   LIG d   1       4.953  -0.322  -7.038  0.00  0.00    -0.300 N 
ATOM     16  C   LIG d   1       5.718   0.123  -8.208  0.00  0.00     0.019 C 
ATOM     17  C   LIG d   1       5.414  -0.108  -5.790  0.00  0.00     0.219 C 
ATOM     18  O   LIG d   1       6.508   0.388  -5.625  0.00  0.00    -0.275 OA
ATOM     19  H   LIG d   1       4.970  -5.594  -5.241  0.00  0.00     0.063 H 
ATOM     20  H   LIG d   1       3.414  -4.195  -6.573  0.00  0.00     0.064 H 
ATOM     21  H   LIG d   1       7.733  -1.565  -8.319  0.00  0.00     0.050 H 
ATOM     22  H   LIG d   1       7.161  -2.675  -9.577  0.00  0.00     0.050 H 
ATOM     23  H   LIG d   1       3.840  -0.932  -9.928  0.00  0.00     0.028 H 
ATOM     24  H   LIG d   1       4.655  -2.492 -10.204  0.00  0.00     0.028 H 
ATOM     25  H   LIG d   1       2.960  -0.328  -7.728  0.00  0.00     0.047 H 
ATOM     26  H   LIG d   1       3.270  -1.363  -6.308  0.00  0.00     0.047 H 
ATOM     27  H   LIG d   1       6.706   0.456  -7.887  0.00  0.00     0.047 H 
ATOM     28  H   LIG d   1       5.197   0.954  -8.685  0.00  0.00     0.047 H 
ENDROOT
BRANCH  17  29
ATOM     29  C   LIG d   1       4.571  -0.485  -4.599  0.00  0.00     0.036 C 
ATOM     30  C   LIG d   1       5.119  -1.769  -3.972  0.00  0.00    -0.042 C 
ATOM     31  C   LIG d   1       4.262  -2.151  -2.763  0.00  0.00    -0.052 C 
ATOM     32  H   LIG d   1       5.090  -2.573  -4.706  0.00  0.00     0.027 H 
ATOM     33  H   LIG d   1       6.147  -1.605  -3.652  0.00  0.00     0.027 H 
ATOM     34  C   LIG d   1       4.302  -1.021  -1.732  0.00  0.00    -0.053 C 
ATOM     35  H   LIG d   1       3.233  -2.314  -3.084  0.00  0.00     0.026 H 
ATOM     36  H   LIG d   1       4.652  -3.065  -2.316  0.00  0.00     0.026 H 
ATOM     37  C   LIG d   1       3.754   0.262  -2.359  0.00  0.00    -0.052 C 
ATOM     38  H   LIG d   1       3.692  -1.294  -0.870  0.00  0.00     0.026 H 
ATOM     39  H   LIG d   1       5.331  -0.859  -1.411  0.00  0.00     0.026 H 
ATOM     40  C   LIG d   1       4.611   0.644  -3.568  0.00  0.00    -0.042 C 
ATOM     41  H   LIG d   1       2.725   0.099  -2.680  0.00  0.00     0.026 H 
ATOM     42  H   LIG d   1       3.783   1.066  -1.625  0.00  0.00     0.026 H 
ATOM     43  H   LIG d   1       5.639   0.807  -3.247  0.00  0.00     0.027 H 
ATOM     44  H   LIG d   1       4.220   1.558  -4.015  0.00  0.00     0.027 H 
ATOM     45  H   LIG d   1       3.541  -0.648  -4.920  0.00  0.00     0.039 H 
ENDBRANCH  17  29
BRANCH   1  46
ATOM     46  C   LIG d   1       7.679  -5.420  -5.239  0.00  0.00    -0.012 A 
ATOM     47  C   LIG d   1       7.922  -6.754  -5.562  0.00  0.00    -0.054 A 
ATOM     48  C   LIG d   1       8.821  -7.490  -4.816  0.00  0.00    -0.061 A 
ATOM     49  H   LIG d   1       7.407  -7.212  -6.393  0.00  0.00     0.062 H 
ATOM     50  C   LIG d   1       9.482  -6.905  -3.751  0.00  0.00    -0.050 A 
ATOM     51  H   LIG d   1       9.010  -8.523  -5.066  0.00  0.00     0.062 H 
ATOM     52  C   LIG d   1       9.246  -5.581  -3.425  0.00  0.00     0.055 A 
ATOM     53  H   LIG d   1      10.184  -7.485  -3.171  0.00  0.00     0.062 H 
ATOM     54  C   LIG d   1       8.352  -4.835  -4.167  0.00  0.00    -0.042 A 
ATOM     55  H   LIG d   1       8.173  -3.800  -3.915  0.00  0.00     0.063 H 
BRANCH  52  56
ATOM     56  C   LIG d   1       9.970  -4.951  -2.264  0.00  0.00     0.417 C 
ATOM     57  F   LIG d   1       9.259  -3.829  -1.825  0.00  0.00    -0.166 F 
ATOM     58  F   LIG d   1      10.073  -5.876  -1.220  0.00  0.00    -0.166 F 
ATOM     59  F   LIG d   1      11.252  -4.562  -2.670  0.00  0.00    -0.166 F 
ENDBRANCH  52  56
ENDBRANCH   1  46
TORSDOF 3
ENDMDL
MODEL 6
REMARK VINA RESULT:      -7.4      3.225      6.253
REMARK  3 active torsions:
REMARK  status: ('A' for Active; 'I' for Inactive)
REMARK    1  A    between atoms: C_3  and  C_11 
REMARK    2  A    between atoms: C_5  and  C_7 
REMARK       I    between atoms: N_25  and  C_27 
REMARK    3  A    between atoms: C_27  and  C_29 
ROOT
ATOM      1  C   LIG d   1       7.005  -0.573  -4.182  0.00  0.00     0.047 A 
ATOM      2  C   LIG d   1       7.738  -1.660  -4.634  0.00  0.00    -0.047 A 
ATOM      3  C   LIG d   1       9.066  -1.459  -5.011  0.00  0.00    -0.041 A 
ATOM      4  C   LIG d   1       9.634  -0.224  -4.940  0.00  0.00     0.027 A 
ATOM      5  N   LIG d   1       8.949   0.823  -4.423  0.00  0.00    -0.311 N 
ATOM      6  C   LIG d   1       7.639   0.686  -4.101  0.00  0.00     0.259 A 
ATOM      7  O   LIG d   1       7.002   1.661  -3.738  0.00  0.00    -0.267 OA
ATOM      8  C   LIG d   1       9.563   2.122  -4.146  0.00  0.00     0.031 C 
ATOM      9  C   LIG d   1      10.851   2.333  -4.920  0.00  0.00    -0.006 C 
ATOM     10  H   LIG d   1      11.381   3.174  -4.473  0.00  0.00     0.033 H 
ATOM     11  C   LIG d   1      11.739   1.094  -4.798  0.00  0.00    -0.037 C 
ATOM     12  C   LIG d   1      11.034  -0.075  -5.489  0.00  0.00     0.016 C 
ATOM     13  H   LIG d   1      11.603  -0.994  -5.347  0.00  0.00     0.038 H 
ATOM     14  C   LIG d   1      10.916   0.248  -6.988  0.00  0.00     0.023 C 
ATOM     15  N   LIG d   1      10.135   1.490  -7.109  0.00  0.00    -0.300 N 
ATOM     16  C   LIG d   1      10.591   2.678  -6.379  0.00  0.00     0.019 C 
ATOM     17  C   LIG d   1       9.026   1.534  -7.874  0.00  0.00     0.219 C 
ATOM     18  O   LIG d   1       8.349   2.540  -7.903  0.00  0.00    -0.275 OA
ATOM     19  H   LIG d   1       7.291  -2.642  -4.689  0.00  0.00     0.063 H 
ATOM     20  H   LIG d   1       9.650  -2.294  -5.370  0.00  0.00     0.064 H 
ATOM     21  H   LIG d   1       8.858   2.909  -4.413  0.00  0.00     0.050 H 
ATOM     22  H   LIG d   1       9.779   2.191  -3.079  0.00  0.00     0.050 H 
ATOM     23  H   LIG d   1      12.698   1.281  -5.279  0.00  0.00     0.028 H 
ATOM     24  H   LIG d   1      11.896   0.858  -3.745  0.00  0.00     0.028 H 
ATOM     25  H   LIG d   1      11.909   0.391  -7.415  0.00  0.00     0.047 H 
ATOM     26  H   LIG d   1      10.404  -0.564  -7.504  0.00  0.00     0.047 H 
ATOM     27  H   LIG d   1       9.826   3.453  -6.437  0.00  0.00     0.047 H 
ATOM     28  H   LIG d   1      11.511   3.049  -6.832  0.00  0.00     0.047 H 
ENDROOT
BRANCH  17  29
ATOM     29  C   LIG d   1       8.627   0.333  -8.693  0.00  0.00     0.036 C 
ATOM     30  C   LIG d   1       7.342  -0.269  -8.121  0.00  0.00    -0.042 C 
ATOM     31  C   LIG d   1       6.937  -1.488  -8.954  0.00  0.00    -0.052 C 
ATOM     32  H   LIG d   1       7.511  -0.574  -7.090  0.00  0.00     0.027 H 
ATOM     33  H   LIG d   1       6.546   0.475  -8.155  0.00  0.00     0.027 H 
ATOM     34  C   LIG d   1       6.699  -1.059 -10.403  0.00  0.00    -0.053 C 
ATOM     35  H   LIG d   1       7.733  -2.232  -8.920  0.00  0.00     0.026 H 
ATOM     36  H   LIG d   1       6.021  -1.917  -8.547  0.00  0.00     0.026 H 
ATOM     37  C   LIG d   1       7.984  -0.457 -10.975  0.00  0.00    -0.052 C 
ATOM     38  H   LIG d   1       6.410  -1.928 -10.996  0.00  0.00     0.026 H 
ATOM     39  H   LIG d   1       5.902  -0.317 -10.436  0.00  0.00     0.026 H 
ATOM     40  C   LIG d   1       8.389   0.762 -10.142  0.00  0.00    -0.042 C 
ATOM     41  H   LIG d   1       8.780  -1.201 -10.941  0.00  0.00     0.026 H 
ATOM     42  H   LIG d   1       7.814  -0.152 -12.006  0.00  0.00     0.026 H 
ATOM     43  H   LIG d   1       7.593   1.505 -10.176  0.00  0.00     0.027 H 
ATOM     44  H   LIG d   1       9.305   1.190 -10.549  0.00  0.00     0.027 H 
ATOM     45  H   LIG d   1       9.424  -0.410  -8.660  0.00  0.00     0.039 H 
ENDBRANCH  17  29
BRANCH   1  46
ATOM     46  C   LIG d   1       5.584  -0.731  -3.790  0.00  0.00    -0.012 A 
ATOM     47  C   LIG d   1       5.247  -1.492  -2.672  0.00  0.00    -0.054 A 
ATOM     48  C   LIG d   1       3.923  -1.635  -2.311  0.00  0.00    -0.061 A 
ATOM     49  H   LIG d   1       6.021  -1.969  -2.089  0.00  0.00     0.062 H 
ATOM     50  C   LIG d   1       2.930  -1.023  -3.057  0.00  0.00    -0.050 A 
ATOM     51  H   LIG d   1       3.660  -2.224  -1.446  0.00  0.00     0.062 H 
ATOM     52  C   LIG d   1       3.259  -0.266  -4.168  0.00  0.00     0.055 A 
ATOM     53  H   LIG d   1       1.895  -1.138  -2.771  0.00  0.00     0.062 H 
ATOM     54  C   LIG d   1       4.580  -0.112  -4.535  0.00  0.00    -0.042 A 
ATOM     55  H   LIG d   1       4.836   0.483  -5.399  0.00  0.00     0.063 H 
BRANCH  52  56
ATOM     56  C   LIG d   1       2.172   0.397  -4.974  0.00  0.00     0.417 C 
ATOM     57  F   LIG d   1       2.225   1.781  -4.776  0.00  0.00    -0.166 F 
ATOM     58  F   LIG d   1       2.357   0.112  -6.331  0.00  0.00    -0.166 F 
ATOM     59  F   LIG d   1       0.925  -0.086  -4.562  0.00  0.00    -0.166 F 
ENDBRANCH  52  56
ENDBRANCH   1  46
TORSDOF 3
ENDMDL
MODEL 7
REMARK VINA RESULT:      -7.4      4.261      7.400
REMARK  3 active torsions:
REMARK  status: ('A' for Active; 'I' for Inactive)
REMARK    1  A    between atoms: C_3  and  C_11 
REMARK    2  A    between atoms: C_5  and  C_7 
REMARK       I    between atoms: N_25  and  C_27 
REMARK    3  A    between atoms: C_27  and  C_29 
ROOT
ATOM      1  C   LIG d   1       4.426  -0.892  -7.275  0.00  0.00     0.047 A 
ATOM      2  C   LIG d   1       4.431   0.405  -7.765  0.00  0.00    -0.047 A 
ATOM      3  C   LIG d   1       3.913   0.640  -9.039  0.00  0.00    -0.041 A 
ATOM      4  C   LIG d   1       3.413  -0.380  -9.789  0.00  0.00     0.027 A 
ATOM      5  N   LIG d   1       3.331  -1.634  -9.284  0.00  0.00    -0.311 N 
ATOM      6  C   LIG d   1       3.877  -1.917  -8.076  0.00  0.00     0.259 A 
ATOM      7  O   LIG d   1       3.895  -3.070  -7.677  0.00  0.00    -0.267 OA
ATOM      8  C   LIG d   1       2.635  -2.727  -9.965  0.00  0.00     0.031 C 
ATOM      9  C   LIG d   1       2.454  -2.465 -11.448  0.00  0.00    -0.006 C 
ATOM     10  H   LIG d   1       1.712  -3.167 -11.828  0.00  0.00     0.033 H 
ATOM     11  C   LIG d   1       1.922  -1.048 -11.666  0.00  0.00    -0.037 C 
ATOM     12  C   LIG d   1       2.991  -0.056 -11.203  0.00  0.00     0.016 C 
ATOM     13  H   LIG d   1       2.610   0.964 -11.267  0.00  0.00     0.038 H 
ATOM     14  C   LIG d   1       4.226  -0.216 -12.107  0.00  0.00     0.023 C 
ATOM     15  N   LIG d   1       4.692  -1.606 -11.970  0.00  0.00    -0.300 N 
ATOM     16  C   LIG d   1       3.741  -2.693 -12.229  0.00  0.00     0.019 C 
ATOM     17  C   LIG d   1       5.964  -1.873 -11.615  0.00  0.00     0.219 C 
ATOM     18  O   LIG d   1       6.314  -3.019 -11.429  0.00  0.00    -0.275 OA
ATOM     19  H   LIG d   1       4.824   1.218  -7.171  0.00  0.00     0.063 H 
ATOM     20  H   LIG d   1       3.913   1.644  -9.438  0.00  0.00     0.064 H 
ATOM     21  H   LIG d   1       3.208  -3.644  -9.836  0.00  0.00     0.050 H 
ATOM     22  H   LIG d   1       1.654  -2.858  -9.509  0.00  0.00     0.050 H 
ATOM     23  H   LIG d   1       1.711  -0.894 -12.723  0.00  0.00     0.028 H 
ATOM     24  H   LIG d   1       1.012  -0.906 -11.084  0.00  0.00     0.028 H 
ATOM     25  H   LIG d   1       3.954  -0.017 -13.144  0.00  0.00     0.047 H 
ATOM     26  H   LIG d   1       5.009   0.472 -11.791  0.00  0.00     0.047 H 
ATOM     27  H   LIG d   1       4.186  -3.641 -11.926  0.00  0.00     0.047 H 
ATOM     28  H   LIG d   1       3.515  -2.728 -13.296  0.00  0.00     0.047 H 
ENDROOT
BRANCH  17  29
ATOM     29  C   LIG d   1       6.952  -0.747 -11.447  0.00  0.00     0.036 C 
ATOM     30  C   LIG d   1       7.250  -0.547  -9.959  0.00  0.00    -0.042 C 
ATOM     31  C   LIG d   1       8.254   0.595  -9.790  0.00  0.00    -0.052 C 
ATOM     32  H   LIG d   1       6.328  -0.302  -9.434  0.00  0.00     0.027 H 
ATOM     33  H   LIG d   1       7.670  -1.465  -9.547  0.00  0.00     0.027 H 
ATOM     34  C   LIG d   1       9.549   0.250 -10.527  0.00  0.00    -0.053 C 
ATOM     35  H   LIG d   1       7.833   1.513 -10.202  0.00  0.00     0.026 H 
ATOM     36  H   LIG d   1       8.466   0.738  -8.730  0.00  0.00     0.026 H 
ATOM     37  C   LIG d   1       9.252   0.050 -12.014  0.00  0.00    -0.052 C 
ATOM     38  H   LIG d   1      10.264   1.064 -10.405  0.00  0.00     0.026 H 
ATOM     39  H   LIG d   1       9.969  -0.667 -10.113  0.00  0.00     0.026 H 
ATOM     40  C   LIG d   1       8.248  -1.093 -12.184  0.00  0.00    -0.042 C 
ATOM     41  H   LIG d   1       8.831   0.967 -12.427  0.00  0.00     0.026 H 
ATOM     42  H   LIG d   1      10.174  -0.196 -12.539  0.00  0.00     0.026 H 
ATOM     43  H   LIG d   1       8.668  -2.009 -11.772  0.00  0.00     0.027 H 
ATOM     44  H   LIG d   1       8.036  -1.234 -13.244  0.00  0.00     0.027 H 
ATOM     45  H   LIG d   1       6.532   0.170 -11.860  0.00  0.00     0.039 H 
ENDBRANCH  17  29
BRANCH   1  46
ATOM     46  C   LIG d   1       4.986  -1.195  -5.937  0.00  0.00    -0.012 A 
ATOM     47  C   LIG d   1       6.352  -1.422  -5.785  0.00  0.00    -0.054 A 
ATOM     48  C   LIG d   1       6.868  -1.703  -4.535  0.00  0.00    -0.061 A 
ATOM     49  H   LIG d   1       7.007  -1.379  -6.642  0.00  0.00     0.062 H 
ATOM     50  C   LIG d   1       6.031  -1.758  -3.435  0.00  0.00    -0.050 A 
ATOM     51  H   LIG d   1       7.927  -1.878  -4.416  0.00  0.00     0.062 H 
ATOM     52  C   LIG d   1       4.673  -1.534  -3.580  0.00  0.00     0.055 A 
ATOM     53  H   LIG d   1       6.439  -1.979  -2.460  0.00  0.00     0.062 H 
ATOM     54  C   LIG d   1       4.147  -1.247  -4.823  0.00  0.00    -0.042 A 
ATOM     55  H   LIG d   1       3.089  -1.067  -4.934  0.00  0.00     0.063 H 
BRANCH  52  56
ATOM     56  C   LIG d   1       3.768  -1.595  -2.377  0.00  0.00     0.417 C 
ATOM     57  F   LIG d   1       2.545  -0.990  -2.683  0.00  0.00    -0.166 F 
ATOM     58  F   LIG d   1       3.552  -2.931  -2.022  0.00  0.00    -0.166 F 
ATOM     59  F   LIG d   1       4.368  -0.921  -1.308  0.00  0.00    -0.166 F 
ENDBRANCH  52  56
ENDBRANCH   1  46
TORSDOF 3
ENDMDL
MODEL 8
REMARK VINA RESULT:      -7.4      4.293      6.918
REMARK  3 active torsions:
REMARK  status: ('A' for Active; 'I' for Inactive)
REMARK    1  A    between atoms: C_3  and  C_11 
REMARK    2  A    between atoms: C_5  and  C_7 
REMARK       I    between atoms: N_25  and  C_27 
REMARK    3  A    between atoms: C_27  and  C_29 
ROOT
ATOM      1  C   LIG d   1       7.653   1.064  -7.885  0.00  0.00     0.047 A 
ATOM      2  C   LIG d   1       7.904  -0.275  -7.625  0.00  0.00    -0.047 A 
ATOM      3  C   LIG d   1       6.972  -1.224  -8.046  0.00  0.00    -0.041 A 
ATOM      4  C   LIG d   1       5.838  -0.847  -8.698  0.00  0.00     0.027 A 
ATOM      5  N   LIG d   1       5.628   0.449  -9.027  0.00  0.00    -0.311 N 
ATOM      6  C   LIG d   1       6.477   1.410  -8.585  0.00  0.00     0.259 A 
ATOM      7  O   LIG d   1       6.221   2.584  -8.794  0.00  0.00    -0.267 OA
ATOM      8  C   LIG d   1       4.528   0.888  -9.888  0.00  0.00     0.031 C 
ATOM      9  C   LIG d   1       3.408  -0.134  -9.966  0.00  0.00    -0.006 C 
ATOM     10  H   LIG d   1       2.771   0.127 -10.811  0.00  0.00     0.033 H 
ATOM     11  C   LIG d   1       3.990  -1.525 -10.220  0.00  0.00    -0.037 C 
ATOM     12  C   LIG d   1       4.827  -1.927  -9.004  0.00  0.00     0.016 C 
ATOM     13  H   LIG d   1       5.324  -2.880  -9.189  0.00  0.00     0.038 H 
ATOM     14  C   LIG d   1       3.890  -2.047  -7.789  0.00  0.00     0.023 C 
ATOM     15  N   LIG d   1       3.258  -0.732  -7.591  0.00  0.00    -0.300 N 
ATOM     16  C   LIG d   1       2.539  -0.124  -8.716  0.00  0.00     0.019 C 
ATOM     17  C   LIG d   1       3.340  -0.101  -6.403  0.00  0.00     0.219 C 
ATOM     18  O   LIG d   1       2.883   1.016  -6.277  0.00  0.00    -0.275 OA
ATOM     19  H   LIG d   1       8.805  -0.577  -7.110  0.00  0.00     0.063 H 
ATOM     20  H   LIG d   1       7.150  -2.270  -7.848  0.00  0.00     0.064 H 
ATOM     21  H   LIG d   1       4.126   1.822  -9.498  0.00  0.00     0.050 H 
ATOM     22  H   LIG d   1       4.914   1.062 -10.893  0.00  0.00     0.050 H 
ATOM     23  H   LIG d   1       3.181  -2.240 -10.363  0.00  0.00     0.028 H 
ATOM     24  H   LIG d   1       4.621  -1.501 -11.108  0.00  0.00     0.028 H 
ATOM     25  H   LIG d   1       3.126  -2.800  -7.983  0.00  0.00     0.047 H 
ATOM     26  H   LIG d   1       4.464  -2.320  -6.904  0.00  0.00     0.047 H 
ATOM     27  H   LIG d   1       2.279   0.904  -8.465  0.00  0.00     0.047 H 
ATOM     28  H   LIG d   1       1.626  -0.688  -8.907  0.00  0.00     0.047 H 
ENDROOT
BRANCH  17  29
ATOM     29  C   LIG d   1       3.999  -0.782  -5.231  0.00  0.00     0.036 C 
ATOM     30  C   LIG d   1       5.338  -0.103  -4.934  0.00  0.00    -0.042 C 
ATOM     31  C   LIG d   1       6.006  -0.794  -3.744  0.00  0.00    -0.052 C 
ATOM     32  H   LIG d   1       5.985  -0.177  -5.807  0.00  0.00     0.027 H 
ATOM     33  H   LIG d   1       5.167   0.947  -4.696  0.00  0.00     0.027 H 
ATOM     34  C   LIG d   1       5.098  -0.690  -2.517  0.00  0.00    -0.053 C 
ATOM     35  H   LIG d   1       6.177  -1.845  -3.983  0.00  0.00     0.026 H 
ATOM     36  H   LIG d   1       6.960  -0.311  -3.531  0.00  0.00     0.026 H 
ATOM     37  C   LIG d   1       3.759  -1.369  -2.814  0.00  0.00    -0.052 C 
ATOM     38  H   LIG d   1       5.574  -1.183  -1.669  0.00  0.00     0.026 H 
ATOM     39  H   LIG d   1       4.928   0.359  -2.278  0.00  0.00     0.026 H 
ATOM     40  C   LIG d   1       3.091  -0.678  -4.005  0.00  0.00    -0.042 C 
ATOM     41  H   LIG d   1       3.929  -2.419  -3.054  0.00  0.00     0.026 H 
ATOM     42  H   LIG d   1       3.112  -1.295  -1.941  0.00  0.00     0.026 H 
ATOM     43  H   LIG d   1       2.920   0.371  -3.766  0.00  0.00     0.027 H 
ATOM     44  H   LIG d   1       2.137  -1.162  -4.217  0.00  0.00     0.027 H 
ATOM     45  H   LIG d   1       4.169  -1.832  -5.470  0.00  0.00     0.039 H 
ENDBRANCH  17  29
BRANCH   1  46
ATOM     46  C   LIG d   1       8.602   2.111  -7.439  0.00  0.00    -0.012 A 
ATOM     47  C   LIG d   1       9.434   2.741  -8.362  0.00  0.00    -0.054 A 
ATOM     48  C   LIG d   1      10.315   3.717  -7.940  0.00  0.00    -0.061 A 
ATOM     49  H   LIG d   1       9.390   2.467  -9.406  0.00  0.00     0.062 H 
ATOM     50  C   LIG d   1      10.373   4.069  -6.604  0.00  0.00    -0.050 A 
ATOM     51  H   LIG d   1      10.960   4.206  -8.655  0.00  0.00     0.062 H 
ATOM     52  C   LIG d   1       9.549   3.447  -5.682  0.00  0.00     0.055 A 
ATOM     53  H   LIG d   1      11.064   4.832  -6.279  0.00  0.00     0.062 H 
ATOM     54  C   LIG d   1       8.661   2.474  -6.093  0.00  0.00    -0.042 A 
ATOM     55  H   LIG d   1       8.015   1.993  -5.374  0.00  0.00     0.063 H 
BRANCH  52  56
ATOM     56  C   LIG d   1       9.617   3.837  -4.229  0.00  0.00     0.417 C 
ATOM     57  F   LIG d   1       8.796   2.988  -3.479  0.00  0.00    -0.166 F 
ATOM     58  F   LIG d   1      10.937   3.729  -3.777  0.00  0.00    -0.166 F 
ATOM     59  F   LIG d   1       9.181   5.158  -4.080  0.00  0.00    -0.166 F 
ENDBRANCH  52  56
ENDBRANCH   1  46
TORSDOF 3
ENDMDL
MODEL 9
REMARK VINA RESULT:      -7.3      2.567      4.304
REMARK  3 active torsions:
REMARK  status: ('A' for Active; 'I' for Inactive)
REMARK    1  A    between atoms: C_3  and  C_11 
REMARK    2  A    between atoms: C_5  and  C_7 
REMARK       I    between atoms: N_25  and  C_27 
REMARK    3  A    between atoms: C_27  and  C_29 
ROOT
ATOM      1  C   LIG d   1       4.959  -1.403  -8.618  0.00  0.00     0.047 A 
ATOM      2  C   LIG d   1       5.703  -0.309  -8.202  0.00  0.00    -0.047 A 
ATOM      3  C   LIG d   1       6.827  -0.531  -7.404  0.00  0.00    -0.041 A 
ATOM      4  C   LIG d   1       7.186  -1.792  -7.039  0.00  0.00     0.027 A 
ATOM      5  N   LIG d   1       6.511  -2.867  -7.509  0.00  0.00    -0.311 N 
ATOM      6  C   LIG d   1       5.380  -2.695  -8.236  0.00  0.00     0.259 A 
ATOM      7  O   LIG d   1       4.719  -3.667  -8.563  0.00  0.00    -0.267 OA
ATOM      8  C   LIG d   1       6.961  -4.245  -7.307  0.00  0.00     0.031 C 
ATOM      9  C   LIG d   1       7.936  -4.374  -6.151  0.00  0.00    -0.006 C 
ATOM     10  H   LIG d   1       8.426  -5.345  -6.229  0.00  0.00     0.033 H 
ATOM     11  C   LIG d   1       9.010  -3.291  -6.253  0.00  0.00    -0.037 C 
ATOM     12  C   LIG d   1       8.339  -1.928  -6.071  0.00  0.00     0.016 C 
ATOM     13  H   LIG d   1       9.065  -1.129  -6.222  0.00  0.00     0.038 H 
ATOM     14  C   LIG d   1       7.763  -1.857  -4.646  0.00  0.00     0.023 C 
ATOM     15  N   LIG d   1       6.790  -2.954  -4.511  0.00  0.00    -0.300 N 
ATOM     16  C   LIG d   1       7.233  -4.323  -4.802  0.00  0.00     0.019 C 
ATOM     17  C   LIG d   1       5.522  -2.706  -4.130  0.00  0.00     0.219 C 
ATOM     18  O   LIG d   1       4.711  -3.607  -4.099  0.00  0.00    -0.275 OA
ATOM     19  H   LIG d   1       5.422   0.692  -8.493  0.00  0.00     0.063 H 
ATOM     20  H   LIG d   1       7.416   0.310  -7.068  0.00  0.00     0.064 H 
ATOM     21  H   LIG d   1       6.094  -4.874  -7.108  0.00  0.00     0.050 H 
ATOM     22  H   LIG d   1       7.448  -4.595  -8.218  0.00  0.00     0.050 H 
ATOM     23  H   LIG d   1       9.757  -3.440  -5.474  0.00  0.00     0.028 H 
ATOM     24  H   LIG d   1       9.486  -3.338  -7.232  0.00  0.00     0.028 H 
ATOM     25  H   LIG d   1       8.564  -1.980  -3.917  0.00  0.00     0.047 H 
ATOM     26  H   LIG d   1       7.267  -0.899  -4.493  0.00  0.00     0.047 H 
ATOM     27  H   LIG d   1       6.367  -4.985  -4.819  0.00  0.00     0.047 H 
ATOM     28  H   LIG d   1       7.921  -4.652  -4.023  0.00  0.00     0.047 H 
ENDROOT
BRANCH  17  29
ATOM     29  C   LIG d   1       5.111  -1.309  -3.742  0.00  0.00     0.036 C 
ATOM     30  C   LIG d   1       3.823  -0.934  -4.478  0.00  0.00    -0.042 C 
ATOM     31  C   LIG d   1       3.405   0.485  -4.083  0.00  0.00    -0.052 C 
ATOM     32  H   LIG d   1       3.992  -0.977  -5.553  0.00  0.00     0.027 H 
ATOM     33  H   LIG d   1       3.033  -1.634  -4.206  0.00  0.00     0.027 H 
ATOM     34  C   LIG d   1       3.167   0.545  -2.574  0.00  0.00    -0.053 C 
ATOM     35  H   LIG d   1       4.196   1.185  -4.356  0.00  0.00     0.026 H 
ATOM     36  H   LIG d   1       2.487   0.752  -4.607  0.00  0.00     0.026 H 
ATOM     37  C   LIG d   1       4.455   0.170  -1.838  0.00  0.00    -0.052 C 
ATOM     38  H   LIG d   1       2.869   1.556  -2.293  0.00  0.00     0.026 H 
ATOM     39  H   LIG d   1       2.376  -0.154  -2.302  0.00  0.00     0.026 H 
ATOM     40  C   LIG d   1       4.872  -1.248  -2.233  0.00  0.00    -0.042 C 
ATOM     41  H   LIG d   1       5.246   0.870  -2.110  0.00  0.00     0.026 H 
ATOM     42  H   LIG d   1       4.285   0.213  -0.763  0.00  0.00     0.026 H 
ATOM     43  H   LIG d   1       4.083  -1.947  -1.960  0.00  0.00     0.027 H 
ATOM     44  H   LIG d   1       5.790  -1.515  -1.709  0.00  0.00     0.027 H 
ATOM     45  H   LIG d   1       5.902  -0.609  -4.014  0.00  0.00     0.039 H 
ENDBRANCH  17  29
BRANCH   1  46
ATOM     46  C   LIG d   1       3.745  -1.217  -9.448  0.00  0.00    -0.012 A 
ATOM     47  C   LIG d   1       2.571  -0.736  -8.873  0.00  0.00    -0.054 A 
ATOM     48  C   LIG d   1       1.444  -0.563  -9.651  0.00  0.00    -0.061 A 
ATOM     49  H   LIG d   1       2.542  -0.497  -7.820  0.00  0.00     0.062 H 
ATOM     50  C   LIG d   1       1.479  -0.868 -11.000  0.00  0.00    -0.050 A 
ATOM     51  H   LIG d   1       0.533  -0.190  -9.206  0.00  0.00     0.062 H 
ATOM     52  C   LIG d   1       2.642  -1.347 -11.577  0.00  0.00     0.055 A 
ATOM     53  H   LIG d   1       0.594  -0.732 -11.605  0.00  0.00     0.062 H 
ATOM     54  C   LIG d   1       3.776  -1.518 -10.810  0.00  0.00    -0.042 A 
ATOM     55  H   LIG d   1       4.684  -1.887 -11.262  0.00  0.00     0.063 H 
BRANCH  52  56
ATOM     56  C   LIG d   1       2.672  -1.675 -13.047  0.00  0.00     0.417 C 
ATOM     57  F   LIG d   1       3.264  -2.929 -13.232  0.00  0.00    -0.166 F 
ATOM     58  F   LIG d   1       1.366  -1.697 -13.548  0.00  0.00    -0.166 F 
ATOM     59  F   LIG d   1       3.415  -0.703 -13.727  0.00  0.00    -0.166 F 
ENDBRANCH  52  56
ENDBRANCH   1  46
TORSDOF 3
ENDMDL
