MODEL 1
REMARK VINA RESULT:      -6.0      0.000      0.000
REMARK  5 active torsions:
REMARK  status: ('A' for Active; 'I' for Inactive)
REMARK    1  A    between atoms: C_1  and  C_2 
REMARK    2  A    between atoms: N_5  and  C_9 
REMARK    3  A    between atoms: C_6  and  C_8 
REMARK    4  A    between atoms: C_9  and  C_10 
REMARK    5  A    between atoms: C_10  and  C_12 
ROOT
ATOM      1  C   LIG d   1       6.424   0.981  -8.601  0.00  0.00    -0.039 A 
ATOM      2  C   LIG d   1       6.492   0.150  -7.493  0.00  0.00     0.005 A 
ATOM      3  C   LIG d   1       5.326  -0.180  -6.826  0.00  0.00     0.172 A 
ATOM      4  N   LIG d   1       4.162   0.285  -7.233  0.00  0.00    -0.194 N 
ATOM      5  C   LIG d   1       4.060   1.077  -8.283  0.00  0.00     0.181 A 
ATOM      6  C   LIG d   1       5.182   1.455  -8.995  0.00  0.00     0.008 A 
ATOM      7  H   LIG d   1       7.443  -0.235  -7.154  0.00  0.00     0.068 H 
ATOM      8  H   LIG d   1       5.371  -0.827  -5.962  0.00  0.00     0.138 H 
ATOM      9  H   LIG d   1       5.093   2.107  -9.851  0.00  0.00     0.068 H 
ENDROOT
BRANCH   4  10
ATOM     10  C   LIG d   1       2.949  -0.088  -6.500  0.00  0.00     0.213 C 
ATOM     11  H   LIG d   1       2.073   0.161  -7.099  0.00  0.00     0.112 H 
ATOM     12  H   LIG d   1       2.961  -1.158  -6.299  0.00  0.00     0.112 H 
BRANCH  10  13
ATOM     13  C   LIG d   1       2.898   0.668  -5.197  0.00  0.00     0.228 C 
ATOM     14  O   LIG d   1       2.422   1.783  -5.160  0.00  0.00    -0.285 OA
BRANCH  13  15
ATOM     15  C   LIG d   1       3.426   0.053  -3.969  0.00  0.00     0.024 A 
ATOM     16  C   LIG d   1       3.359  -1.333  -3.791  0.00  0.00    -0.051 A 
ATOM     17  C   LIG d   1       3.861  -1.902  -2.640  0.00  0.00    -0.061 A 
ATOM     18  H   LIG d   1       2.918  -1.956  -4.556  0.00  0.00     0.062 H 
ATOM     19  C   LIG d   1       4.421  -1.106  -1.657  0.00  0.00    -0.062 A 
ATOM     20  H   LIG d   1       3.813  -2.973  -2.504  0.00  0.00     0.062 H 
ATOM     21  C   LIG d   1       4.487   0.267  -1.822  0.00  0.00    -0.061 A 
ATOM     22  H   LIG d   1       4.808  -1.558  -0.756  0.00  0.00     0.062 H 
ATOM     23  C   LIG d   1       3.994   0.851  -2.971  0.00  0.00    -0.051 A 
ATOM     24  H   LIG d   1       4.925   0.882  -1.051  0.00  0.00     0.062 H 
ATOM     25  H   LIG d   1       4.046   1.922  -3.099  0.00  0.00     0.062 H 
ENDBRANCH  13  15
ENDBRANCH  10  13
ENDBRANCH   4  10
BRANCH   5  26
ATOM     26  C   LIG d   1       2.704   1.580  -8.706  0.00  0.00     0.021 C 
ATOM     27  H   LIG d   1       2.284   0.909  -9.455  0.00  0.00     0.034 H 
ATOM     28  H   LIG d   1       2.043   1.618  -7.840  0.00  0.00     0.034 H 
ATOM     29  H   LIG d   1       2.804   2.580  -9.129  0.00  0.00     0.034 H 
ENDBRANCH   5  26
BRANCH   1  30
ATOM     30  C   LIG d   1       7.671   1.364  -9.354  0.00  0.00    -0.039 C 
ATOM     31  H   LIG d   1       8.139   2.221  -8.871  0.00  0.00     0.028 H 
ATOM     32  H   LIG d   1       8.366   0.524  -9.358  0.00  0.00     0.028 H 
ATOM     33  H   LIG d   1       7.409   1.624 -10.380  0.00  0.00     0.028 H 
ENDBRANCH   1  30
TORSDOF 5
ENDMDL
MODEL 2
REMARK VINA RESULT:      -5.9      2.213      2.826
REMARK  5 active torsions:
REMARK  status: ('A' for Active; 'I' for Inactive)
REMARK    1  A    between atoms: C_1  and  C_2 
REMARK    2  A    between atoms: N_5  and  C_9 
REMARK    3  A    between atoms: C_6  and  C_8 
REMARK    4  A    between atoms: C_9  and  C_10 
REMARK    5  A    between atoms: C_10  and  C_12 
ROOT
ATOM      1  C   LIG d   1       3.089  -0.740 -11.006  0.00  0.00    -0.039 A 
ATOM      2  C   LIG d   1       2.888  -1.700 -10.026  0.00  0.00     0.005 A 
ATOM      3  C   LIG d   1       2.805  -1.304  -8.704  0.00  0.00     0.172 A 
ATOM      4  N   LIG d   1       2.914  -0.033  -8.372  0.00  0.00    -0.194 N 
ATOM      5  C   LIG d   1       3.104   0.906  -9.278  0.00  0.00     0.181 A 
ATOM      6  C   LIG d   1       3.204   0.586 -10.618  0.00  0.00     0.008 A 
ATOM      7  H   LIG d   1       2.798  -2.743 -10.291  0.00  0.00     0.068 H 
ATOM      8  H   LIG d   1       2.648  -2.046  -7.934  0.00  0.00     0.138 H 
ATOM      9  H   LIG d   1       3.366   1.358 -11.355  0.00  0.00     0.068 H 
ENDROOT
BRANCH   4  10
ATOM     10  C   LIG d   1       2.819   0.346  -6.960  0.00  0.00     0.213 C 
ATOM     11  H   LIG d   1       2.745   1.431  -6.880  0.00  0.00     0.112 H 
ATOM     12  H   LIG d   1       1.935  -0.113  -6.519  0.00  0.00     0.112 H 
BRANCH  10  13
ATOM     13  C   LIG d   1       4.049  -0.128  -6.229  0.00  0.00     0.228 C 
ATOM     14  O   LIG d   1       5.147   0.038  -6.717  0.00  0.00    -0.285 OA
BRANCH  13  15
ATOM     15  C   LIG d   1       3.917  -0.794  -4.923  0.00  0.00     0.024 A 
ATOM     16  C   LIG d   1       4.698  -1.915  -4.624  0.00  0.00    -0.051 A 
ATOM     17  C   LIG d   1       4.573  -2.530  -3.396  0.00  0.00    -0.061 A 
ATOM     18  H   LIG d   1       5.401  -2.295  -5.351  0.00  0.00     0.062 H 
ATOM     19  C   LIG d   1       3.670  -2.048  -2.466  0.00  0.00    -0.062 A 
ATOM     20  H   LIG d   1       5.178  -3.394  -3.162  0.00  0.00     0.062 H 
ATOM     21  C   LIG d   1       2.889  -0.942  -2.755  0.00  0.00    -0.061 A 
ATOM     22  H   LIG d   1       3.573  -2.537  -1.507  0.00  0.00     0.062 H 
ATOM     23  C   LIG d   1       3.007  -0.312  -3.977  0.00  0.00    -0.051 A 
ATOM     24  H   LIG d   1       2.186  -0.572  -2.025  0.00  0.00     0.062 H 
ATOM     25  H   LIG d   1       2.397   0.550  -4.203  0.00  0.00     0.062 H 
ENDBRANCH  13  15
ENDBRANCH  10  13
ENDBRANCH   4  10
BRANCH   5  26
ATOM     26  C   LIG d   1       3.221   2.345  -8.845  0.00  0.00     0.021 C 
ATOM     27  H   LIG d   1       3.198   2.991  -9.722  0.00  0.00     0.034 H 
ATOM     28  H   LIG d   1       2.389   2.595  -8.186  0.00  0.00     0.034 H 
ATOM     29  H   LIG d   1       4.161   2.489  -8.313  0.00  0.00     0.034 H 
ENDBRANCH   5  26
BRANCH   1  30
ATOM     30  C   LIG d   1       3.186  -1.131 -12.459  0.00  0.00    -0.039 C 
ATOM     31  H   LIG d   1       3.299  -2.211 -12.538  0.00  0.00     0.028 H 
ATOM     32  H   LIG d   1       2.281  -0.821 -12.980  0.00  0.00     0.028 H 
ATOM     33  H   LIG d   1       4.050  -0.641 -12.909  0.00  0.00     0.028 H 
ENDBRANCH   1  30
TORSDOF 5
ENDMDL
MODEL 3
REMARK VINA RESULT:      -5.8      2.572      3.682
REMARK  5 active torsions:
REMARK  status: ('A' for Active; 'I' for Inactive)
REMARK    1  A    between atoms: C_1  and  C_2 
REMARK    2  A    between atoms: N_5  and  C_9 
REMARK    3  A    between atoms: C_6  and  C_8 
REMARK    4  A    between atoms: C_9  and  C_10 
REMARK    5  A    between atoms: C_10  and  C_12 
ROOT
ATOM      1  C   LIG d   1       2.381  -1.048  -9.031  0.00  0.00    -0.039 A 
ATOM      2  C   LIG d   1       2.699  -0.140  -8.032  0.00  0.00     0.005 A 
ATOM      3  C   LIG d   1       3.670  -0.471  -7.105  0.00  0.00     0.172 A 
ATOM      4  N   LIG d   1       4.291  -1.633  -7.165  0.00  0.00    -0.194 N 
ATOM      5  C   LIG d   1       4.015  -2.519  -8.101  0.00  0.00     0.181 A 
ATOM      6  C   LIG d   1       3.051  -2.261  -9.057  0.00  0.00     0.008 A 
ATOM      7  H   LIG d   1       2.194   0.813  -7.978  0.00  0.00     0.068 H 
ATOM      8  H   LIG d   1       3.923   0.231  -6.324  0.00  0.00     0.138 H 
ATOM      9  H   LIG d   1       2.827  -2.993  -9.819  0.00  0.00     0.068 H 
ENDROOT
BRANCH   4  10
ATOM     10  C   LIG d   1       5.315  -1.946  -6.165  0.00  0.00     0.213 C 
ATOM     11  H   LIG d   1       5.855  -2.843  -6.468  0.00  0.00     0.112 H 
ATOM     12  H   LIG d   1       6.010  -1.111  -6.083  0.00  0.00     0.112 H 
BRANCH  10  13
ATOM     13  C   LIG d   1       4.657  -2.184  -4.829  0.00  0.00     0.228 C 
ATOM     14  O   LIG d   1       4.243  -3.288  -4.545  0.00  0.00    -0.285 OA
BRANCH  13  15
ATOM     15  C   LIG d   1       4.515  -1.076  -3.872  0.00  0.00     0.024 A 
ATOM     16  C   LIG d   1       5.638  -0.349  -3.467  0.00  0.00    -0.051 A 
ATOM     17  C   LIG d   1       5.497   0.692  -2.573  0.00  0.00    -0.061 A 
ATOM     18  H   LIG d   1       6.615  -0.599  -3.856  0.00  0.00     0.062 H 
ATOM     19  C   LIG d   1       4.248   1.011  -2.069  0.00  0.00    -0.062 A 
ATOM     20  H   LIG d   1       6.364   1.257  -2.262  0.00  0.00     0.062 H 
ATOM     21  C   LIG d   1       3.131   0.293  -2.461  0.00  0.00    -0.061 A 
ATOM     22  H   LIG d   1       4.144   1.824  -1.366  0.00  0.00     0.062 H 
ATOM     23  C   LIG d   1       3.256  -0.747  -3.358  0.00  0.00    -0.051 A 
ATOM     24  H   LIG d   1       2.160   0.548  -2.063  0.00  0.00     0.062 H 
ATOM     25  H   LIG d   1       2.384  -1.306  -3.663  0.00  0.00     0.062 H 
ENDBRANCH  13  15
ENDBRANCH  10  13
ENDBRANCH   4  10
BRANCH   5  26
ATOM     26  C   LIG d   1       4.755  -3.832  -8.124  0.00  0.00     0.021 C 
ATOM     27  H   LIG d   1       5.078  -4.085  -7.115  0.00  0.00     0.034 H 
ATOM     28  H   LIG d   1       4.096  -4.614  -8.502  0.00  0.00     0.034 H 
ATOM     29  H   LIG d   1       5.626  -3.747  -8.773  0.00  0.00     0.034 H 
ENDBRANCH   5  26
BRANCH   1  30
ATOM     30  C   LIG d   1       1.328  -0.725 -10.060  0.00  0.00    -0.039 C 
ATOM     31  H   LIG d   1       1.001  -1.644 -10.545  0.00  0.00     0.028 H 
ATOM     32  H   LIG d   1       0.478  -0.249  -9.572  0.00  0.00     0.028 H 
ATOM     33  H   LIG d   1       1.745  -0.048 -10.805  0.00  0.00     0.028 H 
ENDBRANCH   1  30
TORSDOF 5
ENDMDL
MODEL 4
REMARK VINA RESULT:      -5.7      1.912      5.581
REMARK  5 active torsions:
REMARK  status: ('A' for Active; 'I' for Inactive)
REMARK    1  A    between atoms: C_1  and  C_2 
REMARK    2  A    between atoms: N_5  and  C_9 
REMARK    3  A    between atoms: C_6  and  C_8 
REMARK    4  A    between atoms: C_9  and  C_10 
REMARK    5  A    between atoms: C_10  and  C_12 
ROOT
ATOM      1  C   LIG d   1       4.819   0.286  -2.922  0.00  0.00    -0.039 A 
ATOM      2  C   LIG d   1       3.916  -0.603  -3.485  0.00  0.00     0.005 A 
ATOM      3  C   LIG d   1       4.205  -1.170  -4.712  0.00  0.00     0.172 A 
ATOM      4  N   LIG d   1       5.324  -0.875  -5.344  0.00  0.00    -0.194 N 
ATOM      5  C   LIG d   1       6.205  -0.035  -4.839  0.00  0.00     0.181 A 
ATOM      6  C   LIG d   1       5.981   0.576  -3.620  0.00  0.00     0.008 A 
ATOM      7  H   LIG d   1       2.998  -0.849  -2.971  0.00  0.00     0.068 H 
ATOM      8  H   LIG d   1       3.507  -1.864  -5.157  0.00  0.00     0.138 H 
ATOM      9  H   LIG d   1       6.705   1.267  -3.214  0.00  0.00     0.068 H 
ENDROOT
BRANCH   4  10
ATOM     10  C   LIG d   1       5.594  -1.498  -6.642  0.00  0.00     0.213 C 
ATOM     11  H   LIG d   1       6.521  -1.096  -7.052  0.00  0.00     0.112 H 
ATOM     12  H   LIG d   1       5.689  -2.576  -6.515  0.00  0.00     0.112 H 
BRANCH  10  13
ATOM     13  C   LIG d   1       4.458  -1.202  -7.588  0.00  0.00     0.228 C 
ATOM     14  O   LIG d   1       3.689  -2.084  -7.907  0.00  0.00    -0.285 OA
BRANCH  13  15
ATOM     15  C   LIG d   1       4.284   0.157  -8.125  0.00  0.00     0.024 A 
ATOM     16  C   LIG d   1       5.374   0.844  -8.666  0.00  0.00    -0.051 A 
ATOM     17  C   LIG d   1       5.202   2.115  -9.172  0.00  0.00    -0.061 A 
ATOM     18  H   LIG d   1       6.349   0.379  -8.692  0.00  0.00     0.062 H 
ATOM     19  C   LIG d   1       3.955   2.715  -9.135  0.00  0.00    -0.062 A 
ATOM     20  H   LIG d   1       6.043   2.646  -9.594  0.00  0.00     0.062 H 
ATOM     21  C   LIG d   1       2.871   2.044  -8.597  0.00  0.00    -0.061 A 
ATOM     22  H   LIG d   1       3.827   3.713  -9.529  0.00  0.00     0.062 H 
ATOM     23  C   LIG d   1       3.027   0.770  -8.092  0.00  0.00    -0.051 A 
ATOM     24  H   LIG d   1       1.902   2.518  -8.571  0.00  0.00     0.062 H 
ATOM     25  H   LIG d   1       2.181   0.247  -7.672  0.00  0.00     0.062 H 
ENDBRANCH  13  15
ENDBRANCH  10  13
ENDBRANCH   4  10
BRANCH   5  26
ATOM     26  C   LIG d   1       7.468   0.267  -5.603  0.00  0.00     0.021 C 
ATOM     27  H   LIG d   1       7.407   1.271  -6.024  0.00  0.00     0.034 H 
ATOM     28  H   LIG d   1       8.324   0.207  -4.930  0.00  0.00     0.034 H 
ATOM     29  H   LIG d   1       7.588  -0.457  -6.409  0.00  0.00     0.034 H 
ENDBRANCH   5  26
BRANCH   1  30
ATOM     30  C   LIG d   1       4.541   0.927  -1.587  0.00  0.00    -0.039 C 
ATOM     31  H   LIG d   1       4.452   2.005  -1.712  0.00  0.00     0.028 H 
ATOM     32  H   LIG d   1       3.610   0.530  -1.181  0.00  0.00     0.028 H 
ATOM     33  H   LIG d   1       5.359   0.706  -0.901  0.00  0.00     0.028 H 
ENDBRANCH   1  30
TORSDOF 5
ENDMDL
MODEL 5
REMARK VINA RESULT:      -5.6      1.904      2.848
REMARK  5 active torsions:
REMARK  status: ('A' for Active; 'I' for Inactive)
REMARK    1  A    between atoms: C_1  and  C_2 
REMARK    2  A    between atoms: N_5  and  C_9 
REMARK    3  A    between atoms: C_6  and  C_8 
REMARK    4  A    between atoms: C_9  and  C_10 
REMARK    5  A    between atoms: C_10  and  C_12 
ROOT
ATOM      1  C   LIG d   1       3.847   1.375  -8.803  0.00  0.00    -0.039 A 
ATOM      2  C   LIG d   1       4.885   0.479  -9.005  0.00  0.00     0.005 A 
ATOM      3  C   LIG d   1       5.078  -0.545  -8.096  0.00  0.00     0.172 A 
ATOM      4  N   LIG d   1       4.288  -0.675  -7.049  0.00  0.00    -0.194 N 
ATOM      5  C   LIG d   1       3.290   0.158  -6.826  0.00  0.00     0.181 A 
ATOM      6  C   LIG d   1       3.041   1.210  -7.687  0.00  0.00     0.008 A 
ATOM      7  H   LIG d   1       5.536   0.580  -9.862  0.00  0.00     0.068 H 
ATOM      8  H   LIG d   1       5.885  -1.247  -8.247  0.00  0.00     0.138 H 
ATOM      9  H   LIG d   1       2.225   1.892  -7.496  0.00  0.00     0.068 H 
ENDROOT
BRANCH   4  10
ATOM     10  C   LIG d   1       4.523  -1.774  -6.109  0.00  0.00     0.213 C 
ATOM     11  H   LIG d   1       3.609  -1.978  -5.553  0.00  0.00     0.112 H 
ATOM     12  H   LIG d   1       4.821  -2.665  -6.660  0.00  0.00     0.112 H 
BRANCH  10  13
ATOM     13  C   LIG d   1       5.620  -1.387  -5.149  0.00  0.00     0.228 C 
ATOM     14  O   LIG d   1       6.773  -1.663  -5.403  0.00  0.00    -0.285 OA
BRANCH  13  15
ATOM     15  C   LIG d   1       5.289  -0.675  -3.905  0.00  0.00     0.024 A 
ATOM     16  C   LIG d   1       5.654   0.665  -3.743  0.00  0.00    -0.051 A 
ATOM     17  C   LIG d   1       5.337   1.326  -2.576  0.00  0.00    -0.061 A 
ATOM     18  H   LIG d   1       6.180   1.182  -4.532  0.00  0.00     0.062 H 
ATOM     19  C   LIG d   1       4.668   0.665  -1.561  0.00  0.00    -0.062 A 
ATOM     20  H   LIG d   1       5.615   2.363  -2.451  0.00  0.00     0.062 H 
ATOM     21  C   LIG d   1       4.307  -0.664  -1.710  0.00  0.00    -0.061 A 
ATOM     22  H   LIG d   1       4.426   1.187  -0.647  0.00  0.00     0.062 H 
ATOM     23  C   LIG d   1       4.613  -1.337  -2.874  0.00  0.00    -0.051 A 
ATOM     24  H   LIG d   1       3.786  -1.173  -0.914  0.00  0.00     0.062 H 
ATOM     25  H   LIG d   1       4.332  -2.373  -2.990  0.00  0.00     0.062 H 
ENDBRANCH  13  15
ENDBRANCH  10  13
ENDBRANCH   4  10
BRANCH   5  26
ATOM     26  C   LIG d   1       2.416  -0.035  -5.613  0.00  0.00     0.021 C 
ATOM     27  H   LIG d   1       2.299   0.916  -5.094  0.00  0.00     0.034 H 
ATOM     28  H   LIG d   1       1.438  -0.403  -5.924  0.00  0.00     0.034 H 
ATOM     29  H   LIG d   1       2.880  -0.759  -4.943  0.00  0.00     0.034 H 
ENDBRANCH   5  26
BRANCH   1  30
ATOM     30  C   LIG d   1       3.604   2.505  -9.769  0.00  0.00    -0.039 C 
ATOM     31  H   LIG d   1       2.778   3.119  -9.412  0.00  0.00     0.028 H 
ATOM     32  H   LIG d   1       4.503   3.116  -9.847  0.00  0.00     0.028 H 
ATOM     33  H   LIG d   1       3.356   2.097 -10.750  0.00  0.00     0.028 H 
ENDBRANCH   1  30
TORSDOF 5
ENDMDL
MODEL 6
REMARK VINA RESULT:      -5.4      2.218      6.015
REMARK  5 active torsions:
REMARK  status: ('A' for Active; 'I' for Inactive)
REMARK    1  A    between atoms: C_1  and  C_2 
REMARK    2  A    between atoms: N_5  and  C_9 
REMARK    3  A    between atoms: C_6  and  C_8 
REMARK    4  A    between atoms: C_9  and  C_10 
REMARK    5  A    between atoms: C_10  and  C_12 
ROOT
ATOM      1  C   LIG d   1       4.498   0.474  -3.050  0.00  0.00    -0.039 A 
ATOM      2  C   LIG d   1       3.370   0.429  -3.855  0.00  0.00     0.005 A 
ATOM      3  C   LIG d   1       3.469  -0.109  -5.124  0.00  0.00     0.172 A 
ATOM      4  N   LIG d   1       4.618  -0.577  -5.571  0.00  0.00    -0.194 N 
ATOM      5  C   LIG d   1       5.710  -0.551  -4.833  0.00  0.00     0.181 A 
ATOM      6  C   LIG d   1       5.690  -0.021  -3.556  0.00  0.00     0.008 A 
ATOM      7  H   LIG d   1       2.425   0.810  -3.495  0.00  0.00     0.068 H 
ATOM      8  H   LIG d   1       2.594  -0.148  -5.757  0.00  0.00     0.138 H 
ATOM      9  H   LIG d   1       6.589   0.002  -2.959  0.00  0.00     0.068 H 
ENDROOT
BRANCH   4  10
ATOM     10  C   LIG d   1       4.682  -1.141  -6.921  0.00  0.00     0.213 C 
ATOM     11  H   LIG d   1       5.665  -1.585  -7.083  0.00  0.00     0.112 H 
ATOM     12  H   LIG d   1       3.914  -1.905  -7.033  0.00  0.00     0.112 H 
BRANCH  10  13
ATOM     13  C   LIG d   1       4.453  -0.047  -7.933  0.00  0.00     0.228 C 
ATOM     14  O   LIG d   1       5.013   1.022  -7.808  0.00  0.00    -0.285 OA
BRANCH  13  15
ATOM     15  C   LIG d   1       3.551  -0.276  -9.073  0.00  0.00     0.024 A 
ATOM     16  C   LIG d   1       2.225  -0.662  -8.853  0.00  0.00    -0.051 A 
ATOM     17  C   LIG d   1       1.384  -0.870  -9.925  0.00  0.00    -0.061 A 
ATOM     18  H   LIG d   1       1.859  -0.793  -7.845  0.00  0.00     0.062 H 
ATOM     19  C   LIG d   1       1.852  -0.708 -11.217  0.00  0.00    -0.062 A 
ATOM     20  H   LIG d   1       0.358  -1.164  -9.756  0.00  0.00     0.062 H 
ATOM     21  C   LIG d   1       3.164  -0.332 -11.445  0.00  0.00    -0.061 A 
ATOM     22  H   LIG d   1       1.189  -0.877 -12.054  0.00  0.00     0.062 H 
ATOM     23  C   LIG d   1       4.016  -0.115 -10.382  0.00  0.00    -0.051 A 
ATOM     24  H   LIG d   1       3.522  -0.208 -12.455  0.00  0.00     0.062 H 
ATOM     25  H   LIG d   1       5.040   0.179 -10.560  0.00  0.00     0.062 H 
ENDBRANCH  13  15
ENDBRANCH  10  13
ENDBRANCH   4  10
BRANCH   5  26
ATOM     26  C   LIG d   1       6.999  -1.099  -5.391  0.00  0.00     0.021 C 
ATOM     27  H   LIG d   1       6.798  -1.610  -6.332  0.00  0.00     0.034 H 
ATOM     28  H   LIG d   1       7.697  -0.280  -5.564  0.00  0.00     0.034 H 
ATOM     29  H   LIG d   1       7.433  -1.802  -4.681  0.00  0.00     0.034 H 
ENDBRANCH   5  26
BRANCH   1  30
ATOM     30  C   LIG d   1       4.431   1.054  -1.661  0.00  0.00    -0.039 C 
ATOM     31  H   LIG d   1       3.908   0.361  -1.002  0.00  0.00     0.028 H 
ATOM     32  H   LIG d   1       5.442   1.218  -1.287  0.00  0.00     0.028 H 
ATOM     33  H   LIG d   1       3.896   2.003  -1.689  0.00  0.00     0.028 H 
ENDBRANCH   1  30
TORSDOF 5
ENDMDL
MODEL 7
REMARK VINA RESULT:      -5.4      2.157      5.845
REMARK  5 active torsions:
REMARK  status: ('A' for Active; 'I' for Inactive)
REMARK    1  A    between atoms: C_1  and  C_2 
REMARK    2  A    between atoms: N_5  and  C_9 
REMARK    3  A    between atoms: C_6  and  C_8 
REMARK    4  A    between atoms: C_9  and  C_10 
REMARK    5  A    between atoms: C_10  and  C_12 
ROOT
ATOM      1  C   LIG d   1       4.616  -1.580  -3.270  0.00  0.00    -0.039 A 
ATOM      2  C   LIG d   1       4.852  -0.451  -4.039  0.00  0.00     0.005 A 
ATOM      3  C   LIG d   1       5.090  -0.596  -5.393  0.00  0.00     0.172 A 
ATOM      4  N   LIG d   1       5.094  -1.790  -5.953  0.00  0.00    -0.194 N 
ATOM      5  C   LIG d   1       4.873  -2.885  -5.252  0.00  0.00     0.181 A 
ATOM      6  C   LIG d   1       4.633  -2.818  -3.893  0.00  0.00     0.008 A 
ATOM      7  H   LIG d   1       4.849   0.530  -3.587  0.00  0.00     0.068 H 
ATOM      8  H   LIG d   1       5.275   0.279  -5.999  0.00  0.00     0.138 H 
ATOM      9  H   LIG d   1       4.458  -3.719  -3.324  0.00  0.00     0.068 H 
ENDROOT
BRANCH   4  10
ATOM     10  C   LIG d   1       5.350  -1.903  -7.391  0.00  0.00     0.213 C 
ATOM     11  H   LIG d   1       6.221  -1.302  -7.653  0.00  0.00     0.112 H 
ATOM     12  H   LIG d   1       5.535  -2.945  -7.647  0.00  0.00     0.112 H 
BRANCH  10  13
ATOM     13  C   LIG d   1       4.149  -1.404  -8.155  0.00  0.00     0.228 C 
ATOM     14  O   LIG d   1       3.268  -2.176  -8.472  0.00  0.00    -0.285 OA
BRANCH  13  15
ATOM     15  C   LIG d   1       4.047   0.018  -8.517  0.00  0.00     0.024 A 
ATOM     16  C   LIG d   1       5.191   0.736  -8.877  0.00  0.00    -0.051 A 
ATOM     17  C   LIG d   1       5.086   2.068  -9.220  0.00  0.00    -0.061 A 
ATOM     18  H   LIG d   1       6.155   0.248  -8.890  0.00  0.00     0.062 H 
ATOM     19  C   LIG d   1       3.854   2.696  -9.198  0.00  0.00    -0.062 A 
ATOM     20  H   LIG d   1       5.969   2.622  -9.502  0.00  0.00     0.062 H 
ATOM     21  C   LIG d   1       2.716   1.995  -8.838  0.00  0.00    -0.061 A 
ATOM     22  H   LIG d   1       3.779   3.741  -9.464  0.00  0.00     0.062 H 
ATOM     23  C   LIG d   1       2.804   0.661  -8.498  0.00  0.00    -0.051 A 
ATOM     24  H   LIG d   1       1.758   2.492  -8.823  0.00  0.00     0.062 H 
ATOM     25  H   LIG d   1       1.917   0.114  -8.217  0.00  0.00     0.062 H 
ENDBRANCH  13  15
ENDBRANCH  10  13
ENDBRANCH   4  10
BRANCH   5  26
ATOM     26  C   LIG d   1       4.888  -4.225  -5.941  0.00  0.00     0.021 C 
ATOM     27  H   LIG d   1       3.901  -4.681  -5.870  0.00  0.00     0.034 H 
ATOM     28  H   LIG d   1       5.152  -4.092  -6.991  0.00  0.00     0.034 H 
ATOM     29  H   LIG d   1       5.622  -4.872  -5.462  0.00  0.00     0.034 H 
ENDBRANCH   5  26
BRANCH   1  30
ATOM     30  C   LIG d   1       4.352  -1.464  -1.791  0.00  0.00    -0.039 C 
ATOM     31  H   LIG d   1       4.052  -0.444  -1.554  0.00  0.00     0.028 H 
ATOM     32  H   LIG d   1       3.556  -2.152  -1.508  0.00  0.00     0.028 H 
ATOM     33  H   LIG d   1       5.260  -1.713  -1.240  0.00  0.00     0.028 H 
ENDBRANCH   1  30
TORSDOF 5
ENDMDL
MODEL 8
REMARK VINA RESULT:      -5.2      2.501      3.284
REMARK  5 active torsions:
REMARK  status: ('A' for Active; 'I' for Inactive)
REMARK    1  A    between atoms: C_1  and  C_2 
REMARK    2  A    between atoms: N_5  and  C_9 
REMARK    3  A    between atoms: C_6  and  C_8 
REMARK    4  A    between atoms: C_9  and  C_10 
REMARK    5  A    between atoms: C_10  and  C_12 
ROOT
ATOM      1  C   LIG d   1       7.414   0.995  -7.621  0.00  0.00    -0.039 A 
ATOM      2  C   LIG d   1       8.374   0.489  -6.758  0.00  0.00     0.005 A 
ATOM      3  C   LIG d   1       8.066  -0.610  -5.979  0.00  0.00     0.172 A 
ATOM      4  N   LIG d   1       6.878  -1.176  -6.051  0.00  0.00    -0.194 N 
ATOM      5  C   LIG d   1       5.941  -0.722  -6.861  0.00  0.00     0.181 A 
ATOM      6  C   LIG d   1       6.174   0.377  -7.665  0.00  0.00     0.008 A 
ATOM      7  H   LIG d   1       9.350   0.948  -6.696  0.00  0.00     0.068 H 
ATOM      8  H   LIG d   1       8.809  -1.011  -5.304  0.00  0.00     0.138 H 
ATOM      9  H   LIG d   1       5.401   0.747  -8.322  0.00  0.00     0.068 H 
ENDROOT
BRANCH   4  10
ATOM     10  C   LIG d   1       6.591  -2.341  -5.209  0.00  0.00     0.213 C 
ATOM     11  H   LIG d   1       5.614  -2.747  -5.473  0.00  0.00     0.112 H 
ATOM     12  H   LIG d   1       7.355  -3.100  -5.367  0.00  0.00     0.112 H 
BRANCH  10  13
ATOM     13  C   LIG d   1       6.587  -1.925  -3.760  0.00  0.00     0.228 C 
ATOM     14  O   LIG d   1       7.452  -2.327  -3.012  0.00  0.00    -0.285 OA
BRANCH  13  15
ATOM     15  C   LIG d   1       5.533  -1.032  -3.255  0.00  0.00     0.024 A 
ATOM     16  C   LIG d   1       5.839   0.283  -2.892  0.00  0.00    -0.051 A 
ATOM     17  C   LIG d   1       4.845   1.116  -2.424  0.00  0.00    -0.061 A 
ATOM     18  H   LIG d   1       6.852   0.648  -2.982  0.00  0.00     0.062 H 
ATOM     19  C   LIG d   1       3.548   0.650  -2.302  0.00  0.00    -0.062 A 
ATOM     20  H   LIG d   1       5.080   2.133  -2.147  0.00  0.00     0.062 H 
ATOM     21  C   LIG d   1       3.236  -0.653  -2.654  0.00  0.00    -0.061 A 
ATOM     22  H   LIG d   1       2.773   1.305  -1.930  0.00  0.00     0.062 H 
ATOM     23  C   LIG d   1       4.219  -1.495  -3.129  0.00  0.00    -0.051 A 
ATOM     24  H   LIG d   1       2.222  -1.009  -2.556  0.00  0.00     0.062 H 
ATOM     25  H   LIG d   1       3.975  -2.511  -3.403  0.00  0.00     0.062 H 
ENDBRANCH  13  15
ENDBRANCH  10  13
ENDBRANCH   4  10
BRANCH   5  26
ATOM     26  C   LIG d   1       4.599  -1.407  -6.904  0.00  0.00     0.021 C 
ATOM     27  H   LIG d   1       3.872  -0.751  -7.382  0.00  0.00     0.034 H 
ATOM     28  H   LIG d   1       4.682  -2.334  -7.472  0.00  0.00     0.034 H 
ATOM     29  H   LIG d   1       4.273  -1.632  -5.889  0.00  0.00     0.034 H 
ENDBRANCH   5  26
BRANCH   1  30
ATOM     30  C   LIG d   1       7.710   2.193  -8.487  0.00  0.00    -0.039 C 
ATOM     31  H   LIG d   1       8.745   2.151  -8.824  0.00  0.00     0.028 H 
ATOM     32  H   LIG d   1       7.046   2.190  -9.351  0.00  0.00     0.028 H 
ATOM     33  H   LIG d   1       7.552   3.105  -7.911  0.00  0.00     0.028 H 
ENDBRANCH   1  30
TORSDOF 5
ENDMDL
MODEL 9
REMARK VINA RESULT:      -4.9      3.237      4.379
REMARK  5 active torsions:
REMARK  status: ('A' for Active; 'I' for Inactive)
REMARK    1  A    between atoms: C_1  and  C_2 
REMARK    2  A    between atoms: N_5  and  C_9 
REMARK    3  A    between atoms: C_6  and  C_8 
REMARK    4  A    between atoms: C_9  and  C_10 
REMARK    5  A    between atoms: C_10  and  C_12 
ROOT
ATOM      1  C   LIG d   1       2.895  -0.307  -8.230  0.00  0.00    -0.039 A 
ATOM      2  C   LIG d   1       4.098  -0.995  -8.206  0.00  0.00     0.005 A 
ATOM      3  C   LIG d   1       4.772  -1.131  -7.006  0.00  0.00     0.172 A 
ATOM      4  N   LIG d   1       4.282  -0.617  -5.895  0.00  0.00    -0.194 N 
ATOM      5  C   LIG d   1       3.141   0.043  -5.881  0.00  0.00     0.181 A 
ATOM      6  C   LIG d   1       2.415   0.225  -7.043  0.00  0.00     0.008 A 
ATOM      7  H   LIG d   1       4.504  -1.420  -9.112  0.00  0.00     0.068 H 
ATOM      8  H   LIG d   1       5.710  -1.667  -6.979  0.00  0.00     0.138 H 
ATOM      9  H   LIG d   1       1.483   0.771  -7.026  0.00  0.00     0.068 H 
ENDROOT
BRANCH   4  10
ATOM     10  C   LIG d   1       5.026  -0.784  -4.644  0.00  0.00     0.213 C 
ATOM     11  H   LIG d   1       6.051  -0.441  -4.783  0.00  0.00     0.112 H 
ATOM     12  H   LIG d   1       4.549  -0.199  -3.858  0.00  0.00     0.112 H 
BRANCH  10  13
ATOM     13  C   LIG d   1       5.032  -2.240  -4.254  0.00  0.00     0.228 C 
ATOM     14  O   LIG d   1       4.014  -2.766  -3.855  0.00  0.00    -0.285 OA
BRANCH  13  15
ATOM     15  C   LIG d   1       6.273  -3.023  -4.356  0.00  0.00     0.024 A 
ATOM     16  C   LIG d   1       7.413  -2.630  -3.649  0.00  0.00    -0.051 A 
ATOM     17  C   LIG d   1       8.572  -3.371  -3.746  0.00  0.00    -0.061 A 
ATOM     18  H   LIG d   1       7.386  -1.749  -3.024  0.00  0.00     0.062 H 
ATOM     19  C   LIG d   1       8.611  -4.498  -4.549  0.00  0.00    -0.062 A 
ATOM     20  H   LIG d   1       9.452  -3.071  -3.196  0.00  0.00     0.062 H 
ATOM     21  C   LIG d   1       7.488  -4.892  -5.257  0.00  0.00    -0.061 A 
ATOM     22  H   LIG d   1       9.523  -5.072  -4.625  0.00  0.00     0.062 H 
ATOM     23  C   LIG d   1       6.321  -4.163  -5.166  0.00  0.00    -0.051 A 
ATOM     24  H   LIG d   1       7.527  -5.771  -5.882  0.00  0.00     0.062 H 
ATOM     25  H   LIG d   1       5.446  -4.471  -5.719  0.00  0.00     0.062 H 
ENDBRANCH  13  15
ENDBRANCH  10  13
ENDBRANCH   4  10
BRANCH   5  26
ATOM     26  C   LIG d   1       2.626   0.611  -4.584  0.00  0.00     0.021 C 
ATOM     27  H   LIG d   1       3.466   0.908  -3.958  0.00  0.00     0.034 H 
ATOM     28  H   LIG d   1       2.001   1.480  -4.790  0.00  0.00     0.034 H 
ATOM     29  H   LIG d   1       2.036  -0.145  -4.065  0.00  0.00     0.034 H 
ENDBRANCH   5  26
BRANCH   1  30
ATOM     30  C   LIG d   1       2.130  -0.136  -9.517  0.00  0.00    -0.039 C 
ATOM     31  H   LIG d   1       2.214   0.896  -9.855  0.00  0.00     0.028 H 
ATOM     32  H   LIG d   1       2.542  -0.802 -10.275  0.00  0.00     0.028 H 
ATOM     33  H   LIG d   1       1.081  -0.380  -9.351  0.00  0.00     0.028 H 
ENDBRANCH   1  30
TORSDOF 5
ENDMDL
