MODEL 1
REMARK VINA RESULT:      -6.7      0.000      0.000
REMARK  6 active torsions:
REMARK  status: ('A' for Active; 'I' for Inactive)
REMARK    1  A    between atoms: C_1  and  C_2 
REMARK    2  A    between atoms: C_2  and  C_3 
REMARK    3  A    between atoms: C_3  and  C_4 
REMARK    4  A    between atoms: N_16  and  C_19 
REMARK    5  A    between atoms: C_23  and  C_25 
REMARK    6  A    between atoms: C_25  and  C_26 
ROOT
ATOM      1  C   LIG d   1      10.943   6.973  -4.037  0.00  0.00    -0.030 A 
ATOM      2  C   LIG d   1      10.786   6.990  -2.689  0.00  0.00     0.027 A 
ATOM      3  C   LIG d   1      10.121   5.924  -2.046  0.00  0.00     0.338 A 
ATOM      4  O   LIG d   1       9.988   5.951  -0.836  0.00  0.00    -0.245 OA
ATOM      5  O   LIG d   1       9.632   4.881  -2.735  0.00  0.00    -0.422 OA
ATOM      6  C   LIG d   1       9.753   4.803  -4.077  0.00  0.00     0.147 A 
ATOM      7  C   LIG d   1      10.406   5.832  -4.782  0.00  0.00     0.021 A 
ATOM      8  C   LIG d   1      10.534   5.754  -6.173  0.00  0.00    -0.047 A 
ATOM      9  C   LIG d   1      10.024   4.679  -6.841  0.00  0.00    -0.019 A 
ATOM     10  C   LIG d   1       9.375   3.655  -6.149  0.00  0.00     0.131 A 
ATOM     11  C   LIG d   1       9.241   3.716  -4.772  0.00  0.00     0.054 A 
ATOM     12  C   LIG d   1       8.548   2.614  -4.013  0.00  0.00     0.047 C 
ATOM     13  N   LIG d   1       7.746   1.805  -4.942  0.00  0.00    -0.293 NA
ATOM     14  C   LIG d   1       8.556   1.421  -6.109  0.00  0.00     0.157 C 
ATOM     15  O   LIG d   1       8.877   2.602  -6.849  0.00  0.00    -0.473 OA
ATOM     16  H   LIG d   1      11.169   7.816  -2.108  0.00  0.00     0.069 H 
ATOM     17  H   LIG d   1      11.035   6.541  -6.716  0.00  0.00     0.063 H 
ATOM     18  H   LIG d   1      10.124   4.620  -7.914  0.00  0.00     0.065 H 
ATOM     19  H   LIG d   1       9.292   1.981  -3.531  0.00  0.00     0.052 H 
ATOM     20  H   LIG d   1       7.897   3.049  -3.256  0.00  0.00     0.052 H 
ATOM     21  H   LIG d   1       9.473   0.937  -5.775  0.00  0.00     0.091 H 
ATOM     22  H   LIG d   1       7.988   0.738  -6.740  0.00  0.00     0.091 H 
ENDROOT
BRANCH  13  23
ATOM     23  C   LIG d   1       7.225   0.678  -4.301  0.00  0.00     0.033 A 
ATOM     24  C   LIG d   1       6.157   0.809  -3.423  0.00  0.00    -0.037 A 
ATOM     25  C   LIG d   1       5.644  -0.308  -2.792  0.00  0.00    -0.046 A 
ATOM     26  H   LIG d   1       5.729   1.781  -3.233  0.00  0.00     0.064 H 
ATOM     27  C   LIG d   1       6.191  -1.554  -3.033  0.00  0.00    -0.059 A 
ATOM     28  C   LIG d   1       7.255  -1.687  -3.908  0.00  0.00    -0.060 A 
ATOM     29  H   LIG d   1       5.788  -2.426  -2.539  0.00  0.00     0.062 H 
ATOM     30  C   LIG d   1       7.770  -0.576  -4.546  0.00  0.00    -0.041 A 
ATOM     31  H   LIG d   1       7.680  -2.662  -4.095  0.00  0.00     0.062 H 
ATOM     32  H   LIG d   1       8.598  -0.682  -5.232  0.00  0.00     0.064 H 
BRANCH  25  33
ATOM     33  C   LIG d   1       4.485  -0.167  -1.839  0.00  0.00    -0.030 C 
ATOM     34  H   LIG d   1       3.804  -1.009  -1.968  0.00  0.00     0.031 H 
ATOM     35  H   LIG d   1       4.856  -0.154  -0.814  0.00  0.00     0.031 H 
BRANCH  33  36
ATOM     36  C   LIG d   1       3.742   1.138  -2.128  0.00  0.00    -0.061 C 
ATOM     37  H   LIG d   1       2.674   0.993  -1.965  0.00  0.00     0.023 H 
ATOM     38  H   LIG d   1       4.108   1.920  -1.462  0.00  0.00     0.023 H 
ATOM     39  H   LIG d   1       3.914   1.433  -3.162  0.00  0.00     0.023 H 
ENDBRANCH  33  36
ENDBRANCH  25  33
ENDBRANCH  13  23
BRANCH   1  40
ATOM     40  C   LIG d   1      11.648   8.100  -4.749  0.00  0.00    -0.027 C 
ATOM     41  H   LIG d   1      12.640   8.235  -4.320  0.00  0.00     0.031 H 
ATOM     42  H   LIG d   1      11.740   7.859  -5.808  0.00  0.00     0.031 H 
BRANCH  40  43
ATOM     43  C   LIG d   1      10.842   9.389  -4.587  0.00  0.00    -0.052 C 
ATOM     44  H   LIG d   1      10.477   9.465  -3.563  0.00  0.00     0.027 H 
ATOM     45  H   LIG d   1      11.478  10.245  -4.810  0.00  0.00     0.027 H 
BRANCH  43  46
ATOM     46  C   LIG d   1       9.654   9.372  -5.551  0.00  0.00    -0.065 C 
ATOM     47  H   LIG d   1       9.511  10.368  -5.970  0.00  0.00     0.023 H 
ATOM     48  H   LIG d   1       9.850   8.664  -6.357  0.00  0.00     0.023 H 
ATOM     49  H   LIG d   1       8.754   9.070  -5.014  0.00  0.00     0.023 H 
ENDBRANCH  43  46
ENDBRANCH  40  43
ENDBRANCH   1  40
TORSDOF 6
ENDMDL
MODEL 2
REMARK VINA RESULT:      -6.6      1.443      2.360
REMARK  6 active torsions:
REMARK  status: ('A' for Active; 'I' for Inactive)
REMARK    1  A    between atoms: C_1  and  C_2 
REMARK    2  A    between atoms: C_2  and  C_3 
REMARK    3  A    between atoms: C_3  and  C_4 
REMARK    4  A    between atoms: N_16  and  C_19 
REMARK    5  A    between atoms: C_23  and  C_25 
REMARK    6  A    between atoms: C_25  and  C_26 
ROOT
ATOM      1  C   LIG d   1      11.251   5.162  -4.908  0.00  0.00    -0.030 A 
ATOM      2  C   LIG d   1      11.181   5.551  -3.609  0.00  0.00     0.027 A 
ATOM      3  C   LIG d   1      10.266   4.923  -2.737  0.00  0.00     0.338 A 
ATOM      4  O   LIG d   1      10.214   5.281  -1.574  0.00  0.00    -0.245 OA
ATOM      5  O   LIG d   1       9.452   3.943  -3.157  0.00  0.00    -0.422 OA
ATOM      6  C   LIG d   1       9.470   3.510  -4.436  0.00  0.00     0.147 A 
ATOM      7  C   LIG d   1      10.359   4.092  -5.359  0.00  0.00     0.021 A 
ATOM      8  C   LIG d   1      10.381   3.645  -6.684  0.00  0.00    -0.047 A 
ATOM      9  C   LIG d   1       9.539   2.646  -7.076  0.00  0.00    -0.019 A 
ATOM     10  C   LIG d   1       8.654   2.064  -6.167  0.00  0.00     0.131 A 
ATOM     11  C   LIG d   1       8.621   2.494  -4.851  0.00  0.00     0.054 A 
ATOM     12  C   LIG d   1       7.674   1.869  -3.858  0.00  0.00     0.047 C 
ATOM     13  N   LIG d   1       6.618   1.141  -4.574  0.00  0.00    -0.293 NA
ATOM     14  C   LIG d   1       7.211   0.260  -5.594  0.00  0.00     0.157 C 
ATOM     15  O   LIG d   1       7.828   1.074  -6.595  0.00  0.00    -0.473 OA
ATOM     16  H   LIG d   1      11.824   6.337  -3.243  0.00  0.00     0.069 H 
ATOM     17  H   LIG d   1      11.063   4.088  -7.395  0.00  0.00     0.063 H 
ATOM     18  H   LIG d   1       9.557   2.302  -8.099  0.00  0.00     0.065 H 
ATOM     19  H   LIG d   1       8.223   1.178  -3.219  0.00  0.00     0.052 H 
ATOM     20  H   LIG d   1       7.225   2.650  -3.245  0.00  0.00     0.052 H 
ATOM     21  H   LIG d   1       7.960  -0.382  -5.131  0.00  0.00     0.091 H 
ATOM     22  H   LIG d   1       6.432  -0.351  -6.048  0.00  0.00     0.091 H 
ENDROOT
BRANCH  13  23
ATOM     23  C   LIG d   1       5.822   0.413  -3.687  0.00  0.00     0.033 A 
ATOM     24  C   LIG d   1       5.466  -0.896  -3.984  0.00  0.00    -0.037 A 
ATOM     25  C   LIG d   1       4.679  -1.612  -3.103  0.00  0.00    -0.046 A 
ATOM     26  H   LIG d   1       5.803  -1.353  -4.902  0.00  0.00     0.064 H 
ATOM     27  C   LIG d   1       4.246  -1.029  -1.927  0.00  0.00    -0.059 A 
ATOM     28  C   LIG d   1       4.598   0.275  -1.628  0.00  0.00    -0.060 A 
ATOM     29  H   LIG d   1       3.631  -1.592  -1.240  0.00  0.00     0.062 H 
ATOM     30  C   LIG d   1       5.389   0.995  -2.502  0.00  0.00    -0.041 A 
ATOM     31  H   LIG d   1       4.260   0.728  -0.709  0.00  0.00     0.062 H 
ATOM     32  H   LIG d   1       5.668   2.013  -2.265  0.00  0.00     0.064 H 
BRANCH  25  33
ATOM     33  C   LIG d   1       4.293  -3.034  -3.425  0.00  0.00    -0.030 C 
ATOM     34  H   LIG d   1       4.559  -3.680  -2.589  0.00  0.00     0.031 H 
ATOM     35  H   LIG d   1       3.218  -3.088  -3.599  0.00  0.00     0.031 H 
BRANCH  33  36
ATOM     36  C   LIG d   1       5.035  -3.492  -4.681  0.00  0.00    -0.061 C 
ATOM     37  H   LIG d   1       5.256  -2.629  -5.309  0.00  0.00     0.023 H 
ATOM     38  H   LIG d   1       5.968  -3.979  -4.394  0.00  0.00     0.023 H 
ATOM     39  H   LIG d   1       4.414  -4.195  -5.235  0.00  0.00     0.023 H 
ENDBRANCH  33  36
ENDBRANCH  25  33
ENDBRANCH  13  23
BRANCH   1  40
ATOM     40  C   LIG d   1      12.218   5.817  -5.861  0.00  0.00    -0.027 C 
ATOM     41  H   LIG d   1      13.228   5.749  -5.457  0.00  0.00     0.031 H 
ATOM     42  H   LIG d   1      12.178   5.309  -6.824  0.00  0.00     0.031 H 
BRANCH  40  43
ATOM     43  C   LIG d   1      11.839   7.287  -6.043  0.00  0.00    -0.052 C 
ATOM     44  H   LIG d   1      11.519   7.702  -5.088  0.00  0.00     0.027 H 
ATOM     45  H   LIG d   1      12.703   7.842  -6.408  0.00  0.00     0.027 H 
BRANCH  43  46
ATOM     46  C   LIG d   1      10.697   7.397  -7.055  0.00  0.00    -0.065 C 
ATOM     47  H   LIG d   1      10.486   8.448  -7.253  0.00  0.00     0.023 H 
ATOM     48  H   LIG d   1      10.985   6.904  -7.983  0.00  0.00     0.023 H 
ATOM     49  H   LIG d   1       9.805   6.917  -6.651  0.00  0.00     0.023 H 
ENDBRANCH  43  46
ENDBRANCH  40  43
ENDBRANCH   1  40
TORSDOF 6
ENDMDL
MODEL 3
REMARK VINA RESULT:      -6.4      7.097      9.694
REMARK  6 active torsions:
REMARK  status: ('A' for Active; 'I' for Inactive)
REMARK    1  A    between atoms: C_1  and  C_2 
REMARK    2  A    between atoms: C_2  and  C_3 
REMARK    3  A    between atoms: C_3  and  C_4 
REMARK    4  A    between atoms: N_16  and  C_19 
REMARK    5  A    between atoms: C_23  and  C_25 
REMARK    6  A    between atoms: C_25  and  C_26 
ROOT
ATOM      1  C   LIG d   1       4.148  -1.754  -3.884  0.00  0.00    -0.030 A 
ATOM      2  C   LIG d   1       5.049  -2.765  -3.994  0.00  0.00     0.027 A 
ATOM      3  C   LIG d   1       5.632  -3.052  -5.245  0.00  0.00     0.338 A 
ATOM      4  O   LIG d   1       6.438  -3.961  -5.329  0.00  0.00    -0.245 OA
ATOM      5  O   LIG d   1       5.320  -2.351  -6.346  0.00  0.00    -0.422 OA
ATOM      6  C   LIG d   1       4.432  -1.334  -6.306  0.00  0.00     0.147 A 
ATOM      7  C   LIG d   1       3.813  -0.993  -5.090  0.00  0.00     0.021 A 
ATOM      8  C   LIG d   1       2.894   0.060  -5.045  0.00  0.00    -0.047 A 
ATOM      9  C   LIG d   1       2.601   0.752  -6.184  0.00  0.00    -0.019 A 
ATOM     10  C   LIG d   1       3.210   0.419  -7.395  0.00  0.00     0.131 A 
ATOM     11  C   LIG d   1       4.124  -0.619  -7.456  0.00  0.00     0.054 A 
ATOM     12  C   LIG d   1       4.793  -0.985  -8.755  0.00  0.00     0.047 C 
ATOM     13  N   LIG d   1       4.040  -0.406  -9.878  0.00  0.00    -0.293 NA
ATOM     14  C   LIG d   1       3.774   1.020  -9.627  0.00  0.00     0.157 C 
ATOM     15  O   LIG d   1       2.890   1.129  -8.509  0.00  0.00    -0.473 OA
ATOM     16  H   LIG d   1       5.319  -3.346  -3.124  0.00  0.00     0.069 H 
ATOM     17  H   LIG d   1       2.418   0.326  -4.113  0.00  0.00     0.063 H 
ATOM     18  H   LIG d   1       1.891   1.565  -6.148  0.00  0.00     0.065 H 
ATOM     19  H   LIG d   1       5.811  -0.595  -8.762  0.00  0.00     0.052 H 
ATOM     20  H   LIG d   1       4.820  -2.069  -8.858  0.00  0.00     0.052 H 
ATOM     21  H   LIG d   1       4.710   1.534  -9.406  0.00  0.00     0.091 H 
ATOM     22  H   LIG d   1       3.308   1.465 -10.506  0.00  0.00     0.091 H 
ENDROOT
BRANCH  13  23
ATOM     23  C   LIG d   1       4.723  -0.584 -11.082  0.00  0.00     0.033 A 
ATOM     24  C   LIG d   1       4.034  -0.533 -12.287  0.00  0.00    -0.037 A 
ATOM     25  C   LIG d   1       4.714  -0.709 -13.477  0.00  0.00    -0.046 A 
ATOM     26  H   LIG d   1       2.969  -0.358 -12.294  0.00  0.00     0.064 H 
ATOM     27  C   LIG d   1       6.077  -0.934 -13.471  0.00  0.00    -0.059 A 
ATOM     28  C   LIG d   1       6.767  -0.985 -12.273  0.00  0.00    -0.060 A 
ATOM     29  H   LIG d   1       6.606  -1.071 -14.403  0.00  0.00     0.062 H 
ATOM     30  C   LIG d   1       6.095  -0.806 -11.079  0.00  0.00    -0.041 A 
ATOM     31  H   LIG d   1       7.832  -1.161 -12.270  0.00  0.00     0.062 H 
ATOM     32  H   LIG d   1       6.635  -0.841 -10.144  0.00  0.00     0.064 H 
BRANCH  25  33
ATOM     33  C   LIG d   1       3.966  -0.654 -14.785  0.00  0.00    -0.030 C 
ATOM     34  H   LIG d   1       3.501  -1.621 -14.978  0.00  0.00     0.031 H 
ATOM     35  H   LIG d   1       3.196   0.116 -14.732  0.00  0.00     0.031 H 
BRANCH  33  36
ATOM     36  C   LIG d   1       4.941  -0.323 -15.917  0.00  0.00    -0.061 C 
ATOM     37  H   LIG d   1       5.716   0.348 -15.545  0.00  0.00     0.023 H 
ATOM     38  H   LIG d   1       5.401  -1.242 -16.280  0.00  0.00     0.023 H 
ATOM     39  H   LIG d   1       4.402   0.160 -16.731  0.00  0.00     0.023 H 
ENDBRANCH  33  36
ENDBRANCH  25  33
ENDBRANCH  13  23
BRANCH   1  40
ATOM     40  C   LIG d   1       3.510  -1.426  -2.559  0.00  0.00    -0.027 C 
ATOM     41  H   LIG d   1       2.677  -0.742  -2.717  0.00  0.00     0.031 H 
ATOM     42  H   LIG d   1       3.144  -2.342  -2.095  0.00  0.00     0.031 H 
BRANCH  40  43
ATOM     43  C   LIG d   1       4.544  -0.769  -1.643  0.00  0.00    -0.052 C 
ATOM     44  H   LIG d   1       4.358  -1.067  -0.612  0.00  0.00     0.027 H 
ATOM     45  H   LIG d   1       5.544  -1.087  -1.938  0.00  0.00     0.027 H 
BRANCH  43  46
ATOM     46  C   LIG d   1       4.436   0.752  -1.762  0.00  0.00    -0.065 C 
ATOM     47  H   LIG d   1       4.002   1.012  -2.727  0.00  0.00     0.023 H 
ATOM     48  H   LIG d   1       3.801   1.135  -0.963  0.00  0.00     0.023 H 
ATOM     49  H   LIG d   1       5.429   1.195  -1.679  0.00  0.00     0.023 H 
ENDBRANCH  43  46
ENDBRANCH  40  43
ENDBRANCH   1  40
TORSDOF 6
ENDMDL
MODEL 4
REMARK VINA RESULT:      -6.2      6.785      9.424
REMARK  6 active torsions:
REMARK  status: ('A' for Active; 'I' for Inactive)
REMARK    1  A    between atoms: C_1  and  C_2 
REMARK    2  A    between atoms: C_2  and  C_3 
REMARK    3  A    between atoms: C_3  and  C_4 
REMARK    4  A    between atoms: N_16  and  C_19 
REMARK    5  A    between atoms: C_23  and  C_25 
REMARK    6  A    between atoms: C_25  and  C_26 
ROOT
ATOM      1  C   LIG d   1       4.899  -1.133 -12.631  0.00  0.00    -0.030 A 
ATOM      2  C   LIG d   1       5.499  -2.349 -12.553  0.00  0.00     0.027 A 
ATOM      3  C   LIG d   1       5.699  -2.954 -11.295  0.00  0.00     0.338 A 
ATOM      4  O   LIG d   1       6.237  -4.045 -11.241  0.00  0.00    -0.245 OA
ATOM      5  O   LIG d   1       5.310  -2.359 -10.157  0.00  0.00    -0.422 OA
ATOM      6  C   LIG d   1       4.708  -1.151 -10.163  0.00  0.00     0.147 A 
ATOM      7  C   LIG d   1       4.478  -0.489 -11.384  0.00  0.00     0.021 A 
ATOM      8  C   LIG d   1       3.854   0.762 -11.394  0.00  0.00    -0.047 A 
ATOM      9  C   LIG d   1       3.472   1.338 -10.217  0.00  0.00    -0.019 A 
ATOM     10  C   LIG d   1       3.698   0.689  -9.002  0.00  0.00     0.131 A 
ATOM     11  C   LIG d   1       4.313  -0.551  -8.975  0.00  0.00     0.054 A 
ATOM     12  C   LIG d   1       4.557  -1.265  -7.670  0.00  0.00     0.047 C 
ATOM     13  N   LIG d   1       4.450  -0.309  -6.558  0.00  0.00    -0.293 NA
ATOM     14  C   LIG d   1       3.212   0.477  -6.683  0.00  0.00     0.157 C 
ATOM     15  O   LIG d   1       3.307   1.295  -7.851  0.00  0.00    -0.473 OA
ATOM     16  H   LIG d   1       5.822  -2.852 -13.453  0.00  0.00     0.069 H 
ATOM     17  H   LIG d   1       3.674   1.271 -12.329  0.00  0.00     0.063 H 
ATOM     18  H   LIG d   1       2.991   2.304 -10.227  0.00  0.00     0.065 H 
ATOM     19  H   LIG d   1       3.815  -2.053  -7.543  0.00  0.00     0.052 H 
ATOM     20  H   LIG d   1       5.554  -1.703  -7.678  0.00  0.00     0.052 H 
ATOM     21  H   LIG d   1       2.359  -0.196  -6.775  0.00  0.00     0.091 H 
ATOM     22  H   LIG d   1       3.089   1.108  -5.803  0.00  0.00     0.091 H 
ENDROOT
BRANCH  13  23
ATOM     23  C   LIG d   1       4.505  -0.966  -5.328  0.00  0.00     0.033 A 
ATOM     24  C   LIG d   1       4.405  -0.242  -4.147  0.00  0.00    -0.037 A 
ATOM     25  C   LIG d   1       4.459  -0.896  -2.931  0.00  0.00    -0.046 A 
ATOM     26  H   LIG d   1       4.286   0.831  -4.179  0.00  0.00     0.064 H 
ATOM     27  C   LIG d   1       4.612  -2.268  -2.888  0.00  0.00    -0.059 A 
ATOM     28  C   LIG d   1       4.713  -2.993  -4.061  0.00  0.00    -0.060 A 
ATOM     29  H   LIG d   1       4.654  -2.777  -1.936  0.00  0.00     0.062 H 
ATOM     30  C   LIG d   1       4.655  -2.347  -5.281  0.00  0.00    -0.041 A 
ATOM     31  H   LIG d   1       4.831  -4.065  -4.025  0.00  0.00     0.062 H 
ATOM     32  H   LIG d   1       4.729  -2.914  -6.198  0.00  0.00     0.064 H 
BRANCH  25  33
ATOM     33  C   LIG d   1       4.350  -0.109  -1.649  0.00  0.00    -0.030 C 
ATOM     34  H   LIG d   1       3.450  -0.411  -1.114  0.00  0.00     0.031 H 
ATOM     35  H   LIG d   1       5.224  -0.303  -1.028  0.00  0.00     0.031 H 
BRANCH  33  36
ATOM     36  C   LIG d   1       4.276   1.384  -1.971  0.00  0.00    -0.061 C 
ATOM     37  H   LIG d   1       4.448   1.962  -1.063  0.00  0.00     0.023 H 
ATOM     38  H   LIG d   1       5.038   1.635  -2.710  0.00  0.00     0.023 H 
ATOM     39  H   LIG d   1       3.291   1.621  -2.371  0.00  0.00     0.023 H 
ENDBRANCH  33  36
ENDBRANCH  25  33
ENDBRANCH  13  23
BRANCH   1  40
ATOM     40  C   LIG d   1       4.674  -0.464 -13.962  0.00  0.00    -0.027 C 
ATOM     41  H   LIG d   1       4.418   0.583 -13.803  0.00  0.00     0.031 H 
ATOM     42  H   LIG d   1       5.584  -0.529 -14.559  0.00  0.00     0.031 H 
BRANCH  40  43
ATOM     43  C   LIG d   1       3.531  -1.163 -14.698  0.00  0.00    -0.052 C 
ATOM     44  H   LIG d   1       3.491  -2.210 -14.397  0.00  0.00     0.027 H 
ATOM     45  H   LIG d   1       2.587  -0.678 -14.449  0.00  0.00     0.027 H 
BRANCH  43  46
ATOM     46  C   LIG d   1       3.767  -1.076 -16.207  0.00  0.00    -0.065 C 
ATOM     47  H   LIG d   1       2.976  -1.612 -16.731  0.00  0.00     0.023 H 
ATOM     48  H   LIG d   1       3.762  -0.030 -16.516  0.00  0.00     0.023 H 
ATOM     49  H   LIG d   1       4.732  -1.522 -16.451  0.00  0.00     0.023 H 
ENDBRANCH  43  46
ENDBRANCH  40  43
ENDBRANCH   1  40
TORSDOF 6
ENDMDL
MODEL 5
REMARK VINA RESULT:      -6.1      2.418      4.246
REMARK  6 active torsions:
REMARK  status: ('A' for Active; 'I' for Inactive)
REMARK    1  A    between atoms: C_1  and  C_2 
REMARK    2  A    between atoms: C_2  and  C_3 
REMARK    3  A    between atoms: C_3  and  C_4 
REMARK    4  A    between atoms: N_16  and  C_19 
REMARK    5  A    between atoms: C_23  and  C_25 
REMARK    6  A    between atoms: C_25  and  C_26 
ROOT
ATOM      1  C   LIG d   1      10.033   4.353  -8.346  0.00  0.00    -0.030 A 
ATOM      2  C   LIG d   1       9.778   3.647  -9.477  0.00  0.00     0.027 A 
ATOM      3  C   LIG d   1       9.076   2.426  -9.399  0.00  0.00     0.338 A 
ATOM      4  O   LIG d   1       8.853   1.803 -10.422  0.00  0.00    -0.245 OA
ATOM      5  O   LIG d   1       8.646   1.934  -8.227  0.00  0.00    -0.422 OA
ATOM      6  C   LIG d   1       8.867   2.585  -7.065  0.00  0.00     0.147 A 
ATOM      7  C   LIG d   1       9.562   3.809  -7.070  0.00  0.00     0.021 A 
ATOM      8  C   LIG d   1       9.791   4.487  -5.868  0.00  0.00    -0.047 A 
ATOM      9  C   LIG d   1       9.340   3.956  -4.695  0.00  0.00    -0.019 A 
ATOM     10  C   LIG d   1       8.650   2.743  -4.682  0.00  0.00     0.131 A 
ATOM     11  C   LIG d   1       8.414   2.060  -5.863  0.00  0.00     0.054 A 
ATOM     12  C   LIG d   1       7.666   0.752  -5.863  0.00  0.00     0.047 C 
ATOM     13  N   LIG d   1       7.649   0.193  -4.503  0.00  0.00    -0.293 NA
ATOM     14  C   LIG d   1       7.223   1.220  -3.538  0.00  0.00     0.157 C 
ATOM     15  O   LIG d   1       8.220   2.244  -3.493  0.00  0.00    -0.473 OA
ATOM     16  H   LIG d   1      10.112   4.019 -10.435  0.00  0.00     0.069 H 
ATOM     17  H   LIG d   1      10.323   5.427  -5.868  0.00  0.00     0.063 H 
ATOM     18  H   LIG d   1       9.518   4.481  -3.768  0.00  0.00     0.065 H 
ATOM     19  H   LIG d   1       6.643   0.918  -6.198  0.00  0.00     0.052 H 
ATOM     20  H   LIG d   1       8.159   0.052  -6.536  0.00  0.00     0.052 H 
ATOM     21  H   LIG d   1       6.272   1.648  -3.856  0.00  0.00     0.091 H 
ATOM     22  H   LIG d   1       7.114   0.772  -2.551  0.00  0.00     0.091 H 
ENDROOT
BRANCH  13  23
ATOM     23  C   LIG d   1       6.824  -0.931  -4.434  0.00  0.00     0.033 A 
ATOM     24  C   LIG d   1       5.774  -0.969  -3.526  0.00  0.00    -0.037 A 
ATOM     25  C   LIG d   1       4.959  -2.084  -3.461  0.00  0.00    -0.046 A 
ATOM     26  H   LIG d   1       5.596  -0.131  -2.870  0.00  0.00     0.064 H 
ATOM     27  C   LIG d   1       5.187  -3.159  -4.299  0.00  0.00    -0.059 A 
ATOM     28  C   LIG d   1       6.231  -3.124  -5.205  0.00  0.00    -0.060 A 
ATOM     29  H   LIG d   1       4.548  -4.028  -4.247  0.00  0.00     0.062 H 
ATOM     30  C   LIG d   1       7.047  -2.012  -5.279  0.00  0.00    -0.041 A 
ATOM     31  H   LIG d   1       6.406  -3.965  -5.859  0.00  0.00     0.062 H 
ATOM     32  H   LIG d   1       7.860  -1.984  -5.990  0.00  0.00     0.064 H 
BRANCH  25  33
ATOM     33  C   LIG d   1       3.820  -2.126  -2.475  0.00  0.00    -0.030 C 
ATOM     34  H   LIG d   1       3.313  -3.088  -2.547  0.00  0.00     0.031 H 
ATOM     35  H   LIG d   1       4.208  -1.994  -1.465  0.00  0.00     0.031 H 
BRANCH  33  36
ATOM     36  C   LIG d   1       2.830  -1.003  -2.791  0.00  0.00    -0.061 C 
ATOM     37  H   LIG d   1       1.998  -1.404  -3.371  0.00  0.00     0.023 H 
ATOM     38  H   LIG d   1       2.452  -0.579  -1.860  0.00  0.00     0.023 H 
ATOM     39  H   LIG d   1       3.333  -0.226  -3.365  0.00  0.00     0.023 H 
ENDBRANCH  33  36
ENDBRANCH  25  33
ENDBRANCH  13  23
BRANCH   1  40
ATOM     40  C   LIG d   1      10.783   5.659  -8.400  0.00  0.00    -0.027 C 
ATOM     41  H   LIG d   1      10.893   6.057  -7.392  0.00  0.00     0.031 H 
ATOM     42  H   LIG d   1      11.769   5.494  -8.835  0.00  0.00     0.031 H 
BRANCH  40  43
ATOM     43  C   LIG d   1      10.007   6.657  -9.262  0.00  0.00    -0.052 C 
ATOM     44  H   LIG d   1      10.706   7.266  -9.833  0.00  0.00     0.027 H 
ATOM     45  H   LIG d   1       9.355   6.115  -9.946  0.00  0.00     0.027 H 
BRANCH  43  46
ATOM     46  C   LIG d   1       9.163   7.560  -8.361  0.00  0.00    -0.065 C 
ATOM     47  H   LIG d   1       9.126   8.564  -8.783  0.00  0.00     0.023 H 
ATOM     48  H   LIG d   1       8.151   7.159  -8.290  0.00  0.00     0.023 H 
ATOM     49  H   LIG d   1       9.608   7.600  -7.366  0.00  0.00     0.023 H 
ENDBRANCH  43  46
ENDBRANCH  40  43
ENDBRANCH   1  40
TORSDOF 6
ENDMDL
MODEL 6
REMARK VINA RESULT:      -6.1      7.061     10.204
REMARK  6 active torsions:
REMARK  status: ('A' for Active; 'I' for Inactive)
REMARK    1  A    between atoms: C_1  and  C_2 
REMARK    2  A    between atoms: C_2  and  C_3 
REMARK    3  A    between atoms: C_3  and  C_4 
REMARK    4  A    between atoms: N_16  and  C_19 
REMARK    5  A    between atoms: C_23  and  C_25 
REMARK    6  A    between atoms: C_25  and  C_26 
ROOT
ATOM      1  C   LIG d   1       2.692  -1.594 -11.833  0.00  0.00    -0.030 A 
ATOM      2  C   LIG d   1       3.033  -0.281 -11.770  0.00  0.00     0.027 A 
ATOM      3  C   LIG d   1       3.641   0.231 -10.605  0.00  0.00     0.338 A 
ATOM      4  O   LIG d   1       3.942   1.410 -10.563  0.00  0.00    -0.245 OA
ATOM      5  O   LIG d   1       3.896  -0.547  -9.542  0.00  0.00    -0.422 OA
ATOM      6  C   LIG d   1       3.582  -1.861  -9.539  0.00  0.00     0.147 A 
ATOM      7  C   LIG d   1       2.973  -2.438 -10.669  0.00  0.00     0.021 A 
ATOM      8  C   LIG d   1       2.648  -3.798 -10.669  0.00  0.00    -0.047 A 
ATOM      9  C   LIG d   1       2.921  -4.560  -9.570  0.00  0.00    -0.019 A 
ATOM     10  C   LIG d   1       3.524  -3.994  -8.445  0.00  0.00     0.131 A 
ATOM     11  C   LIG d   1       3.854  -2.650  -8.430  0.00  0.00     0.054 A 
ATOM     12  C   LIG d   1       4.511  -2.029  -7.223  0.00  0.00     0.047 C 
ATOM     13  N   LIG d   1       4.330  -2.905  -6.057  0.00  0.00    -0.293 NA
ATOM     14  C   LIG d   1       4.704  -4.287  -6.400  0.00  0.00     0.157 C 
ATOM     15  O   LIG d   1       3.778  -4.784  -7.368  0.00  0.00    -0.473 OA
ATOM     16  H   LIG d   1       2.840   0.369 -12.611  0.00  0.00     0.069 H 
ATOM     17  H   LIG d   1       2.182  -4.245 -11.534  0.00  0.00     0.063 H 
ATOM     18  H   LIG d   1       2.669  -5.609  -9.571  0.00  0.00     0.065 H 
ATOM     19  H   LIG d   1       5.575  -1.897  -7.417  0.00  0.00     0.052 H 
ATOM     20  H   LIG d   1       4.056  -1.059  -7.022  0.00  0.00     0.052 H 
ATOM     21  H   LIG d   1       5.712  -4.301  -6.815  0.00  0.00     0.091 H 
ATOM     22  H   LIG d   1       4.667  -4.909  -5.505  0.00  0.00     0.091 H 
ENDROOT
BRANCH  13  23
ATOM     23  C   LIG d   1       5.066  -2.443  -4.965  0.00  0.00     0.033 A 
ATOM     24  C   LIG d   1       4.420  -1.830  -3.899  0.00  0.00    -0.037 A 
ATOM     25  C   LIG d   1       5.152  -1.374  -2.820  0.00  0.00    -0.046 A 
ATOM     26  H   LIG d   1       3.347  -1.710  -3.914  0.00  0.00     0.064 H 
ATOM     27  C   LIG d   1       6.525  -1.527  -2.799  0.00  0.00    -0.059 A 
ATOM     28  C   LIG d   1       7.172  -2.136  -3.859  0.00  0.00    -0.060 A 
ATOM     29  H   LIG d   1       7.096  -1.170  -1.954  0.00  0.00     0.062 H 
ATOM     30  C   LIG d   1       6.446  -2.599  -4.939  0.00  0.00    -0.041 A 
ATOM     31  H   LIG d   1       8.245  -2.255  -3.840  0.00  0.00     0.062 H 
ATOM     32  H   LIG d   1       6.952  -3.079  -5.765  0.00  0.00     0.064 H 
BRANCH  25  33
ATOM     33  C   LIG d   1       4.451  -0.709  -1.663  0.00  0.00    -0.030 C 
ATOM     34  H   LIG d   1       3.393  -0.970  -1.681  0.00  0.00     0.031 H 
ATOM     35  H   LIG d   1       4.893  -1.048  -0.726  0.00  0.00     0.031 H 
BRANCH  33  36
ATOM     36  C   LIG d   1       4.604   0.809  -1.778  0.00  0.00    -0.061 C 
ATOM     37  H   LIG d   1       5.133   1.053  -2.699  0.00  0.00     0.023 H 
ATOM     38  H   LIG d   1       3.618   1.274  -1.792  0.00  0.00     0.023 H 
ATOM     39  H   LIG d   1       5.170   1.183  -0.925  0.00  0.00     0.023 H 
ENDBRANCH  33  36
ENDBRANCH  25  33
ENDBRANCH  13  23
BRANCH   1  40
ATOM     40  C   LIG d   1       2.041  -2.168 -13.065  0.00  0.00    -0.027 C 
ATOM     41  H   LIG d   1       2.430  -1.664 -13.949  0.00  0.00     0.031 H 
ATOM     42  H   LIG d   1       2.260  -3.234 -13.128  0.00  0.00     0.031 H 
BRANCH  40  43
ATOM     43  C   LIG d   1       0.527  -1.962 -12.984  0.00  0.00    -0.052 C 
ATOM     44  H   LIG d   1       0.273  -1.499 -12.032  0.00  0.00     0.027 H 
ATOM     45  H   LIG d   1       0.205  -1.315 -13.800  0.00  0.00     0.027 H 
BRANCH  43  46
ATOM     46  C   LIG d   1      -0.177  -3.315 -13.097  0.00  0.00    -0.065 C 
ATOM     47  H   LIG d   1      -1.226  -3.203 -12.822  0.00  0.00     0.023 H 
ATOM     48  H   LIG d   1      -0.108  -3.677 -14.123  0.00  0.00     0.023 H 
ATOM     49  H   LIG d   1       0.299  -4.031 -12.427  0.00  0.00     0.023 H 
ENDBRANCH  43  46
ENDBRANCH  40  43
ENDBRANCH   1  40
TORSDOF 6
ENDMDL
MODEL 7
REMARK VINA RESULT:      -6.0      6.190      9.400
REMARK  6 active torsions:
REMARK  status: ('A' for Active; 'I' for Inactive)
REMARK    1  A    between atoms: C_1  and  C_2 
REMARK    2  A    between atoms: C_2  and  C_3 
REMARK    3  A    between atoms: C_3  and  C_4 
REMARK    4  A    between atoms: N_16  and  C_19 
REMARK    5  A    between atoms: C_23  and  C_25 
REMARK    6  A    between atoms: C_25  and  C_26 
ROOT
ATOM      1  C   LIG d   1       3.481  -1.189 -12.019  0.00  0.00    -0.030 A 
ATOM      2  C   LIG d   1       2.298  -1.808 -11.772  0.00  0.00     0.027 A 
ATOM      3  C   LIG d   1       1.939  -2.132 -10.446  0.00  0.00     0.338 A 
ATOM      4  O   LIG d   1       0.875  -2.687 -10.239  0.00  0.00    -0.245 OA
ATOM      5  O   LIG d   1       2.741  -1.845  -9.409  0.00  0.00    -0.422 OA
ATOM      6  C   LIG d   1       3.931  -1.231  -9.586  0.00  0.00     0.147 A 
ATOM      7  C   LIG d   1       4.351  -0.879 -10.882  0.00  0.00     0.021 A 
ATOM      8  C   LIG d   1       5.581  -0.242 -11.069  0.00  0.00    -0.047 A 
ATOM      9  C   LIG d   1       6.372   0.034  -9.991  0.00  0.00    -0.019 A 
ATOM     10  C   LIG d   1       5.962  -0.313  -8.702  0.00  0.00     0.131 A 
ATOM     11  C   LIG d   1       4.746  -0.942  -8.500  0.00  0.00     0.054 A 
ATOM     12  C   LIG d   1       4.290  -1.317  -7.113  0.00  0.00     0.047 C 
ATOM     13  N   LIG d   1       5.439  -1.304  -6.197  0.00  0.00    -0.293 NA
ATOM     14  C   LIG d   1       6.195  -0.050  -6.349  0.00  0.00     0.157 C 
ATOM     15  O   LIG d   1       6.777  -0.025  -7.654  0.00  0.00    -0.473 OA
ATOM     16  H   LIG d   1       1.632  -2.051 -12.587  0.00  0.00     0.069 H 
ATOM     17  H   LIG d   1       5.906   0.031 -12.062  0.00  0.00     0.063 H 
ATOM     18  H   LIG d   1       7.321   0.526 -10.137  0.00  0.00     0.065 H 
ATOM     19  H   LIG d   1       3.544  -0.600  -6.770  0.00  0.00     0.052 H 
ATOM     20  H   LIG d   1       3.852  -2.314  -7.132  0.00  0.00     0.052 H 
ATOM     21  H   LIG d   1       5.522   0.799  -6.231  0.00  0.00     0.091 H 
ATOM     22  H   LIG d   1       6.981  -0.003  -5.596  0.00  0.00     0.091 H 
ENDROOT
BRANCH  13  23
ATOM     23  C   LIG d   1       5.026  -1.482  -4.875  0.00  0.00     0.033 A 
ATOM     24  C   LIG d   1       5.006  -0.403  -4.000  0.00  0.00    -0.037 A 
ATOM     25  C   LIG d   1       4.596  -0.583  -2.693  0.00  0.00    -0.046 A 
ATOM     26  H   LIG d   1       5.311   0.575  -4.341  0.00  0.00     0.064 H 
ATOM     27  C   LIG d   1       4.205  -1.834  -2.255  0.00  0.00    -0.059 A 
ATOM     28  C   LIG d   1       4.224  -2.911  -3.123  0.00  0.00    -0.060 A 
ATOM     29  H   LIG d   1       3.884  -1.972  -1.233  0.00  0.00     0.062 H 
ATOM     30  C   LIG d   1       4.628  -2.737  -4.432  0.00  0.00    -0.041 A 
ATOM     31  H   LIG d   1       3.917  -3.887  -2.779  0.00  0.00     0.062 H 
ATOM     32  H   LIG d   1       4.638  -3.579  -5.111  0.00  0.00     0.064 H 
BRANCH  25  33
ATOM     33  C   LIG d   1       4.574   0.588  -1.744  0.00  0.00    -0.030 C 
ATOM     34  H   LIG d   1       4.238   0.253  -0.763  0.00  0.00     0.031 H 
ATOM     35  H   LIG d   1       5.576   1.008  -1.661  0.00  0.00     0.031 H 
BRANCH  33  36
ATOM     36  C   LIG d   1       3.616   1.656  -2.273  0.00  0.00    -0.061 C 
ATOM     37  H   LIG d   1       4.142   2.300  -2.978  0.00  0.00     0.023 H 
ATOM     38  H   LIG d   1       2.778   1.175  -2.779  0.00  0.00     0.023 H 
ATOM     39  H   LIG d   1       3.243   2.254  -1.443  0.00  0.00     0.023 H 
ENDBRANCH  33  36
ENDBRANCH  25  33
ENDBRANCH  13  23
BRANCH   1  40
ATOM     40  C   LIG d   1       3.888  -0.832 -13.426  0.00  0.00    -0.027 C 
ATOM     41  H   LIG d   1       3.166  -0.134 -13.847  0.00  0.00     0.031 H 
ATOM     42  H   LIG d   1       4.875  -0.368 -13.411  0.00  0.00     0.031 H 
BRANCH  40  43
ATOM     43  C   LIG d   1       3.933  -2.099 -14.281  0.00  0.00    -0.052 C 
ATOM     44  H   LIG d   1       3.028  -2.683 -14.114  0.00  0.00     0.027 H 
ATOM     45  H   LIG d   1       3.998  -1.824 -15.334  0.00  0.00     0.027 H 
BRANCH  43  46
ATOM     46  C   LIG d   1       5.156  -2.932 -13.894  0.00  0.00    -0.065 C 
ATOM     47  H   LIG d   1       4.835  -3.924 -13.576  0.00  0.00     0.023 H 
ATOM     48  H   LIG d   1       5.820  -3.024 -14.754  0.00  0.00     0.023 H 
ATOM     49  H   LIG d   1       5.686  -2.442 -13.077  0.00  0.00     0.023 H 
ENDBRANCH  43  46
ENDBRANCH  40  43
ENDBRANCH   1  40
TORSDOF 6
ENDMDL
MODEL 8
REMARK VINA RESULT:      -5.9      7.761     11.175
REMARK  6 active torsions:
REMARK  status: ('A' for Active; 'I' for Inactive)
REMARK    1  A    between atoms: C_1  and  C_2 
REMARK    2  A    between atoms: C_2  and  C_3 
REMARK    3  A    between atoms: C_3  and  C_4 
REMARK    4  A    between atoms: N_16  and  C_19 
REMARK    5  A    between atoms: C_23  and  C_25 
REMARK    6  A    between atoms: C_25  and  C_26 
ROOT
ATOM      1  C   LIG d   1       1.813  -2.515 -13.323  0.00  0.00    -0.030 A 
ATOM      2  C   LIG d   1       0.885  -3.355 -12.797  0.00  0.00     0.027 A 
ATOM      3  C   LIG d   1       0.688  -3.397 -11.401  0.00  0.00     0.338 A 
ATOM      4  O   LIG d   1      -0.148  -4.155 -10.943  0.00  0.00    -0.245 OA
ATOM      5  O   LIG d   1       1.398  -2.623 -10.565  0.00  0.00    -0.422 OA
ATOM      6  C   LIG d   1       2.336  -1.767 -11.023  0.00  0.00     0.147 A 
ATOM      7  C   LIG d   1       2.585  -1.674 -12.405  0.00  0.00     0.021 A 
ATOM      8  C   LIG d   1       3.555  -0.787 -12.882  0.00  0.00    -0.047 A 
ATOM      9  C   LIG d   1       4.259  -0.016 -12.003  0.00  0.00    -0.019 A 
ATOM     10  C   LIG d   1       4.019  -0.103 -10.631  0.00  0.00     0.131 A 
ATOM     11  C   LIG d   1       3.060  -0.975 -10.142  0.00  0.00     0.054 A 
ATOM     12  C   LIG d   1       2.788  -1.074  -8.663  0.00  0.00     0.047 C 
ATOM     13  N   LIG d   1       3.908  -0.486  -7.915  0.00  0.00    -0.293 NA
ATOM     14  C   LIG d   1       4.239   0.842  -8.458  0.00  0.00     0.157 C 
ATOM     15  O   LIG d   1       4.741   0.678  -9.786  0.00  0.00    -0.473 OA
ATOM     16  H   LIG d   1       0.299  -3.989 -13.446  0.00  0.00     0.069 H 
ATOM     17  H   LIG d   1       3.747  -0.712 -13.942  0.00  0.00     0.063 H 
ATOM     18  H   LIG d   1       5.007   0.668 -12.373  0.00  0.00     0.065 H 
ATOM     19  H   LIG d   1       1.871  -0.535  -8.426  0.00  0.00     0.052 H 
ATOM     20  H   LIG d   1       2.675  -2.121  -8.385  0.00  0.00     0.052 H 
ATOM     21  H   LIG d   1       3.342   1.462  -8.479  0.00  0.00     0.091 H 
ATOM     22  H   LIG d   1       4.998   1.314  -7.835  0.00  0.00     0.091 H 
ENDROOT
BRANCH  13  23
ATOM     23  C   LIG d   1       3.613  -0.410  -6.552  0.00  0.00     0.033 A 
ATOM     24  C   LIG d   1       4.265  -1.244  -5.652  0.00  0.00    -0.037 A 
ATOM     25  C   LIG d   1       3.971  -1.166  -4.304  0.00  0.00    -0.046 A 
ATOM     26  H   LIG d   1       4.998  -1.953  -6.005  0.00  0.00     0.064 H 
ATOM     27  C   LIG d   1       3.032  -0.260  -3.850  0.00  0.00    -0.059 A 
ATOM     28  C   LIG d   1       2.381   0.573  -4.744  0.00  0.00    -0.060 A 
ATOM     29  H   LIG d   1       2.804  -0.200  -2.796  0.00  0.00     0.062 H 
ATOM     30  C   LIG d   1       2.673   0.503  -6.092  0.00  0.00    -0.041 A 
ATOM     31  H   LIG d   1       1.648   1.280  -4.387  0.00  0.00     0.062 H 
ATOM     32  H   LIG d   1       2.168   1.157  -6.789  0.00  0.00     0.064 H 
BRANCH  25  33
ATOM     33  C   LIG d   1       4.677  -2.071  -3.327  0.00  0.00    -0.030 C 
ATOM     34  H   LIG d   1       4.322  -3.093  -3.458  0.00  0.00     0.031 H 
ATOM     35  H   LIG d   1       5.752  -2.033  -3.508  0.00  0.00     0.031 H 
BRANCH  33  36
ATOM     36  C   LIG d   1       4.384  -1.607  -1.899  0.00  0.00    -0.061 C 
ATOM     37  H   LIG d   1       3.306  -1.559  -1.746  0.00  0.00     0.023 H 
ATOM     38  H   LIG d   1       4.819  -2.314  -1.191  0.00  0.00     0.023 H 
ATOM     39  H   LIG d   1       4.819  -0.621  -1.740  0.00  0.00     0.023 H 
ENDBRANCH  33  36
ENDBRANCH  25  33
ENDBRANCH  13  23
BRANCH   1  40
ATOM     40  C   LIG d   1       2.045  -2.451 -14.811  0.00  0.00    -0.027 C 
ATOM     41  H   LIG d   1       1.104  -2.231 -15.316  0.00  0.00     0.031 H 
ATOM     42  H   LIG d   1       2.768  -1.665 -15.032  0.00  0.00     0.031 H 
BRANCH  40  43
ATOM     43  C   LIG d   1       2.586  -3.794 -15.301  0.00  0.00    -0.052 C 
ATOM     44  H   LIG d   1       2.085  -4.604 -14.772  0.00  0.00     0.027 H 
ATOM     45  H   LIG d   1       2.402  -3.892 -16.371  0.00  0.00     0.027 H 
BRANCH  43  46
ATOM     46  C   LIG d   1       4.091  -3.865 -15.035  0.00  0.00    -0.065 C 
ATOM     47  H   LIG d   1       4.619  -3.244 -15.759  0.00  0.00     0.023 H 
ATOM     48  H   LIG d   1       4.299  -3.505 -14.028  0.00  0.00     0.023 H 
ATOM     49  H   LIG d   1       4.429  -4.898 -15.128  0.00  0.00     0.023 H 
ENDBRANCH  43  46
ENDBRANCH  40  43
ENDBRANCH   1  40
TORSDOF 6
ENDMDL
MODEL 9
REMARK VINA RESULT:      -5.9      7.063     10.876
REMARK  6 active torsions:
REMARK  status: ('A' for Active; 'I' for Inactive)
REMARK    1  A    between atoms: C_1  and  C_2 
REMARK    2  A    between atoms: C_2  and  C_3 
REMARK    3  A    between atoms: C_3  and  C_4 
REMARK    4  A    between atoms: N_16  and  C_19 
REMARK    5  A    between atoms: C_23  and  C_25 
REMARK    6  A    between atoms: C_25  and  C_26 
ROOT
ATOM      1  C   LIG d   1       2.131  -3.532 -11.742  0.00  0.00    -0.030 A 
ATOM      2  C   LIG d   1       2.787  -4.708 -11.563  0.00  0.00     0.027 A 
ATOM      3  C   LIG d   1       3.580  -4.901 -10.412  0.00  0.00     0.338 A 
ATOM      4  O   LIG d   1       4.162  -5.960 -10.264  0.00  0.00    -0.245 OA
ATOM      5  O   LIG d   1       3.708  -3.947  -9.477  0.00  0.00    -0.422 OA
ATOM      6  C   LIG d   1       3.084  -2.756  -9.594  0.00  0.00     0.147 A 
ATOM      7  C   LIG d   1       2.277  -2.496 -10.718  0.00  0.00     0.021 A 
ATOM      8  C   LIG d   1       1.628  -1.263 -10.842  0.00  0.00    -0.047 A 
ATOM      9  C   LIG d   1       1.782  -0.316  -9.871  0.00  0.00    -0.019 A 
ATOM     10  C   LIG d   1       2.581  -0.566  -8.754  0.00  0.00     0.131 A 
ATOM     11  C   LIG d   1       3.229  -1.782  -8.616  0.00  0.00     0.054 A 
ATOM     12  C   LIG d   1       4.090  -2.066  -7.412  0.00  0.00     0.047 C 
ATOM     13  N   LIG d   1       4.431  -0.803  -6.741  0.00  0.00    -0.293 NA
ATOM     14  C   LIG d   1       3.218   0.005  -6.534  0.00  0.00     0.157 C 
ATOM     15  O   LIG d   1       2.713   0.403  -7.811  0.00  0.00    -0.473 OA
ATOM     16  H   LIG d   1       2.702  -5.494 -12.299  0.00  0.00     0.069 H 
ATOM     17  H   LIG d   1       1.007  -1.061 -11.702  0.00  0.00     0.063 H 
ATOM     18  H   LIG d   1       1.280   0.634  -9.969  0.00  0.00     0.065 H 
ATOM     19  H   LIG d   1       3.546  -2.709  -6.720  0.00  0.00     0.052 H 
ATOM     20  H   LIG d   1       5.004  -2.566  -7.730  0.00  0.00     0.052 H 
ATOM     21  H   LIG d   1       2.468  -0.589  -6.012  0.00  0.00     0.091 H 
ATOM     22  H   LIG d   1       3.463   0.889  -5.946  0.00  0.00     0.091 H 
ENDROOT
BRANCH  13  23
ATOM     23  C   LIG d   1       5.087  -1.042  -5.531  0.00  0.00     0.033 A 
ATOM     24  C   LIG d   1       4.481  -0.691  -4.331  0.00  0.00    -0.037 A 
ATOM     25  C   LIG d   1       5.132  -0.929  -3.136  0.00  0.00    -0.046 A 
ATOM     26  H   LIG d   1       3.504  -0.233  -4.332  0.00  0.00     0.064 H 
ATOM     27  C   LIG d   1       6.384  -1.515  -3.133  0.00  0.00    -0.059 A 
ATOM     28  C   LIG d   1       6.990  -1.865  -4.326  0.00  0.00    -0.060 A 
ATOM     29  H   LIG d   1       6.891  -1.700  -2.197  0.00  0.00     0.062 H 
ATOM     30  C   LIG d   1       6.343  -1.635  -5.524  0.00  0.00    -0.041 A 
ATOM     31  H   LIG d   1       7.967  -2.324  -4.320  0.00  0.00     0.062 H 
ATOM     32  H   LIG d   1       6.815  -1.913  -6.456  0.00  0.00     0.064 H 
BRANCH  25  33
ATOM     33  C   LIG d   1       4.476  -0.549  -1.833  0.00  0.00    -0.030 C 
ATOM     34  H   LIG d   1       3.482  -0.995  -1.784  0.00  0.00     0.031 H 
ATOM     35  H   LIG d   1       5.079  -0.913  -1.002  0.00  0.00     0.031 H 
BRANCH  33  36
ATOM     36  C   LIG d   1       4.356   0.974  -1.747  0.00  0.00    -0.061 C 
ATOM     37  H   LIG d   1       4.222   1.385  -2.748  0.00  0.00     0.023 H 
ATOM     38  H   LIG d   1       3.498   1.237  -1.129  0.00  0.00     0.023 H 
ATOM     39  H   LIG d   1       5.262   1.385  -1.304  0.00  0.00     0.023 H 
ENDBRANCH  33  36
ENDBRANCH  25  33
ENDBRANCH  13  23
BRANCH   1  40
ATOM     40  C   LIG d   1       1.279  -3.300 -12.963  0.00  0.00    -0.027 C 
ATOM     41  H   LIG d   1       0.763  -2.345 -12.869  0.00  0.00     0.031 H 
ATOM     42  H   LIG d   1       1.912  -3.284 -13.850  0.00  0.00     0.031 H 
BRANCH  40  43
ATOM     43  C   LIG d   1       0.251  -4.425 -13.090  0.00  0.00    -0.052 C 
ATOM     44  H   LIG d   1      -0.094  -4.489 -14.121  0.00  0.00     0.027 H 
ATOM     45  H   LIG d   1       0.711  -5.371 -12.803  0.00  0.00     0.027 H 
BRANCH  43  46
ATOM     46  C   LIG d   1      -0.937  -4.137 -12.172  0.00  0.00    -0.065 C 
ATOM     47  H   LIG d   1      -1.014  -3.063 -12.002  0.00  0.00     0.023 H 
ATOM     48  H   LIG d   1      -1.854  -4.495 -12.640  0.00  0.00     0.023 H 
ATOM     49  H   LIG d   1      -0.793  -4.646 -11.218  0.00  0.00     0.023 H 
ENDBRANCH  43  46
ENDBRANCH  40  43
ENDBRANCH   1  40
TORSDOF 6
ENDMDL
