MODEL 1
REMARK VINA RESULT:      -6.9      0.000      0.000
REMARK  6 active torsions:
REMARK  status: ('A' for Active; 'I' for Inactive)
REMARK    1  A    between atoms: CG1_1  and  CB_2 
REMARK    2  A    between atoms: CB_2  and  CG2_3 
REMARK    3  A    between atoms: CB_2  and  CA_4 
REMARK       I    between atoms: CA_4  and  C_6 
REMARK       I    between atoms: CA_4  and  N_8 
REMARK       I    between atoms: N_8  and  C_9 
REMARK    4  A    between atoms: C_9  and  C_11 
REMARK    5  A    between atoms: C_11  and  O_12 
REMARK    6  A    between atoms: O_12  and  C_13 
ROOT
ATOM      1  C   UNK d   0       6.171  -0.004  -7.183  0.00  0.00     0.165 C 
ATOM      2  H   UNK d   0       7.109   0.547  -7.260  0.00  0.00     0.080 H 
ATOM      3  H   UNK d   0       6.215  -0.886  -7.821  0.00  0.00     0.080 H 
ENDROOT
BRANCH   1   4
ATOM      4  C   UNK d   0       5.952  -0.427  -5.753  0.00  0.00     0.251 C 
ATOM      5  N   VAL d   1       5.109   0.272  -4.966  0.00  0.00    -0.304 N 
ATOM      6  CA  VAL d   1       4.896  -0.139  -3.577  0.00  0.00     0.065 C 
ATOM      7  H   VAL d   1       4.644   1.046  -5.320  0.00  0.00     0.149 HD
ATOM      8  HA  VAL d   1       5.826  -0.534  -3.168  0.00  0.00     0.056 H 
ATOM      9  C   VAL d   1       4.457   1.052  -2.763  0.00  0.00     0.062 C 
ATOM     10  O   VAL d   1       4.335   2.132  -3.291  0.00  0.00    -0.548 OA
ATOM     11  OXT VAL d   1       4.202   0.912  -1.453  0.00  0.00    -0.548 OA
ATOM     12  O   UNK d   0       6.533  -1.395  -5.311  0.00  0.00    -0.272 OA
BRANCH   6  13
ATOM     13  CB  VAL d   1       3.815  -1.219  -3.524  0.00  0.00    -0.023 C 
ATOM     14  HB  VAL d   1       3.898  -1.859  -4.402  0.00  0.00     0.032 H 
BRANCH  13  15
ATOM     15  CG1 VAL d   1       2.435  -0.560  -3.501  0.00  0.00    -0.061 C 
ATOM     16 1HG1 VAL d   1       1.957  -0.750  -2.540  0.00  0.00     0.023 H 
ATOM     17 2HG1 VAL d   1       1.820  -0.975  -4.301  0.00  0.00     0.023 H 
ATOM     18 3HG1 VAL d   1       2.543   0.515  -3.647  0.00  0.00     0.023 H 
ENDBRANCH  13  15
BRANCH  13  19
ATOM     19  CG2 VAL d   1       3.997  -2.063  -2.261  0.00  0.00    -0.061 C 
ATOM     20 1HG2 VAL d   1       3.453  -3.001  -2.368  0.00  0.00     0.023 H 
ATOM     21 2HG2 VAL d   1       5.057  -2.272  -2.113  0.00  0.00     0.023 H 
ATOM     22 3HG2 VAL d   1       3.613  -1.515  -1.400  0.00  0.00     0.023 H 
ENDBRANCH  13  19
ENDBRANCH   6  13
ENDBRANCH   1   4
BRANCH   1  23
ATOM     23  O   UNK d   0       5.092   0.834  -7.603  0.00  0.00    -0.483 OA
BRANCH  23  24
ATOM     24  C   UNK d   0       4.355   0.407  -8.660  0.00  0.00     0.125 A 
ATOM     25  C   UNK d   0       3.553  -0.715  -8.530  0.00  0.00     0.023 A 
ATOM     26  C   UNK d   0       2.800  -1.152  -9.611  0.00  0.00     0.142 A 
ATOM     27  H   UNK d   0       3.513  -1.248  -7.592  0.00  0.00     0.069 H 
ATOM     28  C   UNK d   0       2.862  -0.447 -10.827  0.00  0.00     0.018 A 
ATOM     29  O   UNK d   0       2.012  -2.244  -9.506  0.00  0.00    -0.422 OA
ATOM     30  C   UNK d   0       3.679   0.685 -10.940  0.00  0.00    -0.048 A 
ATOM     31  C   UNK d   0       2.063  -0.916 -11.961  0.00  0.00    -0.044 A 
ATOM     32  C   UNK d   0       4.408   1.104  -9.866  0.00  0.00    -0.019 A 
ATOM     33  H   UNK d   0       3.727   1.226 -11.873  0.00  0.00     0.063 H 
ATOM     34  H   UNK d   0       5.035   1.980  -9.952  0.00  0.00     0.065 H 
ATOM     35  C   UNK d   0       1.291  -2.021 -11.788  0.00  0.00     0.024 A 
ATOM     36  H   UNK d   0       2.088  -0.400 -12.908  0.00  0.00     0.063 H 
ATOM     37  C   UNK d   0       1.277  -2.678 -10.540  0.00  0.00     0.337 A 
ATOM     38  H   UNK d   0       0.690  -2.394 -12.604  0.00  0.00     0.069 H 
ATOM     39  O   UNK d   0       0.581  -3.668 -10.399  0.00  0.00    -0.245 OA
ENDBRANCH  23  24
ENDBRANCH   1  23
TORSDOF 8
ENDMDL
MODEL 2
REMARK VINA RESULT:      -6.6      2.538      6.710
REMARK  6 active torsions:
REMARK  status: ('A' for Active; 'I' for Inactive)
REMARK    1  A    between atoms: CG1_1  and  CB_2 
REMARK    2  A    between atoms: CB_2  and  CG2_3 
REMARK    3  A    between atoms: CB_2  and  CA_4 
REMARK       I    between atoms: CA_4  and  C_6 
REMARK       I    between atoms: CA_4  and  N_8 
REMARK       I    between atoms: N_8  and  C_9 
REMARK    4  A    between atoms: C_9  and  C_11 
REMARK    5  A    between atoms: C_11  and  O_12 
REMARK    6  A    between atoms: O_12  and  C_13 
ROOT
ATOM      1  C   UNK d   0       8.396   1.028  -7.409  0.00  0.00     0.165 C 
ATOM      2  H   UNK d   0       9.305   1.047  -8.011  0.00  0.00     0.080 H 
ATOM      3  H   UNK d   0       8.228   2.013  -6.975  0.00  0.00     0.080 H 
ENDROOT
BRANCH   1   4
ATOM      4  C   UNK d   0       7.224   0.655  -8.280  0.00  0.00     0.251 C 
ATOM      5  N   VAL d   1       5.970   0.957  -7.887  0.00  0.00    -0.304 N 
ATOM      6  CA  VAL d   1       4.831   0.594  -8.733  0.00  0.00     0.065 C 
ATOM      7  H   VAL d   1       5.823   1.414  -7.045  0.00  0.00     0.149 HD
ATOM      8  HA  VAL d   1       5.036  -0.354  -9.231  0.00  0.00     0.056 H 
ATOM      9  C   VAL d   1       3.596   0.456  -7.880  0.00  0.00     0.062 C 
ATOM     10  O   VAL d   1       3.662   0.642  -6.688  0.00  0.00    -0.548 OA
ATOM     11  OXT VAL d   1       2.424   0.126  -8.445  0.00  0.00    -0.548 OA
ATOM     12  O   UNK d   0       7.409   0.084  -9.334  0.00  0.00    -0.272 OA
BRANCH   6  13
ATOM     13  CB  VAL d   1       4.608   1.684  -9.783  0.00  0.00    -0.023 C 
ATOM     14  HB  VAL d   1       5.561   2.147 -10.033  0.00  0.00     0.032 H 
BRANCH  13  15
ATOM     15  CG1 VAL d   1       3.656   2.743  -9.223  0.00  0.00    -0.061 C 
ATOM     16 1HG1 VAL d   1       3.901   2.935  -8.178  0.00  0.00     0.023 H 
ATOM     17 2HG1 VAL d   1       2.629   2.385  -9.295  0.00  0.00     0.023 H 
ATOM     18 3HG1 VAL d   1       3.760   3.664  -9.796  0.00  0.00     0.023 H 
ENDBRANCH  13  15
BRANCH  13  19
ATOM     19  CG2 VAL d   1       3.996   1.063 -11.041  0.00  0.00    -0.061 C 
ATOM     20 1HG2 VAL d   1       4.578   1.361 -11.912  0.00  0.00     0.023 H 
ATOM     21 2HG2 VAL d   1       4.004  -0.023 -10.951  0.00  0.00     0.023 H 
ATOM     22 3HG2 VAL d   1       2.969   1.410 -11.154  0.00  0.00     0.023 H 
ENDBRANCH  13  19
ENDBRANCH   6  13
ENDBRANCH   1   4
BRANCH   1  23
ATOM     23  O   UNK d   0       8.539   0.065  -6.364  0.00  0.00    -0.483 OA
BRANCH  23  24
ATOM     24  C   UNK d   0       7.685   0.163  -5.313  0.00  0.00     0.125 A 
ATOM     25  C   UNK d   0       6.856  -0.901  -4.999  0.00  0.00     0.023 A 
ATOM     26  C   UNK d   0       5.982  -0.800  -3.926  0.00  0.00     0.142 A 
ATOM     27  H   UNK d   0       6.889  -1.806  -5.587  0.00  0.00     0.069 H 
ATOM     28  C   UNK d   0       5.951   0.385  -3.169  0.00  0.00     0.018 A 
ATOM     29  O   UNK d   0       5.165  -1.826  -3.603  0.00  0.00    -0.422 OA
ATOM     30  C   UNK d   0       6.796   1.452  -3.501  0.00  0.00    -0.048 A 
ATOM     31  C   UNK d   0       5.026   0.482  -2.038  0.00  0.00    -0.044 A 
ATOM     32  C   UNK d   0       7.653   1.334  -4.556  0.00  0.00    -0.019 A 
ATOM     33  H   UNK d   0       6.773   2.362  -2.921  0.00  0.00     0.063 H 
ATOM     34  H   UNK d   0       8.308   2.155  -4.810  0.00  0.00     0.065 H 
ATOM     35  C   UNK d   0       4.231  -0.587  -1.767  0.00  0.00     0.024 A 
ATOM     36  H   UNK d   0       4.975   1.377  -1.437  0.00  0.00     0.063 H 
ATOM     37  C   UNK d   0       4.316  -1.744  -2.568  0.00  0.00     0.337 A 
ATOM     38  H   UNK d   0       3.538  -0.549  -0.940  0.00  0.00     0.069 H 
ATOM     39  O   UNK d   0       3.598  -2.695  -2.314  0.00  0.00    -0.245 OA
ENDBRANCH  23  24
ENDBRANCH   1  23
TORSDOF 8
ENDMDL
MODEL 3
REMARK VINA RESULT:      -6.6      2.173      2.811
REMARK  6 active torsions:
REMARK  status: ('A' for Active; 'I' for Inactive)
REMARK    1  A    between atoms: CG1_1  and  CB_2 
REMARK    2  A    between atoms: CB_2  and  CG2_3 
REMARK    3  A    between atoms: CB_2  and  CA_4 
REMARK       I    between atoms: CA_4  and  C_6 
REMARK       I    between atoms: CA_4  and  N_8 
REMARK       I    between atoms: N_8  and  C_9 
REMARK    4  A    between atoms: C_9  and  C_11 
REMARK    5  A    between atoms: C_11  and  O_12 
REMARK    6  A    between atoms: O_12  and  C_13 
ROOT
ATOM      1  C   UNK d   0       2.598   0.223  -6.906  0.00  0.00     0.165 C 
ATOM      2  H   UNK d   0       2.285  -0.788  -7.169  0.00  0.00     0.080 H 
ATOM      3  H   UNK d   0       1.761   0.757  -6.456  0.00  0.00     0.080 H 
ENDROOT
BRANCH   1   4
ATOM      4  C   UNK d   0       3.739   0.157  -5.925  0.00  0.00     0.251 C 
ATOM      5  N   VAL d   1       3.497   0.259  -4.602  0.00  0.00    -0.304 N 
ATOM      6  CA  VAL d   1       4.606   0.195  -3.648  0.00  0.00     0.065 C 
ATOM      7  H   VAL d   1       2.589   0.375  -4.283  0.00  0.00     0.149 HD
ATOM      8  HA  VAL d   1       5.487   0.670  -4.082  0.00  0.00     0.056 H 
ATOM      9  C   VAL d   1       4.221   0.915  -2.381  0.00  0.00     0.062 C 
ATOM     10  O   VAL d   1       3.131   1.429  -2.286  0.00  0.00    -0.548 OA
ATOM     11  OXT VAL d   1       5.089   0.986  -1.359  0.00  0.00    -0.548 OA
ATOM     12  O   UNK d   0       4.875   0.012  -6.324  0.00  0.00    -0.272 OA
BRANCH   6  13
ATOM     13  CB  VAL d   1       4.921  -1.267  -3.329  0.00  0.00    -0.023 C 
ATOM     14  HB  VAL d   1       4.651  -1.891  -4.180  0.00  0.00     0.032 H 
BRANCH  13  15
ATOM     15  CG1 VAL d   1       4.121  -1.705  -2.101  0.00  0.00    -0.061 C 
ATOM     16 1HG1 VAL d   1       4.527  -1.223  -1.211  0.00  0.00     0.023 H 
ATOM     17 2HG1 VAL d   1       4.187  -2.787  -1.989  0.00  0.00     0.023 H 
ATOM     18 3HG1 VAL d   1       3.077  -1.416  -2.225  0.00  0.00     0.023 H 
ENDBRANCH  13  15
BRANCH  13  19
ATOM     19  CG2 VAL d   1       6.417  -1.417  -3.042  0.00  0.00    -0.061 C 
ATOM     20 1HG2 VAL d   1       6.682  -0.817  -2.172  0.00  0.00     0.023 H 
ATOM     21 2HG2 VAL d   1       6.646  -2.464  -2.845  0.00  0.00     0.023 H 
ATOM     22 3HG2 VAL d   1       6.988  -1.077  -3.906  0.00  0.00     0.023 H 
ENDBRANCH  13  19
ENDBRANCH   6  13
ENDBRANCH   1   4
BRANCH   1  23
ATOM     23  O   UNK d   0       3.022   0.911  -8.085  0.00  0.00    -0.483 OA
BRANCH  23  24
ATOM     24  C   UNK d   0       2.829   0.280  -9.271  0.00  0.00     0.125 A 
ATOM     25  C   UNK d   0       3.751   0.440 -10.293  0.00  0.00     0.023 A 
ATOM     26  C   UNK d   0       3.553  -0.204 -11.506  0.00  0.00     0.142 A 
ATOM     27  H   UNK d   0       4.619   1.064 -10.147  0.00  0.00     0.069 H 
ATOM     28  C   UNK d   0       2.417  -1.015 -11.680  0.00  0.00     0.018 A 
ATOM     29  O   UNK d   0       4.439  -0.061 -12.515  0.00  0.00    -0.422 OA
ATOM     30  C   UNK d   0       1.495  -1.165 -10.637  0.00  0.00    -0.048 A 
ATOM     31  C   UNK d   0       2.218  -1.691 -12.964  0.00  0.00    -0.044 A 
ATOM     32  C   UNK d   0       1.708  -0.529  -9.449  0.00  0.00    -0.019 A 
ATOM     33  H   UNK d   0       0.623  -1.787 -10.770  0.00  0.00     0.063 H 
ATOM     34  H   UNK d   0       0.999  -0.649  -8.642  0.00  0.00     0.065 H 
ATOM     35  C   UNK d   0       3.146  -1.505 -13.938  0.00  0.00     0.024 A 
ATOM     36  H   UNK d   0       1.356  -2.320 -13.133  0.00  0.00     0.063 H 
ATOM     37  C   UNK d   0       4.263  -0.678 -13.693  0.00  0.00     0.337 A 
ATOM     38  H   UNK d   0       3.030  -1.988 -14.896  0.00  0.00     0.069 H 
ATOM     39  O   UNK d   0       5.088  -0.520 -14.575  0.00  0.00    -0.245 OA
ENDBRANCH  23  24
ENDBRANCH   1  23
TORSDOF 8
ENDMDL
MODEL 4
REMARK VINA RESULT:      -6.6      5.835      7.606
REMARK  6 active torsions:
REMARK  status: ('A' for Active; 'I' for Inactive)
REMARK    1  A    between atoms: CG1_1  and  CB_2 
REMARK    2  A    between atoms: CB_2  and  CG2_3 
REMARK    3  A    between atoms: CB_2  and  CA_4 
REMARK       I    between atoms: CA_4  and  C_6 
REMARK       I    between atoms: CA_4  and  N_8 
REMARK       I    between atoms: N_8  and  C_9 
REMARK    4  A    between atoms: C_9  and  C_11 
REMARK    5  A    between atoms: C_11  and  O_12 
REMARK    6  A    between atoms: O_12  and  C_13 
ROOT
ATOM      1  C   UNK d   0       4.812  -4.762  -6.190  0.00  0.00     0.165 C 
ATOM      2  H   UNK d   0       4.024  -5.416  -5.813  0.00  0.00     0.080 H 
ATOM      3  H   UNK d   0       4.532  -4.385  -7.173  0.00  0.00     0.080 H 
ENDROOT
BRANCH   1   4
ATOM      4  C   UNK d   0       4.999  -3.605  -5.243  0.00  0.00     0.251 C 
ATOM      5  N   VAL d   1       4.173  -2.541  -5.307  0.00  0.00    -0.304 N 
ATOM      6  CA  VAL d   1       4.355  -1.417  -4.387  0.00  0.00     0.065 C 
ATOM      7  H   VAL d   1       3.458  -2.521  -5.962  0.00  0.00     0.149 HD
ATOM      8  HA  VAL d   1       5.419  -1.273  -4.194  0.00  0.00     0.056 H 
ATOM      9  C   VAL d   1       3.784  -0.165  -5.003  0.00  0.00     0.062 C 
ATOM     10  O   VAL d   1       3.276  -0.210  -6.099  0.00  0.00    -0.548 OA
ATOM     11  OXT VAL d   1       3.839   0.998  -4.335  0.00  0.00    -0.548 OA
ATOM     12  O   UNK d   0       5.893  -3.630  -4.423  0.00  0.00    -0.272 OA
BRANCH   6  13
ATOM     13  CB  VAL d   1       3.634  -1.712  -3.071  0.00  0.00    -0.023 C 
ATOM     14  HB  VAL d   1       3.384  -2.771  -3.024  0.00  0.00     0.032 H 
BRANCH  13  15
ATOM     15  CG1 VAL d   1       2.352  -0.881  -2.994  0.00  0.00    -0.061 C 
ATOM     16 1HG1 VAL d   1       1.507  -1.536  -2.784  0.00  0.00     0.023 H 
ATOM     17 2HG1 VAL d   1       2.191  -0.372  -3.945  0.00  0.00     0.023 H 
ATOM     18 3HG1 VAL d   1       2.445  -0.142  -2.198  0.00  0.00     0.023 H 
ENDBRANCH  13  15
BRANCH  13  19
ATOM     19  CG2 VAL d   1       4.547  -1.351  -1.896  0.00  0.00    -0.061 C 
ATOM     20 1HG2 VAL d   1       4.263  -1.937  -1.022  0.00  0.00     0.023 H 
ATOM     21 2HG2 VAL d   1       5.582  -1.570  -2.160  0.00  0.00     0.023 H 
ATOM     22 3HG2 VAL d   1       4.446  -0.289  -1.672  0.00  0.00     0.023 H 
ENDBRANCH  13  19
ENDBRANCH   6  13
ENDBRANCH   1   4
BRANCH   1  23
ATOM     23  O   UNK d   0       6.033  -5.497  -6.290  0.00  0.00    -0.483 OA
BRANCH  23  24
ATOM     24  C   UNK d   0       6.082  -6.700  -5.663  0.00  0.00     0.125 A 
ATOM     25  C   UNK d   0       4.917  -7.426  -5.477  0.00  0.00     0.023 A 
ATOM     26  C   UNK d   0       4.967  -8.655  -4.834  0.00  0.00     0.142 A 
ATOM     27  H   UNK d   0       3.973  -7.038  -5.829  0.00  0.00     0.069 H 
ATOM     28  C   UNK d   0       6.204  -9.148  -4.381  0.00  0.00     0.018 A 
ATOM     29  O   UNK d   0       3.843  -9.379  -4.641  0.00  0.00    -0.422 OA
ATOM     30  C   UNK d   0       7.371  -8.401  -4.577  0.00  0.00    -0.048 A 
ATOM     31  C   UNK d   0       6.246 -10.447  -3.704  0.00  0.00    -0.044 A 
ATOM     32  C   UNK d   0       7.305  -7.197  -5.216  0.00  0.00    -0.019 A 
ATOM     33  H   UNK d   0       8.321  -8.778  -4.230  0.00  0.00     0.063 H 
ATOM     34  H   UNK d   0       8.207  -6.622  -5.371  0.00  0.00     0.065 H 
ATOM     35  C   UNK d   0       5.078 -11.123  -3.543  0.00  0.00     0.024 A 
ATOM     36  H   UNK d   0       7.177 -10.854  -3.343  0.00  0.00     0.063 H 
ATOM     37  C   UNK d   0       3.874 -10.569  -4.024  0.00  0.00     0.337 A 
ATOM     38  H   UNK d   0       5.074 -12.083  -3.049  0.00  0.00     0.069 H 
ATOM     39  O   UNK d   0       2.835 -11.186  -3.872  0.00  0.00    -0.245 OA
ENDBRANCH  23  24
ENDBRANCH   1  23
TORSDOF 8
ENDMDL
MODEL 5
REMARK VINA RESULT:      -6.5      5.979     10.110
REMARK  6 active torsions:
REMARK  status: ('A' for Active; 'I' for Inactive)
REMARK    1  A    between atoms: CG1_1  and  CB_2 
REMARK    2  A    between atoms: CB_2  and  CG2_3 
REMARK    3  A    between atoms: CB_2  and  CA_4 
REMARK       I    between atoms: CA_4  and  C_6 
REMARK       I    between atoms: CA_4  and  N_8 
REMARK       I    between atoms: N_8  and  C_9 
REMARK    4  A    between atoms: C_9  and  C_11 
REMARK    5  A    between atoms: C_11  and  O_12 
REMARK    6  A    between atoms: O_12  and  C_13 
ROOT
ATOM      1  C   UNK d   0       9.352   1.984  -3.618  0.00  0.00     0.165 C 
ATOM      2  H   UNK d   0       9.401   2.176  -2.546  0.00  0.00     0.080 H 
ATOM      3  H   UNK d   0      10.022   1.164  -3.872  0.00  0.00     0.080 H 
ENDROOT
BRANCH   1   4
ATOM      4  C   UNK d   0       7.940   1.617  -3.999  0.00  0.00     0.251 C 
ATOM      5  N   VAL d   1       7.315   0.602  -3.368  0.00  0.00    -0.304 N 
ATOM      6  CA  VAL d   1       5.944   0.244  -3.738  0.00  0.00     0.065 C 
ATOM      7  H   VAL d   1       7.774   0.109  -2.670  0.00  0.00     0.149 HD
ATOM      8  HA  VAL d   1       5.806   0.391  -4.809  0.00  0.00     0.056 H 
ATOM      9  C   VAL d   1       5.692  -1.201  -3.393  0.00  0.00     0.062 C 
ATOM     10  O   VAL d   1       6.568  -1.864  -2.889  0.00  0.00    -0.548 OA
ATOM     11  OXT VAL d   1       4.494  -1.752  -3.644  0.00  0.00    -0.548 OA
ATOM     12  O   UNK d   0       7.367   2.234  -4.871  0.00  0.00    -0.272 OA
BRANCH   6  13
ATOM     13  CB  VAL d   1       4.962   1.131  -2.972  0.00  0.00    -0.023 C 
ATOM     14  HB  VAL d   1       5.342   2.152  -2.940  0.00  0.00     0.032 H 
BRANCH  13  15
ATOM     15  CG1 VAL d   1       4.802   0.602  -1.545  0.00  0.00    -0.061 C 
ATOM     16 1HG1 VAL d   1       4.276   1.341  -0.940  0.00  0.00     0.023 H 
ATOM     17 2HG1 VAL d   1       5.786   0.414  -1.115  0.00  0.00     0.023 H 
ATOM     18 3HG1 VAL d   1       4.230  -0.326  -1.563  0.00  0.00     0.023 H 
ENDBRANCH  13  15
BRANCH  13  19
ATOM     19  CG2 VAL d   1       3.603   1.115  -3.676  0.00  0.00    -0.061 C 
ATOM     20 1HG2 VAL d   1       3.716   1.492  -4.692  0.00  0.00     0.023 H 
ATOM     21 2HG2 VAL d   1       3.222   0.094  -3.707  0.00  0.00     0.023 H 
ATOM     22 3HG2 VAL d   1       2.903   1.748  -3.129  0.00  0.00     0.023 H 
ENDBRANCH  13  19
ENDBRANCH   6  13
ENDBRANCH   1   4
BRANCH   1  23
ATOM     23  O   UNK d   0       9.746   3.159  -4.330  0.00  0.00    -0.483 OA
BRANCH  23  24
ATOM     24  C   UNK d   0       9.821   4.314  -3.621  0.00  0.00     0.125 A 
ATOM     25  C   UNK d   0      10.345   4.300  -2.338  0.00  0.00     0.023 A 
ATOM     26  C   UNK d   0      10.421   5.480  -1.612  0.00  0.00     0.142 A 
ATOM     27  H   UNK d   0      10.692   3.374  -1.905  0.00  0.00     0.069 H 
ATOM     28  C   UNK d   0       9.965   6.678  -2.191  0.00  0.00     0.018 A 
ATOM     29  O   UNK d   0      10.927   5.488  -0.360  0.00  0.00    -0.422 OA
ATOM     30  C   UNK d   0       9.438   6.674  -3.488  0.00  0.00    -0.048 A 
ATOM     31  C   UNK d   0      10.050   7.918  -1.417  0.00  0.00    -0.044 A 
ATOM     32  C   UNK d   0       9.375   5.506  -4.191  0.00  0.00    -0.019 A 
ATOM     33  H   UNK d   0       9.088   7.593  -3.934  0.00  0.00     0.063 H 
ATOM     34  H   UNK d   0       8.973   5.503  -5.193  0.00  0.00     0.065 H 
ATOM     35  C   UNK d   0      10.570   7.857  -0.163  0.00  0.00     0.024 A 
ATOM     36  H   UNK d   0       9.708   8.855  -1.830  0.00  0.00     0.063 H 
ATOM     37  C   UNK d   0      11.009   6.620   0.354  0.00  0.00     0.337 A 
ATOM     38  H   UNK d   0      10.647   8.752   0.435  0.00  0.00     0.069 H 
ATOM     39  O   UNK d   0      11.473   6.579   1.480  0.00  0.00    -0.245 OA
ENDBRANCH  23  24
ENDBRANCH   1  23
TORSDOF 8
ENDMDL
MODEL 6
REMARK VINA RESULT:      -6.4      2.633      3.470
REMARK  6 active torsions:
REMARK  status: ('A' for Active; 'I' for Inactive)
REMARK    1  A    between atoms: CG1_1  and  CB_2 
REMARK    2  A    between atoms: CB_2  and  CG2_3 
REMARK    3  A    between atoms: CB_2  and  CA_4 
REMARK       I    between atoms: CA_4  and  C_6 
REMARK       I    between atoms: CA_4  and  N_8 
REMARK       I    between atoms: N_8  and  C_9 
REMARK    4  A    between atoms: C_9  and  C_11 
REMARK    5  A    between atoms: C_11  and  O_12 
REMARK    6  A    between atoms: O_12  and  C_13 
ROOT
ATOM      1  C   UNK d   0       8.395  -1.450  -5.615  0.00  0.00     0.165 C 
ATOM      2  H   UNK d   0       8.599  -0.397  -5.813  0.00  0.00     0.080 H 
ATOM      3  H   UNK d   0       9.328  -1.962  -5.380  0.00  0.00     0.080 H 
ENDROOT
BRANCH   1   4
ATOM      4  C   UNK d   0       7.449  -1.568  -4.448  0.00  0.00     0.251 C 
ATOM      5  N   VAL d   1       6.624  -0.546  -4.144  0.00  0.00    -0.304 N 
ATOM      6  CA  VAL d   1       5.704  -0.661  -3.010  0.00  0.00     0.065 C 
ATOM      7  H   VAL d   1       6.639   0.264  -4.676  0.00  0.00     0.149 HD
ATOM      8  HA  VAL d   1       6.177  -1.238  -2.215  0.00  0.00     0.056 H 
ATOM      9  C   VAL d   1       5.366   0.716  -2.497  0.00  0.00     0.062 C 
ATOM     10  O   VAL d   1       5.843   1.692  -3.026  0.00  0.00    -0.548 OA
ATOM     11  OXT VAL d   1       4.533   0.857  -1.454  0.00  0.00    -0.548 OA
ATOM     12  O   UNK d   0       7.429  -2.582  -3.783  0.00  0.00    -0.272 OA
BRANCH   6  13
ATOM     13  CB  VAL d   1       4.424  -1.367  -3.460  0.00  0.00    -0.023 C 
ATOM     14  HB  VAL d   1       4.668  -2.111  -4.218  0.00  0.00     0.032 H 
BRANCH  13  15
ATOM     15  CG1 VAL d   1       3.454  -0.340  -4.047  0.00  0.00    -0.061 C 
ATOM     16 1HG1 VAL d   1       3.972   0.266  -4.790  0.00  0.00     0.023 H 
ATOM     17 2HG1 VAL d   1       3.081   0.305  -3.250  0.00  0.00     0.023 H 
ATOM     18 3HG1 VAL d   1       2.618  -0.856  -4.517  0.00  0.00     0.023 H 
ENDBRANCH  13  15
BRANCH  13  19
ATOM     19  CG2 VAL d   1       3.772  -2.056  -2.260  0.00  0.00    -0.061 C 
ATOM     20 1HG2 VAL d   1       2.729  -2.275  -2.488  0.00  0.00     0.023 H 
ATOM     21 2HG2 VAL d   1       4.299  -2.986  -2.044  0.00  0.00     0.023 H 
ATOM     22 3HG2 VAL d   1       3.825  -1.399  -1.391  0.00  0.00     0.023 H 
ENDBRANCH  13  19
ENDBRANCH   6  13
ENDBRANCH   1   4
BRANCH   1  23
ATOM     23  O   UNK d   0       7.803  -2.045  -6.771  0.00  0.00    -0.483 OA
BRANCH  23  24
ATOM     24  C   UNK d   0       6.592  -1.568  -7.158  0.00  0.00     0.125 A 
ATOM     25  C   UNK d   0       6.483  -0.269  -7.624  0.00  0.00     0.023 A 
ATOM     26  C   UNK d   0       5.245   0.220  -8.019  0.00  0.00     0.142 A 
ATOM     27  H   UNK d   0       7.357   0.363  -7.680  0.00  0.00     0.069 H 
ATOM     28  C   UNK d   0       4.116  -0.616  -7.942  0.00  0.00     0.018 A 
ATOM     29  O   UNK d   0       5.117   1.484  -8.476  0.00  0.00    -0.422 OA
ATOM     30  C   UNK d   0       4.245  -1.927  -7.467  0.00  0.00    -0.048 A 
ATOM     31  C   UNK d   0       2.815  -0.091  -8.361  0.00  0.00    -0.044 A 
ATOM     32  C   UNK d   0       5.470  -2.393  -7.088  0.00  0.00    -0.019 A 
ATOM     33  H   UNK d   0       3.379  -2.568  -7.407  0.00  0.00     0.063 H 
ATOM     34  H   UNK d   0       5.570  -3.406  -6.726  0.00  0.00     0.065 H 
ATOM     35  C   UNK d   0       2.755   1.190  -8.811  0.00  0.00     0.024 A 
ATOM     36  H   UNK d   0       1.928  -0.704  -8.313  0.00  0.00     0.063 H 
ATOM     37  C   UNK d   0       3.928   1.970  -8.863  0.00  0.00     0.337 A 
ATOM     38  H   UNK d   0       1.811   1.608  -9.128  0.00  0.00     0.069 H 
ATOM     39  O   UNK d   0       3.860   3.117  -9.269  0.00  0.00    -0.245 OA
ENDBRANCH  23  24
ENDBRANCH   1  23
TORSDOF 8
ENDMDL
MODEL 7
REMARK VINA RESULT:      -6.4      2.125      7.289
REMARK  6 active torsions:
REMARK  status: ('A' for Active; 'I' for Inactive)
REMARK    1  A    between atoms: CG1_1  and  CB_2 
REMARK    2  A    between atoms: CB_2  and  CG2_3 
REMARK    3  A    between atoms: CB_2  and  CA_4 
REMARK       I    between atoms: CA_4  and  C_6 
REMARK       I    between atoms: CA_4  and  N_8 
REMARK       I    between atoms: N_8  and  C_9 
REMARK    4  A    between atoms: C_9  and  C_11 
REMARK    5  A    between atoms: C_11  and  O_12 
REMARK    6  A    between atoms: O_12  and  C_13 
ROOT
ATOM      1  C   UNK d   0       5.758  -2.478  -8.230  0.00  0.00     0.165 C 
ATOM      2  H   UNK d   0       6.431  -3.245  -8.615  0.00  0.00     0.080 H 
ATOM      3  H   UNK d   0       6.330  -1.745  -7.661  0.00  0.00     0.080 H 
ENDROOT
BRANCH   1   4
ATOM      4  C   UNK d   0       5.066  -1.794  -9.380  0.00  0.00     0.251 C 
ATOM      5  N   VAL d   1       3.720  -1.798  -9.455  0.00  0.00    -0.304 N 
ATOM      6  CA  VAL d   1       3.047  -1.133 -10.573  0.00  0.00     0.065 C 
ATOM      7  H   VAL d   1       3.198  -2.241  -8.768  0.00  0.00     0.149 HD
ATOM      8  HA  VAL d   1       3.645  -1.246 -11.477  0.00  0.00     0.056 H 
ATOM      9  C   VAL d   1       1.692  -1.758 -10.787  0.00  0.00     0.062 C 
ATOM     10  O   VAL d   1       1.327  -2.666 -10.078  0.00  0.00    -0.548 OA
ATOM     11  OXT VAL d   1       0.892  -1.307 -11.766  0.00  0.00    -0.548 OA
ATOM     12  O   UNK d   0       5.719  -1.239 -10.239  0.00  0.00    -0.272 OA
BRANCH   6  13
ATOM     13  CB  VAL d   1       2.878   0.354 -10.256  0.00  0.00    -0.023 C 
ATOM     14  HB  VAL d   1       1.898   0.688 -10.595  0.00  0.00     0.032 H 
BRANCH  13  15
ATOM     15  CG1 VAL d   1       3.967   1.155 -10.972  0.00  0.00    -0.061 C 
ATOM     16 1HG1 VAL d   1       3.589   1.502 -11.934  0.00  0.00     0.023 H 
ATOM     17 2HG1 VAL d   1       4.839   0.521 -11.133  0.00  0.00     0.023 H 
ATOM     18 3HG1 VAL d   1       4.249   2.012 -10.362  0.00  0.00     0.023 H 
ENDBRANCH  13  15
BRANCH  13  19
ATOM     19  CG2 VAL d   1       2.997   0.571  -8.746  0.00  0.00    -0.061 C 
ATOM     20 1HG2 VAL d   1       2.641  -0.316  -8.222  0.00  0.00     0.023 H 
ATOM     21 2HG2 VAL d   1       4.040   0.752  -8.485  0.00  0.00     0.023 H 
ATOM     22 3HG2 VAL d   1       2.395   1.432  -8.454  0.00  0.00     0.023 H 
ENDBRANCH  13  19
ENDBRANCH   6  13
ENDBRANCH   1   4
BRANCH   1  23
ATOM     23  O   UNK d   0       4.783  -3.085  -7.380  0.00  0.00    -0.483 OA
BRANCH  23  24
ATOM     24  C   UNK d   0       4.675  -2.597  -6.118  0.00  0.00     0.125 A 
ATOM     25  C   UNK d   0       4.399  -1.254  -5.922  0.00  0.00     0.023 A 
ATOM     26  C   UNK d   0       4.290  -0.754  -4.632  0.00  0.00     0.142 A 
ATOM     27  H   UNK d   0       4.269  -0.598  -6.769  0.00  0.00     0.069 H 
ATOM     28  C   UNK d   0       4.460  -1.623  -3.538  0.00  0.00     0.018 A 
ATOM     29  O   UNK d   0       4.022   0.552  -4.418  0.00  0.00    -0.422 OA
ATOM     30  C   UNK d   0       4.740  -2.977  -3.755  0.00  0.00    -0.048 A 
ATOM     31  C   UNK d   0       4.343  -1.086  -2.181  0.00  0.00    -0.044 A 
ATOM     32  C   UNK d   0       4.838  -3.453  -5.030  0.00  0.00    -0.019 A 
ATOM     33  H   UNK d   0       4.871  -3.644  -2.916  0.00  0.00     0.063 H 
ATOM     34  H   UNK d   0       5.049  -4.499  -5.197  0.00  0.00     0.065 H 
ATOM     35  C   UNK d   0       4.072   0.238  -2.036  0.00  0.00     0.024 A 
ATOM     36  H   UNK d   0       4.469  -1.723  -1.319  0.00  0.00     0.063 H 
ATOM     37  C   UNK d   0       3.911   1.050  -3.178  0.00  0.00     0.337 A 
ATOM     38  H   UNK d   0       3.978   0.666  -1.049  0.00  0.00     0.069 H 
ATOM     39  O   UNK d   0       3.668   2.235  -3.034  0.00  0.00    -0.245 OA
ENDBRANCH  23  24
ENDBRANCH   1  23
TORSDOF 8
ENDMDL
MODEL 8
REMARK VINA RESULT:      -6.3      5.128      8.877
REMARK  6 active torsions:
REMARK  status: ('A' for Active; 'I' for Inactive)
REMARK    1  A    between atoms: CG1_1  and  CB_2 
REMARK    2  A    between atoms: CB_2  and  CG2_3 
REMARK    3  A    between atoms: CB_2  and  CA_4 
REMARK       I    between atoms: CA_4  and  C_6 
REMARK       I    between atoms: CA_4  and  N_8 
REMARK       I    between atoms: N_8  and  C_9 
REMARK    4  A    between atoms: C_9  and  C_11 
REMARK    5  A    between atoms: C_11  and  O_12 
REMARK    6  A    between atoms: O_12  and  C_13 
ROOT
ATOM      1  C   UNK d   0       8.284   1.117  -5.258  0.00  0.00     0.165 C 
ATOM      2  H   UNK d   0       8.561   0.217  -5.809  0.00  0.00     0.080 H 
ATOM      3  H   UNK d   0       7.966   1.889  -5.958  0.00  0.00     0.080 H 
ENDROOT
BRANCH   1   4
ATOM      4  C   UNK d   0       7.154   0.800  -4.312  0.00  0.00     0.251 C 
ATOM      5  N   VAL d   1       6.006   0.274  -4.786  0.00  0.00    -0.304 N 
ATOM      6  CA  VAL d   1       4.909  -0.034  -3.868  0.00  0.00     0.065 C 
ATOM      7  H   VAL d   1       5.909   0.100  -5.735  0.00  0.00     0.149 HD
ATOM      8  HA  VAL d   1       4.882   0.709  -3.070  0.00  0.00     0.056 H 
ATOM      9  C   VAL d   1       3.602  -0.009  -4.620  0.00  0.00     0.062 C 
ATOM     10  O   VAL d   1       3.591   0.241  -5.802  0.00  0.00    -0.548 OA
ATOM     11  OXT VAL d   1       2.452  -0.264  -3.976  0.00  0.00    -0.548 OA
ATOM     12  O   UNK d   0       7.277   1.017  -3.125  0.00  0.00    -0.272 OA
BRANCH   6  13
ATOM     13  CB  VAL d   1       5.123  -1.423  -3.264  0.00  0.00    -0.023 C 
ATOM     14  HB  VAL d   1       6.183  -1.569  -3.058  0.00  0.00     0.032 H 
BRANCH  13  15
ATOM     15  CG1 VAL d   1       4.643  -2.488  -4.251  0.00  0.00    -0.061 C 
ATOM     16 1HG1 VAL d   1       3.657  -2.216  -4.628  0.00  0.00     0.023 H 
ATOM     17 2HG1 VAL d   1       4.584  -3.452  -3.746  0.00  0.00     0.023 H 
ATOM     18 3HG1 VAL d   1       5.344  -2.556  -5.083  0.00  0.00     0.023 H 
ENDBRANCH  13  15
BRANCH  13  19
ATOM     19  CG2 VAL d   1       4.330  -1.541  -1.961  0.00  0.00    -0.061 C 
ATOM     20 1HG2 VAL d   1       4.799  -0.928  -1.192  0.00  0.00     0.023 H 
ATOM     21 2HG2 VAL d   1       3.308  -1.199  -2.125  0.00  0.00     0.023 H 
ATOM     22 3HG2 VAL d   1       4.316  -2.582  -1.637  0.00  0.00     0.023 H 
ENDBRANCH  13  19
ENDBRANCH   6  13
ENDBRANCH   1   4
BRANCH   1  23
ATOM     23  O   UNK d   0       9.411   1.583  -4.513  0.00  0.00    -0.483 OA
BRANCH  23  24
ATOM     24  C   UNK d   0       9.525   2.925  -4.343  0.00  0.00     0.125 A 
ATOM     25  C   UNK d   0       9.674   3.446  -3.069  0.00  0.00     0.023 A 
ATOM     26  C   UNK d   0       9.789   4.818  -2.894  0.00  0.00     0.142 A 
ATOM     27  H   UNK d   0       9.698   2.788  -2.213  0.00  0.00     0.069 H 
ATOM     28  C   UNK d   0       9.756   5.663  -4.019  0.00  0.00     0.018 A 
ATOM     29  O   UNK d   0       9.934   5.347  -1.660  0.00  0.00    -0.422 OA
ATOM     30  C   UNK d   0       9.605   5.119  -5.300  0.00  0.00    -0.048 A 
ATOM     31  C   UNK d   0       9.880   7.109  -3.824  0.00  0.00    -0.044 A 
ATOM     32  C   UNK d   0       9.498   3.767  -5.454  0.00  0.00    -0.019 A 
ATOM     33  H   UNK d   0       9.579   5.766  -6.164  0.00  0.00     0.063 H 
ATOM     34  H   UNK d   0       9.386   3.347  -6.443  0.00  0.00     0.065 H 
ATOM     35  C   UNK d   0      10.022   7.576  -2.556  0.00  0.00     0.024 A 
ATOM     36  H   UNK d   0       9.857   7.786  -4.665  0.00  0.00     0.063 H 
ATOM     37  C   UNK d   0      10.049   6.670  -1.475  0.00  0.00     0.337 A 
ATOM     38  H   UNK d   0      10.116   8.636  -2.377  0.00  0.00     0.069 H 
ATOM     39  O   UNK d   0      10.178   7.102  -0.343  0.00  0.00    -0.245 OA
ENDBRANCH  23  24
ENDBRANCH   1  23
TORSDOF 8
ENDMDL
MODEL 9
REMARK VINA RESULT:      -6.0      6.312      8.942
REMARK  6 active torsions:
REMARK  status: ('A' for Active; 'I' for Inactive)
REMARK    1  A    between atoms: CG1_1  and  CB_2 
REMARK    2  A    between atoms: CB_2  and  CG2_3 
REMARK    3  A    between atoms: CB_2  and  CA_4 
REMARK       I    between atoms: CA_4  and  C_6 
REMARK       I    between atoms: CA_4  and  N_8 
REMARK       I    between atoms: N_8  and  C_9 
REMARK    4  A    between atoms: C_9  and  C_11 
REMARK    5  A    between atoms: C_11  and  O_12 
REMARK    6  A    between atoms: O_12  and  C_13 
ROOT
ATOM      1  C   UNK d   0       6.848  -6.605  -5.459  0.00  0.00     0.165 C 
ATOM      2  H   UNK d   0       7.238  -6.357  -4.471  0.00  0.00     0.080 H 
ATOM      3  H   UNK d   0       7.661  -6.960  -6.092  0.00  0.00     0.080 H 
ENDROOT
BRANCH   1   4
ATOM      4  C   UNK d   0       5.803  -7.683  -5.330  0.00  0.00     0.251 C 
ATOM      5  N   VAL d   1       6.167  -8.940  -5.009  0.00  0.00    -0.304 N 
ATOM      6  CA  VAL d   1       5.152  -9.987  -4.884  0.00  0.00     0.065 C 
ATOM      7  H   VAL d   1       7.103  -9.151  -4.862  0.00  0.00     0.149 HD
ATOM      8  HA  VAL d   1       4.361  -9.816  -5.614  0.00  0.00     0.056 H 
ATOM      9  C   VAL d   1       5.783 -11.333  -5.135  0.00  0.00     0.062 C 
ATOM     10  O   VAL d   1       6.962 -11.408  -5.392  0.00  0.00    -0.548 OA
ATOM     11  OXT VAL d   1       5.037 -12.447  -5.073  0.00  0.00    -0.548 OA
ATOM     12  O   UNK d   0       4.633  -7.418  -5.513  0.00  0.00    -0.272 OA
BRANCH   6  13
ATOM     13  CB  VAL d   1       4.559  -9.957  -3.474  0.00  0.00    -0.023 C 
ATOM     14  HB  VAL d   1       4.420  -8.923  -3.161  0.00  0.00     0.032 H 
BRANCH  13  15
ATOM     15  CG1 VAL d   1       5.511 -10.661  -2.505  0.00  0.00    -0.061 C 
ATOM     16 1HG1 VAL d   1       5.460 -11.738  -2.663  0.00  0.00     0.023 H 
ATOM     17 2HG1 VAL d   1       5.222 -10.430  -1.479  0.00  0.00     0.023 H 
ATOM     18 3HG1 VAL d   1       6.530 -10.316  -2.682  0.00  0.00     0.023 H 
ENDBRANCH  13  15
BRANCH  13  19
ATOM     19  CG2 VAL d   1       3.208 -10.676  -3.473  0.00  0.00    -0.061 C 
ATOM     20 1HG2 VAL d   1       3.251 -11.533  -4.145  0.00  0.00     0.023 H 
ATOM     21 2HG2 VAL d   1       2.978 -11.017  -2.463  0.00  0.00     0.023 H 
ATOM     22 3HG2 VAL d   1       2.431  -9.989  -3.809  0.00  0.00     0.023 H 
ENDBRANCH  13  19
ENDBRANCH   6  13
ENDBRANCH   1   4
BRANCH   1  23
ATOM     23  O   UNK d   0       6.262  -5.441  -6.045  0.00  0.00    -0.483 OA
BRANCH  23  24
ATOM     24  C   UNK d   0       6.164  -4.338  -5.259  0.00  0.00     0.125 A 
ATOM     25  C   UNK d   0       4.915  -3.831  -4.940  0.00  0.00     0.023 A 
ATOM     26  C   UNK d   0       4.814  -2.703  -4.138  0.00  0.00     0.142 A 
ATOM     27  H   UNK d   0       4.023  -4.311  -5.313  0.00  0.00     0.069 H 
ATOM     28  C   UNK d   0       5.986  -2.089  -3.658  0.00  0.00     0.018 A 
ATOM     29  O   UNK d   0       3.606  -2.192  -3.815  0.00  0.00    -0.422 OA
ATOM     30  C   UNK d   0       7.240  -2.614  -3.992  0.00  0.00    -0.048 A 
ATOM     31  C   UNK d   0       5.868  -0.899  -2.813  0.00  0.00    -0.044 A 
ATOM     32  C   UNK d   0       7.321  -3.728  -4.777  0.00  0.00    -0.019 A 
ATOM     33  H   UNK d   0       8.139  -2.144  -3.625  0.00  0.00     0.063 H 
ATOM     34  H   UNK d   0       8.288  -4.136  -5.031  0.00  0.00     0.065 H 
ATOM     35  C   UNK d   0       4.623  -0.437  -2.526  0.00  0.00     0.024 A 
ATOM     36  H   UNK d   0       6.746  -0.402  -2.429  0.00  0.00     0.063 H 
ATOM     37  C   UNK d   0       3.492  -1.104  -3.040  0.00  0.00     0.337 A 
ATOM     38  H   UNK d   0       4.501   0.438  -1.905  0.00  0.00     0.069 H 
ATOM     39  O   UNK d   0       2.381  -0.678  -2.774  0.00  0.00    -0.245 OA
ENDBRANCH  23  24
ENDBRANCH   1  23
TORSDOF 8
ENDMDL
MODEL 10
REMARK VINA RESULT:      -6.0      5.299      8.389
REMARK  6 active torsions:
REMARK  status: ('A' for Active; 'I' for Inactive)
REMARK    1  A    between atoms: CG1_1  and  CB_2 
REMARK    2  A    between atoms: CB_2  and  CG2_3 
REMARK    3  A    between atoms: CB_2  and  CA_4 
REMARK       I    between atoms: CA_4  and  C_6 
REMARK       I    between atoms: CA_4  and  N_8 
REMARK       I    between atoms: N_8  and  C_9 
REMARK    4  A    between atoms: C_9  and  C_11 
REMARK    5  A    between atoms: C_11  and  O_12 
REMARK    6  A    between atoms: O_12  and  C_13 
ROOT
ATOM      1  C   UNK d   0       6.779  -3.165  -4.777  0.00  0.00     0.165 C 
ATOM      2  H   UNK d   0       6.336  -4.010  -4.248  0.00  0.00     0.080 H 
ATOM      3  H   UNK d   0       6.563  -3.249  -5.842  0.00  0.00     0.080 H 
ENDROOT
BRANCH   1   4
ATOM      4  C   UNK d   0       6.198  -1.880  -4.246  0.00  0.00     0.251 C 
ATOM      5  N   VAL d   1       4.960  -1.495  -4.618  0.00  0.00    -0.304 N 
ATOM      6  CA  VAL d   1       4.396  -0.247  -4.102  0.00  0.00     0.065 C 
ATOM      7  H   VAL d   1       4.444  -2.046  -5.227  0.00  0.00     0.149 HD
ATOM      8  HA  VAL d   1       5.189   0.493  -3.992  0.00  0.00     0.056 H 
ATOM      9  C   VAL d   1       3.357   0.271  -5.064  0.00  0.00     0.062 C 
ATOM     10  O   VAL d   1       3.114  -0.342  -6.077  0.00  0.00    -0.548 OA
ATOM     11  OXT VAL d   1       2.702   1.411  -4.796  0.00  0.00    -0.548 OA
ATOM     12  O   UNK d   0       6.843  -1.191  -3.483  0.00  0.00    -0.272 OA
BRANCH   6  13
ATOM     13  CB  VAL d   1       3.747  -0.504  -2.741  0.00  0.00    -0.023 C 
ATOM     14  HB  VAL d   1       2.711  -0.167  -2.763  0.00  0.00     0.032 H 
BRANCH  13  15
ATOM     15  CG1 VAL d   1       4.510   0.264  -1.659  0.00  0.00    -0.061 C 
ATOM     16 1HG1 VAL d   1       5.351  -0.337  -1.313  0.00  0.00     0.023 H 
ATOM     17 2HG1 VAL d   1       3.844   0.471  -0.822  0.00  0.00     0.023 H 
ATOM     18 3HG1 VAL d   1       4.879   1.202  -2.071  0.00  0.00     0.023 H 
ENDBRANCH  13  15
BRANCH  13  19
ATOM     19  CG2 VAL d   1       3.790  -2.001  -2.429  0.00  0.00    -0.061 C 
ATOM     20 1HG2 VAL d   1       4.750  -2.410  -2.742  0.00  0.00     0.023 H 
ATOM     21 2HG2 VAL d   1       3.662  -2.153  -1.357  0.00  0.00     0.023 H 
ATOM     22 3HG2 VAL d   1       2.986  -2.507  -2.965  0.00  0.00     0.023 H 
ENDBRANCH  13  19
ENDBRANCH   6  13
ENDBRANCH   1   4
BRANCH   1  23
ATOM     23  O   UNK d   0       8.193  -3.166  -4.576  0.00  0.00    -0.483 OA
BRANCH  23  24
ATOM     24  C   UNK d   0       8.713  -4.193  -3.855  0.00  0.00     0.125 A 
ATOM     25  C   UNK d   0       8.659  -5.482  -4.358  0.00  0.00     0.023 A 
ATOM     26  C   UNK d   0       9.189  -6.532  -3.621  0.00  0.00     0.142 A 
ATOM     27  H   UNK d   0       8.207  -5.670  -5.320  0.00  0.00     0.069 H 
ATOM     28  C   UNK d   0       9.776  -6.270  -2.370  0.00  0.00     0.018 A 
ATOM     29  O   UNK d   0       9.147  -7.797  -4.093  0.00  0.00    -0.422 OA
ATOM     30  C   UNK d   0       9.821  -4.961  -1.876  0.00  0.00    -0.048 A 
ATOM     31  C   UNK d   0      10.333  -7.385  -1.600  0.00  0.00    -0.044 A 
ATOM     32  C   UNK d   0       9.301  -3.939  -2.617  0.00  0.00    -0.019 A 
ATOM     33  H   UNK d   0      10.272  -4.759  -0.916  0.00  0.00     0.063 H 
ATOM     34  H   UNK d   0       9.339  -2.928  -2.238  0.00  0.00     0.065 H 
ATOM     35  C   UNK d   0      10.258  -8.632  -2.132  0.00  0.00     0.024 A 
ATOM     36  H   UNK d   0      10.790  -7.220  -0.636  0.00  0.00     0.063 H 
ATOM     37  C   UNK d   0       9.656  -8.822  -3.394  0.00  0.00     0.337 A 
ATOM     38  H   UNK d   0      10.659  -9.476  -1.591  0.00  0.00     0.069 H 
ATOM     39  O   UNK d   0       9.595  -9.946  -3.859  0.00  0.00    -0.245 OA
ENDBRANCH  23  24
ENDBRANCH   1  23
TORSDOF 8
ENDMDL
