MODEL 1
REMARK VINA RESULT:      -6.1      0.000      0.000
REMARK  1 active torsions:
REMARK  status: ('A' for Active; 'I' for Inactive)
REMARK    1  A    between atoms: C_11  and  O_15 
ROOT
ATOM      1  C   LIG d   1       4.645  -0.517  -1.794  0.00  0.00    -0.060 A 
ATOM      2  C   LIG d   1       3.961   0.693  -1.921  0.00  0.00    -0.060 A 
ATOM      3  C   LIG d   1       3.465   1.110  -3.114  0.00  0.00    -0.034 A 
ATOM      4  C   LIG d   1       3.641   0.307  -4.261  0.00  0.00     0.090 A 
ATOM      5  C   LIG d   1       4.361  -0.965  -4.128  0.00  0.00     0.090 A 
ATOM      6  C   LIG d   1       4.849  -1.337  -2.856  0.00  0.00    -0.034 A 
ATOM      7  N   LIG d   1       4.544  -1.744  -5.188  0.00  0.00    -0.244 NA
ATOM      8  C   LIG d   1       4.071  -1.366  -6.370  0.00  0.00     0.090 A 
ATOM      9  C   LIG d   1       4.250  -2.171  -7.518  0.00  0.00    -0.031 A 
ATOM     10  C   LIG d   1       3.756  -1.757  -8.710  0.00  0.00    -0.018 A 
ATOM     11  C   LIG d   1       3.069  -0.542  -8.840  0.00  0.00     0.119 A 
ATOM     12  C   LIG d   1       2.868   0.282  -7.773  0.00  0.00     0.007 A 
ATOM     13  C   LIG d   1       3.352  -0.093  -6.505  0.00  0.00     0.093 A 
ATOM     14  N   LIG d   1       3.168   0.687  -5.443  0.00  0.00    -0.243 NA
ATOM     15  H   LIG d   1       5.022  -0.809  -0.824  0.00  0.00     0.062 H 
ATOM     16  H   LIG d   1       3.823   1.313  -1.048  0.00  0.00     0.062 H 
ATOM     17  H   LIG d   1       2.939   2.050  -3.185  0.00  0.00     0.064 H 
ATOM     18  H   LIG d   1       5.382  -2.267  -2.730  0.00  0.00     0.064 H 
ATOM     19  H   LIG d   1       4.776  -3.111  -7.445  0.00  0.00     0.064 H 
ATOM     20  H   LIG d   1       3.897  -2.378  -9.582  0.00  0.00     0.066 H 
ATOM     21  H   LIG d   1       2.339   1.215  -7.900  0.00  0.00     0.068 H 
ENDROOT
BRANCH  11  22
ATOM     22  O   LIG d   1       2.596  -0.176 -10.059  0.00  0.00    -0.507 OA
ATOM     23  H   LIG d   1       1.818  -0.778 -10.550  0.00  0.00     0.292 HD
ENDBRANCH  11  22
TORSDOF 1
ENDMDL
MODEL 2
REMARK VINA RESULT:      -6.0      2.586      5.499
REMARK  1 active torsions:
REMARK  status: ('A' for Active; 'I' for Inactive)
REMARK    1  A    between atoms: C_11  and  O_15 
ROOT
ATOM      1  C   LIG d   1       3.762   1.884 -10.161  0.00  0.00    -0.060 A 
ATOM      2  C   LIG d   1       4.676   0.856 -10.403  0.00  0.00    -0.060 A 
ATOM      3  C   LIG d   1       4.976  -0.069  -9.456  0.00  0.00    -0.034 A 
ATOM      4  C   LIG d   1       4.355   0.003  -8.191  0.00  0.00     0.090 A 
ATOM      5  C   LIG d   1       3.395   1.082  -7.936  0.00  0.00     0.090 A 
ATOM      6  C   LIG d   1       3.129   2.010  -8.968  0.00  0.00    -0.034 A 
ATOM      7  N   LIG d   1       2.793   1.178  -6.756  0.00  0.00    -0.244 NA
ATOM      8  C   LIG d   1       3.064   0.290  -5.806  0.00  0.00     0.090 A 
ATOM      9  C   LIG d   1       2.442   0.363  -4.540  0.00  0.00    -0.031 A 
ATOM     10  C   LIG d   1       2.741  -0.558  -3.592  0.00  0.00    -0.018 A 
ATOM     11  C   LIG d   1       3.658  -1.591  -3.833  0.00  0.00     0.119 A 
ATOM     12  C   LIG d   1       4.296  -1.714  -5.031  0.00  0.00     0.007 A 
ATOM     13  C   LIG d   1       4.025  -0.791  -6.060  0.00  0.00     0.093 A 
ATOM     14  N   LIG d   1       4.628  -0.887  -7.242  0.00  0.00    -0.243 NA
ATOM     15  H   LIG d   1       3.553   2.597 -10.945  0.00  0.00     0.062 H 
ATOM     16  H   LIG d   1       5.155   0.796 -11.369  0.00  0.00     0.062 H 
ATOM     17  H   LIG d   1       5.687  -0.853  -9.669  0.00  0.00     0.064 H 
ATOM     18  H   LIG d   1       2.427   2.814  -8.807  0.00  0.00     0.064 H 
ATOM     19  H   LIG d   1       1.732   1.149  -4.329  0.00  0.00     0.064 H 
ATOM     20  H   LIG d   1       2.261  -0.495  -2.627  0.00  0.00     0.066 H 
ATOM     21  H   LIG d   1       5.002  -2.515  -5.190  0.00  0.00     0.068 H 
ENDROOT
BRANCH  11  22
ATOM     22  O   LIG d   1       3.920  -2.486  -2.846  0.00  0.00    -0.507 OA
ATOM     23  H   LIG d   1       4.933  -2.557  -2.424  0.00  0.00     0.292 HD
ENDBRANCH  11  22
TORSDOF 1
ENDMDL
MODEL 3
REMARK VINA RESULT:      -6.0      0.759      2.190
REMARK  1 active torsions:
REMARK  status: ('A' for Active; 'I' for Inactive)
REMARK    1  A    between atoms: C_11  and  O_15 
ROOT
ATOM      1  C   LIG d   1       3.954  -0.141  -1.971  0.00  0.00    -0.060 A 
ATOM      2  C   LIG d   1       4.588  -1.380  -2.085  0.00  0.00    -0.060 A 
ATOM      3  C   LIG d   1       4.770  -1.980  -3.289  0.00  0.00    -0.034 A 
ATOM      4  C   LIG d   1       4.310  -1.343  -4.461  0.00  0.00     0.090 A 
ATOM      5  C   LIG d   1       3.644  -0.042  -4.342  0.00  0.00     0.090 A 
ATOM      6  C   LIG d   1       3.488   0.525  -3.058  0.00  0.00    -0.034 A 
ATOM      7  N   LIG d   1       3.198   0.584  -5.427  0.00  0.00    -0.244 NA
ATOM      8  C   LIG d   1       3.361   0.024  -6.620  0.00  0.00     0.090 A 
ATOM      9  C   LIG d   1       2.899   0.663  -7.793  0.00  0.00    -0.031 A 
ATOM     10  C   LIG d   1       3.079   0.065  -8.996  0.00  0.00    -0.018 A 
ATOM     11  C   LIG d   1       3.715  -1.178  -9.113  0.00  0.00     0.119 A 
ATOM     12  C   LIG d   1       4.179  -1.848  -8.020  0.00  0.00     0.007 A 
ATOM     13  C   LIG d   1       4.027  -1.278  -6.740  0.00  0.00     0.093 A 
ATOM     14  N   LIG d   1       4.474  -1.905  -5.655  0.00  0.00    -0.243 NA
ATOM     15  H   LIG d   1       3.831   0.300  -0.992  0.00  0.00     0.062 H 
ATOM     16  H   LIG d   1       4.942  -1.872  -1.192  0.00  0.00     0.062 H 
ATOM     17  H   LIG d   1       5.264  -2.938  -3.348  0.00  0.00     0.064 H 
ATOM     18  H   LIG d   1       3.001   1.482  -2.942  0.00  0.00     0.064 H 
ATOM     19  H   LIG d   1       2.405   1.621  -7.731  0.00  0.00     0.064 H 
ATOM     20  H   LIG d   1       2.723   0.560  -9.888  0.00  0.00     0.066 H 
ATOM     21  H   LIG d   1       4.662  -2.807  -8.135  0.00  0.00     0.068 H 
ENDROOT
BRANCH  11  22
ATOM     22  O   LIG d   1       3.869  -1.731 -10.343  0.00  0.00    -0.507 OA
ATOM     23  H   LIG d   1       4.265  -1.126 -11.172  0.00  0.00     0.292 HD
ENDBRANCH  11  22
TORSDOF 1
ENDMDL
MODEL 4
REMARK VINA RESULT:      -5.9      4.452      5.054
REMARK  1 active torsions:
REMARK  status: ('A' for Active; 'I' for Inactive)
REMARK    1  A    between atoms: C_11  and  O_15 
ROOT
ATOM      1  C   LIG d   1       4.487  -1.462  -2.149  0.00  0.00    -0.060 A 
ATOM      2  C   LIG d   1       4.137  -0.166  -1.765  0.00  0.00    -0.060 A 
ATOM      3  C   LIG d   1       4.848   0.916  -2.173  0.00  0.00    -0.034 A 
ATOM      4  C   LIG d   1       5.972   0.735  -3.007  0.00  0.00     0.090 A 
ATOM      5  C   LIG d   1       6.341  -0.626  -3.410  0.00  0.00     0.090 A 
ATOM      6  C   LIG d   1       5.556  -1.705  -2.949  0.00  0.00    -0.034 A 
ATOM      7  N   LIG d   1       7.394  -0.830  -4.194  0.00  0.00    -0.244 NA
ATOM      8  C   LIG d   1       8.112   0.207  -4.612  0.00  0.00     0.090 A 
ATOM      9  C   LIG d   1       9.238   0.025  -5.445  0.00  0.00    -0.031 A 
ATOM     10  C   LIG d   1       9.951   1.103  -5.854  0.00  0.00    -0.018 A 
ATOM     11  C   LIG d   1       9.601   2.405  -5.470  0.00  0.00     0.119 A 
ATOM     12  C   LIG d   1       8.530   2.647  -4.663  0.00  0.00     0.007 A 
ATOM     13  C   LIG d   1       7.745   1.570  -4.208  0.00  0.00     0.093 A 
ATOM     14  N   LIG d   1       6.690   1.774  -3.424  0.00  0.00    -0.243 NA
ATOM     15  H   LIG d   1       3.891  -2.293  -1.800  0.00  0.00     0.062 H 
ATOM     16  H   LIG d   1       3.278  -0.021  -1.127  0.00  0.00     0.062 H 
ATOM     17  H   LIG d   1       4.555   1.907  -1.862  0.00  0.00     0.064 H 
ATOM     18  H   LIG d   1       5.805  -2.717  -3.230  0.00  0.00     0.064 H 
ATOM     19  H   LIG d   1       9.529  -0.968  -5.755  0.00  0.00     0.064 H 
ATOM     20  H   LIG d   1      10.810   0.955  -6.491  0.00  0.00     0.066 H 
ATOM     21  H   LIG d   1       8.283   3.659  -4.377  0.00  0.00     0.068 H 
ENDROOT
BRANCH  11  22
ATOM     22  O   LIG d   1      10.351   3.449  -5.908  0.00  0.00    -0.507 OA
ATOM     23  H   LIG d   1      11.339   3.640  -5.464  0.00  0.00     0.292 HD
ENDBRANCH  11  22
TORSDOF 1
ENDMDL
MODEL 5
REMARK VINA RESULT:      -5.9      4.319      5.830
REMARK  1 active torsions:
REMARK  status: ('A' for Active; 'I' for Inactive)
REMARK    1  A    between atoms: C_11  and  O_15 
ROOT
ATOM      1  C   LIG d   1       9.658   2.637  -5.078  0.00  0.00    -0.060 A 
ATOM      2  C   LIG d   1      10.032   1.402  -5.610  0.00  0.00    -0.060 A 
ATOM      3  C   LIG d   1       9.303   0.279  -5.384  0.00  0.00    -0.034 A 
ATOM      4  C   LIG d   1       8.137   0.352  -4.593  0.00  0.00     0.090 A 
ATOM      5  C   LIG d   1       7.744   1.650  -4.034  0.00  0.00     0.090 A 
ATOM      6  C   LIG d   1       8.548   2.778  -4.310  0.00  0.00    -0.034 A 
ATOM      7  N   LIG d   1       6.652   1.753  -3.284  0.00  0.00    -0.244 NA
ATOM      8  C   LIG d   1       5.917   0.673  -3.044  0.00  0.00     0.090 A 
ATOM      9  C   LIG d   1       4.750   0.748  -2.250  0.00  0.00    -0.031 A 
ATOM     10  C   LIG d   1       4.021  -0.372  -2.023  0.00  0.00    -0.018 A 
ATOM     11  C   LIG d   1       4.395  -1.613  -2.556  0.00  0.00     0.119 A 
ATOM     12  C   LIG d   1       5.511  -1.754  -3.324  0.00  0.00     0.007 A 
ATOM     13  C   LIG d   1       6.309  -0.626  -3.602  0.00  0.00     0.093 A 
ATOM     14  N   LIG d   1       7.403  -0.730  -4.353  0.00  0.00    -0.243 NA
ATOM     15  H   LIG d   1      10.267   3.506  -5.284  0.00  0.00     0.062 H 
ATOM     16  H   LIG d   1      10.923   1.339  -6.216  0.00  0.00     0.062 H 
ATOM     17  H   LIG d   1       9.614  -0.664  -5.808  0.00  0.00     0.064 H 
ATOM     18  H   LIG d   1       8.282   3.745  -3.910  0.00  0.00     0.064 H 
ATOM     19  H   LIG d   1       4.440   1.693  -1.828  0.00  0.00     0.064 H 
ATOM     20  H   LIG d   1       3.131  -0.306  -1.415  0.00  0.00     0.066 H 
ATOM     21  H   LIG d   1       5.781  -2.722  -3.719  0.00  0.00     0.068 H 
ENDROOT
BRANCH  11  22
ATOM     22  O   LIG d   1       3.628  -2.703  -2.295  0.00  0.00    -0.507 OA
ATOM     23  H   LIG d   1       4.085  -3.704  -2.270  0.00  0.00     0.292 HD
ENDBRANCH  11  22
TORSDOF 1
ENDMDL
MODEL 6
REMARK VINA RESULT:      -5.5      3.966      5.778
REMARK  1 active torsions:
REMARK  status: ('A' for Active; 'I' for Inactive)
REMARK    1  A    between atoms: C_11  and  O_15 
ROOT
ATOM      1  C   LIG d   1       6.259  -5.804  -6.286  0.00  0.00    -0.060 A 
ATOM      2  C   LIG d   1       7.483  -5.141  -6.391  0.00  0.00    -0.060 A 
ATOM      3  C   LIG d   1       7.701  -3.947  -5.782  0.00  0.00    -0.034 A 
ATOM      4  C   LIG d   1       6.669  -3.353  -5.024  0.00  0.00     0.090 A 
ATOM      5  C   LIG d   1       5.383  -4.049  -4.915  0.00  0.00     0.090 A 
ATOM      6  C   LIG d   1       5.226  -5.289  -5.572  0.00  0.00    -0.034 A 
ATOM      7  N   LIG d   1       4.391  -3.517  -4.209  0.00  0.00    -0.244 NA
ATOM      8  C   LIG d   1       4.572  -2.349  -3.601  0.00  0.00     0.090 A 
ATOM      9  C   LIG d   1       3.538  -1.755  -2.843  0.00  0.00    -0.031 A 
ATOM     10  C   LIG d   1       3.753  -0.563  -2.236  0.00  0.00    -0.018 A 
ATOM     11  C   LIG d   1       4.981   0.105  -2.339  0.00  0.00     0.119 A 
ATOM     12  C   LIG d   1       6.016  -0.412  -3.059  0.00  0.00     0.007 A 
ATOM     13  C   LIG d   1       5.858  -1.651  -3.710  0.00  0.00     0.093 A 
ATOM     14  N   LIG d   1       6.851  -2.185  -4.417  0.00  0.00    -0.243 NA
ATOM     15  H   LIG d   1       6.130  -6.753  -6.787  0.00  0.00     0.062 H 
ATOM     16  H   LIG d   1       8.276  -5.590  -6.969  0.00  0.00     0.062 H 
ATOM     17  H   LIG d   1       8.657  -3.455  -5.879  0.00  0.00     0.064 H 
ATOM     18  H   LIG d   1       4.289  -5.822  -5.509  0.00  0.00     0.064 H 
ATOM     19  H   LIG d   1       2.582  -2.249  -2.748  0.00  0.00     0.064 H 
ATOM     20  H   LIG d   1       2.957  -0.115  -1.658  0.00  0.00     0.066 H 
ATOM     21  H   LIG d   1       6.951   0.124  -3.128  0.00  0.00     0.068 H 
ENDROOT
BRANCH  11  22
ATOM     22  O   LIG d   1       5.141   1.298  -1.710  0.00  0.00    -0.507 OA
ATOM     23  H   LIG d   1       5.006   1.367  -0.621  0.00  0.00     0.292 HD
ENDBRANCH  11  22
TORSDOF 1
ENDMDL
MODEL 7
REMARK VINA RESULT:      -5.4      2.545      5.173
REMARK  1 active torsions:
REMARK  status: ('A' for Active; 'I' for Inactive)
REMARK    1  A    between atoms: C_11  and  O_15 
ROOT
ATOM      1  C   LIG d   1       4.287   0.752 -10.737  0.00  0.00    -0.060 A 
ATOM      2  C   LIG d   1       3.542   1.827 -10.252  0.00  0.00    -0.060 A 
ATOM      3  C   LIG d   1       3.162   1.902  -8.951  0.00  0.00    -0.034 A 
ATOM      4  C   LIG d   1       3.524   0.869  -8.059  0.00  0.00     0.090 A 
ATOM      5  C   LIG d   1       4.306  -0.261  -8.569  0.00  0.00     0.090 A 
ATOM      6  C   LIG d   1       4.669  -0.274  -9.934  0.00  0.00    -0.034 A 
ATOM      7  N   LIG d   1       4.663  -1.250  -7.756  0.00  0.00    -0.244 NA
ATOM      8  C   LIG d   1       4.307  -1.208  -6.477  0.00  0.00     0.090 A 
ATOM      9  C   LIG d   1       4.669  -2.243  -5.585  0.00  0.00    -0.031 A 
ATOM     10  C   LIG d   1       4.290  -2.171  -4.286  0.00  0.00    -0.018 A 
ATOM     11  C   LIG d   1       3.541  -1.092  -3.796  0.00  0.00     0.119 A 
ATOM     12  C   LIG d   1       3.156  -0.065  -4.605  0.00  0.00     0.007 A 
ATOM     13  C   LIG d   1       3.523  -0.077  -5.965  0.00  0.00     0.093 A 
ATOM     14  N   LIG d   1       3.166   0.913  -6.779  0.00  0.00    -0.243 NA
ATOM     15  H   LIG d   1       4.569   0.734 -11.780  0.00  0.00     0.062 H 
ATOM     16  H   LIG d   1       3.262   2.620 -10.929  0.00  0.00     0.062 H 
ATOM     17  H   LIG d   1       2.586   2.745  -8.601  0.00  0.00     0.064 H 
ATOM     18  H   LIG d   1       5.245  -1.094 -10.335  0.00  0.00     0.064 H 
ATOM     19  H   LIG d   1       5.245  -3.085  -5.938  0.00  0.00     0.064 H 
ATOM     20  H   LIG d   1       4.571  -2.967  -3.612  0.00  0.00     0.066 H 
ATOM     21  H   LIG d   1       2.576   0.753  -4.205  0.00  0.00     0.068 H 
ENDROOT
BRANCH  11  22
ATOM     22  O   LIG d   1       3.188  -1.072  -2.485  0.00  0.00    -0.507 OA
ATOM     23  H   LIG d   1       3.770  -1.648  -1.751  0.00  0.00     0.292 HD
ENDBRANCH  11  22
TORSDOF 1
ENDMDL
MODEL 8
REMARK VINA RESULT:      -5.4      2.426      5.153
REMARK  1 active torsions:
REMARK  status: ('A' for Active; 'I' for Inactive)
REMARK    1  A    between atoms: C_11  and  O_15 
ROOT
ATOM      1  C   LIG d   1       3.327  -1.542  -9.408  0.00  0.00    -0.060 A 
ATOM      2  C   LIG d   1       2.697  -0.299  -9.326  0.00  0.00    -0.060 A 
ATOM      3  C   LIG d   1       2.652   0.402  -8.164  0.00  0.00    -0.034 A 
ATOM      4  C   LIG d   1       3.254  -0.132  -7.004  0.00  0.00     0.090 A 
ATOM      5  C   LIG d   1       3.915  -1.438  -7.091  0.00  0.00     0.090 A 
ATOM      6  C   LIG d   1       3.925  -2.112  -8.332  0.00  0.00    -0.034 A 
ATOM      7  N   LIG d   1       4.491  -1.970  -6.017  0.00  0.00    -0.244 NA
ATOM      8  C   LIG d   1       4.465  -1.310  -4.865  0.00  0.00     0.090 A 
ATOM      9  C   LIG d   1       5.067  -1.847  -3.705  0.00  0.00    -0.031 A 
ATOM     10  C   LIG d   1       5.022  -1.150  -2.543  0.00  0.00    -0.018 A 
ATOM     11  C   LIG d   1       4.390   0.098  -2.458  0.00  0.00     0.119 A 
ATOM     12  C   LIG d   1       3.786   0.668  -3.538  0.00  0.00     0.007 A 
ATOM     13  C   LIG d   1       3.802  -0.003  -4.777  0.00  0.00     0.093 A 
ATOM     14  N   LIG d   1       3.226   0.529  -5.852  0.00  0.00    -0.243 NA
ATOM     15  H   LIG d   1       3.339  -2.064 -10.354  0.00  0.00     0.062 H 
ATOM     16  H   LIG d   1       2.235   0.116 -10.209  0.00  0.00     0.062 H 
ATOM     17  H   LIG d   1       2.158   1.362  -8.127  0.00  0.00     0.064 H 
ATOM     18  H   LIG d   1       4.405  -3.075  -8.423  0.00  0.00     0.064 H 
ATOM     19  H   LIG d   1       5.560  -2.807  -3.743  0.00  0.00     0.064 H 
ATOM     20  H   LIG d   1       5.484  -1.567  -1.661  0.00  0.00     0.066 H 
ATOM     21  H   LIG d   1       3.302   1.629  -3.446  0.00  0.00     0.068 H 
ENDROOT
BRANCH  11  22
ATOM     22  O   LIG d   1       4.375   0.753  -1.268  0.00  0.00    -0.507 OA
ATOM     23  H   LIG d   1       4.816   0.282  -0.377  0.00  0.00     0.292 HD
ENDBRANCH  11  22
TORSDOF 1
ENDMDL
MODEL 9
REMARK VINA RESULT:      -5.4      3.628      5.417
REMARK  1 active torsions:
REMARK  status: ('A' for Active; 'I' for Inactive)
REMARK    1  A    between atoms: C_11  and  O_15 
ROOT
ATOM      1  C   LIG d   1       7.067  -5.171  -5.772  0.00  0.00    -0.060 A 
ATOM      2  C   LIG d   1       5.727  -5.557  -5.711  0.00  0.00    -0.060 A 
ATOM      3  C   LIG d   1       4.778  -4.754  -5.167  0.00  0.00    -0.034 A 
ATOM      4  C   LIG d   1       5.145  -3.494  -4.647  0.00  0.00     0.090 A 
ATOM      5  C   LIG d   1       6.553  -3.089  -4.711  0.00  0.00     0.090 A 
ATOM      6  C   LIG d   1       7.488  -3.973  -5.291  0.00  0.00    -0.034 A 
ATOM      7  N   LIG d   1       6.933  -1.909  -4.229  0.00  0.00    -0.244 NA
ATOM      8  C   LIG d   1       6.029  -1.099  -3.690  0.00  0.00     0.090 A 
ATOM      9  C   LIG d   1       6.398   0.161  -3.169  0.00  0.00    -0.031 A 
ATOM     10  C   LIG d   1       5.452   0.964  -2.624  0.00  0.00    -0.018 A 
ATOM     11  C   LIG d   1       4.106   0.578  -2.562  0.00  0.00     0.119 A 
ATOM     12  C   LIG d   1       3.686  -0.626  -3.042  0.00  0.00     0.007 A 
ATOM     13  C   LIG d   1       4.619  -1.505  -3.625  0.00  0.00     0.093 A 
ATOM     14  N   LIG d   1       4.239  -2.685  -4.108  0.00  0.00    -0.243 NA
ATOM     15  H   LIG d   1       7.789  -5.842  -6.215  0.00  0.00     0.062 H 
ATOM     16  H   LIG d   1       5.439  -6.519  -6.107  0.00  0.00     0.062 H 
ATOM     17  H   LIG d   1       3.748  -5.077  -5.133  0.00  0.00     0.064 H 
ATOM     18  H   LIG d   1       8.531  -3.700  -5.351  0.00  0.00     0.064 H 
ATOM     19  H   LIG d   1       7.429   0.482  -3.205  0.00  0.00     0.064 H 
ATOM     20  H   LIG d   1       5.744   1.926  -2.228  0.00  0.00     0.066 H 
ATOM     21  H   LIG d   1       2.644  -0.902  -2.978  0.00  0.00     0.068 H 
ENDROOT
BRANCH  11  22
ATOM     22  O   LIG d   1       3.201   1.423  -2.005  0.00  0.00    -0.507 OA
ATOM     23  H   LIG d   1       2.404   1.861  -2.624  0.00  0.00     0.292 HD
ENDBRANCH  11  22
TORSDOF 1
ENDMDL
