MODEL 1
REMARK VINA RESULT:      -7.2      0.000      0.000
REMARK  3 active torsions:
REMARK  status: ('A' for Active; 'I' for Inactive)
REMARK    1  A    between atoms: C_1  and  C_2 
REMARK    2  A    between atoms: C_11  and  C_13 
REMARK    3  A    between atoms: C_15  and  C_23 
ROOT
ATOM      1  C   LIG d   1       4.542   0.131  -2.276  0.00  0.00    -0.050 A 
ATOM      2  C   LIG d   1       3.263  -0.320  -2.566  0.00  0.00    -0.055 A 
ATOM      3  C   LIG d   1       3.074  -1.445  -3.341  0.00  0.00    -0.018 A 
ATOM      4  C   LIG d   1       4.171  -2.136  -3.839  0.00  0.00     0.139 A 
ATOM      5  C   LIG d   1       5.464  -1.679  -3.545  0.00  0.00     0.064 A 
ATOM      6  C   LIG d   1       5.643  -0.540  -2.760  0.00  0.00    -0.044 A 
ATOM      7  C   LIG d   1       6.617  -2.428  -4.085  0.00  0.00     0.193 A 
ATOM      8  O   LIG d   1       7.763  -2.075  -3.861  0.00  0.00    -0.287 OA
ATOM      9  C   LIG d   1       6.339  -3.566  -4.875  0.00  0.00     0.029 A 
ATOM     10  C   LIG d   1       5.046  -3.927  -5.098  0.00  0.00     0.143 A 
ATOM     11  O   LIG d   1       4.007  -3.238  -4.601  0.00  0.00    -0.455 OA
ATOM     12  H   LIG d   1       2.407   0.213  -2.180  0.00  0.00     0.062 H 
ATOM     13  H   LIG d   1       2.073  -1.787  -3.562  0.00  0.00     0.065 H 
ATOM     14  H   LIG d   1       6.639  -0.187  -2.533  0.00  0.00     0.063 H 
ATOM     15  H   LIG d   1       7.147  -4.145  -5.296  0.00  0.00     0.069 H 
ENDROOT
BRANCH  10  16
ATOM     16  C   LIG d   1       4.776  -5.121  -5.920  0.00  0.00     0.060 A 
ATOM     17  C   LIG d   1       4.233  -4.981  -7.209  0.00  0.00     0.140 A 
ATOM     18  C   LIG d   1       3.990  -6.106  -7.985  0.00  0.00     0.021 A 
ATOM     19  O   LIG d   1       3.964  -3.742  -7.689  0.00  0.00    -0.465 OA
ATOM     20  C   LIG d   1       4.263  -7.362  -7.489  0.00  0.00    -0.044 A 
ATOM     21  C   LIG d   1       3.420  -5.965  -9.374  0.00  0.00     0.080 C 
ATOM     22  C   LIG d   1       4.795  -7.515  -6.203  0.00  0.00    -0.002 A 
ATOM     23  H   LIG d   1       4.065  -8.234  -8.094  0.00  0.00     0.063 H 
ATOM     24  C   LIG d   1       5.052  -6.391  -5.419  0.00  0.00    -0.039 A 
ATOM     25  H   LIG d   1       5.463  -6.505  -4.427  0.00  0.00     0.063 H 
ATOM     26  O   LIG d   1       2.877  -4.651  -9.532  0.00  0.00    -0.339 OA
ATOM     27  H   LIG d   1       4.209  -6.124 -10.109  0.00  0.00     0.061 H 
ATOM     28  H   LIG d   1       2.632  -6.705  -9.522  0.00  0.00     0.061 H 
ATOM     29  C   LIG d   1       3.773  -3.620  -9.101  0.00  0.00     0.191 C 
ATOM     30  H   LIG d   1       4.730  -3.731  -9.610  0.00  0.00     0.102 H 
ATOM     31  H   LIG d   1       3.346  -2.644  -9.332  0.00  0.00     0.102 H 
BRANCH  22  32
ATOM     32  C   LIG d   1       5.084  -8.863  -5.679  0.00  0.00     0.072 C 
ATOM     33  O   LIG d   1       6.089  -9.057  -5.024  0.00  0.00    -0.545 OA
ATOM     34  O   LIG d   1       4.233  -9.878  -5.926  0.00  0.00    -0.545 OA
ENDBRANCH  22  32
ENDBRANCH  10  16
BRANCH   1  35
ATOM     35  C   LIG d   1       4.727   1.362  -1.426  0.00  0.00    -0.040 C 
ATOM     36  H   LIG d   1       5.552   1.203  -0.731  0.00  0.00     0.028 H 
ATOM     37  H   LIG d   1       4.952   2.215  -2.066  0.00  0.00     0.028 H 
ATOM     38  H   LIG d   1       3.813   1.558  -0.866  0.00  0.00     0.028 H 
ENDBRANCH   1  35
TORSDOF 3
ENDMDL
MODEL 2
REMARK VINA RESULT:      -7.1      5.423      9.470
REMARK  3 active torsions:
REMARK  status: ('A' for Active; 'I' for Inactive)
REMARK    1  A    between atoms: C_1  and  C_2 
REMARK    2  A    between atoms: C_11  and  C_13 
REMARK    3  A    between atoms: C_15  and  C_23 
ROOT
ATOM      1  C   LIG d   1       4.441  -1.199  -2.419  0.00  0.00    -0.050 A 
ATOM      2  C   LIG d   1       4.102   0.092  -2.043  0.00  0.00    -0.055 A 
ATOM      3  C   LIG d   1       4.911   1.157  -2.379  0.00  0.00    -0.018 A 
ATOM      4  C   LIG d   1       6.078   0.941  -3.100  0.00  0.00     0.139 A 
ATOM      5  C   LIG d   1       6.420  -0.366  -3.480  0.00  0.00     0.064 A 
ATOM      6  C   LIG d   1       5.594  -1.435  -3.135  0.00  0.00    -0.044 A 
ATOM      7  C   LIG d   1       7.665  -0.574  -4.246  0.00  0.00     0.193 A 
ATOM      8  O   LIG d   1       8.012  -1.688  -4.603  0.00  0.00    -0.287 OA
ATOM      9  C   LIG d   1       8.442   0.568  -4.545  0.00  0.00     0.029 A 
ATOM     10  C   LIG d   1       8.018   1.794  -4.132  0.00  0.00     0.143 A 
ATOM     11  O   LIG d   1       6.883   1.970  -3.437  0.00  0.00    -0.455 OA
ATOM     12  H   LIG d   1       3.195   0.265  -1.483  0.00  0.00     0.062 H 
ATOM     13  H   LIG d   1       4.638   2.158  -2.079  0.00  0.00     0.065 H 
ATOM     14  H   LIG d   1       5.856  -2.441  -3.427  0.00  0.00     0.063 H 
ATOM     15  H   LIG d   1       9.363   0.469  -5.100  0.00  0.00     0.069 H 
ENDROOT
BRANCH  10  16
ATOM     16  C   LIG d   1       8.839   2.975  -4.459  0.00  0.00     0.060 A 
ATOM     17  C   LIG d   1       9.180   3.248  -5.794  0.00  0.00     0.140 A 
ATOM     18  C   LIG d   1       9.944   4.366  -6.100  0.00  0.00     0.021 A 
ATOM     19  O   LIG d   1       8.746   2.421  -6.777  0.00  0.00    -0.465 OA
ATOM     20  C   LIG d   1      10.383   5.201  -5.096  0.00  0.00    -0.044 A 
ATOM     21  C   LIG d   1      10.304   4.675  -7.532  0.00  0.00     0.080 C 
ATOM     22  C   LIG d   1      10.057   4.934  -3.761  0.00  0.00    -0.002 A 
ATOM     23  H   LIG d   1      10.983   6.065  -5.339  0.00  0.00     0.063 H 
ATOM     24  C   LIG d   1       9.282   3.819  -3.443  0.00  0.00    -0.039 A 
ATOM     25  H   LIG d   1       9.028   3.611  -2.415  0.00  0.00     0.063 H 
ATOM     26  O   LIG d   1      10.077   3.514  -8.337  0.00  0.00    -0.339 OA
ATOM     27  H   LIG d   1       9.685   5.496  -7.894  0.00  0.00     0.061 H 
ATOM     28  H   LIG d   1      11.356   4.959  -7.590  0.00  0.00     0.061 H 
ATOM     29  C   LIG d   1       8.793   2.921  -8.116  0.00  0.00     0.191 C 
ATOM     30  H   LIG d   1       8.015   3.672  -8.252  0.00  0.00     0.102 H 
ATOM     31  H   LIG d   1       8.640   2.104  -8.821  0.00  0.00     0.102 H 
BRANCH  22  32
ATOM     32  C   LIG d   1      10.531   5.832  -2.691  0.00  0.00     0.072 C 
ATOM     33  O   LIG d   1      11.137   6.846  -2.975  0.00  0.00    -0.545 OA
ATOM     34  O   LIG d   1      10.293   5.527  -1.401  0.00  0.00    -0.545 OA
ENDBRANCH  22  32
ENDBRANCH  10  16
BRANCH   1  35
ATOM     35  C   LIG d   1       3.543  -2.350  -2.043  0.00  0.00    -0.040 C 
ATOM     36  H   LIG d   1       2.592  -1.964  -1.674  0.00  0.00     0.028 H 
ATOM     37  H   LIG d   1       3.365  -2.973  -2.919  0.00  0.00     0.028 H 
ATOM     38  H   LIG d   1       4.021  -2.944  -1.265  0.00  0.00     0.028 H 
ENDBRANCH   1  35
TORSDOF 3
ENDMDL
MODEL 3
REMARK VINA RESULT:      -7.0      3.296      7.721
REMARK  3 active torsions:
REMARK  status: ('A' for Active; 'I' for Inactive)
REMARK    1  A    between atoms: C_1  and  C_2 
REMARK    2  A    between atoms: C_11  and  C_13 
REMARK    3  A    between atoms: C_15  and  C_23 
ROOT
ATOM      1  C   LIG d   1       1.717  -1.855 -10.499  0.00  0.00    -0.050 A 
ATOM      2  C   LIG d   1       1.583  -0.513 -10.179  0.00  0.00    -0.055 A 
ATOM      3  C   LIG d   1       2.278   0.030  -9.118  0.00  0.00    -0.018 A 
ATOM      4  C   LIG d   1       3.122  -0.771  -8.360  0.00  0.00     0.139 A 
ATOM      5  C   LIG d   1       3.258  -2.129  -8.685  0.00  0.00     0.064 A 
ATOM      6  C   LIG d   1       2.550  -2.667  -9.760  0.00  0.00    -0.044 A 
ATOM      7  C   LIG d   1       4.161  -2.964  -7.867  0.00  0.00     0.193 A 
ATOM      8  O   LIG d   1       4.316  -4.150  -8.103  0.00  0.00    -0.287 OA
ATOM      9  C   LIG d   1       4.832  -2.334  -6.794  0.00  0.00     0.029 A 
ATOM     10  C   LIG d   1       4.633  -1.007  -6.566  0.00  0.00     0.143 A 
ATOM     11  O   LIG d   1       3.811  -0.259  -7.318  0.00  0.00    -0.455 OA
ATOM     12  H   LIG d   1       0.928   0.114 -10.765  0.00  0.00     0.062 H 
ATOM     13  H   LIG d   1       2.165   1.077  -8.877  0.00  0.00     0.065 H 
ATOM     14  H   LIG d   1       2.653  -3.713 -10.011  0.00  0.00     0.063 H 
ATOM     15  H   LIG d   1       5.500  -2.901  -6.163  0.00  0.00     0.069 H 
ENDROOT
BRANCH  10  16
ATOM     16  C   LIG d   1       5.348  -0.366  -5.446  0.00  0.00     0.060 A 
ATOM     17  C   LIG d   1       4.665  -0.065  -4.255  0.00  0.00     0.140 A 
ATOM     18  C   LIG d   1       5.342   0.529  -3.199  0.00  0.00     0.021 A 
ATOM     19  O   LIG d   1       3.349  -0.371  -4.145  0.00  0.00    -0.465 OA
ATOM     20  C   LIG d   1       6.679   0.839  -3.321  0.00  0.00    -0.044 A 
ATOM     21  C   LIG d   1       4.621   0.844  -1.912  0.00  0.00     0.080 C 
ATOM     22  C   LIG d   1       7.367   0.553  -4.505  0.00  0.00    -0.002 A 
ATOM     23  H   LIG d   1       7.199   1.308  -2.498  0.00  0.00     0.063 H 
ATOM     24  C   LIG d   1       6.699  -0.052  -5.569  0.00  0.00    -0.039 A 
ATOM     25  H   LIG d   1       7.227  -0.276  -6.484  0.00  0.00     0.063 H 
ATOM     26  O   LIG d   1       3.209   0.790  -2.136  0.00  0.00    -0.339 OA
ATOM     27  H   LIG d   1       4.898   0.113  -1.152  0.00  0.00     0.061 H 
ATOM     28  H   LIG d   1       4.899   1.843  -1.574  0.00  0.00     0.061 H 
ATOM     29  C   LIG d   1       2.796  -0.395  -2.826  0.00  0.00     0.191 C 
ATOM     30  H   LIG d   1       3.160  -1.274  -2.293  0.00  0.00     0.102 H 
ATOM     31  H   LIG d   1       1.708  -0.425  -2.882  0.00  0.00     0.102 H 
BRANCH  22  32
ATOM     32  C   LIG d   1       8.798   0.889  -4.628  0.00  0.00     0.072 C 
ATOM     33  O   LIG d   1       9.492   0.303  -5.435  0.00  0.00    -0.545 OA
ATOM     34  O   LIG d   1       9.335   1.846  -3.845  0.00  0.00    -0.545 OA
ENDBRANCH  22  32
ENDBRANCH  10  16
BRANCH   1  35
ATOM     35  C   LIG d   1       0.949  -2.429 -11.662  0.00  0.00    -0.040 C 
ATOM     36  H   LIG d   1       0.320  -1.654 -12.101  0.00  0.00     0.028 H 
ATOM     37  H   LIG d   1       1.648  -2.797 -12.412  0.00  0.00     0.028 H 
ATOM     38  H   LIG d   1       0.323  -3.251 -11.313  0.00  0.00     0.028 H 
ENDBRANCH   1  35
TORSDOF 3
ENDMDL
MODEL 4
REMARK VINA RESULT:      -7.0      5.647      9.764
REMARK  3 active torsions:
REMARK  status: ('A' for Active; 'I' for Inactive)
REMARK    1  A    between atoms: C_1  and  C_2 
REMARK    2  A    between atoms: C_11  and  C_13 
REMARK    3  A    between atoms: C_15  and  C_23 
ROOT
ATOM      1  C   LIG d   1       4.768  -1.048  -2.504  0.00  0.00    -0.050 A 
ATOM      2  C   LIG d   1       4.415   0.271  -2.265  0.00  0.00    -0.055 A 
ATOM      3  C   LIG d   1       5.184   1.305  -2.758  0.00  0.00    -0.018 A 
ATOM      4  C   LIG d   1       6.324   1.028  -3.502  0.00  0.00     0.139 A 
ATOM      5  C   LIG d   1       6.680  -0.308  -3.744  0.00  0.00     0.064 A 
ATOM      6  C   LIG d   1       5.895  -1.345  -3.240  0.00  0.00    -0.044 A 
ATOM      7  C   LIG d   1       7.895  -0.580  -4.537  0.00  0.00     0.193 A 
ATOM      8  O   LIG d   1       8.252  -1.722  -4.778  0.00  0.00    -0.287 OA
ATOM      9  C   LIG d   1       8.631   0.533  -5.001  0.00  0.00     0.029 A 
ATOM     10  C   LIG d   1       8.197   1.791  -4.713  0.00  0.00     0.143 A 
ATOM     11  O   LIG d   1       7.089   2.025  -3.992  0.00  0.00    -0.455 OA
ATOM     12  H   LIG d   1       3.530   0.492  -1.688  0.00  0.00     0.062 H 
ATOM     13  H   LIG d   1       4.900   2.329  -2.564  0.00  0.00     0.065 H 
ATOM     14  H   LIG d   1       6.168  -2.373  -3.426  0.00  0.00     0.063 H 
ATOM     15  H   LIG d   1       9.529   0.387  -5.582  0.00  0.00     0.069 H 
ENDROOT
BRANCH  10  16
ATOM     16  C   LIG d   1       8.974   2.940  -5.211  0.00  0.00     0.060 A 
ATOM     17  C   LIG d   1       9.624   3.796  -4.306  0.00  0.00     0.140 A 
ATOM     18  C   LIG d   1      10.365   4.872  -4.778  0.00  0.00     0.021 A 
ATOM     19  O   LIG d   1       9.532   3.555  -2.975  0.00  0.00    -0.465 OA
ATOM     20  C   LIG d   1      10.451   5.112  -6.132  0.00  0.00    -0.044 A 
ATOM     21  C   LIG d   1      11.076   5.789  -3.814  0.00  0.00     0.080 C 
ATOM     22  C   LIG d   1       9.801   4.271  -7.043  0.00  0.00    -0.002 A 
ATOM     23  H   LIG d   1      11.022   5.954  -6.493  0.00  0.00     0.063 H 
ATOM     24  C   LIG d   1       9.062   3.183  -6.580  0.00  0.00    -0.039 A 
ATOM     25  H   LIG d   1       8.560   2.532  -7.280  0.00  0.00     0.063 H 
ATOM     26  O   LIG d   1      10.556   5.586  -2.497  0.00  0.00    -0.339 OA
ATOM     27  H   LIG d   1      12.143   5.568  -3.823  0.00  0.00     0.061 H 
ATOM     28  H   LIG d   1      10.917   6.826  -4.114  0.00  0.00     0.061 H 
ATOM     29  C   LIG d   1      10.485   4.204  -2.130  0.00  0.00     0.191 C 
ATOM     30  H   LIG d   1      11.463   3.741  -2.259  0.00  0.00     0.102 H 
ATOM     31  H   LIG d   1      10.174   4.117  -1.088  0.00  0.00     0.102 H 
BRANCH  22  32
ATOM     32  C   LIG d   1       9.898   4.536  -8.490  0.00  0.00     0.072 C 
ATOM     33  O   LIG d   1       9.262   5.445  -8.985  0.00  0.00    -0.545 OA
ATOM     34  O   LIG d   1      10.691   3.769  -9.264  0.00  0.00    -0.545 OA
ENDBRANCH  22  32
ENDBRANCH  10  16
BRANCH   1  35
ATOM     35  C   LIG d   1       3.915  -2.163  -1.958  0.00  0.00    -0.040 C 
ATOM     36  H   LIG d   1       2.972  -1.755  -1.592  0.00  0.00     0.028 H 
ATOM     37  H   LIG d   1       3.715  -2.888  -2.747  0.00  0.00     0.028 H 
ATOM     38  H   LIG d   1       4.440  -2.654  -1.138  0.00  0.00     0.028 H 
ENDBRANCH   1  35
TORSDOF 3
ENDMDL
MODEL 5
REMARK VINA RESULT:      -6.8      4.747      7.397
REMARK  3 active torsions:
REMARK  status: ('A' for Active; 'I' for Inactive)
REMARK    1  A    between atoms: C_1  and  C_2 
REMARK    2  A    between atoms: C_11  and  C_13 
REMARK    3  A    between atoms: C_15  and  C_23 
ROOT
ATOM      1  C   LIG d   1      10.846   5.590  -4.333  0.00  0.00    -0.050 A 
ATOM      2  C   LIG d   1      10.670   5.205  -3.013  0.00  0.00    -0.055 A 
ATOM      3  C   LIG d   1       9.948   4.071  -2.702  0.00  0.00    -0.018 A 
ATOM      4  C   LIG d   1       9.391   3.304  -3.717  0.00  0.00     0.139 A 
ATOM      5  C   LIG d   1       9.570   3.694  -5.052  0.00  0.00     0.064 A 
ATOM      6  C   LIG d   1      10.302   4.842  -5.355  0.00  0.00    -0.044 A 
ATOM      7  C   LIG d   1       8.970   2.865  -6.116  0.00  0.00     0.193 A 
ATOM      8  O   LIG d   1       9.093   3.157  -7.294  0.00  0.00    -0.287 OA
ATOM      9  C   LIG d   1       8.240   1.723  -5.715  0.00  0.00     0.029 A 
ATOM     10  C   LIG d   1       8.129   1.430  -4.390  0.00  0.00     0.143 A 
ATOM     11  O   LIG d   1       8.681   2.192  -3.433  0.00  0.00    -0.455 OA
ATOM     12  H   LIG d   1      11.101   5.798  -2.220  0.00  0.00     0.062 H 
ATOM     13  H   LIG d   1       9.816   3.781  -1.670  0.00  0.00     0.065 H 
ATOM     14  H   LIG d   1      10.441   5.144  -6.383  0.00  0.00     0.063 H 
ATOM     15  H   LIG d   1       7.778   1.086  -6.454  0.00  0.00     0.069 H 
ENDROOT
BRANCH  10  16
ATOM     16  C   LIG d   1       7.370   0.231  -3.991  0.00  0.00     0.060 A 
ATOM     17  C   LIG d   1       6.161   0.364  -3.286  0.00  0.00     0.140 A 
ATOM     18  C   LIG d   1       5.443  -0.766  -2.921  0.00  0.00     0.021 A 
ATOM     19  O   LIG d   1       5.700   1.602  -2.980  0.00  0.00    -0.465 OA
ATOM     20  C   LIG d   1       5.920  -2.020  -3.233  0.00  0.00    -0.044 A 
ATOM     21  C   LIG d   1       4.138  -0.632  -2.175  0.00  0.00     0.080 C 
ATOM     22  C   LIG d   1       7.126  -2.166  -3.927  0.00  0.00    -0.002 A 
ATOM     23  H   LIG d   1       5.360  -2.897  -2.940  0.00  0.00     0.063 H 
ATOM     24  C   LIG d   1       7.851  -1.037  -4.307  0.00  0.00    -0.039 A 
ATOM     25  H   LIG d   1       8.782  -1.146  -4.843  0.00  0.00     0.063 H 
ATOM     26  O   LIG d   1       4.032   0.691  -1.642  0.00  0.00    -0.339 OA
ATOM     27  H   LIG d   1       3.309  -0.818  -2.857  0.00  0.00     0.061 H 
ATOM     28  H   LIG d   1       4.108  -1.357  -1.361  0.00  0.00     0.061 H 
ATOM     29  C   LIG d   1       4.324   1.708  -2.606  0.00  0.00     0.191 C 
ATOM     30  H   LIG d   1       3.695   1.570  -3.486  0.00  0.00     0.102 H 
ATOM     31  H   LIG d   1       4.135   2.690  -2.172  0.00  0.00     0.102 H 
BRANCH  22  32
ATOM     32  C   LIG d   1       7.631  -3.513  -4.257  0.00  0.00     0.072 C 
ATOM     33  O   LIG d   1       8.726  -3.863  -3.866  0.00  0.00    -0.545 OA
ATOM     34  O   LIG d   1       6.876  -4.353  -4.991  0.00  0.00    -0.545 OA
ENDBRANCH  22  32
ENDBRANCH  10  16
BRANCH   1  35
ATOM     35  C   LIG d   1      11.638   6.832  -4.652  0.00  0.00    -0.040 C 
ATOM     36  H   LIG d   1      12.282   6.642  -5.512  0.00  0.00     0.028 H 
ATOM     37  H   LIG d   1      10.955   7.648  -4.884  0.00  0.00     0.028 H 
ATOM     38  H   LIG d   1      12.251   7.103  -3.792  0.00  0.00     0.028 H 
ENDBRANCH   1  35
TORSDOF 3
ENDMDL
MODEL 6
REMARK VINA RESULT:      -6.6      4.044      7.523
REMARK  3 active torsions:
REMARK  status: ('A' for Active; 'I' for Inactive)
REMARK    1  A    between atoms: C_1  and  C_2 
REMARK    2  A    between atoms: C_11  and  C_13 
REMARK    3  A    between atoms: C_15  and  C_23 
ROOT
ATOM      1  C   LIG d   1       1.449  -1.664 -11.094  0.00  0.00    -0.050 A 
ATOM      2  C   LIG d   1       1.954  -2.846 -10.572  0.00  0.00    -0.055 A 
ATOM      3  C   LIG d   1       2.738  -2.835  -9.437  0.00  0.00    -0.018 A 
ATOM      4  C   LIG d   1       3.027  -1.632  -8.806  0.00  0.00     0.139 A 
ATOM      5  C   LIG d   1       2.516  -0.437  -9.334  0.00  0.00     0.064 A 
ATOM      6  C   LIG d   1       1.725  -0.460 -10.482  0.00  0.00    -0.044 A 
ATOM      7  C   LIG d   1       2.835   0.830  -8.647  0.00  0.00     0.193 A 
ATOM      8  O   LIG d   1       2.418   1.899  -9.062  0.00  0.00    -0.287 OA
ATOM      9  C   LIG d   1       3.649   0.757  -7.494  0.00  0.00     0.029 A 
ATOM     10  C   LIG d   1       4.091  -0.456  -7.062  0.00  0.00     0.143 A 
ATOM     11  O   LIG d   1       3.792  -1.601  -7.694  0.00  0.00    -0.455 OA
ATOM     12  H   LIG d   1       1.732  -3.783 -11.060  0.00  0.00     0.062 H 
ATOM     13  H   LIG d   1       3.126  -3.762  -9.040  0.00  0.00     0.065 H 
ATOM     14  H   LIG d   1       1.330   0.459 -10.889  0.00  0.00     0.063 H 
ATOM     15  H   LIG d   1       3.914   1.655  -6.958  0.00  0.00     0.069 H 
ENDROOT
BRANCH  10  16
ATOM     16  C   LIG d   1       4.933  -0.513  -5.853  0.00  0.00     0.060 A 
ATOM     17  C   LIG d   1       4.349  -0.387  -4.581  0.00  0.00     0.140 A 
ATOM     18  C   LIG d   1       5.144  -0.452  -3.444  0.00  0.00     0.021 A 
ATOM     19  O   LIG d   1       3.009  -0.215  -4.475  0.00  0.00    -0.465 OA
ATOM     20  C   LIG d   1       6.506  -0.624  -3.559  0.00  0.00    -0.044 A 
ATOM     21  C   LIG d   1       4.524  -0.330  -2.074  0.00  0.00     0.080 C 
ATOM     22  C   LIG d   1       7.099  -0.742  -4.821  0.00  0.00    -0.002 A 
ATOM     23  H   LIG d   1       7.120  -0.666  -2.672  0.00  0.00     0.063 H 
ATOM     24  C   LIG d   1       6.310  -0.688  -5.969  0.00  0.00    -0.039 A 
ATOM     25  H   LIG d   1       6.765  -0.780  -6.944  0.00  0.00     0.063 H 
ATOM     26  O   LIG d   1       3.204   0.205  -2.197  0.00  0.00    -0.339 OA
ATOM     27  H   LIG d   1       4.477  -1.314  -1.607  0.00  0.00     0.061 H 
ATOM     28  H   LIG d   1       5.131   0.335  -1.458  0.00  0.00     0.061 H 
ATOM     29  C   LIG d   1       2.421  -0.460  -3.195  0.00  0.00     0.191 C 
ATOM     30  H   LIG d   1       2.411  -1.532  -2.997  0.00  0.00     0.102 H 
ATOM     31  H   LIG d   1       1.401  -0.076  -3.178  0.00  0.00     0.102 H 
BRANCH  22  32
ATOM     32  C   LIG d   1       8.558  -0.925  -4.937  0.00  0.00     0.072 C 
ATOM     33  O   LIG d   1       9.287   0.044  -5.019  0.00  0.00    -0.545 OA
ATOM     34  O   LIG d   1       9.083  -2.166  -4.950  0.00  0.00    -0.545 OA
ENDBRANCH  22  32
ENDBRANCH  10  16
BRANCH   1  35
ATOM     35  C   LIG d   1       0.595  -1.696 -12.335  0.00  0.00    -0.040 C 
ATOM     36  H   LIG d   1       0.976  -0.974 -13.058  0.00  0.00     0.028 H 
ATOM     37  H   LIG d   1       0.625  -2.695 -12.770  0.00  0.00     0.028 H 
ATOM     38  H   LIG d   1      -0.432  -1.443 -12.075  0.00  0.00     0.028 H 
ENDBRANCH   1  35
TORSDOF 3
ENDMDL
MODEL 7
REMARK VINA RESULT:      -6.6      2.102      3.363
REMARK  3 active torsions:
REMARK  status: ('A' for Active; 'I' for Inactive)
REMARK    1  A    between atoms: C_1  and  C_2 
REMARK    2  A    between atoms: C_11  and  C_13 
REMARK    3  A    between atoms: C_15  and  C_23 
ROOT
ATOM      1  C   LIG d   1       3.727   0.494  -3.008  0.00  0.00    -0.050 A 
ATOM      2  C   LIG d   1       4.160  -0.350  -1.997  0.00  0.00    -0.055 A 
ATOM      3  C   LIG d   1       4.660  -1.601  -2.292  0.00  0.00    -0.018 A 
ATOM      4  C   LIG d   1       4.733  -2.025  -3.613  0.00  0.00     0.139 A 
ATOM      5  C   LIG d   1       4.294  -1.170  -4.635  0.00  0.00     0.064 A 
ATOM      6  C   LIG d   1       3.791   0.093  -4.325  0.00  0.00    -0.044 A 
ATOM      7  C   LIG d   1       4.381  -1.640  -6.033  0.00  0.00     0.193 A 
ATOM      8  O   LIG d   1       4.013  -0.938  -6.961  0.00  0.00    -0.287 OA
ATOM      9  C   LIG d   1       4.899  -2.936  -6.251  0.00  0.00     0.029 A 
ATOM     10  C   LIG d   1       5.301  -3.685  -5.188  0.00  0.00     0.143 A 
ATOM     11  O   LIG d   1       5.219  -3.246  -3.922  0.00  0.00    -0.455 OA
ATOM     12  H   LIG d   1       4.106  -0.025  -0.969  0.00  0.00     0.062 H 
ATOM     13  H   LIG d   1       4.994  -2.251  -1.496  0.00  0.00     0.065 H 
ATOM     14  H   LIG d   1       3.453   0.752  -5.111  0.00  0.00     0.063 H 
ATOM     15  H   LIG d   1       4.979  -3.327  -7.254  0.00  0.00     0.069 H 
ENDROOT
BRANCH  10  16
ATOM     16  C   LIG d   1       5.845  -5.033  -5.436  0.00  0.00     0.060 A 
ATOM     17  C   LIG d   1       7.229  -5.214  -5.602  0.00  0.00     0.140 A 
ATOM     18  C   LIG d   1       7.740  -6.485  -5.825  0.00  0.00     0.021 A 
ATOM     19  O   LIG d   1       8.056  -4.142  -5.531  0.00  0.00    -0.465 OA
ATOM     20  C   LIG d   1       6.892  -7.569  -5.900  0.00  0.00    -0.044 A 
ATOM     21  C   LIG d   1       9.225  -6.691  -5.993  0.00  0.00     0.080 C 
ATOM     22  C   LIG d   1       5.512  -7.400  -5.744  0.00  0.00    -0.002 A 
ATOM     23  H   LIG d   1       7.295  -8.555  -6.081  0.00  0.00     0.063 H 
ATOM     24  C   LIG d   1       4.989  -6.128  -5.511  0.00  0.00    -0.039 A 
ATOM     25  H   LIG d   1       3.924  -5.994  -5.389  0.00  0.00     0.063 H 
ATOM     26  O   LIG d   1       9.851  -5.431  -6.251  0.00  0.00    -0.339 OA
ATOM     27  H   LIG d   1       9.637  -7.123  -5.081  0.00  0.00     0.061 H 
ATOM     28  H   LIG d   1       9.407  -7.367  -6.829  0.00  0.00     0.061 H 
ATOM     29  C   LIG d   1       9.448  -4.407  -5.335  0.00  0.00     0.191 C 
ATOM     30  H   LIG d   1       9.615  -4.745  -4.312  0.00  0.00     0.102 H 
ATOM     31  H   LIG d   1      10.025  -3.502  -5.520  0.00  0.00     0.102 H 
BRANCH  22  32
ATOM     32  C   LIG d   1       4.611  -8.564  -5.826  0.00  0.00     0.072 C 
ATOM     33  O   LIG d   1       4.203  -9.089  -4.809  0.00  0.00    -0.545 OA
ATOM     34  O   LIG d   1       4.241  -9.047  -7.029  0.00  0.00    -0.545 OA
ENDBRANCH  22  32
ENDBRANCH  10  16
BRANCH   1  35
ATOM     35  C   LIG d   1       3.184   1.857  -2.665  0.00  0.00    -0.040 C 
ATOM     36  H   LIG d   1       2.095   1.814  -2.614  0.00  0.00     0.028 H 
ATOM     37  H   LIG d   1       3.580   2.174  -1.700  0.00  0.00     0.028 H 
ATOM     38  H   LIG d   1       3.483   2.571  -3.433  0.00  0.00     0.028 H 
ENDBRANCH   1  35
TORSDOF 3
ENDMDL
MODEL 8
REMARK VINA RESULT:      -6.5      4.148      7.458
REMARK  3 active torsions:
REMARK  status: ('A' for Active; 'I' for Inactive)
REMARK    1  A    between atoms: C_1  and  C_2 
REMARK    2  A    between atoms: C_11  and  C_13 
REMARK    3  A    between atoms: C_15  and  C_23 
ROOT
ATOM      1  C   LIG d   1       1.382  -1.689 -11.087  0.00  0.00    -0.050 A 
ATOM      2  C   LIG d   1       1.918  -2.870 -10.595  0.00  0.00    -0.055 A 
ATOM      3  C   LIG d   1       2.727  -2.863  -9.478  0.00  0.00    -0.018 A 
ATOM      4  C   LIG d   1       3.011  -1.666  -8.835  0.00  0.00     0.139 A 
ATOM      5  C   LIG d   1       2.468  -0.472  -9.333  0.00  0.00     0.064 A 
ATOM      6  C   LIG d   1       1.652  -0.490 -10.463  0.00  0.00    -0.044 A 
ATOM      7  C   LIG d   1       2.783   0.791  -8.634  0.00  0.00     0.193 A 
ATOM      8  O   LIG d   1       2.339   1.859  -9.024  0.00  0.00    -0.287 OA
ATOM      9  C   LIG d   1       3.624   0.714  -7.501  0.00  0.00     0.029 A 
ATOM     10  C   LIG d   1       4.095  -0.498  -7.098  0.00  0.00     0.143 A 
ATOM     11  O   LIG d   1       3.801  -1.639  -7.741  0.00  0.00    -0.455 OA
ATOM     12  H   LIG d   1       1.699  -3.804 -11.092  0.00  0.00     0.062 H 
ATOM     13  H   LIG d   1       3.139  -3.789  -9.105  0.00  0.00     0.065 H 
ATOM     14  H   LIG d   1       1.233   0.428 -10.848  0.00  0.00     0.063 H 
ATOM     15  H   LIG d   1       3.887   1.608  -6.958  0.00  0.00     0.069 H 
ENDROOT
BRANCH  10  16
ATOM     16  C   LIG d   1       4.966  -0.559  -5.909  0.00  0.00     0.060 A 
ATOM     17  C   LIG d   1       6.357  -0.693  -6.061  0.00  0.00     0.140 A 
ATOM     18  C   LIG d   1       7.175  -0.740  -4.941  0.00  0.00     0.021 A 
ATOM     19  O   LIG d   1       6.889  -0.761  -7.306  0.00  0.00    -0.465 OA
ATOM     20  C   LIG d   1       6.626  -0.672  -3.679  0.00  0.00    -0.044 A 
ATOM     21  C   LIG d   1       8.670  -0.869  -5.094  0.00  0.00     0.080 C 
ATOM     22  C   LIG d   1       5.242  -0.549  -3.515  0.00  0.00    -0.002 A 
ATOM     23  H   LIG d   1       7.268  -0.717  -2.811  0.00  0.00     0.063 H 
ATOM     24  C   LIG d   1       4.411  -0.491  -4.634  0.00  0.00    -0.039 A 
ATOM     25  H   LIG d   1       3.343  -0.395  -4.511  0.00  0.00     0.063 H 
ATOM     26  O   LIG d   1       8.974  -1.291  -6.427  0.00  0.00    -0.339 OA
ATOM     27  H   LIG d   1       9.141   0.095  -4.901  0.00  0.00     0.061 H 
ATOM     28  H   LIG d   1       9.047  -1.607  -4.384  0.00  0.00     0.061 H 
ATOM     29  C   LIG d   1       8.294  -0.523  -7.426  0.00  0.00     0.191 C 
ATOM     30  H   LIG d   1       8.500   0.537  -7.276  0.00  0.00     0.102 H 
ATOM     31  H   LIG d   1       8.636  -0.826  -8.416  0.00  0.00     0.102 H 
BRANCH  22  32
ATOM     32  C   LIG d   1       4.662  -0.479  -2.161  0.00  0.00     0.072 C 
ATOM     33  O   LIG d   1       4.350  -1.499  -1.581  0.00  0.00    -0.545 OA
ATOM     34  O   LIG d   1       4.479   0.717  -1.568  0.00  0.00    -0.545 OA
ENDBRANCH  22  32
ENDBRANCH  10  16
BRANCH   1  35
ATOM     35  C   LIG d   1       0.500  -1.717 -12.308  0.00  0.00    -0.040 C 
ATOM     36  H   LIG d   1       0.072  -0.728 -12.472  0.00  0.00     0.028 H 
ATOM     37  H   LIG d   1       1.092  -2.004 -13.177  0.00  0.00     0.028 H 
ATOM     38  H   LIG d   1      -0.302  -2.440 -12.161  0.00  0.00     0.028 H 
ENDBRANCH   1  35
TORSDOF 3
ENDMDL
MODEL 9
REMARK VINA RESULT:      -6.5      3.472      7.895
REMARK  3 active torsions:
REMARK  status: ('A' for Active; 'I' for Inactive)
REMARK    1  A    between atoms: C_1  and  C_2 
REMARK    2  A    between atoms: C_11  and  C_13 
REMARK    3  A    between atoms: C_15  and  C_23 
ROOT
ATOM      1  C   LIG d   1      10.087  -6.963  -3.573  0.00  0.00    -0.050 A 
ATOM      2  C   LIG d   1      10.444  -6.172  -2.491  0.00  0.00    -0.055 A 
ATOM      3  C   LIG d   1       9.905  -4.912  -2.333  0.00  0.00    -0.018 A 
ATOM      4  C   LIG d   1       8.996  -4.426  -3.263  0.00  0.00     0.139 A 
ATOM      5  C   LIG d   1       8.635  -5.227  -4.357  0.00  0.00     0.064 A 
ATOM      6  C   LIG d   1       9.186  -6.499  -4.506  0.00  0.00    -0.044 A 
ATOM      7  C   LIG d   1       7.666  -4.690  -5.333  0.00  0.00     0.193 A 
ATOM      8  O   LIG d   1       7.316  -5.343  -6.304  0.00  0.00    -0.287 OA
ATOM      9  C   LIG d   1       7.165  -3.389  -5.104  0.00  0.00     0.029 A 
ATOM     10  C   LIG d   1       7.577  -2.696  -4.007  0.00  0.00     0.143 A 
ATOM     11  O   LIG d   1       8.458  -3.195  -3.126  0.00  0.00    -0.455 OA
ATOM     12  H   LIG d   1      11.151  -6.546  -1.765  0.00  0.00     0.062 H 
ATOM     13  H   LIG d   1      10.192  -4.304  -1.487  0.00  0.00     0.065 H 
ATOM     14  H   LIG d   1       8.908  -7.117  -5.348  0.00  0.00     0.063 H 
ATOM     15  H   LIG d   1       6.457  -2.950  -5.790  0.00  0.00     0.069 H 
ENDROOT
BRANCH  10  16
ATOM     16  C   LIG d   1       7.039  -1.342  -3.781  0.00  0.00     0.060 A 
ATOM     17  C   LIG d   1       5.729  -1.177  -3.298  0.00  0.00     0.140 A 
ATOM     18  C   LIG d   1       5.228   0.099  -3.076  0.00  0.00     0.021 A 
ATOM     19  O   LIG d   1       4.969  -2.270  -3.042  0.00  0.00    -0.465 OA
ATOM     20  C   LIG d   1       6.006   1.204  -3.342  0.00  0.00    -0.044 A 
ATOM     21  C   LIG d   1       3.828   0.286  -2.546  0.00  0.00     0.080 C 
ATOM     22  C   LIG d   1       7.308   1.052  -3.831  0.00  0.00    -0.002 A 
ATOM     23  H   LIG d   1       5.608   2.194  -3.174  0.00  0.00     0.063 H 
ATOM     24  C   LIG d   1       7.825  -0.224  -4.049  0.00  0.00    -0.039 A 
ATOM     25  H   LIG d   1       8.830  -0.345  -4.426  0.00  0.00     0.063 H 
ATOM     26  O   LIG d   1       3.098  -0.935  -2.699  0.00  0.00    -0.339 OA
ATOM     27  H   LIG d   1       3.872   0.555  -1.491  0.00  0.00     0.061 H 
ATOM     28  H   LIG d   1       3.331   1.080  -3.104  0.00  0.00     0.061 H 
ATOM     29  C   LIG d   1       3.813  -2.079  -2.221  0.00  0.00     0.191 C 
ATOM     30  H   LIG d   1       4.122  -1.914  -1.189  0.00  0.00     0.102 H 
ATOM     31  H   LIG d   1       3.174  -2.960  -2.275  0.00  0.00     0.102 H 
BRANCH  22  32
ATOM     32  C   LIG d   1       8.134   2.241  -4.114  0.00  0.00     0.072 C 
ATOM     33  O   LIG d   1       8.087   2.766  -5.209  0.00  0.00    -0.545 OA
ATOM     34  O   LIG d   1       8.940   2.744  -3.159  0.00  0.00    -0.545 OA
ENDBRANCH  22  32
ENDBRANCH  10  16
BRANCH   1  35
ATOM     35  C   LIG d   1      10.686  -8.337  -3.727  0.00  0.00    -0.040 C 
ATOM     36  H   LIG d   1      10.753  -8.817  -2.751  0.00  0.00     0.028 H 
ATOM     37  H   LIG d   1      10.056  -8.936  -4.384  0.00  0.00     0.028 H 
ATOM     38  H   LIG d   1      11.684  -8.251  -4.159  0.00  0.00     0.028 H 
ENDBRANCH   1  35
TORSDOF 3
ENDMDL
MODEL 10
REMARK VINA RESULT:      -6.5      3.290      7.513
REMARK  3 active torsions:
REMARK  status: ('A' for Active; 'I' for Inactive)
REMARK    1  A    between atoms: C_1  and  C_2 
REMARK    2  A    between atoms: C_11  and  C_13 
REMARK    3  A    between atoms: C_15  and  C_23 
ROOT
ATOM      1  C   LIG d   1       1.551  -2.106 -10.667  0.00  0.00    -0.050 A 
ATOM      2  C   LIG d   1       1.417  -0.764 -10.344  0.00  0.00    -0.055 A 
ATOM      3  C   LIG d   1       2.128  -0.220  -9.294  0.00  0.00    -0.018 A 
ATOM      4  C   LIG d   1       2.986  -1.019  -8.550  0.00  0.00     0.139 A 
ATOM      5  C   LIG d   1       3.121  -2.376  -8.878  0.00  0.00     0.064 A 
ATOM      6  C   LIG d   1       2.398  -2.915  -9.942  0.00  0.00    -0.044 A 
ATOM      7  C   LIG d   1       4.040  -3.207  -8.075  0.00  0.00     0.193 A 
ATOM      8  O   LIG d   1       4.196  -4.393  -8.315  0.00  0.00    -0.287 OA
ATOM      9  C   LIG d   1       4.726  -2.576  -7.013  0.00  0.00     0.029 A 
ATOM     10  C   LIG d   1       4.526  -1.250  -6.780  0.00  0.00     0.143 A 
ATOM     11  O   LIG d   1       3.689  -0.505  -7.519  0.00  0.00    -0.455 OA
ATOM     12  H   LIG d   1       0.751  -0.139 -10.919  0.00  0.00     0.062 H 
ATOM     13  H   LIG d   1       2.014   0.827  -9.050  0.00  0.00     0.065 H 
ATOM     14  H   LIG d   1       2.502  -3.960 -10.196  0.00  0.00     0.063 H 
ATOM     15  H   LIG d   1       5.406  -3.141  -6.393  0.00  0.00     0.069 H 
ENDROOT
BRANCH  10  16
ATOM     16  C   LIG d   1       5.256  -0.608  -5.671  0.00  0.00     0.060 A 
ATOM     17  C   LIG d   1       6.526  -0.050  -5.893  0.00  0.00     0.140 A 
ATOM     18  C   LIG d   1       7.207   0.563  -4.850  0.00  0.00     0.021 A 
ATOM     19  O   LIG d   1       7.073  -0.106  -7.133  0.00  0.00    -0.465 OA
ATOM     20  C   LIG d   1       6.646   0.613  -3.593  0.00  0.00    -0.044 A 
ATOM     21  C   LIG d   1       8.565   1.176  -5.082  0.00  0.00     0.080 C 
ATOM     22  C   LIG d   1       5.385   0.054  -3.357  0.00  0.00    -0.002 A 
ATOM     23  H   LIG d   1       7.183   1.086  -2.783  0.00  0.00     0.063 H 
ATOM     24  C   LIG d   1       4.689  -0.557  -4.400  0.00  0.00    -0.039 A 
ATOM     25  H   LIG d   1       3.716  -0.989  -4.222  0.00  0.00     0.063 H 
ATOM     26  O   LIG d   1       9.098   0.690  -6.318  0.00  0.00    -0.339 OA
ATOM     27  H   LIG d   1       8.473   2.261  -5.127  0.00  0.00     0.061 H 
ATOM     28  H   LIG d   1       9.233   0.901  -4.264  0.00  0.00     0.061 H 
ATOM     29  C   LIG d   1       8.166   0.775  -7.401  0.00  0.00     0.191 C 
ATOM     30  H   LIG d   1       7.798   1.798  -7.488  0.00  0.00     0.102 H 
ATOM     31  H   LIG d   1       8.656   0.483  -8.330  0.00  0.00     0.102 H 
BRANCH  22  32
ATOM     32  C   LIG d   1       4.792   0.111  -2.008  0.00  0.00     0.072 C 
ATOM     33  O   LIG d   1       4.323  -0.893  -1.509  0.00  0.00    -0.545 OA
ATOM     34  O   LIG d   1       4.771   1.275  -1.330  0.00  0.00    -0.545 OA
ENDBRANCH  22  32
ENDBRANCH  10  16
BRANCH   1  35
ATOM     35  C   LIG d   1       0.767  -2.681 -11.818  0.00  0.00    -0.040 C 
ATOM     36  H   LIG d   1       1.067  -2.190 -12.745  0.00  0.00     0.028 H 
ATOM     37  H   LIG d   1       0.965  -3.750 -11.894  0.00  0.00     0.028 H 
ATOM     38  H   LIG d   1      -0.297  -2.519 -11.650  0.00  0.00     0.028 H 
ENDBRANCH   1  35
TORSDOF 3
ENDMDL
