MODEL 1
REMARK VINA RESULT:      -7.8      0.000      0.000
REMARK  20 active torsions:
REMARK  status: ('A' for Active; 'I' for Inactive)
REMARK    1  A    between atoms: C_3  and  N_53 
REMARK    2  A    between atoms: N_7  and  C1*_40 
REMARK    3  A    between atoms: C_8  and  N_10 
REMARK    4  A    between atoms: N_10  and  C_11 
REMARK    5  A    between atoms: C_11  and  C_12 
REMARK    6  A    between atoms: C_12  and  C_13 
REMARK    7  A    between atoms: C_13  and  C_14 
REMARK    8  A    between atoms: C_14  and  C_15 
REMARK    9  A    between atoms: C_15  and  N_16 
REMARK   10  A    between atoms: N_16  and  C_17 
REMARK   11  A    between atoms: C_20  and  N_39 
REMARK   12  A    between atoms: N_25  and  C1*_26 
REMARK   13  A    between atoms: C2*_28  and  O2*_38 
REMARK   14  A    between atoms: C3*_30  and  O3*_37 
REMARK   15  A    between atoms: C4*_32  and  C5*_35 
REMARK   16  A    between atoms: C5*_35  and  O5*_36 
REMARK   17  A    between atoms: C2*_42  and  O2*_52 
REMARK   18  A    between atoms: C3*_44  and  O3*_51 
REMARK   19  A    between atoms: C4*_46  and  C5*_49 
REMARK   20  A    between atoms: C5*_49  and  O5*_50 
ROOT
ATOM      1  C   LIG d   1       9.615   4.268  -4.165  0.00  0.00    -0.050 C 
ATOM      2  H   LIG d   1       9.254   4.054  -3.159  0.00  0.00     0.027 H 
ATOM      3  H   LIG d   1      10.704   4.236  -4.176  0.00  0.00     0.027 H 
ENDROOT
BRANCH   1   4
ATOM      4  C   LIG d   1       9.063   3.223  -5.138  0.00  0.00    -0.037 C 
ATOM      5  H   LIG d   1       9.888   2.745  -5.664  0.00  0.00     0.028 H 
ATOM      6  H   LIG d   1       8.404   3.708  -5.858  0.00  0.00     0.028 H 
BRANCH   4   7
ATOM      7  C   LIG d   1       8.276   2.167  -4.357  0.00  0.00     0.012 C 
ATOM      8  H   LIG d   1       7.579   2.661  -3.681  0.00  0.00     0.046 H 
ATOM      9  H   LIG d   1       8.967   1.551  -3.782  0.00  0.00     0.046 H 
BRANCH   7  10
ATOM     10  N   LIG d   1       7.531   1.322  -5.295  0.00  0.00    -0.315 N 
ATOM     11  H   LIG d   1       6.929   1.727  -5.939  0.00  0.00     0.149 HD
BRANCH  10  12
ATOM     12  C   LIG d   1       7.687  -0.048  -5.261  0.00  0.00     0.200 A 
ATOM     13  N   LIG d   1       6.723  -0.940  -4.879  0.00  0.00    -0.267 N 
ATOM     14  C   LIG d   1       7.264  -2.201  -4.984  0.00  0.00     0.169 A 
ATOM     15  C   LIG d   1       8.580  -2.025  -5.441  0.00  0.00     0.149 A 
ATOM     16  N   LIG d   1       6.819  -3.432  -4.756  0.00  0.00    -0.216 NA
ATOM     17  C   LIG d   1       9.372  -3.168  -5.639  0.00  0.00     0.147 A 
ATOM     18  N   LIG d   1       8.780  -0.691  -5.592  0.00  0.00    -0.209 NA
ATOM     19  N   LIG d   1       8.841  -4.360  -5.385  0.00  0.00    -0.219 NA
ATOM     20  C   LIG d   1       7.597  -4.475  -4.955  0.00  0.00     0.120 A 
ATOM     21  H   LIG d   1       7.203  -5.462  -4.765  0.00  0.00     0.105 H 
BRANCH  13  22
ATOM     22  C1* LIG d   1       5.365  -0.614  -4.438  0.00  0.00     0.168 C 
ATOM     23  H1* LIG d   1       4.789  -0.201  -5.266  0.00  0.00     0.087 H 
ATOM     24  O4* LIG d   1       5.405   0.316  -3.344  0.00  0.00    -0.346 OA
ATOM     25  C4* LIG d   1       4.361   0.014  -2.409  0.00  0.00     0.113 C 
ATOM     26  C3* LIG d   1       3.615  -1.233  -2.929  0.00  0.00     0.114 C 
ATOM     27  H4* LIG d   1       4.790  -0.193  -1.428  0.00  0.00     0.065 H 
ATOM     28  C2* LIG d   1       4.667  -1.876  -3.873  0.00  0.00     0.129 C 
ATOM     29  H3* LIG d   1       3.367  -1.908  -2.108  0.00  0.00     0.065 H 
ATOM     30  H2* LIG d   1       5.367  -2.498  -3.317  0.00  0.00     0.067 H 
BRANCH  25  31
ATOM     31  C5* LIG d   1       3.394   1.195  -2.313  0.00  0.00     0.073 C 
ATOM     32 1H5* LIG d   1       2.369   0.825  -2.291  0.00  0.00     0.058 H 
ATOM     33 2H5* LIG d   1       3.597   1.757  -1.401  0.00  0.00     0.058 H 
BRANCH  31  34
ATOM     34  O5* LIG d   1       3.568   2.048  -3.446  0.00  0.00    -0.392 OA
ATOM     35  H5* LIG d   1       4.104   1.660  -4.152  0.00  0.00     0.209 HD
ENDBRANCH  31  34
ENDBRANCH  25  31
BRANCH  26  36
ATOM     36  O3* LIG d   1       2.440  -0.863  -3.651  0.00  0.00    -0.386 OA
ATOM     37  H3* LIG d   1       2.300  -1.371  -4.462  0.00  0.00     0.210 HD
ENDBRANCH  26  36
BRANCH  28  38
ATOM     38  O2* LIG d   1       4.034  -2.624  -4.915  0.00  0.00    -0.385 OA
ATOM     39  H2* LIG d   1       3.194  -3.026  -4.656  0.00  0.00     0.210 HD
ENDBRANCH  28  38
ENDBRANCH  13  22
BRANCH  17  40
ATOM     40  N   LIG d   1      10.678  -3.056  -6.089  0.00  0.00    -0.341 N 
ATOM     41  H   LIG d   1      11.369  -2.724  -5.495  0.00  0.00     0.144 HD
ATOM     42  H   LIG d   1      10.901  -3.308  -6.999  0.00  0.00     0.144 HD
ENDBRANCH  17  40
ENDBRANCH  10  12
ENDBRANCH   7  10
ENDBRANCH   4   7
ENDBRANCH   1   4
BRANCH   1  43
ATOM     43  C   LIG d   1       9.141   5.659  -4.591  0.00  0.00    -0.037 C 
ATOM     44  H   LIG d   1       9.084   5.706  -5.679  0.00  0.00     0.028 H 
ATOM     45  H   LIG d   1       8.156   5.854  -4.167  0.00  0.00     0.028 H 
BRANCH  43  46
ATOM     46  C   LIG d   1      10.131   6.711  -4.086  0.00  0.00     0.012 C 
ATOM     47  H   LIG d   1      10.984   6.215  -3.624  0.00  0.00     0.046 H 
ATOM     48  H   LIG d   1      10.474   7.319  -4.925  0.00  0.00     0.046 H 
BRANCH  46  49
ATOM     49  N   LIG d   1       9.470   7.570  -3.099  0.00  0.00    -0.315 N 
ATOM     50  H   LIG d   1       8.678   8.071  -3.345  0.00  0.00     0.149 HD
BRANCH  49  51
ATOM     51  C   LIG d   1       9.977   7.664  -1.819  0.00  0.00     0.200 A 
ATOM     52  N   LIG d   1      10.444   8.812  -1.240  0.00  0.00    -0.267 N 
ATOM     53  C   LIG d   1      10.855   8.493   0.034  0.00  0.00     0.169 A 
ATOM     54  C   LIG d   1      10.626   7.116   0.185  0.00  0.00     0.149 A 
ATOM     55  N   LIG d   1      11.382   9.175   1.044  0.00  0.00    -0.216 NA
ATOM     56  N   LIG d   1      10.089   6.666  -0.977  0.00  0.00    -0.209 NA
ATOM     57  C   LIG d   1      10.966   6.518   1.410  0.00  0.00     0.147 A 
ATOM     58  N   LIG d   1      11.489   7.281   2.364  0.00  0.00    -0.219 NA
ATOM     59  C   LIG d   1      11.686   8.573   2.175  0.00  0.00     0.120 A 
ATOM     60  H   LIG d   1      12.113   9.157   2.977  0.00  0.00     0.105 H 
BRANCH  52  61
ATOM     61  C1* LIG d   1      10.494  10.138  -1.862  0.00  0.00     0.168 C 
ATOM     62  H1* LIG d   1      11.369  10.687  -1.514  0.00  0.00     0.087 H 
ATOM     63  O4* LIG d   1      10.515  10.017  -3.301  0.00  0.00    -0.346 OA
ATOM     64  C4* LIG d   1      10.066  11.299  -3.796  0.00  0.00     0.113 C 
ATOM     65  C3* LIG d   1       8.916  11.709  -2.849  0.00  0.00     0.114 C 
ATOM     66  H4* LIG d   1      10.876  12.027  -3.747  0.00  0.00     0.065 H 
ATOM     67  C2* LIG d   1       9.205  10.927  -1.548  0.00  0.00     0.129 C 
ATOM     68  H3* LIG d   1       8.939  12.782  -2.663  0.00  0.00     0.065 H 
ATOM     69  H2* LIG d   1       9.370  11.615  -0.719  0.00  0.00     0.067 H 
BRANCH  64  70
ATOM     70  C5* LIG d   1       9.554  11.170  -5.231  0.00  0.00     0.073 C 
ATOM     71 1H5* LIG d   1       8.732  11.870  -5.388  0.00  0.00     0.058 H 
ATOM     72 2H5* LIG d   1      10.362  11.395  -5.927  0.00  0.00     0.058 H 
BRANCH  70  73
ATOM     73  O5* LIG d   1       9.091   9.836  -5.455  0.00  0.00    -0.392 OA
ATOM     74  H5* LIG d   1       8.162   9.698  -5.227  0.00  0.00     0.209 HD
ENDBRANCH  70  73
ENDBRANCH  64  70
BRANCH  65  75
ATOM     75  O3* LIG d   1       7.654  11.324  -3.396  0.00  0.00    -0.386 OA
ATOM     76  H3* LIG d   1       7.393  10.416  -3.186  0.00  0.00     0.210 HD
ENDBRANCH  65  75
BRANCH  67  77
ATOM     77  O2* LIG d   1       8.130  10.034  -1.249  0.00  0.00    -0.385 OA
ATOM     78  H2* LIG d   1       8.368   9.098  -1.305  0.00  0.00     0.210 HD
ENDBRANCH  67  77
ENDBRANCH  52  61
BRANCH  57  79
ATOM     79  N   LIG d   1      10.762   5.163   1.617  0.00  0.00    -0.341 N 
ATOM     80  H   LIG d   1      10.060   4.699   1.136  0.00  0.00     0.144 HD
ATOM     81  H   LIG d   1      11.321   4.680   2.245  0.00  0.00     0.144 HD
ENDBRANCH  57  79
ENDBRANCH  49  51
ENDBRANCH  46  49
ENDBRANCH  43  46
ENDBRANCH   1  43
TORSDOF 20
ENDMDL
MODEL 2
REMARK VINA RESULT:      -7.6      1.921      3.011
REMARK  20 active torsions:
REMARK  status: ('A' for Active; 'I' for Inactive)
REMARK    1  A    between atoms: C_3  and  N_53 
REMARK    2  A    between atoms: N_7  and  C1*_40 
REMARK    3  A    between atoms: C_8  and  N_10 
REMARK    4  A    between atoms: N_10  and  C_11 
REMARK    5  A    between atoms: C_11  and  C_12 
REMARK    6  A    between atoms: C_12  and  C_13 
REMARK    7  A    between atoms: C_13  and  C_14 
REMARK    8  A    between atoms: C_14  and  C_15 
REMARK    9  A    between atoms: C_15  and  N_16 
REMARK   10  A    between atoms: N_16  and  C_17 
REMARK   11  A    between atoms: C_20  and  N_39 
REMARK   12  A    between atoms: N_25  and  C1*_26 
REMARK   13  A    between atoms: C2*_28  and  O2*_38 
REMARK   14  A    between atoms: C3*_30  and  O3*_37 
REMARK   15  A    between atoms: C4*_32  and  C5*_35 
REMARK   16  A    between atoms: C5*_35  and  O5*_36 
REMARK   17  A    between atoms: C2*_42  and  O2*_52 
REMARK   18  A    between atoms: C3*_44  and  O3*_51 
REMARK   19  A    between atoms: C4*_46  and  C5*_49 
REMARK   20  A    between atoms: C5*_49  and  O5*_50 
ROOT
ATOM      1  C   LIG d   1      11.271   4.531  -3.856  0.00  0.00    -0.050 C 
ATOM      2  H   LIG d   1      12.221   4.623  -3.329  0.00  0.00     0.027 H 
ATOM      3  H   LIG d   1      11.406   3.918  -4.747  0.00  0.00     0.027 H 
ENDROOT
BRANCH   1   4
ATOM      4  C   LIG d   1      10.238   3.875  -2.936  0.00  0.00    -0.037 C 
ATOM      5  H   LIG d   1       9.302   4.427  -2.989  0.00  0.00     0.028 H 
ATOM      6  H   LIG d   1      10.609   3.881  -1.911  0.00  0.00     0.028 H 
BRANCH   4   7
ATOM      7  C   LIG d   1      10.005   2.430  -3.385  0.00  0.00     0.012 C 
ATOM      8  H   LIG d   1      10.093   1.765  -2.526  0.00  0.00     0.046 H 
ATOM      9  H   LIG d   1      10.747   2.157  -4.134  0.00  0.00     0.046 H 
BRANCH   7  10
ATOM     10  N   LIG d   1       8.662   2.309  -3.959  0.00  0.00    -0.315 N 
ATOM     11  H   LIG d   1       7.882   2.356  -3.384  0.00  0.00     0.149 HD
BRANCH  10  12
ATOM     12  C   LIG d   1       8.507   2.129  -5.318  0.00  0.00     0.200 A 
ATOM     13  N   LIG d   1       7.684   1.204  -5.900  0.00  0.00    -0.267 N 
ATOM     14  C   LIG d   1       7.811   1.340  -7.264  0.00  0.00     0.169 A 
ATOM     15  C   LIG d   1       8.736   2.376  -7.468  0.00  0.00     0.149 A 
ATOM     16  N   LIG d   1       7.276   0.735  -8.318  0.00  0.00    -0.216 NA
ATOM     17  C   LIG d   1       9.055   2.729  -8.790  0.00  0.00     0.147 A 
ATOM     18  N   LIG d   1       9.125   2.818  -6.245  0.00  0.00    -0.209 NA
ATOM     19  N   LIG d   1       8.468   2.068  -9.782  0.00  0.00    -0.219 NA
ATOM     20  C   LIG d   1       7.604   1.098  -9.540  0.00  0.00     0.120 A 
ATOM     21  H   LIG d   1       7.147   0.590 -10.375  0.00  0.00     0.105 H 
BRANCH  13  22
ATOM     22  C1* LIG d   1       6.827   0.244  -5.201  0.00  0.00     0.168 C 
ATOM     23  H1* LIG d   1       6.117  -0.204  -5.897  0.00  0.00     0.087 H 
ATOM     24  O4* LIG d   1       6.130   0.888  -4.123  0.00  0.00    -0.346 OA
ATOM     25  C4* LIG d   1       6.021  -0.008  -3.008  0.00  0.00     0.113 C 
ATOM     26  C3* LIG d   1       6.738  -1.319  -3.392  0.00  0.00     0.114 C 
ATOM     27  H4* LIG d   1       6.497   0.432  -2.131  0.00  0.00     0.065 H 
ATOM     28  C2* LIG d   1       7.688  -0.855  -4.530  0.00  0.00     0.129 C 
ATOM     29  H3* LIG d   1       7.307  -1.712  -2.548  0.00  0.00     0.065 H 
ATOM     30  H2* LIG d   1       8.611  -0.441  -4.127  0.00  0.00     0.067 H 
BRANCH  25  31
ATOM     31  C5* LIG d   1       4.547  -0.289  -2.712  0.00  0.00     0.073 C 
ATOM     32 1H5* LIG d   1       4.020   0.653  -2.561  0.00  0.00     0.058 H 
ATOM     33 2H5* LIG d   1       4.103  -0.823  -3.553  0.00  0.00     0.058 H 
BRANCH  31  34
ATOM     34  O5* LIG d   1       4.442  -1.088  -1.532  0.00  0.00    -0.392 OA
ATOM     35  H5* LIG d   1       4.564  -0.594  -0.710  0.00  0.00     0.209 HD
ENDBRANCH  31  34
ENDBRANCH  25  31
BRANCH  26  36
ATOM     36  O3* LIG d   1       5.807  -2.292  -3.870  0.00  0.00    -0.386 OA
ATOM     37  H3* LIG d   1       5.262  -2.689  -3.177  0.00  0.00     0.210 HD
ENDBRANCH  26  36
BRANCH  28  38
ATOM     38  O2* LIG d   1       7.961  -1.924  -5.440  0.00  0.00    -0.385 OA
ATOM     39  H2* LIG d   1       7.865  -1.681  -6.371  0.00  0.00     0.210 HD
ENDBRANCH  28  38
ENDBRANCH  13  22
BRANCH  17  40
ATOM     40  N   LIG d   1       9.961   3.744  -9.053  0.00  0.00    -0.341 N 
ATOM     41  H   LIG d   1      10.738   3.569  -9.607  0.00  0.00     0.144 HD
ATOM     42  H   LIG d   1       9.819   4.629  -8.683  0.00  0.00     0.144 HD
ENDBRANCH  17  40
ENDBRANCH  10  12
ENDBRANCH   7  10
ENDBRANCH   4   7
ENDBRANCH   1   4
BRANCH   1  43
ATOM     43  C   LIG d   1      10.778   5.921  -4.263  0.00  0.00    -0.037 C 
ATOM     44  H   LIG d   1      11.489   6.673  -3.922  0.00  0.00     0.028 H 
ATOM     45  H   LIG d   1      10.687   5.972  -5.348  0.00  0.00     0.028 H 
BRANCH  43  46
ATOM     46  C   LIG d   1       9.412   6.185  -3.625  0.00  0.00     0.012 C 
ATOM     47  H   LIG d   1       8.641   6.159  -4.393  0.00  0.00     0.046 H 
ATOM     48  H   LIG d   1       9.206   5.418  -2.877  0.00  0.00     0.046 H 
BRANCH  46  49
ATOM     49  N   LIG d   1       9.420   7.502  -2.983  0.00  0.00    -0.315 N 
ATOM     50  H   LIG d   1       9.048   8.270  -3.446  0.00  0.00     0.149 HD
BRANCH  49  51
ATOM     51  C   LIG d   1       9.955   7.651  -1.720  0.00  0.00     0.200 A 
ATOM     52  N   LIG d   1      10.455   8.818  -1.209  0.00  0.00    -0.267 N 
ATOM     53  C   LIG d   1      10.887   8.555   0.071  0.00  0.00     0.169 A 
ATOM     54  C   LIG d   1      10.636   7.192   0.296  0.00  0.00     0.149 A 
ATOM     55  N   LIG d   1      11.447   9.277   1.034  0.00  0.00    -0.216 NA
ATOM     56  N   LIG d   1      10.067   6.695  -0.831  0.00  0.00    -0.209 NA
ATOM     57  C   LIG d   1      10.991   6.650   1.542  0.00  0.00     0.147 A 
ATOM     58  N   LIG d   1      11.548   7.449   2.446  0.00  0.00    -0.219 NA
ATOM     59  C   LIG d   1      11.764   8.727   2.187  0.00  0.00     0.120 A 
ATOM     60  H   LIG d   1      12.218   9.341   2.951  0.00  0.00     0.105 H 
BRANCH  52  61
ATOM     61  C1* LIG d   1      10.515  10.110  -1.898  0.00  0.00     0.168 C 
ATOM     62  H1* LIG d   1      11.413  10.654  -1.605  0.00  0.00     0.087 H 
ATOM     63  O4* LIG d   1      10.488   9.917  -3.329  0.00  0.00    -0.346 OA
ATOM     64  C4* LIG d   1      10.052  11.184  -3.874  0.00  0.00     0.113 C 
ATOM     65  C3* LIG d   1       8.943  11.668  -2.914  0.00  0.00     0.114 C 
ATOM     66  H4* LIG d   1      10.880  11.893  -3.886  0.00  0.00     0.065 H 
ATOM     67  C2* LIG d   1       9.254  10.945  -1.585  0.00  0.00     0.129 C 
ATOM     68  H3* LIG d   1       8.996  12.748  -2.783  0.00  0.00     0.065 H 
ATOM     69  H2* LIG d   1       9.461  11.668  -0.797  0.00  0.00     0.067 H 
BRANCH  64  70
ATOM     70  C5* LIG d   1       9.493  10.996  -5.285  0.00  0.00     0.073 C 
ATOM     71 1H5* LIG d   1       8.638  11.658  -5.427  0.00  0.00     0.058 H 
ATOM     72 2H5* LIG d   1      10.264  11.236  -6.016  0.00  0.00     0.058 H 
BRANCH  70  73
ATOM     73  O5* LIG d   1       9.078   9.640  -5.458  0.00  0.00    -0.392 OA
ATOM     74  H5* LIG d   1       8.501   9.498  -6.221  0.00  0.00     0.209 HD
ENDBRANCH  70  73
ENDBRANCH  64  70
BRANCH  65  75
ATOM     75  O3* LIG d   1       7.655  11.287  -3.402  0.00  0.00    -0.386 OA
ATOM     76  H3* LIG d   1       6.919  11.601  -2.860  0.00  0.00     0.210 HD
ENDBRANCH  65  75
BRANCH  67  77
ATOM     77  O2* LIG d   1       8.170  10.093  -1.209  0.00  0.00    -0.385 OA
ATOM     78  H2* LIG d   1       7.407  10.564  -0.846  0.00  0.00     0.210 HD
ENDBRANCH  67  77
ENDBRANCH  52  61
BRANCH  57  79
ATOM     79  N   LIG d   1      10.767   5.311   1.821  0.00  0.00    -0.341 N 
ATOM     80  H   LIG d   1      11.513   4.692   1.855  0.00  0.00     0.144 HD
ATOM     81  H   LIG d   1       9.866   4.994   1.982  0.00  0.00     0.144 HD
ENDBRANCH  57  79
ENDBRANCH  49  51
ENDBRANCH  46  49
ENDBRANCH  43  46
ENDBRANCH   1  43
TORSDOF 20
ENDMDL
MODEL 3
REMARK VINA RESULT:      -7.4      2.023      3.805
REMARK  20 active torsions:
REMARK  status: ('A' for Active; 'I' for Inactive)
REMARK    1  A    between atoms: C_3  and  N_53 
REMARK    2  A    between atoms: N_7  and  C1*_40 
REMARK    3  A    between atoms: C_8  and  N_10 
REMARK    4  A    between atoms: N_10  and  C_11 
REMARK    5  A    between atoms: C_11  and  C_12 
REMARK    6  A    between atoms: C_12  and  C_13 
REMARK    7  A    between atoms: C_13  and  C_14 
REMARK    8  A    between atoms: C_14  and  C_15 
REMARK    9  A    between atoms: C_15  and  N_16 
REMARK   10  A    between atoms: N_16  and  C_17 
REMARK   11  A    between atoms: C_20  and  N_39 
REMARK   12  A    between atoms: N_25  and  C1*_26 
REMARK   13  A    between atoms: C2*_28  and  O2*_38 
REMARK   14  A    between atoms: C3*_30  and  O3*_37 
REMARK   15  A    between atoms: C4*_32  and  C5*_35 
REMARK   16  A    between atoms: C5*_35  and  O5*_36 
REMARK   17  A    between atoms: C2*_42  and  O2*_52 
REMARK   18  A    between atoms: C3*_44  and  O3*_51 
REMARK   19  A    between atoms: C4*_46  and  C5*_49 
REMARK   20  A    between atoms: C5*_49  and  O5*_50 
ROOT
ATOM      1  C   LIG d   1       9.693   4.108  -4.486  0.00  0.00    -0.050 C 
ATOM      2  H   LIG d   1       9.771   3.806  -3.442  0.00  0.00     0.027 H 
ATOM      3  H   LIG d   1      10.678   4.073  -4.950  0.00  0.00     0.027 H 
ENDROOT
BRANCH   1   4
ATOM      4  C   LIG d   1       8.748   3.155  -5.223  0.00  0.00    -0.037 C 
ATOM      5  H   LIG d   1       8.708   3.426  -6.277  0.00  0.00     0.028 H 
ATOM      6  H   LIG d   1       7.750   3.226  -4.790  0.00  0.00     0.028 H 
BRANCH   4   7
ATOM      7  C   LIG d   1       9.263   1.720  -5.084  0.00  0.00     0.012 C 
ATOM      8  H   LIG d   1      10.352   1.723  -5.092  0.00  0.00     0.046 H 
ATOM      9  H   LIG d   1       8.894   1.120  -5.915  0.00  0.00     0.046 H 
BRANCH   7  10
ATOM     10  N   LIG d   1       8.785   1.152  -3.821  0.00  0.00    -0.315 N 
ATOM     11  H   LIG d   1       9.361   1.152  -3.040  0.00  0.00     0.149 HD
BRANCH  10  12
ATOM     12  C   LIG d   1       7.516   0.616  -3.742  0.00  0.00     0.200 A 
ATOM     13  N   LIG d   1       7.175  -0.657  -4.108  0.00  0.00    -0.267 N 
ATOM     14  C   LIG d   1       5.826  -0.804  -3.878  0.00  0.00     0.169 A 
ATOM     15  C   LIG d   1       5.381   0.424  -3.364  0.00  0.00     0.149 A 
ATOM     16  N   LIG d   1       4.952  -1.793  -4.037  0.00  0.00    -0.216 NA
ATOM     17  C   LIG d   1       4.021   0.552  -3.038  0.00  0.00     0.147 A 
ATOM     18  N   LIG d   1       6.456   1.250  -3.304  0.00  0.00    -0.209 NA
ATOM     19  N   LIG d   1       3.221  -0.492  -3.229  0.00  0.00    -0.219 NA
ATOM     20  C   LIG d   1       3.686  -1.628  -3.717  0.00  0.00     0.120 A 
ATOM     21  H   LIG d   1       3.004  -2.453  -3.853  0.00  0.00     0.105 H 
BRANCH  13  22
ATOM     22  C1* LIG d   1       8.079  -1.676  -4.646  0.00  0.00     0.168 C 
ATOM     23  H1* LIG d   1       9.112  -1.332  -4.591  0.00  0.00     0.087 H 
ATOM     24  O4* LIG d   1       7.729  -1.987  -6.004  0.00  0.00    -0.346 OA
ATOM     25  C4* LIG d   1       7.921  -3.387  -6.248  0.00  0.00     0.113 C 
ATOM     26  C3* LIG d   1       8.399  -4.030  -4.930  0.00  0.00     0.114 C 
ATOM     27  H4* LIG d   1       6.981  -3.841  -6.563  0.00  0.00     0.065 H 
ATOM     28  C2* LIG d   1       7.913  -3.005  -3.869  0.00  0.00     0.129 C 
ATOM     29  H3* LIG d   1       7.925  -5.001  -4.777  0.00  0.00     0.065 H 
ATOM     30  H2* LIG d   1       6.871  -3.179  -3.603  0.00  0.00     0.067 H 
BRANCH  25  31
ATOM     31  C5* LIG d   1       8.980  -3.582  -7.335  0.00  0.00     0.073 C 
ATOM     32 1H5* LIG d   1       8.677  -3.051  -8.238  0.00  0.00     0.058 H 
ATOM     33 2H5* LIG d   1       9.936  -3.190  -6.986  0.00  0.00     0.058 H 
BRANCH  31  34
ATOM     34  O5* LIG d   1       9.115  -4.975  -7.625  0.00  0.00    -0.392 OA
ATOM     35  H5* LIG d   1      10.016  -5.312  -7.527  0.00  0.00     0.209 HD
ENDBRANCH  31  34
ENDBRANCH  25  31
BRANCH  26  36
ATOM     36  O3* LIG d   1       9.822  -4.153  -4.905  0.00  0.00    -0.386 OA
ATOM     37  H3* LIG d   1      10.272  -3.426  -4.454  0.00  0.00     0.210 HD
ENDBRANCH  26  36
BRANCH  28  38
ATOM     38  O2* LIG d   1       8.748  -3.031  -2.708  0.00  0.00    -0.385 OA
ATOM     39  H2* LIG d   1       9.551  -3.558  -2.813  0.00  0.00     0.210 HD
ENDBRANCH  28  38
ENDBRANCH  13  22
BRANCH  17  40
ATOM     40  N   LIG d   1       3.524   1.741  -2.526  0.00  0.00    -0.341 N 
ATOM     41  H   LIG d   1       3.144   2.404  -3.123  0.00  0.00     0.144 HD
ATOM     42  H   LIG d   1       3.558   1.910  -1.572  0.00  0.00     0.144 HD
ENDBRANCH  17  40
ENDBRANCH  10  12
ENDBRANCH   7  10
ENDBRANCH   4   7
ENDBRANCH   1   4
BRANCH   1  43
ATOM     43  C   LIG d   1       9.142   5.533  -4.565  0.00  0.00    -0.037 C 
ATOM     44  H   LIG d   1       8.926   5.781  -5.604  0.00  0.00     0.028 H 
ATOM     45  H   LIG d   1       8.227   5.603  -3.977  0.00  0.00     0.028 H 
BRANCH  43  46
ATOM     46  C   LIG d   1      10.180   6.512  -4.012  0.00  0.00     0.012 C 
ATOM     47  H   LIG d   1      10.961   5.958  -3.494  0.00  0.00     0.046 H 
ATOM     48  H   LIG d   1      10.620   7.078  -4.835  0.00  0.00     0.046 H 
BRANCH  46  49
ATOM     49  N   LIG d   1       9.531   7.435  -3.077  0.00  0.00    -0.315 N 
ATOM     50  H   LIG d   1       8.758   7.947  -3.359  0.00  0.00     0.149 HD
BRANCH  49  51
ATOM     51  C   LIG d   1      10.020   7.573  -1.794  0.00  0.00     0.200 A 
ATOM     52  N   LIG d   1      10.481   8.740  -1.249  0.00  0.00    -0.267 N 
ATOM     53  C   LIG d   1      10.874   8.465   0.041  0.00  0.00     0.169 A 
ATOM     54  C   LIG d   1      10.642   7.094   0.237  0.00  0.00     0.149 A 
ATOM     55  N   LIG d   1      11.388   9.181   1.034  0.00  0.00    -0.216 NA
ATOM     56  N   LIG d   1      10.121   6.605  -0.917  0.00  0.00    -0.209 NA
ATOM     57  C   LIG d   1      10.965   6.539   1.485  0.00  0.00     0.147 A 
ATOM     58  N   LIG d   1      11.476   7.334   2.420  0.00  0.00    -0.219 NA
ATOM     59  C   LIG d   1      11.676   8.619   2.189  0.00  0.00     0.120 A 
ATOM     60  H   LIG d   1      12.093   9.230   2.976  0.00  0.00     0.105 H 
BRANCH  52  61
ATOM     61  C1* LIG d   1      10.539  10.044  -1.915  0.00  0.00     0.168 C 
ATOM     62  H1* LIG d   1      11.443  10.579  -1.622  0.00  0.00     0.087 H 
ATOM     63  O4* LIG d   1      10.497   9.877  -3.349  0.00  0.00    -0.346 OA
ATOM     64  C4* LIG d   1      10.061  11.155  -3.867  0.00  0.00     0.113 C 
ATOM     65  C3* LIG d   1       8.964  11.627  -2.887  0.00  0.00     0.114 C 
ATOM     66  H4* LIG d   1      10.892  11.861  -3.875  0.00  0.00     0.065 H 
ATOM     67  C2* LIG d   1       9.286  10.878  -1.574  0.00  0.00     0.129 C 
ATOM     68  H3* LIG d   1       9.023  12.704  -2.737  0.00  0.00     0.065 H 
ATOM     69  H2* LIG d   1       9.504  11.587  -0.775  0.00  0.00     0.067 H 
BRANCH  64  70
ATOM     70  C5* LIG d   1       9.486  10.995  -5.275  0.00  0.00     0.073 C 
ATOM     71 1H5* LIG d   1       8.631  11.661  -5.396  0.00  0.00     0.058 H 
ATOM     72 2H5* LIG d   1      10.250  11.246  -6.010  0.00  0.00     0.058 H 
BRANCH  70  73
ATOM     73  O5* LIG d   1       9.065   9.643  -5.468  0.00  0.00    -0.392 OA
ATOM     74  H5* LIG d   1       9.260   9.291  -6.348  0.00  0.00     0.209 HD
ENDBRANCH  70  73
ENDBRANCH  64  70
BRANCH  65  75
ATOM     75  O3* LIG d   1       7.670  11.260  -3.368  0.00  0.00    -0.386 OA
ATOM     76  H3* LIG d   1       7.678  10.539  -4.013  0.00  0.00     0.210 HD
ENDBRANCH  65  75
BRANCH  67  77
ATOM     77  O2* LIG d   1       8.202  10.025  -1.202  0.00  0.00    -0.385 OA
ATOM     78  H2* LIG d   1       7.559  10.440  -0.610  0.00  0.00     0.210 HD
ENDBRANCH  67  77
ENDBRANCH  52  61
BRANCH  57  79
ATOM     79  N   LIG d   1      10.758   5.192   1.737  0.00  0.00    -0.341 N 
ATOM     80  H   LIG d   1      11.513   4.610   1.914  0.00  0.00     0.144 HD
ATOM     81  H   LIG d   1       9.858   4.831   1.733  0.00  0.00     0.144 HD
ENDBRANCH  57  79
ENDBRANCH  49  51
ENDBRANCH  46  49
ENDBRANCH  43  46
ENDBRANCH   1  43
TORSDOF 20
ENDMDL
MODEL 4
REMARK VINA RESULT:      -7.3      2.335      3.964
REMARK  20 active torsions:
REMARK  status: ('A' for Active; 'I' for Inactive)
REMARK    1  A    between atoms: C_3  and  N_53 
REMARK    2  A    between atoms: N_7  and  C1*_40 
REMARK    3  A    between atoms: C_8  and  N_10 
REMARK    4  A    between atoms: N_10  and  C_11 
REMARK    5  A    between atoms: C_11  and  C_12 
REMARK    6  A    between atoms: C_12  and  C_13 
REMARK    7  A    between atoms: C_13  and  C_14 
REMARK    8  A    between atoms: C_14  and  C_15 
REMARK    9  A    between atoms: C_15  and  N_16 
REMARK   10  A    between atoms: N_16  and  C_17 
REMARK   11  A    between atoms: C_20  and  N_39 
REMARK   12  A    between atoms: N_25  and  C1*_26 
REMARK   13  A    between atoms: C2*_28  and  O2*_38 
REMARK   14  A    between atoms: C3*_30  and  O3*_37 
REMARK   15  A    between atoms: C4*_32  and  C5*_35 
REMARK   16  A    between atoms: C5*_35  and  O5*_36 
REMARK   17  A    between atoms: C2*_42  and  O2*_52 
REMARK   18  A    between atoms: C3*_44  and  O3*_51 
REMARK   19  A    between atoms: C4*_46  and  C5*_49 
REMARK   20  A    between atoms: C5*_49  and  O5*_50 
ROOT
ATOM      1  C   LIG d   1      10.184   4.468  -5.082  0.00  0.00    -0.050 C 
ATOM      2  H   LIG d   1      10.766   4.158  -5.951  0.00  0.00     0.027 H 
ATOM      3  H   LIG d   1       9.144   4.172  -5.216  0.00  0.00     0.027 H 
ENDROOT
BRANCH   1   4
ATOM      4  C   LIG d   1      10.748   3.798  -3.826  0.00  0.00    -0.037 C 
ATOM      5  H   LIG d   1      11.028   4.561  -3.102  0.00  0.00     0.028 H 
ATOM      6  H   LIG d   1      11.625   3.208  -4.092  0.00  0.00     0.028 H 
BRANCH   4   7
ATOM      7  C   LIG d   1       9.683   2.882  -3.217  0.00  0.00     0.012 C 
ATOM      8  H   LIG d   1       9.102   3.439  -2.483  0.00  0.00     0.046 H 
ATOM      9  H   LIG d   1      10.167   2.035  -2.732  0.00  0.00     0.046 H 
BRANCH   7  10
ATOM     10  N   LIG d   1       8.794   2.396  -4.277  0.00  0.00    -0.315 N 
ATOM     11  H   LIG d   1       8.874   2.750  -5.176  0.00  0.00     0.149 HD
BRANCH  10  12
ATOM     12  C   LIG d   1       7.845   1.436  -3.993  0.00  0.00     0.200 A 
ATOM     13  N   LIG d   1       7.872   0.146  -4.445  0.00  0.00    -0.267 N 
ATOM     14  C   LIG d   1       6.758  -0.490  -3.946  0.00  0.00     0.169 A 
ATOM     15  C   LIG d   1       6.072   0.468  -3.182  0.00  0.00     0.149 A 
ATOM     16  N   LIG d   1       6.259  -1.718  -4.041  0.00  0.00    -0.216 NA
ATOM     17  C   LIG d   1       4.879   0.082  -2.548  0.00  0.00     0.147 A 
ATOM     18  N   LIG d   1       6.783   1.622  -3.249  0.00  0.00    -0.209 NA
ATOM     19  N   LIG d   1       4.458  -1.170  -2.700  0.00  0.00    -0.219 NA
ATOM     20  C   LIG d   1       5.138  -2.036  -3.429  0.00  0.00     0.120 A 
ATOM     21  H   LIG d   1       4.763  -3.044  -3.522  0.00  0.00     0.105 H 
BRANCH  13  22
ATOM     22  C1* LIG d   1       8.897  -0.451  -5.305  0.00  0.00     0.168 C 
ATOM     23  H1* LIG d   1       8.890  -1.536  -5.203  0.00  0.00     0.087 H 
ATOM     24  O4* LIG d   1      10.193   0.073  -4.975  0.00  0.00    -0.346 OA
ATOM     25  C4* LIG d   1      10.973   0.229  -6.168  0.00  0.00     0.113 C 
ATOM     26  C3* LIG d   1      10.092  -0.196  -7.362  0.00  0.00     0.114 C 
ATOM     27  H4* LIG d   1      11.274   1.271  -6.281  0.00  0.00     0.065 H 
ATOM     28  C2* LIG d   1       8.659  -0.049  -6.782  0.00  0.00     0.129 C 
ATOM     29  H3* LIG d   1      10.239   0.475  -8.210  0.00  0.00     0.065 H 
ATOM     30  H2* LIG d   1       8.308   0.980  -6.858  0.00  0.00     0.067 H 
BRANCH  25  31
ATOM     31  C5* LIG d   1      12.214  -0.663  -6.096  0.00  0.00     0.073 C 
ATOM     32 1H5* LIG d   1      12.479  -1.000  -7.098  0.00  0.00     0.058 H 
ATOM     33 2H5* LIG d   1      13.044  -0.097  -5.671  0.00  0.00     0.058 H 
BRANCH  31  34
ATOM     34  O5* LIG d   1      11.940  -1.796  -5.269  0.00  0.00    -0.392 OA
ATOM     35  H5* LIG d   1      11.480  -2.514  -5.725  0.00  0.00     0.209 HD
ENDBRANCH  31  34
ENDBRANCH  25  31
BRANCH  26  36
ATOM     36  O3* LIG d   1      10.354  -1.549  -7.736  0.00  0.00    -0.386 OA
ATOM     37  H3* LIG d   1      11.259  -1.705  -8.040  0.00  0.00     0.210 HD
ENDBRANCH  26  36
BRANCH  28  38
ATOM     38  O2* LIG d   1       7.750  -0.948  -7.422  0.00  0.00    -0.385 OA
ATOM     39  H2* LIG d   1       7.632  -0.782  -8.367  0.00  0.00     0.210 HD
ENDBRANCH  28  38
ENDBRANCH  13  22
BRANCH  17  40
ATOM     40  N   LIG d   1       4.160   0.984  -1.782  0.00  0.00    -0.341 N 
ATOM     41  H   LIG d   1       3.535   1.592  -2.207  0.00  0.00     0.144 HD
ATOM     42  H   LIG d   1       4.281   1.009  -0.820  0.00  0.00     0.144 HD
ENDBRANCH  17  40
ENDBRANCH  10  12
ENDBRANCH   7  10
ENDBRANCH   4   7
ENDBRANCH   1   4
BRANCH   1  43
ATOM     43  C   LIG d   1      10.267   5.987  -4.928  0.00  0.00    -0.037 C 
ATOM     44  H   LIG d   1      11.240   6.259  -4.520  0.00  0.00     0.028 H 
ATOM     45  H   LIG d   1      10.137   6.460  -5.902  0.00  0.00     0.028 H 
BRANCH  43  46
ATOM     46  C   LIG d   1       9.165   6.464  -3.978  0.00  0.00     0.012 C 
ATOM     47  H   LIG d   1       8.235   6.583  -4.532  0.00  0.00     0.046 H 
ATOM     48  H   LIG d   1       9.025   5.728  -3.186  0.00  0.00     0.046 H 
BRANCH  46  49
ATOM     49  N   LIG d   1       9.551   7.749  -3.389  0.00  0.00    -0.315 N 
ATOM     50  H   LIG d   1       9.461   8.566  -3.904  0.00  0.00     0.149 HD
BRANCH  49  51
ATOM     51  C   LIG d   1      10.041   7.796  -2.100  0.00  0.00     0.200 A 
ATOM     52  N   LIG d   1      10.483   8.926  -1.467  0.00  0.00    -0.267 N 
ATOM     53  C   LIG d   1      10.884   8.559  -0.203  0.00  0.00     0.169 A 
ATOM     54  C   LIG d   1      10.676   7.174  -0.113  0.00  0.00     0.149 A 
ATOM     55  N   LIG d   1      11.388   9.206   0.842  0.00  0.00    -0.216 NA
ATOM     56  N   LIG d   1      10.160   6.766  -1.300  0.00  0.00    -0.209 NA
ATOM     57  C   LIG d   1      11.012   6.530   1.089  0.00  0.00     0.147 A 
ATOM     58  N   LIG d   1      11.511   7.259   2.081  0.00  0.00    -0.219 NA
ATOM     59  C   LIG d   1      11.689   8.561   1.949  0.00  0.00     0.120 A 
ATOM     60  H   LIG d   1      12.097   9.117   2.781  0.00  0.00     0.105 H 
BRANCH  52  61
ATOM     61  C1* LIG d   1      10.517  10.278  -2.031  0.00  0.00     0.168 C 
ATOM     62  H1* LIG d   1      11.390  10.819  -1.665  0.00  0.00     0.087 H 
ATOM     63  O4* LIG d   1      10.532  10.219  -3.474  0.00  0.00    -0.346 OA
ATOM     64  C4* LIG d   1      10.069  11.517  -3.911  0.00  0.00     0.113 C 
ATOM     65  C3* LIG d   1       8.921  11.876  -2.942  0.00  0.00     0.114 C 
ATOM     66  H4* LIG d   1      10.873  12.250  -3.835  0.00  0.00     0.065 H 
ATOM     67  C2* LIG d   1       9.223  11.041  -1.677  0.00  0.00     0.129 C 
ATOM     68  H3* LIG d   1       8.935  12.940  -2.709  0.00  0.00     0.065 H 
ATOM     69  H2* LIG d   1       9.386  11.694  -0.820  0.00  0.00     0.067 H 
BRANCH  64  70
ATOM     70  C5* LIG d   1       9.551  11.446  -5.348  0.00  0.00     0.073 C 
ATOM     71 1H5* LIG d   1       8.676  12.089  -5.452  0.00  0.00     0.058 H 
ATOM     72 2H5* LIG d   1      10.330  11.780  -6.032  0.00  0.00     0.058 H 
BRANCH  70  73
ATOM     73  O5* LIG d   1       9.190  10.099  -5.659  0.00  0.00    -0.392 OA
ATOM     74  H5* LIG d   1       9.135   9.517  -4.888  0.00  0.00     0.209 HD
ENDBRANCH  70  73
ENDBRANCH  64  70
BRANCH  65  75
ATOM     75  O3* LIG d   1       7.659  11.503  -3.499  0.00  0.00    -0.386 OA
ATOM     76  H3* LIG d   1       7.498  10.550  -3.507  0.00  0.00     0.210 HD
ENDBRANCH  65  75
BRANCH  67  77
ATOM     77  O2* LIG d   1       8.158  10.126  -1.412  0.00  0.00    -0.385 OA
ATOM     78  H2* LIG d   1       8.400   9.196  -1.525  0.00  0.00     0.210 HD
ENDBRANCH  67  77
ENDBRANCH  52  61
BRANCH  57  79
ATOM     79  N   LIG d   1      10.828   5.164   1.236  0.00  0.00    -0.341 N 
ATOM     80  H   LIG d   1       9.954   4.773   1.084  0.00  0.00     0.144 HD
ATOM     81  H   LIG d   1      11.574   4.600   1.493  0.00  0.00     0.144 HD
ENDBRANCH  57  79
ENDBRANCH  49  51
ENDBRANCH  46  49
ENDBRANCH  43  46
ENDBRANCH   1  43
TORSDOF 20
ENDMDL
MODEL 5
REMARK VINA RESULT:      -7.3      6.948     10.703
REMARK  20 active torsions:
REMARK  status: ('A' for Active; 'I' for Inactive)
REMARK    1  A    between atoms: C_3  and  N_53 
REMARK    2  A    between atoms: N_7  and  C1*_40 
REMARK    3  A    between atoms: C_8  and  N_10 
REMARK    4  A    between atoms: N_10  and  C_11 
REMARK    5  A    between atoms: C_11  and  C_12 
REMARK    6  A    between atoms: C_12  and  C_13 
REMARK    7  A    between atoms: C_13  and  C_14 
REMARK    8  A    between atoms: C_14  and  C_15 
REMARK    9  A    between atoms: C_15  and  N_16 
REMARK   10  A    between atoms: N_16  and  C_17 
REMARK   11  A    between atoms: C_20  and  N_39 
REMARK   12  A    between atoms: N_25  and  C1*_26 
REMARK   13  A    between atoms: C2*_28  and  O2*_38 
REMARK   14  A    between atoms: C3*_30  and  O3*_37 
REMARK   15  A    between atoms: C4*_32  and  C5*_35 
REMARK   16  A    between atoms: C5*_35  and  O5*_36 
REMARK   17  A    between atoms: C2*_42  and  O2*_52 
REMARK   18  A    between atoms: C3*_44  and  O3*_51 
REMARK   19  A    between atoms: C4*_46  and  C5*_49 
REMARK   20  A    between atoms: C5*_49  and  O5*_50 
ROOT
ATOM      1  C   LIG d   1       2.585   1.267  -8.883  0.00  0.00    -0.050 C 
ATOM      2  H   LIG d   1       1.636   1.804  -8.904  0.00  0.00     0.027 H 
ATOM      3  H   LIG d   1       2.417   0.223  -9.146  0.00  0.00     0.027 H 
ENDROOT
BRANCH   1   4
ATOM      4  C   LIG d   1       3.550   1.898  -9.889  0.00  0.00    -0.037 C 
ATOM      5  H   LIG d   1       3.147   2.849 -10.232  0.00  0.00     0.028 H 
ATOM      6  H   LIG d   1       3.677   1.228 -10.740  0.00  0.00     0.028 H 
BRANCH   4   7
ATOM      7  C   LIG d   1       4.905   2.131  -9.217  0.00  0.00     0.012 C 
ATOM      8  H   LIG d   1       4.839   1.859  -8.163  0.00  0.00     0.046 H 
ATOM      9  H   LIG d   1       5.179   3.181  -9.306  0.00  0.00     0.046 H 
BRANCH   7  10
ATOM     10  N   LIG d   1       5.922   1.303  -9.871  0.00  0.00    -0.315 N 
ATOM     11  H   LIG d   1       6.253   1.545 -10.750  0.00  0.00     0.149 HD
BRANCH  10  12
ATOM     12  C   LIG d   1       6.408   0.178  -9.236  0.00  0.00     0.200 A 
ATOM     13  N   LIG d   1       6.309  -1.099  -9.714  0.00  0.00    -0.267 N 
ATOM     14  C   LIG d   1       6.912  -1.930  -8.797  0.00  0.00     0.169 A 
ATOM     15  C   LIG d   1       7.372  -1.101  -7.762  0.00  0.00     0.149 A 
ATOM     16  N   LIG d   1       7.121  -3.240  -8.716  0.00  0.00    -0.216 NA
ATOM     17  C   LIG d   1       8.038  -1.699  -6.679  0.00  0.00     0.147 A 
ATOM     18  N   LIG d   1       7.036   0.174  -8.086  0.00  0.00    -0.209 NA
ATOM     19  N   LIG d   1       8.201  -3.017  -6.684  0.00  0.00    -0.219 NA
ATOM     20  C   LIG d   1       7.749  -3.757  -7.681  0.00  0.00     0.120 A 
ATOM     21  H   LIG d   1       7.907  -4.825  -7.649  0.00  0.00     0.105 H 
BRANCH  13  22
ATOM     22  C1* LIG d   1       5.675  -1.510 -10.969  0.00  0.00     0.168 C 
ATOM     23  H1* LIG d   1       6.087  -2.461 -11.306  0.00  0.00     0.087 H 
ATOM     24  O4* LIG d   1       5.859  -0.501 -11.975  0.00  0.00    -0.346 OA
ATOM     25  C4* LIG d   1       4.685  -0.408 -12.792  0.00  0.00     0.113 C 
ATOM     26  C3* LIG d   1       3.652  -1.414 -12.242  0.00  0.00     0.114 C 
ATOM     27  H4* LIG d   1       4.279   0.603 -12.745  0.00  0.00     0.065 H 
ATOM     28  C2* LIG d   1       4.141  -1.624 -10.784  0.00  0.00     0.129 C 
ATOM     29  H3* LIG d   1       2.648  -0.986 -12.257  0.00  0.00     0.065 H 
ATOM     30  H2* LIG d   1       3.765  -0.842 -10.126  0.00  0.00     0.067 H 
BRANCH  25  31
ATOM     31  C5* LIG d   1       5.032  -0.759 -14.240  0.00  0.00     0.073 C 
ATOM     32 1H5* LIG d   1       6.103  -0.942 -14.323  0.00  0.00     0.058 H 
ATOM     33 2H5* LIG d   1       4.486  -1.655 -14.537  0.00  0.00     0.058 H 
BRANCH  31  34
ATOM     34  O5* LIG d   1       4.667   0.326 -15.095  0.00  0.00    -0.392 OA
ATOM     35  H5* LIG d   1       4.899   1.198 -14.746  0.00  0.00     0.209 HD
ENDBRANCH  31  34
ENDBRANCH  25  31
BRANCH  26  36
ATOM     36  O3* LIG d   1       3.690  -2.640 -12.974  0.00  0.00    -0.386 OA
ATOM     37  H3* LIG d   1       4.383  -2.674 -13.648  0.00  0.00     0.210 HD
ENDBRANCH  26  36
BRANCH  28  38
ATOM     38  O2* LIG d   1       3.776  -2.919 -10.300  0.00  0.00    -0.385 OA
ATOM     39  H2* LIG d   1       4.026  -3.644 -10.889  0.00  0.00     0.210 HD
ENDBRANCH  28  38
ENDBRANCH  13  22
BRANCH  17  40
ATOM     40  N   LIG d   1       8.514  -0.930  -5.628  0.00  0.00    -0.341 N 
ATOM     41  H   LIG d   1       8.881  -0.049  -5.799  0.00  0.00     0.144 HD
ATOM     42  H   LIG d   1       8.481  -1.274  -4.722  0.00  0.00     0.144 HD
ENDBRANCH  17  40
ENDBRANCH  10  12
ENDBRANCH   7  10
ENDBRANCH   4   7
ENDBRANCH   1   4
BRANCH   1  43
ATOM     43  C   LIG d   1       3.187   1.350  -7.479  0.00  0.00    -0.037 C 
ATOM     44  H   LIG d   1       4.263   1.507  -7.555  0.00  0.00     0.028 H 
ATOM     45  H   LIG d   1       2.736   2.181  -6.937  0.00  0.00     0.028 H 
BRANCH  43  46
ATOM     46  C   LIG d   1       2.914   0.044  -6.729  0.00  0.00     0.012 C 
ATOM     47  H   LIG d   1       2.396   0.263  -5.796  0.00  0.00     0.046 H 
ATOM     48  H   LIG d   1       2.293  -0.606  -7.346  0.00  0.00     0.046 H 
BRANCH  46  49
ATOM     49  N   LIG d   1       4.184  -0.627  -6.438  0.00  0.00    -0.315 N 
ATOM     50  H   LIG d   1       4.982  -0.102  -6.269  0.00  0.00     0.149 HD
BRANCH  49  51
ATOM     51  C   LIG d   1       4.244  -2.005  -6.404  0.00  0.00     0.200 A 
ATOM     52  N   LIG d   1       4.701  -2.747  -5.349  0.00  0.00    -0.267 N 
ATOM     53  C   LIG d   1       4.596  -4.073  -5.702  0.00  0.00     0.169 A 
ATOM     54  C   LIG d   1       4.072  -4.090  -7.004  0.00  0.00     0.149 A 
ATOM     55  N   LIG d   1       4.877  -5.224  -5.103  0.00  0.00    -0.216 NA
ATOM     56  N   LIG d   1       3.878  -2.800  -7.378  0.00  0.00    -0.209 NA
ATOM     57  C   LIG d   1       3.865  -5.336  -7.619  0.00  0.00     0.147 A 
ATOM     58  N   LIG d   1       4.175  -6.436  -6.942  0.00  0.00    -0.219 NA
ATOM     59  C   LIG d   1       4.666  -6.369  -5.717  0.00  0.00     0.120 A 
ATOM     60  H   LIG d   1       4.905  -7.288  -5.202  0.00  0.00     0.105 H 
BRANCH  52  61
ATOM     61  C1* LIG d   1       5.206  -2.224  -4.076  0.00  0.00     0.168 C 
ATOM     62  H1* LIG d   1       5.904  -2.931  -3.627  0.00  0.00     0.087 H 
ATOM     63  O4* LIG d   1       5.846  -0.946  -4.278  0.00  0.00    -0.346 OA
ATOM     64  C4* LIG d   1       5.847  -0.313  -2.977  0.00  0.00     0.113 C 
ATOM     65  C3* LIG d   1       4.467  -0.650  -2.371  0.00  0.00     0.114 C 
ATOM     66  H4* LIG d   1       6.645  -0.725  -2.358  0.00  0.00     0.065 H 
ATOM     67  C2* LIG d   1       4.036  -1.936  -3.112  0.00  0.00     0.129 C 
ATOM     68  H3* LIG d   1       4.555  -0.837  -1.301  0.00  0.00     0.065 H 
ATOM     69  H2* LIG d   1       3.911  -2.758  -2.407  0.00  0.00     0.067 H 
BRANCH  64  70
ATOM     70  C5* LIG d   1       6.013   1.201  -3.118  0.00  0.00     0.073 C 
ATOM     71 1H5* LIG d   1       5.054   1.648  -3.384  0.00  0.00     0.058 H 
ATOM     72 2H5* LIG d   1       6.359   1.617  -2.172  0.00  0.00     0.058 H 
BRANCH  70  73
ATOM     73  O5* LIG d   1       6.970   1.484  -4.141  0.00  0.00    -0.392 OA
ATOM     74  H5* LIG d   1       7.449   0.706  -4.458  0.00  0.00     0.209 HD
ENDBRANCH  70  73
ENDBRANCH  64  70
BRANCH  65  75
ATOM     75  O3* LIG d   1       3.538   0.406  -2.619  0.00  0.00    -0.386 OA
ATOM     76  H3* LIG d   1       2.675   0.279  -2.202  0.00  0.00     0.210 HD
ENDBRANCH  65  75
BRANCH  67  77
ATOM     77  O2* LIG d   1       2.828  -1.715  -3.841  0.00  0.00    -0.385 OA
ATOM     78  H2* LIG d   1       2.628  -0.782  -4.001  0.00  0.00     0.210 HD
ENDBRANCH  67  77
ENDBRANCH  52  61
BRANCH  57  79
ATOM     79  N   LIG d   1       3.350  -5.415  -8.903  0.00  0.00    -0.341 N 
ATOM     80  H   LIG d   1       3.886  -5.131  -9.659  0.00  0.00     0.144 HD
ATOM     81  H   LIG d   1       2.452  -5.754  -9.045  0.00  0.00     0.144 HD
ENDBRANCH  57  79
ENDBRANCH  49  51
ENDBRANCH  46  49
ENDBRANCH  43  46
ENDBRANCH   1  43
TORSDOF 20
ENDMDL
MODEL 6
REMARK VINA RESULT:      -7.2      5.180     11.618
REMARK  20 active torsions:
REMARK  status: ('A' for Active; 'I' for Inactive)
REMARK    1  A    between atoms: C_3  and  N_53 
REMARK    2  A    between atoms: N_7  and  C1*_40 
REMARK    3  A    between atoms: C_8  and  N_10 
REMARK    4  A    between atoms: N_10  and  C_11 
REMARK    5  A    between atoms: C_11  and  C_12 
REMARK    6  A    between atoms: C_12  and  C_13 
REMARK    7  A    between atoms: C_13  and  C_14 
REMARK    8  A    between atoms: C_14  and  C_15 
REMARK    9  A    between atoms: C_15  and  N_16 
REMARK   10  A    between atoms: N_16  and  C_17 
REMARK   11  A    between atoms: C_20  and  N_39 
REMARK   12  A    between atoms: N_25  and  C1*_26 
REMARK   13  A    between atoms: C2*_28  and  O2*_38 
REMARK   14  A    between atoms: C3*_30  and  O3*_37 
REMARK   15  A    between atoms: C4*_32  and  C5*_35 
REMARK   16  A    between atoms: C5*_35  and  O5*_36 
REMARK   17  A    between atoms: C2*_42  and  O2*_52 
REMARK   18  A    between atoms: C3*_44  and  O3*_51 
REMARK   19  A    between atoms: C4*_46  and  C5*_49 
REMARK   20  A    between atoms: C5*_49  and  O5*_50 
ROOT
ATOM      1  C   LIG d   1       4.546  -0.524  -2.128  0.00  0.00    -0.050 C 
ATOM      2  H   LIG d   1       5.374  -0.478  -1.420  0.00  0.00     0.027 H 
ATOM      3  H   LIG d   1       3.622  -0.240  -1.627  0.00  0.00     0.027 H 
ENDROOT
BRANCH   1   4
ATOM      4  C   LIG d   1       4.814   0.438  -3.289  0.00  0.00    -0.037 C 
ATOM      5  H   LIG d   1       3.994   1.150  -3.366  0.00  0.00     0.028 H 
ATOM      6  H   LIG d   1       4.895  -0.127  -4.218  0.00  0.00     0.028 H 
BRANCH   4   7
ATOM      7  C   LIG d   1       6.121   1.191  -3.034  0.00  0.00     0.012 C 
ATOM      8  H   LIG d   1       6.757   0.601  -2.374  0.00  0.00     0.046 H 
ATOM      9  H   LIG d   1       5.903   2.151  -2.567  0.00  0.00     0.046 H 
BRANCH   7  10
ATOM     10  N   LIG d   1       6.812   1.413  -4.307  0.00  0.00    -0.315 N 
ATOM     11  H   LIG d   1       6.350   1.251  -5.144  0.00  0.00     0.149 HD
BRANCH  10  12
ATOM     12  C   LIG d   1       8.121   1.851  -4.314  0.00  0.00     0.200 A 
ATOM     13  N   LIG d   1       8.966   1.786  -5.387  0.00  0.00    -0.267 N 
ATOM     14  C   LIG d   1      10.172   2.322  -4.995  0.00  0.00     0.169 A 
ATOM     15  C   LIG d   1      10.010   2.707  -3.655  0.00  0.00     0.149 A 
ATOM     16  N   LIG d   1      11.344   2.523  -5.588  0.00  0.00    -0.216 NA
ATOM     17  C   LIG d   1      11.104   3.292  -2.996  0.00  0.00     0.147 A 
ATOM     18  N   LIG d   1       8.739   2.395  -3.295  0.00  0.00    -0.209 NA
ATOM     19  N   LIG d   1      12.237   3.455  -3.671  0.00  0.00    -0.219 NA
ATOM     20  C   LIG d   1      12.342   3.076  -4.932  0.00  0.00     0.120 A 
ATOM     21  H   LIG d   1      13.279   3.230  -5.445  0.00  0.00     0.105 H 
BRANCH  13  22
ATOM     22  C1* LIG d   1       8.648   1.244  -6.711  0.00  0.00     0.168 C 
ATOM     23  H1* LIG d   1       9.448   1.474  -7.414  0.00  0.00     0.087 H 
ATOM     24  O4* LIG d   1       7.400   1.775  -7.182  0.00  0.00    -0.346 OA
ATOM     25  C4* LIG d   1       6.683   0.766  -7.905  0.00  0.00     0.113 C 
ATOM     26  C3* LIG d   1       7.525  -0.527  -7.862  0.00  0.00     0.114 C 
ATOM     27  H4* LIG d   1       5.713   0.592  -7.438  0.00  0.00     0.065 H 
ATOM     28  C2* LIG d   1       8.432  -0.288  -6.625  0.00  0.00     0.129 C 
ATOM     29  H3* LIG d   1       6.887  -1.400  -7.713  0.00  0.00     0.065 H 
ATOM     30  H2* LIG d   1       7.920  -0.563  -5.703  0.00  0.00     0.067 H 
BRANCH  25  31
ATOM     31  C5* LIG d   1       6.486   1.209  -9.356  0.00  0.00     0.073 C 
ATOM     32 1H5* LIG d   1       7.413   1.644  -9.732  0.00  0.00     0.058 H 
ATOM     33 2H5* LIG d   1       6.214   0.347  -9.966  0.00  0.00     0.058 H 
BRANCH  31  34
ATOM     34  O5* LIG d   1       5.444   2.184  -9.420  0.00  0.00    -0.392 OA
ATOM     35  H5* LIG d   1       5.649   2.945  -9.981  0.00  0.00     0.209 HD
ENDBRANCH  31  34
ENDBRANCH  25  31
BRANCH  26  36
ATOM     36  O3* LIG d   1       8.308  -0.669  -9.049  0.00  0.00    -0.386 OA
ATOM     37  H3* LIG d   1       7.871  -1.170  -9.751  0.00  0.00     0.210 HD
ENDBRANCH  26  36
BRANCH  28  38
ATOM     38  O2* LIG d   1       9.671  -0.991  -6.751  0.00  0.00    -0.385 OA
ATOM     39  H2* LIG d   1      10.283  -0.843  -6.018  0.00  0.00     0.210 HD
ENDBRANCH  28  38
ENDBRANCH  13  22
BRANCH  17  40
ATOM     40  N   LIG d   1      11.003   3.692  -1.673  0.00  0.00    -0.341 N 
ATOM     41  H   LIG d   1      10.829   3.037  -0.980  0.00  0.00     0.144 HD
ATOM     42  H   LIG d   1      11.107   4.628  -1.440  0.00  0.00     0.144 HD
ENDBRANCH  17  40
ENDBRANCH  10  12
ENDBRANCH   7  10
ENDBRANCH   4   7
ENDBRANCH   1   4
BRANCH   1  43
ATOM     43  C   LIG d   1       4.416  -1.949  -2.669  0.00  0.00    -0.037 C 
ATOM     44  H   LIG d   1       4.463  -2.657  -1.841  0.00  0.00     0.028 H 
ATOM     45  H   LIG d   1       3.463  -2.057  -3.187  0.00  0.00     0.028 H 
BRANCH  43  46
ATOM     46  C   LIG d   1       5.562  -2.231  -3.645  0.00  0.00     0.012 C 
ATOM     47  H   LIG d   1       5.936  -1.290  -4.045  0.00  0.00     0.046 H 
ATOM     48  H   LIG d   1       6.366  -2.749  -3.121  0.00  0.00     0.046 H 
BRANCH  46  49
ATOM     49  N   LIG d   1       5.073  -3.070  -4.742  0.00  0.00    -0.315 N 
ATOM     50  H   LIG d   1       5.046  -4.034  -4.640  0.00  0.00     0.149 HD
BRANCH  49  51
ATOM     51  C   LIG d   1       4.652  -2.488  -5.920  0.00  0.00     0.200 A 
ATOM     52  N   LIG d   1       4.691  -3.085  -7.150  0.00  0.00    -0.267 N 
ATOM     53  C   LIG d   1       4.182  -2.187  -8.060  0.00  0.00     0.169 A 
ATOM     54  C   LIG d   1       3.851  -1.035  -7.329  0.00  0.00     0.149 A 
ATOM     55  N   LIG d   1       3.973  -2.202  -9.371  0.00  0.00    -0.216 NA
ATOM     56  N   LIG d   1       4.160  -1.279  -6.030  0.00  0.00    -0.209 NA
ATOM     57  C   LIG d   1       3.308   0.058  -8.023  0.00  0.00     0.147 A 
ATOM     58  N   LIG d   1       3.135  -0.048  -9.337  0.00  0.00    -0.219 NA
ATOM     59  C   LIG d   1       3.461  -1.154  -9.982  0.00  0.00     0.120 A 
ATOM     60  H   LIG d   1       3.304  -1.198 -11.049  0.00  0.00     0.105 H 
BRANCH  52  61
ATOM     61  C1* LIG d   1       5.181  -4.435  -7.444  0.00  0.00     0.168 C 
ATOM     62  H1* LIG d   1       5.503  -4.503  -8.483  0.00  0.00     0.087 H 
ATOM     63  O4* LIG d   1       6.268  -4.778  -6.557  0.00  0.00    -0.346 OA
ATOM     64  C4* LIG d   1       6.331  -6.222  -6.575  0.00  0.00     0.113 C 
ATOM     65  C3* LIG d   1       4.857  -6.684  -6.567  0.00  0.00     0.114 C 
ATOM     66  H4* LIG d   1       6.831  -6.566  -7.481  0.00  0.00     0.065 H 
ATOM     67  C2* LIG d   1       4.083  -5.480  -7.151  0.00  0.00     0.129 C 
ATOM     68  H3* LIG d   1       4.728  -7.563  -7.198  0.00  0.00     0.065 H 
ATOM     69  H2* LIG d   1       3.572  -5.766  -8.071  0.00  0.00     0.067 H 
BRANCH  64  70
ATOM     70  C5* LIG d   1       7.060  -6.743  -5.335  0.00  0.00     0.073 C 
ATOM     71 1H5* LIG d   1       8.095  -6.400  -5.352  0.00  0.00     0.058 H 
ATOM     72 2H5* LIG d   1       6.567  -6.367  -4.440  0.00  0.00     0.058 H 
BRANCH  70  73
ATOM     73  O5* LIG d   1       7.032  -8.171  -5.330  0.00  0.00    -0.392 OA
ATOM     74  H5* LIG d   1       6.290  -8.553  -5.819  0.00  0.00     0.209 HD
ENDBRANCH  70  73
ENDBRANCH  64  70
BRANCH  65  75
ATOM     75  O3* LIG d   1       4.424  -6.958  -5.234  0.00  0.00    -0.386 OA
ATOM     76  H3* LIG d   1       3.978  -6.215  -4.803  0.00  0.00     0.210 HD
ENDBRANCH  65  75
BRANCH  67  77
ATOM     77  O2* LIG d   1       3.148  -4.972  -6.198  0.00  0.00    -0.385 OA
ATOM     78  H2* LIG d   1       3.365  -5.187  -5.279  0.00  0.00     0.210 HD
ENDBRANCH  67  77
ENDBRANCH  52  61
BRANCH  57  79
ATOM     79  N   LIG d   1       2.962   1.221  -7.355  0.00  0.00    -0.341 N 
ATOM     80  H   LIG d   1       2.043   1.532  -7.366  0.00  0.00     0.144 HD
ATOM     81  H   LIG d   1       3.638   1.725  -6.876  0.00  0.00     0.144 HD
ENDBRANCH  57  79
ENDBRANCH  49  51
ENDBRANCH  46  49
ENDBRANCH  43  46
ENDBRANCH   1  43
TORSDOF 20
ENDMDL
MODEL 7
REMARK VINA RESULT:      -7.2      2.385      3.029
REMARK  20 active torsions:
REMARK  status: ('A' for Active; 'I' for Inactive)
REMARK    1  A    between atoms: C_3  and  N_53 
REMARK    2  A    between atoms: N_7  and  C1*_40 
REMARK    3  A    between atoms: C_8  and  N_10 
REMARK    4  A    between atoms: N_10  and  C_11 
REMARK    5  A    between atoms: C_11  and  C_12 
REMARK    6  A    between atoms: C_12  and  C_13 
REMARK    7  A    between atoms: C_13  and  C_14 
REMARK    8  A    between atoms: C_14  and  C_15 
REMARK    9  A    between atoms: C_15  and  N_16 
REMARK   10  A    between atoms: N_16  and  C_17 
REMARK   11  A    between atoms: C_20  and  N_39 
REMARK   12  A    between atoms: N_25  and  C1*_26 
REMARK   13  A    between atoms: C2*_28  and  O2*_38 
REMARK   14  A    between atoms: C3*_30  and  O3*_37 
REMARK   15  A    between atoms: C4*_32  and  C5*_35 
REMARK   16  A    between atoms: C5*_35  and  O5*_36 
REMARK   17  A    between atoms: C2*_42  and  O2*_52 
REMARK   18  A    between atoms: C3*_44  and  O3*_51 
REMARK   19  A    between atoms: C4*_46  and  C5*_49 
REMARK   20  A    between atoms: C5*_49  and  O5*_50 
ROOT
ATOM      1  C   LIG d   1      10.096   2.771  -5.169  0.00  0.00    -0.050 C 
ATOM      2  H   LIG d   1      11.068   2.564  -4.721  0.00  0.00     0.027 H 
ATOM      3  H   LIG d   1      10.217   2.940  -6.239  0.00  0.00     0.027 H 
ENDROOT
BRANCH   1   4
ATOM      4  C   LIG d   1       9.166   1.576  -4.943  0.00  0.00    -0.037 C 
ATOM      5  H   LIG d   1       8.791   1.596  -3.921  0.00  0.00     0.028 H 
ATOM      6  H   LIG d   1       9.717   0.650  -5.111  0.00  0.00     0.028 H 
BRANCH   4   7
ATOM      7  C   LIG d   1       7.990   1.654  -5.919  0.00  0.00     0.012 C 
ATOM      8  H   LIG d   1       8.369   1.744  -6.937  0.00  0.00     0.046 H 
ATOM      9  H   LIG d   1       7.378   2.523  -5.681  0.00  0.00     0.046 H 
BRANCH   7  10
ATOM     10  N   LIG d   1       7.180   0.438  -5.805  0.00  0.00    -0.315 N 
ATOM     11  H   LIG d   1       7.390  -0.222  -5.126  0.00  0.00     0.149 HD
BRANCH  10  12
ATOM     12  C   LIG d   1       6.119   0.234  -6.664  0.00  0.00     0.200 A 
ATOM     13  N   LIG d   1       4.856  -0.121  -6.281  0.00  0.00    -0.267 N 
ATOM     14  C   LIG d   1       4.094  -0.226  -7.423  0.00  0.00     0.169 A 
ATOM     15  C   LIG d   1       4.950   0.080  -8.493  0.00  0.00     0.149 A 
ATOM     16  N   LIG d   1       2.826  -0.532  -7.677  0.00  0.00    -0.216 NA
ATOM     17  C   LIG d   1       4.422   0.049  -9.794  0.00  0.00     0.147 A 
ATOM     18  N   LIG d   1       6.171   0.352  -7.967  0.00  0.00    -0.209 NA
ATOM     19  N   LIG d   1       3.141  -0.267  -9.952  0.00  0.00    -0.219 NA
ATOM     20  C   LIG d   1       2.375  -0.549  -8.913  0.00  0.00     0.120 A 
ATOM     21  H   LIG d   1       1.338  -0.796  -9.085  0.00  0.00     0.105 H 
BRANCH  13  22
ATOM     22  C1* LIG d   1       4.396  -0.351  -4.909  0.00  0.00     0.168 C 
ATOM     23  H1* LIG d   1       3.313  -0.242  -4.851  0.00  0.00     0.087 H 
ATOM     24  O4* LIG d   1       5.038   0.565  -4.007  0.00  0.00    -0.346 OA
ATOM     25  C4* LIG d   1       5.314  -0.091  -2.762  0.00  0.00     0.113 C 
ATOM     26  C3* LIG d   1       4.842  -1.554  -2.890  0.00  0.00     0.114 C 
ATOM     27  H4* LIG d   1       6.384  -0.063  -2.557  0.00  0.00     0.065 H 
ATOM     28  C2* LIG d   1       4.822  -1.761  -4.429  0.00  0.00     0.129 C 
ATOM     29  H3* LIG d   1       5.552  -2.234  -2.416  0.00  0.00     0.065 H 
ATOM     30  H2* LIG d   1       5.811  -2.022  -4.803  0.00  0.00     0.067 H 
BRANCH  25  31
ATOM     31  C5* LIG d   1       4.552   0.604  -1.632  0.00  0.00     0.073 C 
ATOM     32 1H5* LIG d   1       4.245  -0.135  -0.892  0.00  0.00     0.058 H 
ATOM     33 2H5* LIG d   1       5.197   1.345  -1.161  0.00  0.00     0.058 H 
BRANCH  31  34
ATOM     34  O5* LIG d   1       3.395   1.251  -2.164  0.00  0.00    -0.392 OA
ATOM     35  H5* LIG d   1       3.408   2.215  -2.080  0.00  0.00     0.209 HD
ENDBRANCH  31  34
ENDBRANCH  25  31
BRANCH  26  36
ATOM     36  O3* LIG d   1       3.536  -1.722  -2.336  0.00  0.00    -0.386 OA
ATOM     37  H3* LIG d   1       3.001  -0.917  -2.339  0.00  0.00     0.210 HD
ENDBRANCH  26  36
BRANCH  28  38
ATOM     38  O2* LIG d   1       3.856  -2.746  -4.804  0.00  0.00    -0.385 OA
ATOM     39  H2* LIG d   1       4.149  -3.657  -4.665  0.00  0.00     0.210 HD
ENDBRANCH  28  38
ENDBRANCH  13  22
BRANCH  17  40
ATOM     40  N   LIG d   1       5.220   0.342 -10.889  0.00  0.00    -0.341 N 
ATOM     41  H   LIG d   1       5.154   1.209 -11.318  0.00  0.00     0.144 HD
ATOM     42  H   LIG d   1       5.843  -0.321 -11.227  0.00  0.00     0.144 HD
ENDBRANCH  17  40
ENDBRANCH  10  12
ENDBRANCH   7  10
ENDBRANCH   4   7
ENDBRANCH   1   4
BRANCH   1  43
ATOM     43  C   LIG d   1       9.490   4.017  -4.520  0.00  0.00    -0.037 C 
ATOM     44  H   LIG d   1       8.774   4.471  -5.205  0.00  0.00     0.028 H 
ATOM     45  H   LIG d   1       8.982   3.737  -3.597  0.00  0.00     0.028 H 
BRANCH  43  46
ATOM     46  C   LIG d   1      10.602   5.020  -4.206  0.00  0.00     0.012 C 
ATOM     47  H   LIG d   1      11.308   4.573  -3.507  0.00  0.00     0.046 H 
ATOM     48  H   LIG d   1      11.123   5.285  -5.128  0.00  0.00     0.046 H 
BRANCH  46  49
ATOM     49  N   LIG d   1      10.019   6.225  -3.611  0.00  0.00    -0.315 N 
ATOM     50  H   LIG d   1       9.355   6.736  -4.100  0.00  0.00     0.149 HD
BRANCH  49  51
ATOM     51  C   LIG d   1      10.414   6.633  -2.353  0.00  0.00     0.200 A 
ATOM     52  N   LIG d   1      10.920   7.867  -2.048  0.00  0.00    -0.267 N 
ATOM     53  C   LIG d   1      11.188   7.881  -0.699  0.00  0.00     0.169 A 
ATOM     54  C   LIG d   1      10.833   6.611  -0.217  0.00  0.00     0.149 A 
ATOM     55  N   LIG d   1      11.676   8.780   0.148  0.00  0.00    -0.216 NA
ATOM     56  N   LIG d   1      10.368   5.894  -1.272  0.00  0.00    -0.209 NA
ATOM     57  C   LIG d   1      11.012   6.347   1.151  0.00  0.00     0.147 A 
ATOM     58  N   LIG d   1      11.507   7.309   1.922  0.00  0.00    -0.219 NA
ATOM     59  C   LIG d   1      11.826   8.489   1.423  0.00  0.00     0.120 A 
ATOM     60  H   LIG d   1      12.226   9.243   2.086  0.00  0.00     0.105 H 
BRANCH  52  61
ATOM     61  C1* LIG d   1      11.134   8.972  -2.987  0.00  0.00     0.168 C 
ATOM     62  H1* LIG d   1      12.187   9.254  -3.007  0.00  0.00     0.087 H 
ATOM     63  O4* LIG d   1      10.689   8.599  -4.310  0.00  0.00    -0.346 OA
ATOM     64  C4* LIG d   1      10.473   9.849  -5.003  0.00  0.00     0.113 C 
ATOM     65  C3* LIG d   1       9.814  10.775  -3.956  0.00  0.00     0.114 C 
ATOM     66  H4* LIG d   1      11.424  10.266  -5.334  0.00  0.00     0.065 H 
ATOM     67  C2* LIG d   1      10.259  10.183  -2.600  0.00  0.00     0.129 C 
ATOM     68  H3* LIG d   1      10.178  11.796  -4.066  0.00  0.00     0.065 H 
ATOM     69  H2* LIG d   1      10.843  10.913  -2.039  0.00  0.00     0.067 H 
BRANCH  64  70
ATOM     70  C5* LIG d   1       9.539   9.645  -6.197  0.00  0.00     0.073 C 
ATOM     71 1H5* LIG d   1       9.934   8.854  -6.836  0.00  0.00     0.058 H 
ATOM     72 2H5* LIG d   1       8.549   9.364  -5.840  0.00  0.00     0.058 H 
BRANCH  70  73
ATOM     73  O5* LIG d   1       9.448  10.859  -6.945  0.00  0.00    -0.392 OA
ATOM     74  H5* LIG d   1       8.825  10.822  -7.684  0.00  0.00     0.209 HD
ENDBRANCH  70  73
ENDBRANCH  64  70
BRANCH  65  75
ATOM     75  O3* LIG d   1       8.391  10.736  -4.077  0.00  0.00    -0.386 OA
ATOM     76  H3* LIG d   1       8.012   9.851  -3.992  0.00  0.00     0.210 HD
ENDBRANCH  65  75
BRANCH  67  77
ATOM     77  O2* LIG d   1       9.126   9.760  -1.839  0.00  0.00    -0.385 OA
ATOM     78  H2* LIG d   1       8.927   8.817  -1.919  0.00  0.00     0.210 HD
ENDBRANCH  67  77
ENDBRANCH  52  61
BRANCH  57  79
ATOM     79  N   LIG d   1      10.679   5.111   1.683  0.00  0.00    -0.341 N 
ATOM     80  H   LIG d   1      11.169   4.764   2.445  0.00  0.00     0.144 HD
ATOM     81  H   LIG d   1       9.958   4.593   1.293  0.00  0.00     0.144 HD
ENDBRANCH  57  79
ENDBRANCH  49  51
ENDBRANCH  46  49
ENDBRANCH  43  46
ENDBRANCH   1  43
TORSDOF 20
ENDMDL
MODEL 8
REMARK VINA RESULT:      -7.2      3.262     11.434
REMARK  20 active torsions:
REMARK  status: ('A' for Active; 'I' for Inactive)
REMARK    1  A    between atoms: C_3  and  N_53 
REMARK    2  A    between atoms: N_7  and  C1*_40 
REMARK    3  A    between atoms: C_8  and  N_10 
REMARK    4  A    between atoms: N_10  and  C_11 
REMARK    5  A    between atoms: C_11  and  C_12 
REMARK    6  A    between atoms: C_12  and  C_13 
REMARK    7  A    between atoms: C_13  and  C_14 
REMARK    8  A    between atoms: C_14  and  C_15 
REMARK    9  A    between atoms: C_15  and  N_16 
REMARK   10  A    between atoms: N_16  and  C_17 
REMARK   11  A    between atoms: C_20  and  N_39 
REMARK   12  A    between atoms: N_25  and  C1*_26 
REMARK   13  A    between atoms: C2*_28  and  O2*_38 
REMARK   14  A    between atoms: C3*_30  and  O3*_37 
REMARK   15  A    between atoms: C4*_32  and  C5*_35 
REMARK   16  A    between atoms: C5*_35  and  O5*_36 
REMARK   17  A    between atoms: C2*_42  and  O2*_52 
REMARK   18  A    between atoms: C3*_44  and  O3*_51 
REMARK   19  A    between atoms: C4*_46  and  C5*_49 
REMARK   20  A    between atoms: C5*_49  and  O5*_50 
ROOT
ATOM      1  C   LIG d   1       9.746   3.149  -6.753  0.00  0.00    -0.050 C 
ATOM      2  H   LIG d   1       9.727   3.142  -7.843  0.00  0.00     0.027 H 
ATOM      3  H   LIG d   1      10.685   2.721  -6.403  0.00  0.00     0.027 H 
ENDROOT
BRANCH   1   4
ATOM      4  C   LIG d   1       9.622   4.589  -6.250  0.00  0.00    -0.037 C 
ATOM      5  H   LIG d   1       8.820   5.094  -6.786  0.00  0.00     0.028 H 
ATOM      6  H   LIG d   1      10.562   5.115  -6.419  0.00  0.00     0.028 H 
BRANCH   4   7
ATOM      7  C   LIG d   1       9.307   4.579  -4.752  0.00  0.00     0.012 C 
ATOM      8  H   LIG d   1       9.918   3.825  -4.257  0.00  0.00     0.046 H 
ATOM      9  H   LIG d   1       8.252   4.348  -4.604  0.00  0.00     0.046 H 
BRANCH   7  10
ATOM     10  N   LIG d   1       9.604   5.897  -4.183  0.00  0.00    -0.315 N 
ATOM     11  H   LIG d   1       9.028   6.652  -4.382  0.00  0.00     0.149 HD
BRANCH  10  12
ATOM     12  C   LIG d   1      10.703   6.063  -3.365  0.00  0.00     0.200 A 
ATOM     13  N   LIG d   1      10.955   7.170  -2.603  0.00  0.00    -0.267 N 
ATOM     14  C   LIG d   1      12.139   6.949  -1.935  0.00  0.00     0.169 A 
ATOM     15  C   LIG d   1      12.577   5.674  -2.329  0.00  0.00     0.149 A 
ATOM     16  N   LIG d   1      12.872   7.647  -1.074  0.00  0.00    -0.216 NA
ATOM     17  C   LIG d   1      13.780   5.191  -1.789  0.00  0.00     0.147 A 
ATOM     18  N   LIG d   1      11.660   5.184  -3.201  0.00  0.00    -0.209 NA
ATOM     19  N   LIG d   1      14.445   5.959  -0.933  0.00  0.00    -0.219 NA
ATOM     20  C   LIG d   1      13.993   7.153  -0.594  0.00  0.00     0.120 A 
ATOM     21  H   LIG d   1      14.563   7.744   0.108  0.00  0.00     0.105 H 
BRANCH  13  22
ATOM     22  C1* LIG d   1      10.121   8.371  -2.513  0.00  0.00     0.168 C 
ATOM     23  H1* LIG d   1       9.369   8.368  -3.302  0.00  0.00     0.087 H 
ATOM     24  O4* LIG d   1      10.934   9.552  -2.602  0.00  0.00    -0.346 OA
ATOM     25  C4* LIG d   1      10.414  10.568  -1.735  0.00  0.00     0.113 C 
ATOM     26  C3* LIG d   1       9.190   9.977  -1.004  0.00  0.00     0.114 C 
ATOM     27  H4* LIG d   1      11.173  10.861  -1.009  0.00  0.00     0.065 H 
ATOM     28  C2* LIG d   1       9.441   8.450  -1.123  0.00  0.00     0.129 C 
ATOM     29  H3* LIG d   1       9.175  10.288   0.041  0.00  0.00     0.065 H 
ATOM     30  H2* LIG d   1      10.109   8.098  -0.338  0.00  0.00     0.067 H 
BRANCH  25  31
ATOM     31  C5* LIG d   1       9.990  11.785  -2.559  0.00  0.00     0.073 C 
ATOM     32 1H5* LIG d   1      10.855  12.186  -3.087  0.00  0.00     0.058 H 
ATOM     33 2H5* LIG d   1       9.228  11.487  -3.281  0.00  0.00     0.058 H 
BRANCH  31  34
ATOM     34  O5* LIG d   1       9.456  12.786  -1.691  0.00  0.00    -0.392 OA
ATOM     35  H5* LIG d   1       8.795  12.455  -1.067  0.00  0.00     0.209 HD
ENDBRANCH  31  34
ENDBRANCH  25  31
BRANCH  26  36
ATOM     36  O3* LIG d   1       7.975  10.347  -1.659  0.00  0.00    -0.386 OA
ATOM     37  H3* LIG d   1       7.802  11.298  -1.659  0.00  0.00     0.210 HD
ENDBRANCH  26  36
BRANCH  28  38
ATOM     38  O2* LIG d   1       8.209   7.723  -1.111  0.00  0.00    -0.385 OA
ATOM     39  H2* LIG d   1       7.806   7.618  -1.983  0.00  0.00     0.210 HD
ENDBRANCH  28  38
ENDBRANCH  13  22
BRANCH  17  40
ATOM     40  N   LIG d   1      14.262   3.940  -2.140  0.00  0.00    -0.341 N 
ATOM     41  H   LIG d   1      15.118   3.858  -2.588  0.00  0.00     0.144 HD
ATOM     42  H   LIG d   1      13.742   3.146  -1.940  0.00  0.00     0.144 HD
ENDBRANCH  17  40
ENDBRANCH  10  12
ENDBRANCH   7  10
ENDBRANCH   4   7
ENDBRANCH   1   4
BRANCH   1  43
ATOM     43  C   LIG d   1       8.576   2.321  -6.217  0.00  0.00    -0.037 C 
ATOM     44  H   LIG d   1       8.957   1.529  -5.572  0.00  0.00     0.028 H 
ATOM     45  H   LIG d   1       7.906   2.963  -5.646  0.00  0.00     0.028 H 
BRANCH  43  46
ATOM     46  C   LIG d   1       7.812   1.700  -7.389  0.00  0.00     0.012 C 
ATOM     47  H   LIG d   1       7.318   2.487  -7.957  0.00  0.00     0.046 H 
ATOM     48  H   LIG d   1       8.510   1.167  -8.036  0.00  0.00     0.046 H 
BRANCH  46  49
ATOM     49  N   LIG d   1       6.810   0.762  -6.876  0.00  0.00    -0.315 N 
ATOM     50  H   LIG d   1       6.923   0.362  -6.000  0.00  0.00     0.149 HD
BRANCH  49  51
ATOM     51  C   LIG d   1       5.704   0.450  -7.641  0.00  0.00     0.200 A 
ATOM     52  N   LIG d   1       4.564  -0.143  -7.170  0.00  0.00    -0.267 N 
ATOM     53  C   LIG d   1       3.702  -0.282  -8.234  0.00  0.00     0.169 A 
ATOM     54  C   LIG d   1       4.374   0.239  -9.351  0.00  0.00     0.149 A 
ATOM     55  N   LIG d   1       2.478  -0.773  -8.387  0.00  0.00    -0.216 NA
ATOM     56  N   LIG d   1       5.589   0.670  -8.926  0.00  0.00    -0.209 NA
ATOM     57  C   LIG d   1       3.715   0.218 -10.590  0.00  0.00     0.147 A 
ATOM     58  N   LIG d   1       2.490  -0.294 -10.648  0.00  0.00    -0.219 NA
ATOM     59  C   LIG d   1       1.898  -0.773  -9.568  0.00  0.00     0.120 A 
ATOM     60  H   LIG d   1       0.901  -1.180  -9.659  0.00  0.00     0.105 H 
BRANCH  52  61
ATOM     61  C1* LIG d   1       4.308  -0.552  -5.786  0.00  0.00     0.168 C 
ATOM     62  H1* LIG d   1       4.193  -1.634  -5.726  0.00  0.00     0.087 H 
ATOM     63  O4* LIG d   1       5.381  -0.112  -4.926  0.00  0.00    -0.346 OA
ATOM     64  C4* LIG d   1       4.821  -0.106  -3.593  0.00  0.00     0.113 C 
ATOM     65  C3* LIG d   1       3.391   0.453  -3.766  0.00  0.00     0.114 C 
ATOM     66  H4* LIG d   1       4.786  -1.120  -3.194  0.00  0.00     0.065 H 
ATOM     67  C2* LIG d   1       3.047   0.153  -5.242  0.00  0.00     0.129 C 
ATOM     68  H3* LIG d   1       2.697  -0.058  -3.100  0.00  0.00     0.065 H 
ATOM     69  H2* LIG d   1       2.182  -0.507  -5.305  0.00  0.00     0.067 H 
BRANCH  64  70
ATOM     70  C5* LIG d   1       5.640   0.799  -2.671  0.00  0.00     0.073 C 
ATOM     71 1H5* LIG d   1       4.968   1.339  -2.002  0.00  0.00     0.058 H 
ATOM     72 2H5* LIG d   1       6.327   0.192  -2.083  0.00  0.00     0.058 H 
BRANCH  70  73
ATOM     73  O5* LIG d   1       6.382   1.734  -3.456  0.00  0.00    -0.392 OA
ATOM     74  H5* LIG d   1       6.447   2.615  -3.062  0.00  0.00     0.209 HD
ENDBRANCH  70  73
ENDBRANCH  64  70
BRANCH  65  75
ATOM     75  O3* LIG d   1       3.370   1.861  -3.523  0.00  0.00    -0.386 OA
ATOM     76  H3* LIG d   1       3.383   2.100  -2.585  0.00  0.00     0.210 HD
ENDBRANCH  65  75
BRANCH  67  77
ATOM     77  O2* LIG d   1       2.802   1.365  -5.958  0.00  0.00    -0.385 OA
ATOM     78  H2* LIG d   1       2.664   1.242  -6.908  0.00  0.00     0.210 HD
ENDBRANCH  67  77
ENDBRANCH  52  61
BRANCH  57  79
ATOM     79  N   LIG d   1       4.328   0.718 -11.728  0.00  0.00    -0.341 N 
ATOM     80  H   LIG d   1       5.250   1.016 -11.691  0.00  0.00     0.144 HD
ATOM     81  H   LIG d   1       3.834   0.772 -12.561  0.00  0.00     0.144 HD
ENDBRANCH  57  79
ENDBRANCH  49  51
ENDBRANCH  46  49
ENDBRANCH  43  46
ENDBRANCH   1  43
TORSDOF 20
ENDMDL
MODEL 9
REMARK VINA RESULT:      -7.2      3.896     10.271
REMARK  20 active torsions:
REMARK  status: ('A' for Active; 'I' for Inactive)
REMARK    1  A    between atoms: C_3  and  N_53 
REMARK    2  A    between atoms: N_7  and  C1*_40 
REMARK    3  A    between atoms: C_8  and  N_10 
REMARK    4  A    between atoms: N_10  and  C_11 
REMARK    5  A    between atoms: C_11  and  C_12 
REMARK    6  A    between atoms: C_12  and  C_13 
REMARK    7  A    between atoms: C_13  and  C_14 
REMARK    8  A    between atoms: C_14  and  C_15 
REMARK    9  A    between atoms: C_15  and  N_16 
REMARK   10  A    between atoms: N_16  and  C_17 
REMARK   11  A    between atoms: C_20  and  N_39 
REMARK   12  A    between atoms: N_25  and  C1*_26 
REMARK   13  A    between atoms: C2*_28  and  O2*_38 
REMARK   14  A    between atoms: C3*_30  and  O3*_37 
REMARK   15  A    between atoms: C4*_32  and  C5*_35 
REMARK   16  A    between atoms: C5*_35  and  O5*_36 
REMARK   17  A    between atoms: C2*_42  and  O2*_52 
REMARK   18  A    between atoms: C3*_44  and  O3*_51 
REMARK   19  A    between atoms: C4*_46  and  C5*_49 
REMARK   20  A    between atoms: C5*_49  and  O5*_50 
ROOT
ATOM      1  C   LIG d   1       4.615  -0.401  -2.115  0.00  0.00    -0.050 C 
ATOM      2  H   LIG d   1       5.058  -1.244  -2.646  0.00  0.00     0.027 H 
ATOM      3  H   LIG d   1       4.718  -0.554  -1.041  0.00  0.00     0.027 H 
ENDROOT
BRANCH   1   4
ATOM      4  C   LIG d   1       5.332   0.889  -2.518  0.00  0.00    -0.037 C 
ATOM      5  H   LIG d   1       5.824   1.319  -1.647  0.00  0.00     0.028 H 
ATOM      6  H   LIG d   1       4.606   1.600  -2.915  0.00  0.00     0.028 H 
BRANCH   4   7
ATOM      7  C   LIG d   1       6.378   0.577  -3.592  0.00  0.00     0.012 C 
ATOM      8  H   LIG d   1       5.936   0.710  -4.579  0.00  0.00     0.046 H 
ATOM      9  H   LIG d   1       6.716  -0.453  -3.480  0.00  0.00     0.046 H 
BRANCH   7  10
ATOM     10  N   LIG d   1       7.518   1.485  -3.440  0.00  0.00    -0.315 N 
ATOM     11  H   LIG d   1       7.869   1.680  -2.558  0.00  0.00     0.149 HD
BRANCH  10  12
ATOM     12  C   LIG d   1       8.091   2.063  -4.555  0.00  0.00     0.200 A 
ATOM     13  N   LIG d   1       9.012   3.074  -4.530  0.00  0.00    -0.267 N 
ATOM     14  C   LIG d   1       9.335   3.368  -5.835  0.00  0.00     0.169 A 
ATOM     15  C   LIG d   1       8.575   2.496  -6.632  0.00  0.00     0.149 A 
ATOM     16  N   LIG d   1      10.151   4.235  -6.425  0.00  0.00    -0.216 NA
ATOM     17  C   LIG d   1       8.714   2.582  -8.027  0.00  0.00     0.147 A 
ATOM     18  N   LIG d   1       7.837   1.725  -5.794  0.00  0.00    -0.209 NA
ATOM     19  N   LIG d   1       9.555   3.481  -8.527  0.00  0.00    -0.219 NA
ATOM     20  C   LIG d   1      10.249   4.280  -7.737  0.00  0.00     0.120 A 
ATOM     21  H   LIG d   1      10.925   4.994  -8.184  0.00  0.00     0.105 H 
BRANCH  13  22
ATOM     22  C1* LIG d   1       9.553   3.726  -3.336  0.00  0.00     0.168 C 
ATOM     23  H1* LIG d   1       8.980   3.436  -2.455  0.00  0.00     0.087 H 
ATOM     24  O4* LIG d   1       9.537   5.153  -3.495  0.00  0.00    -0.346 OA
ATOM     25  C4* LIG d   1      10.703   5.725  -2.885  0.00  0.00     0.113 C 
ATOM     26  C3* LIG d   1      11.551   4.565  -2.322  0.00  0.00     0.114 C 
ATOM     27  H4* LIG d   1      11.277   6.277  -3.629  0.00  0.00     0.065 H 
ATOM     28  C2* LIG d   1      11.046   3.354  -3.151  0.00  0.00     0.129 C 
ATOM     29  H3* LIG d   1      12.613   4.741  -2.498  0.00  0.00     0.065 H 
ATOM     30  H2* LIG d   1      11.558   3.293  -4.111  0.00  0.00     0.067 H 
BRANCH  25  31
ATOM     31  C5* LIG d   1      10.286   6.662  -1.751  0.00  0.00     0.073 C 
ATOM     32 1H5* LIG d   1       9.635   7.443  -2.144  0.00  0.00     0.058 H 
ATOM     33 2H5* LIG d   1       9.754   6.095  -0.987  0.00  0.00     0.058 H 
BRANCH  31  34
ATOM     34  O5* LIG d   1      11.449   7.260  -1.174  0.00  0.00    -0.392 OA
ATOM     35  H5* LIG d   1      11.800   8.007  -1.678  0.00  0.00     0.209 HD
ENDBRANCH  31  34
ENDBRANCH  25  31
BRANCH  26  36
ATOM     36  O3* LIG d   1      11.295   4.372  -0.929  0.00  0.00    -0.386 OA
ATOM     37  H3* LIG d   1      10.422   4.004  -0.738  0.00  0.00     0.210 HD
ENDBRANCH  26  36
BRANCH  28  38
ATOM     38  O2* LIG d   1      11.186   2.134  -2.419  0.00  0.00    -0.385 OA
ATOM     39  H2* LIG d   1      10.945   1.344  -2.922  0.00  0.00     0.210 HD
ENDBRANCH  28  38
ENDBRANCH  13  22
BRANCH  17  40
ATOM     40  N   LIG d   1       7.989   1.747  -8.863  0.00  0.00    -0.341 N 
ATOM     41  H   LIG d   1       7.236   1.246  -8.514  0.00  0.00     0.144 HD
ATOM     42  H   LIG d   1       8.236   1.664  -9.798  0.00  0.00     0.144 HD
ENDBRANCH  17  40
ENDBRANCH  10  12
ENDBRANCH   7  10
ENDBRANCH   4   7
ENDBRANCH   1   4
BRANCH   1  43
ATOM     43  C   LIG d   1       3.132  -0.294  -2.475  0.00  0.00    -0.037 C 
ATOM     44  H   LIG d   1       2.585  -1.115  -2.012  0.00  0.00     0.028 H 
ATOM     45  H   LIG d   1       2.737   0.656  -2.114  0.00  0.00     0.028 H 
BRANCH  43  46
ATOM     46  C   LIG d   1       2.970  -0.368  -3.995  0.00  0.00     0.012 C 
ATOM     47  H   LIG d   1       1.922  -0.228  -4.256  0.00  0.00     0.046 H 
ATOM     48  H   LIG d   1       3.569   0.415  -4.463  0.00  0.00     0.046 H 
BRANCH  46  49
ATOM     49  N   LIG d   1       3.422  -1.678  -4.471  0.00  0.00    -0.315 N 
ATOM     50  H   LIG d   1       2.995  -2.486  -4.148  0.00  0.00     0.149 HD
BRANCH  49  51
ATOM     51  C   LIG d   1       4.457  -1.761  -5.381  0.00  0.00     0.200 A 
ATOM     52  N   LIG d   1       4.540  -1.047  -6.545  0.00  0.00    -0.267 N 
ATOM     53  C   LIG d   1       5.714  -1.408  -7.166  0.00  0.00     0.169 A 
ATOM     54  C   LIG d   1       6.316  -2.368  -6.337  0.00  0.00     0.149 A 
ATOM     55  N   LIG d   1       6.320  -1.059  -8.295  0.00  0.00    -0.216 NA
ATOM     56  N   LIG d   1       5.503  -2.541  -5.264  0.00  0.00    -0.209 NA
ATOM     57  C   LIG d   1       7.543  -2.917  -6.742  0.00  0.00     0.147 A 
ATOM     58  N   LIG d   1       8.074  -2.506  -7.888  0.00  0.00    -0.219 NA
ATOM     59  C   LIG d   1       7.470  -1.600  -8.635  0.00  0.00     0.120 A 
ATOM     60  H   LIG d   1       7.937  -1.294  -9.560  0.00  0.00     0.105 H 
BRANCH  52  61
ATOM     61  C1* LIG d   1       3.561  -0.074  -7.037  0.00  0.00     0.168 C 
ATOM     62  H1* LIG d   1       2.932   0.277  -6.219  0.00  0.00     0.087 H 
ATOM     63  O4* LIG d   1       4.233   1.039  -7.667  0.00  0.00    -0.346 OA
ATOM     64  C4* LIG d   1       3.239   1.646  -8.524  0.00  0.00     0.113 C 
ATOM     65  C3* LIG d   1       2.478   0.459  -9.153  0.00  0.00     0.114 C 
ATOM     66  H4* LIG d   1       2.560   2.263  -7.934  0.00  0.00     0.065 H 
ATOM     67  C2* LIG d   1       2.696  -0.699  -8.153  0.00  0.00     0.129 C 
ATOM     68  H3* LIG d   1       1.417   0.690  -9.245  0.00  0.00     0.065 H 
ATOM     69  H2* LIG d   1       1.742  -1.039  -7.750  0.00  0.00     0.067 H 
BRANCH  64  70
ATOM     70  C5* LIG d   1       3.911   2.487  -9.611  0.00  0.00     0.073 C 
ATOM     71 1H5* LIG d   1       3.320   2.434 -10.527  0.00  0.00     0.058 H 
ATOM     72 2H5* LIG d   1       3.977   3.523  -9.280  0.00  0.00     0.058 H 
BRANCH  70  73
ATOM     73  O5* LIG d   1       5.223   1.981  -9.863  0.00  0.00    -0.392 OA
ATOM     74  H5* LIG d   1       5.923   2.645  -9.787  0.00  0.00     0.209 HD
ENDBRANCH  70  73
ENDBRANCH  64  70
BRANCH  65  75
ATOM     75  O3* LIG d   1       3.030   0.129 -10.429  0.00  0.00    -0.386 OA
ATOM     76  H3* LIG d   1       3.289   0.896 -10.957  0.00  0.00     0.210 HD
ENDBRANCH  65  75
BRANCH  67  77
ATOM     77  O2* LIG d   1       3.389  -1.781  -8.778  0.00  0.00    -0.385 OA
ATOM     78  H2* LIG d   1       4.196  -2.051  -8.317  0.00  0.00     0.210 HD
ENDBRANCH  67  77
ENDBRANCH  52  61
BRANCH  57  79
ATOM     79  N   LIG d   1       8.184  -3.868  -5.964  0.00  0.00    -0.341 N 
ATOM     80  H   LIG d   1       9.020  -4.258  -6.265  0.00  0.00     0.144 HD
ATOM     81  H   LIG d   1       7.797  -4.145  -5.119  0.00  0.00     0.144 HD
ENDBRANCH  57  79
ENDBRANCH  49  51
ENDBRANCH  46  49
ENDBRANCH  43  46
ENDBRANCH   1  43
TORSDOF 20
ENDMDL
