MODEL 1
REMARK VINA RESULT:      -5.5      0.000      0.000
REMARK  13 active torsions:
REMARK  status: ('A' for Active; 'I' for Inactive)
REMARK    1  A    between atoms: C_1  and  C_2 
REMARK    2  A    between atoms: C_2  and  C_3 
REMARK    3  A    between atoms: C_2  and  C_4 
REMARK    4  A    between atoms: C_2  and  C_6 
REMARK    5  A    between atoms: C_4  and  O_5 
REMARK    6  A    between atoms: C_6  and  C_8 
REMARK    7  A    between atoms: C_6  and  O_18 
REMARK       I    between atoms: C_8  and  N_10 
REMARK    8  A    between atoms: N_10  and  C_11 
REMARK    9  A    between atoms: C_11  and  C_12 
REMARK   10  A    between atoms: C_12  and  C_13 
REMARK   11  A    between atoms: C_13  and  C_14 
REMARK   12  A    between atoms: C_14  and  C_15 
REMARK   13  A    between atoms: C_15  and  C_16 
ROOT
ATOM      1  C   LIG d   1       4.018  -0.503  -6.165  0.00  0.00     0.242 C 
ATOM      2  O   LIG d   1       4.999   0.113  -5.803  0.00  0.00    -0.273 OA
ATOM      3  N   LIG d   1       3.934  -1.830  -5.938  0.00  0.00    -0.313 N 
ATOM      4  H   LIG d   1       3.121  -2.308  -6.161  0.00  0.00     0.149 HD
ENDROOT
BRANCH   1   5
ATOM      5  C   LIG d   1       2.892   0.216  -6.862  0.00  0.00     0.138 C 
ATOM      6  H   LIG d   1       1.965  -0.340  -6.723  0.00  0.00     0.070 H 
BRANCH   5   7
ATOM      7  C   LIG d   1       3.204   0.325  -8.355  0.00  0.00     0.023 C 
BRANCH   7   8
ATOM      8  C   LIG d   1       2.604  -0.873  -9.092  0.00  0.00    -0.055 C 
ATOM      9  H   LIG d   1       1.556  -0.672  -9.319  0.00  0.00     0.024 H 
ATOM     10  H   LIG d   1       3.150  -1.040 -10.021  0.00  0.00     0.024 H 
ATOM     11  H   LIG d   1       2.675  -1.760  -8.463  0.00  0.00     0.024 H 
ENDBRANCH   7   8
BRANCH   7  12
ATOM     12  C   LIG d   1       2.601   1.619  -8.908  0.00  0.00    -0.055 C 
ATOM     13  H   LIG d   1       1.516   1.527  -8.946  0.00  0.00     0.024 H 
ATOM     14  H   LIG d   1       2.871   2.453  -8.258  0.00  0.00     0.024 H 
ATOM     15  H   LIG d   1       2.987   1.801  -9.911  0.00  0.00     0.024 H 
ENDBRANCH   7  12
BRANCH   7  16
ATOM     16  C   LIG d   1       4.721   0.342  -8.560  0.00  0.00     0.052 C 
ATOM     17  H   LIG d   1       5.193  -0.317  -7.832  0.00  0.00     0.056 H 
ATOM     18  H   LIG d   1       4.954  -0.001  -9.567  0.00  0.00     0.056 H 
BRANCH  16  19
ATOM     19  O   LIG d   1       5.211   1.673  -8.385  0.00  0.00    -0.394 OA
ATOM     20  H   LIG d   1       4.540   2.358  -8.506  0.00  0.00     0.209 HD
ENDBRANCH  16  19
ENDBRANCH   7  16
ENDBRANCH   5   7
BRANCH   5  21
ATOM     21  O   LIG d   1       2.750   1.526  -6.308  0.00  0.00    -0.382 OA
ATOM     22  H   LIG d   1       3.287   2.199  -6.748  0.00  0.00     0.210 HD
ENDBRANCH   5  21
ENDBRANCH   1   5
BRANCH   3  23
ATOM     23  C   LIG d   1       5.071  -2.546  -5.356  0.00  0.00     0.012 C 
ATOM     24  H   LIG d   1       5.250  -3.463  -5.918  0.00  0.00     0.046 H 
ATOM     25  H   LIG d   1       5.958  -1.915  -5.398  0.00  0.00     0.046 H 
BRANCH  23  26
ATOM     26  C   LIG d   1       4.762  -2.894  -3.898  0.00  0.00    -0.037 C 
ATOM     27  H   LIG d   1       3.682  -2.941  -3.757  0.00  0.00     0.028 H 
ATOM     28  H   LIG d   1       5.202  -3.861  -3.654  0.00  0.00     0.028 H 
BRANCH  26  29
ATOM     29  C   LIG d   1       5.349  -1.820  -2.982  0.00  0.00    -0.051 C 
ATOM     30  H   LIG d   1       6.217  -2.223  -2.459  0.00  0.00     0.027 H 
ATOM     31  H   LIG d   1       5.652  -0.959  -3.579  0.00  0.00     0.027 H 
BRANCH  29  32
ATOM     32  C   LIG d   1       4.295  -1.387  -1.961  0.00  0.00    -0.048 C 
ATOM     33  H   LIG d   1       3.730  -2.259  -1.629  0.00  0.00     0.027 H 
ATOM     34  H   LIG d   1       4.786  -0.924  -1.105  0.00  0.00     0.027 H 
BRANCH  32  35
ATOM     35  C   LIG d   1       3.343  -0.379  -2.607  0.00  0.00    -0.013 C 
ATOM     36  H   LIG d   1       3.203  -0.634  -3.658  0.00  0.00     0.033 H 
ATOM     37  H   LIG d   1       2.380  -0.408  -2.096  0.00  0.00     0.033 H 
BRANCH  35  38
ATOM     38  C   LIG d   1       3.927   1.006  -2.498  0.00  0.00     0.042 C 
ATOM     39  O   LIG d   1       3.646   1.845  -3.321  0.00  0.00    -0.550 OA
ATOM     40  O   LIG d   1       4.759   1.307  -1.489  0.00  0.00    -0.550 OA
ENDBRANCH  35  38
ENDBRANCH  32  35
ENDBRANCH  29  32
ENDBRANCH  26  29
ENDBRANCH  23  26
ENDBRANCH   3  23
TORSDOF 13
ENDMDL
MODEL 2
REMARK VINA RESULT:      -5.2      1.196      1.724
REMARK  13 active torsions:
REMARK  status: ('A' for Active; 'I' for Inactive)
REMARK    1  A    between atoms: C_1  and  C_2 
REMARK    2  A    between atoms: C_2  and  C_3 
REMARK    3  A    between atoms: C_2  and  C_4 
REMARK    4  A    between atoms: C_2  and  C_6 
REMARK    5  A    between atoms: C_4  and  O_5 
REMARK    6  A    between atoms: C_6  and  C_8 
REMARK    7  A    between atoms: C_6  and  O_18 
REMARK       I    between atoms: C_8  and  N_10 
REMARK    8  A    between atoms: N_10  and  C_11 
REMARK    9  A    between atoms: C_11  and  C_12 
REMARK   10  A    between atoms: C_12  and  C_13 
REMARK   11  A    between atoms: C_13  and  C_14 
REMARK   12  A    between atoms: C_14  and  C_15 
REMARK   13  A    between atoms: C_15  and  C_16 
ROOT
ATOM      1  C   LIG d   1       4.022  -0.454  -6.186  0.00  0.00     0.242 C 
ATOM      2  O   LIG d   1       5.050   0.147  -5.954  0.00  0.00    -0.273 OA
ATOM      3  N   LIG d   1       3.922  -1.763  -5.875  0.00  0.00    -0.313 N 
ATOM      4  H   LIG d   1       3.078  -2.225  -5.993  0.00  0.00     0.149 HD
ENDROOT
BRANCH   1   5
ATOM      5  C   LIG d   1       2.856   0.263  -6.815  0.00  0.00     0.138 C 
ATOM      6  H   LIG d   1       1.947  -0.318  -6.663  0.00  0.00     0.070 H 
BRANCH   5   7
ATOM      7  C   LIG d   1       3.110   0.432  -8.314  0.00  0.00     0.023 C 
BRANCH   7   8
ATOM      8  C   LIG d   1       2.799   1.872  -8.726  0.00  0.00    -0.055 C 
ATOM      9  H   LIG d   1       3.534   2.208  -9.457  0.00  0.00     0.024 H 
ATOM     10  H   LIG d   1       1.802   1.917  -9.167  0.00  0.00     0.024 H 
ATOM     11  H   LIG d   1       2.837   2.517  -7.849  0.00  0.00     0.024 H 
ENDBRANCH   7   8
BRANCH   7  12
ATOM     12  C   LIG d   1       4.577   0.119  -8.620  0.00  0.00    -0.055 C 
ATOM     13  H   LIG d   1       4.804   0.409  -9.646  0.00  0.00     0.024 H 
ATOM     14  H   LIG d   1       5.218   0.677  -7.936  0.00  0.00     0.024 H 
ATOM     15  H   LIG d   1       4.754  -0.949  -8.496  0.00  0.00     0.024 H 
ENDBRANCH   7  12
BRANCH   7  16
ATOM     16  C   LIG d   1       2.210  -0.528  -9.095  0.00  0.00     0.052 C 
ATOM     17  H   LIG d   1       1.194  -0.474  -8.704  0.00  0.00     0.056 H 
ATOM     18  H   LIG d   1       2.210  -0.248 -10.148  0.00  0.00     0.056 H 
BRANCH  16  19
ATOM     19  O   LIG d   1       2.703  -1.862  -8.958  0.00  0.00    -0.394 OA
ATOM     20  H   LIG d   1       2.028  -2.544  -9.066  0.00  0.00     0.209 HD
ENDBRANCH  16  19
ENDBRANCH   7  16
ENDBRANCH   5   7
BRANCH   5  21
ATOM     21  O   LIG d   1       2.707   1.549  -6.210  0.00  0.00    -0.382 OA
ATOM     22  H   LIG d   1       1.813   1.912  -6.271  0.00  0.00     0.210 HD
ENDBRANCH   5  21
ENDBRANCH   1   5
BRANCH   3  23
ATOM     23  C   LIG d   1       5.088  -2.485  -5.361  0.00  0.00     0.012 C 
ATOM     24  H   LIG d   1       5.241  -3.392  -5.946  0.00  0.00     0.046 H 
ATOM     25  H   LIG d   1       5.971  -1.850  -5.438  0.00  0.00     0.046 H 
BRANCH  23  26
ATOM     26  C   LIG d   1       4.853  -2.855  -3.896  0.00  0.00    -0.037 C 
ATOM     27  H   LIG d   1       3.781  -2.918  -3.704  0.00  0.00     0.028 H 
ATOM     28  H   LIG d   1       5.316  -3.820  -3.686  0.00  0.00     0.028 H 
BRANCH  26  29
ATOM     29  C   LIG d   1       5.470  -1.786  -2.993  0.00  0.00    -0.051 C 
ATOM     30  H   LIG d   1       6.352  -2.193  -2.499  0.00  0.00     0.027 H 
ATOM     31  H   LIG d   1       5.756  -0.923  -3.596  0.00  0.00     0.027 H 
BRANCH  29  32
ATOM     32  C   LIG d   1       4.448  -1.355  -1.939  0.00  0.00    -0.048 C 
ATOM     33  H   LIG d   1       3.459  -1.715  -2.223  0.00  0.00     0.027 H 
ATOM     34  H   LIG d   1       4.725  -1.776  -0.972  0.00  0.00     0.027 H 
BRANCH  32  35
ATOM     35  C   LIG d   1       4.427   0.171  -1.843  0.00  0.00    -0.013 C 
ATOM     36  H   LIG d   1       4.078   0.467  -0.854  0.00  0.00     0.033 H 
ATOM     37  H   LIG d   1       5.432   0.560  -2.005  0.00  0.00     0.033 H 
BRANCH  35  38
ATOM     38  C   LIG d   1       3.498   0.728  -2.891  0.00  0.00     0.042 C 
ATOM     39  O   LIG d   1       3.642   1.861  -3.284  0.00  0.00    -0.550 OA
ATOM     40  O   LIG d   1       2.510  -0.035  -3.387  0.00  0.00    -0.550 OA
ENDBRANCH  35  38
ENDBRANCH  32  35
ENDBRANCH  29  32
ENDBRANCH  26  29
ENDBRANCH  23  26
ENDBRANCH   3  23
TORSDOF 13
ENDMDL
MODEL 3
REMARK VINA RESULT:      -5.2      1.556      5.782
REMARK  13 active torsions:
REMARK  status: ('A' for Active; 'I' for Inactive)
REMARK    1  A    between atoms: C_1  and  C_2 
REMARK    2  A    between atoms: C_2  and  C_3 
REMARK    3  A    between atoms: C_2  and  C_4 
REMARK    4  A    between atoms: C_2  and  C_6 
REMARK    5  A    between atoms: C_4  and  O_5 
REMARK    6  A    between atoms: C_6  and  C_8 
REMARK    7  A    between atoms: C_6  and  O_18 
REMARK       I    between atoms: C_8  and  N_10 
REMARK    8  A    between atoms: N_10  and  C_11 
REMARK    9  A    between atoms: C_11  and  C_12 
REMARK   10  A    between atoms: C_12  and  C_13 
REMARK   11  A    between atoms: C_13  and  C_14 
REMARK   12  A    between atoms: C_14  and  C_15 
REMARK   13  A    between atoms: C_15  and  C_16 
ROOT
ATOM      1  C   LIG d   1       4.587  -1.111  -5.326  0.00  0.00     0.242 C 
ATOM      2  O   LIG d   1       4.526  -2.310  -5.506  0.00  0.00    -0.273 OA
ATOM      3  N   LIG d   1       4.177  -0.264  -6.292  0.00  0.00    -0.313 N 
ATOM      4  H   LIG d   1       4.157   0.690  -6.121  0.00  0.00     0.149 HD
ENDROOT
BRANCH   1   5
ATOM      5  C   LIG d   1       5.113  -0.571  -4.022  0.00  0.00     0.138 C 
ATOM      6  H   LIG d   1       5.981  -1.152  -3.711  0.00  0.00     0.070 H 
BRANCH   5   7
ATOM      7  C   LIG d   1       4.023  -0.669  -2.953  0.00  0.00     0.023 C 
BRANCH   7   8
ATOM      8  C   LIG d   1       2.662  -0.364  -3.581  0.00  0.00    -0.055 C 
ATOM      9  H   LIG d   1       1.879  -0.863  -3.010  0.00  0.00     0.024 H 
ATOM     10  H   LIG d   1       2.489   0.712  -3.570  0.00  0.00     0.024 H 
ATOM     11  H   LIG d   1       2.647  -0.725  -4.609  0.00  0.00     0.024 H 
ENDBRANCH   7   8
BRANCH   7  12
ATOM     12  C   LIG d   1       4.010  -2.084  -2.367  0.00  0.00    -0.055 C 
ATOM     13  H   LIG d   1       4.933  -2.257  -1.815  0.00  0.00     0.024 H 
ATOM     14  H   LIG d   1       3.159  -2.190  -1.693  0.00  0.00     0.024 H 
ATOM     15  H   LIG d   1       3.927  -2.810  -3.175  0.00  0.00     0.024 H 
ENDBRANCH   7  12
BRANCH   7  16
ATOM     16  C   LIG d   1       4.309   0.341  -1.839  0.00  0.00     0.052 C 
ATOM     17  H   LIG d   1       4.109  -0.119  -0.871  0.00  0.00     0.056 H 
ATOM     18  H   LIG d   1       5.353   0.648  -1.887  0.00  0.00     0.056 H 
BRANCH  16  19
ATOM     19  O   LIG d   1       3.467   1.484  -2.005  0.00  0.00    -0.394 OA
ATOM     20  H   LIG d   1       2.958   1.482  -2.827  0.00  0.00     0.209 HD
ENDBRANCH  16  19
ENDBRANCH   7  16
ENDBRANCH   5   7
BRANCH   5  21
ATOM     21  O   LIG d   1       5.490   0.797  -4.192  0.00  0.00    -0.382 OA
ATOM     22  H   LIG d   1       6.174   1.096  -3.577  0.00  0.00     0.210 HD
ENDBRANCH   5  21
ENDBRANCH   1   5
BRANCH   3  23
ATOM     23  C   LIG d   1       3.764  -0.785  -7.597  0.00  0.00     0.012 C 
ATOM     24  H   LIG d   1       4.566  -0.634  -8.319  0.00  0.00     0.046 H 
ATOM     25  H   LIG d   1       3.549  -1.850  -7.510  0.00  0.00     0.046 H 
BRANCH  23  26
ATOM     26  C   LIG d   1       2.508  -0.048  -8.066  0.00  0.00    -0.037 C 
ATOM     27  H   LIG d   1       2.223  -0.408  -9.055  0.00  0.00     0.028 H 
ATOM     28  H   LIG d   1       1.695  -0.232  -7.365  0.00  0.00     0.028 H 
BRANCH  26  29
ATOM     29  C   LIG d   1       2.793   1.453  -8.133  0.00  0.00    -0.051 C 
ATOM     30  H   LIG d   1       1.858   2.005  -8.039  0.00  0.00     0.027 H 
ATOM     31  H   LIG d   1       3.464   1.733  -7.320  0.00  0.00     0.027 H 
BRANCH  29  32
ATOM     32  C   LIG d   1       3.450   1.789  -9.474  0.00  0.00    -0.048 C 
ATOM     33  H   LIG d   1       3.734   0.866  -9.981  0.00  0.00     0.027 H 
ATOM     34  H   LIG d   1       2.746   2.343 -10.095  0.00  0.00     0.027 H 
BRANCH  32  35
ATOM     35  C   LIG d   1       4.697   2.641  -9.232  0.00  0.00    -0.013 C 
ATOM     36  H   LIG d   1       4.887   3.263 -10.107  0.00  0.00     0.033 H 
ATOM     37  H   LIG d   1       4.540   3.278  -8.362  0.00  0.00     0.033 H 
BRANCH  35  38
ATOM     38  C   LIG d   1       5.882   1.742  -8.988  0.00  0.00     0.042 C 
ATOM     39  O   LIG d   1       6.277   1.556  -7.861  0.00  0.00    -0.550 OA
ATOM     40  O   LIG d   1       6.498   1.147 -10.022  0.00  0.00    -0.550 OA
ENDBRANCH  35  38
ENDBRANCH  32  35
ENDBRANCH  29  32
ENDBRANCH  26  29
ENDBRANCH  23  26
ENDBRANCH   3  23
TORSDOF 13
ENDMDL
MODEL 4
REMARK VINA RESULT:      -5.1      1.848      6.198
REMARK  13 active torsions:
REMARK  status: ('A' for Active; 'I' for Inactive)
REMARK    1  A    between atoms: C_1  and  C_2 
REMARK    2  A    between atoms: C_2  and  C_3 
REMARK    3  A    between atoms: C_2  and  C_4 
REMARK    4  A    between atoms: C_2  and  C_6 
REMARK    5  A    between atoms: C_4  and  O_5 
REMARK    6  A    between atoms: C_6  and  C_8 
REMARK    7  A    between atoms: C_6  and  O_18 
REMARK       I    between atoms: C_8  and  N_10 
REMARK    8  A    between atoms: N_10  and  C_11 
REMARK    9  A    between atoms: C_11  and  C_12 
REMARK   10  A    between atoms: C_12  and  C_13 
REMARK   11  A    between atoms: C_13  and  C_14 
REMARK   12  A    between atoms: C_14  and  C_15 
REMARK   13  A    between atoms: C_15  and  C_16 
ROOT
ATOM      1  C   LIG d   1       2.931   0.247  -4.778  0.00  0.00     0.242 C 
ATOM      2  O   LIG d   1       2.624   1.420  -4.772  0.00  0.00    -0.273 OA
ATOM      3  N   LIG d   1       3.232  -0.365  -5.942  0.00  0.00    -0.313 N 
ATOM      4  H   LIG d   1       3.547  -1.281  -5.940  0.00  0.00     0.149 HD
ENDROOT
BRANCH   1   5
ATOM      5  C   LIG d   1       2.982  -0.526  -3.486  0.00  0.00     0.138 C 
ATOM      6  H   LIG d   1       2.108  -0.283  -2.882  0.00  0.00     0.070 H 
BRANCH   5   7
ATOM      7  C   LIG d   1       4.252  -0.153  -2.719  0.00  0.00     0.023 C 
BRANCH   7   8
ATOM      8  C   LIG d   1       4.041   1.179  -1.997  0.00  0.00    -0.055 C 
ATOM      9  H   LIG d   1       3.506   1.866  -2.652  0.00  0.00     0.024 H 
ATOM     10  H   LIG d   1       3.457   1.012  -1.091  0.00  0.00     0.024 H 
ATOM     11  H   LIG d   1       5.008   1.607  -1.734  0.00  0.00     0.024 H 
ENDBRANCH   7   8
BRANCH   7  12
ATOM     12  C   LIG d   1       4.567  -1.246  -1.694  0.00  0.00    -0.055 C 
ATOM     13  H   LIG d   1       4.633  -2.209  -2.199  0.00  0.00     0.024 H 
ATOM     14  H   LIG d   1       5.518  -1.024  -1.208  0.00  0.00     0.024 H 
ATOM     15  H   LIG d   1       3.775  -1.280  -0.946  0.00  0.00     0.024 H 
ENDBRANCH   7  12
BRANCH   7  16
ATOM     16  C   LIG d   1       5.420  -0.022  -3.700  0.00  0.00     0.052 C 
ATOM     17  H   LIG d   1       5.116   0.592  -4.547  0.00  0.00     0.056 H 
ATOM     18  H   LIG d   1       6.266   0.445  -3.196  0.00  0.00     0.056 H 
BRANCH  16  19
ATOM     19  O   LIG d   1       5.800  -1.319  -4.164  0.00  0.00    -0.394 OA
ATOM     20  H   LIG d   1       6.246  -1.860  -3.498  0.00  0.00     0.209 HD
ENDBRANCH  16  19
ENDBRANCH   7  16
ENDBRANCH   5   7
BRANCH   5  21
ATOM     21  O   LIG d   1       2.992  -1.926  -3.769  0.00  0.00    -0.382 OA
ATOM     22  H   LIG d   1       2.928  -2.138  -4.710  0.00  0.00     0.210 HD
ENDBRANCH   5  21
ENDBRANCH   1   5
BRANCH   3  23
ATOM     23  C   LIG d   1       3.081   0.357  -7.208  0.00  0.00     0.012 C 
ATOM     24  H   LIG d   1       2.403   1.199  -7.069  0.00  0.00     0.046 H 
ATOM     25  H   LIG d   1       4.054   0.723  -7.535  0.00  0.00     0.046 H 
BRANCH  23  26
ATOM     26  C   LIG d   1       2.510  -0.588  -8.268  0.00  0.00    -0.037 C 
ATOM     27  H   LIG d   1       3.240  -1.366  -8.492  0.00  0.00     0.028 H 
ATOM     28  H   LIG d   1       1.595  -1.045  -7.892  0.00  0.00     0.028 H 
BRANCH  26  29
ATOM     29  C   LIG d   1       2.200   0.201  -9.541  0.00  0.00    -0.051 C 
ATOM     30  H   LIG d   1       2.483  -0.389 -10.412  0.00  0.00     0.027 H 
ATOM     31  H   LIG d   1       1.133   0.421  -9.582  0.00  0.00     0.027 H 
BRANCH  29  32
ATOM     32  C   LIG d   1       2.990   1.512  -9.534  0.00  0.00    -0.048 C 
ATOM     33  H   LIG d   1       2.299   2.353  -9.575  0.00  0.00     0.027 H 
ATOM     34  H   LIG d   1       3.584   1.573  -8.623  0.00  0.00     0.027 H 
BRANCH  32  35
ATOM     35  C   LIG d   1       3.918   1.555 -10.750  0.00  0.00    -0.013 C 
ATOM     36  H   LIG d   1       3.374   1.220 -11.633  0.00  0.00     0.033 H 
ATOM     37  H   LIG d   1       4.268   2.575 -10.905  0.00  0.00     0.033 H 
BRANCH  35  38
ATOM     38  C   LIG d   1       5.099   0.649 -10.514  0.00  0.00     0.042 C 
ATOM     39  O   LIG d   1       5.368  -0.213 -11.317  0.00  0.00    -0.550 OA
ATOM     40  O   LIG d   1       5.851   0.800  -9.412  0.00  0.00    -0.550 OA
ENDBRANCH  35  38
ENDBRANCH  32  35
ENDBRANCH  29  32
ENDBRANCH  26  29
ENDBRANCH  23  26
ENDBRANCH   3  23
TORSDOF 13
ENDMDL
MODEL 5
REMARK VINA RESULT:      -5.1      1.845      5.616
REMARK  13 active torsions:
REMARK  status: ('A' for Active; 'I' for Inactive)
REMARK    1  A    between atoms: C_1  and  C_2 
REMARK    2  A    between atoms: C_2  and  C_3 
REMARK    3  A    between atoms: C_2  and  C_4 
REMARK    4  A    between atoms: C_2  and  C_6 
REMARK    5  A    between atoms: C_4  and  O_5 
REMARK    6  A    between atoms: C_6  and  C_8 
REMARK    7  A    between atoms: C_6  and  O_18 
REMARK       I    between atoms: C_8  and  N_10 
REMARK    8  A    between atoms: N_10  and  C_11 
REMARK    9  A    between atoms: C_11  and  C_12 
REMARK   10  A    between atoms: C_12  and  C_13 
REMARK   11  A    between atoms: C_13  and  C_14 
REMARK   12  A    between atoms: C_14  and  C_15 
REMARK   13  A    between atoms: C_15  and  C_16 
ROOT
ATOM      1  C   LIG d   1       4.449  -0.645  -5.201  0.00  0.00     0.242 C 
ATOM      2  O   LIG d   1       4.528  -1.846  -5.352  0.00  0.00    -0.273 OA
ATOM      3  N   LIG d   1       5.054   0.185  -6.075  0.00  0.00    -0.313 N 
ATOM      4  H   LIG d   1       4.930   1.143  -5.997  0.00  0.00     0.149 HD
ENDROOT
BRANCH   1   5
ATOM      5  C   LIG d   1       3.669  -0.081  -4.041  0.00  0.00     0.138 C 
ATOM      6  H   LIG d   1       3.359   0.938  -4.273  0.00  0.00     0.070 H 
BRANCH   5   7
ATOM      7  C   LIG d   1       4.549  -0.076  -2.790  0.00  0.00     0.023 C 
BRANCH   7   8
ATOM      8  C   LIG d   1       4.120   1.067  -1.868  0.00  0.00    -0.055 C 
ATOM      9  H   LIG d   1       4.980   1.415  -1.296  0.00  0.00     0.024 H 
ATOM     10  H   LIG d   1       3.727   1.889  -2.467  0.00  0.00     0.024 H 
ATOM     11  H   LIG d   1       3.349   0.713  -1.185  0.00  0.00     0.024 H 
ENDBRANCH   7   8
BRANCH   7  12
ATOM     12  C   LIG d   1       4.397  -1.410  -2.055  0.00  0.00    -0.055 C 
ATOM     13  H   LIG d   1       5.286  -2.018  -2.216  0.00  0.00     0.024 H 
ATOM     14  H   LIG d   1       4.273  -1.224  -0.987  0.00  0.00     0.024 H 
ATOM     15  H   LIG d   1       3.522  -1.936  -2.436  0.00  0.00     0.024 H 
ENDBRANCH   7  12
BRANCH   7  16
ATOM     16  C   LIG d   1       6.012   0.118  -3.196  0.00  0.00     0.052 C 
ATOM     17  H   LIG d   1       6.661  -0.328  -2.441  0.00  0.00     0.056 H 
ATOM     18  H   LIG d   1       6.188  -0.363  -4.157  0.00  0.00     0.056 H 
BRANCH  16  19
ATOM     19  O   LIG d   1       6.296   1.514  -3.303  0.00  0.00    -0.394 OA
ATOM     20  H   LIG d   1       5.529   2.056  -3.530  0.00  0.00     0.209 HD
ENDBRANCH  16  19
ENDBRANCH   7  16
ENDBRANCH   5   7
BRANCH   5  21
ATOM     21  O   LIG d   1       2.514  -0.889  -3.807  0.00  0.00    -0.382 OA
ATOM     22  H   LIG d   1       2.221  -1.391  -4.579  0.00  0.00     0.210 HD
ENDBRANCH   5  21
ENDBRANCH   1   5
BRANCH   3  23
ATOM     23  C   LIG d   1       5.897  -0.363  -7.140  0.00  0.00     0.012 C 
ATOM     24  H   LIG d   1       6.668  -0.998  -6.704  0.00  0.00     0.046 H 
ATOM     25  H   LIG d   1       5.283  -0.951  -7.822  0.00  0.00     0.046 H 
BRANCH  23  26
ATOM     26  C   LIG d   1       6.556   0.785  -7.908  0.00  0.00    -0.037 C 
ATOM     27  H   LIG d   1       6.524   1.692  -7.305  0.00  0.00     0.028 H 
ATOM     28  H   LIG d   1       7.594   0.529  -8.124  0.00  0.00     0.028 H 
BRANCH  26  29
ATOM     29  C   LIG d   1       5.806   1.018  -9.220  0.00  0.00    -0.051 C 
ATOM     30  H   LIG d   1       6.507   0.968 -10.054  0.00  0.00     0.027 H 
ATOM     31  H   LIG d   1       5.040   0.251  -9.343  0.00  0.00     0.027 H 
BRANCH  29  32
ATOM     32  C   LIG d   1       5.144   2.398  -9.192  0.00  0.00    -0.048 C 
ATOM     33  H   LIG d   1       5.156   2.785  -8.173  0.00  0.00     0.027 H 
ATOM     34  H   LIG d   1       5.692   3.076  -9.846  0.00  0.00     0.027 H 
BRANCH  32  35
ATOM     35  C   LIG d   1       3.698   2.281  -9.676  0.00  0.00    -0.013 C 
ATOM     36  H   LIG d   1       3.262   3.276  -9.761  0.00  0.00     0.033 H 
ATOM     37  H   LIG d   1       3.679   1.792 -10.651  0.00  0.00     0.033 H 
BRANCH  35  38
ATOM     38  C   LIG d   1       2.902   1.465  -8.690  0.00  0.00     0.042 C 
ATOM     39  O   LIG d   1       2.273   0.506  -9.070  0.00  0.00    -0.550 OA
ATOM     40  O   LIG d   1       2.892   1.804  -7.391  0.00  0.00    -0.550 OA
ENDBRANCH  35  38
ENDBRANCH  32  35
ENDBRANCH  29  32
ENDBRANCH  26  29
ENDBRANCH  23  26
ENDBRANCH   3  23
TORSDOF 13
ENDMDL
MODEL 6
REMARK VINA RESULT:      -5.0      1.968      3.226
REMARK  13 active torsions:
REMARK  status: ('A' for Active; 'I' for Inactive)
REMARK    1  A    between atoms: C_1  and  C_2 
REMARK    2  A    between atoms: C_2  and  C_3 
REMARK    3  A    between atoms: C_2  and  C_4 
REMARK    4  A    between atoms: C_2  and  C_6 
REMARK    5  A    between atoms: C_4  and  O_5 
REMARK    6  A    between atoms: C_6  and  C_8 
REMARK    7  A    between atoms: C_6  and  O_18 
REMARK       I    between atoms: C_8  and  N_10 
REMARK    8  A    between atoms: N_10  and  C_11 
REMARK    9  A    between atoms: C_11  and  C_12 
REMARK   10  A    between atoms: C_12  and  C_13 
REMARK   11  A    between atoms: C_13  and  C_14 
REMARK   12  A    between atoms: C_14  and  C_15 
REMARK   13  A    between atoms: C_15  and  C_16 
ROOT
ATOM      1  C   LIG d   1       4.218  -0.440  -6.221  0.00  0.00     0.242 C 
ATOM      2  O   LIG d   1       5.055   0.253  -5.681  0.00  0.00    -0.273 OA
ATOM      3  N   LIG d   1       2.923  -0.335  -5.862  0.00  0.00    -0.313 N 
ATOM      4  H   LIG d   1       2.245  -0.835  -6.342  0.00  0.00     0.149 HD
ENDROOT
BRANCH   1   5
ATOM      5  C   LIG d   1       4.626  -1.414  -7.296  0.00  0.00     0.138 C 
ATOM      6  H   LIG d   1       5.680  -1.667  -7.177  0.00  0.00     0.070 H 
BRANCH   5   7
ATOM      7  C   LIG d   1       4.405  -0.778  -8.669  0.00  0.00     0.023 C 
BRANCH   7   8
ATOM      8  C   LIG d   1       4.275   0.738  -8.516  0.00  0.00    -0.055 C 
ATOM      9  H   LIG d   1       3.995   0.977  -7.490  0.00  0.00     0.024 H 
ATOM     10  H   LIG d   1       5.230   1.211  -8.751  0.00  0.00     0.024 H 
ATOM     11  H   LIG d   1       3.509   1.108  -9.197  0.00  0.00     0.024 H 
ENDBRANCH   7   8
BRANCH   7  12
ATOM     12  C   LIG d   1       5.596  -1.100  -9.576  0.00  0.00    -0.055 C 
ATOM     13  H   LIG d   1       6.524  -0.944  -9.027  0.00  0.00     0.024 H 
ATOM     14  H   LIG d   1       5.536  -2.140  -9.899  0.00  0.00     0.024 H 
ATOM     15  H   LIG d   1       5.575  -0.446 -10.449  0.00  0.00     0.024 H 
ENDBRANCH   7  12
BRANCH   7  16
ATOM     16  C   LIG d   1       3.125  -1.340  -9.291  0.00  0.00     0.052 C 
ATOM     17  H   LIG d   1       3.157  -1.207 -10.373  0.00  0.00     0.056 H 
ATOM     18  H   LIG d   1       3.043  -2.401  -9.057  0.00  0.00     0.056 H 
BRANCH  16  19
ATOM     19  O   LIG d   1       1.993  -0.647  -8.761  0.00  0.00    -0.394 OA
ATOM     20  H   LIG d   1       2.080   0.316  -8.774  0.00  0.00     0.209 HD
ENDBRANCH  16  19
ENDBRANCH   7  16
ENDBRANCH   5   7
BRANCH   5  21
ATOM     21  O   LIG d   1       3.836  -2.600  -7.188  0.00  0.00    -0.382 OA
ATOM     22  H   LIG d   1       3.719  -3.072  -8.023  0.00  0.00     0.210 HD
ENDBRANCH   5  21
ENDBRANCH   1   5
BRANCH   3  23
ATOM     23  C   LIG d   1       2.540   0.534  -4.746  0.00  0.00     0.012 C 
ATOM     24  H   LIG d   1       3.280   1.327  -4.633  0.00  0.00     0.046 H 
ATOM     25  H   LIG d   1       1.563   0.974  -4.947  0.00  0.00     0.046 H 
BRANCH  23  26
ATOM     26  C   LIG d   1       2.473  -0.290  -3.459  0.00  0.00    -0.037 C 
ATOM     27  H   LIG d   1       1.471  -0.221  -3.035  0.00  0.00     0.028 H 
ATOM     28  H   LIG d   1       2.702  -1.332  -3.681  0.00  0.00     0.028 H 
BRANCH  26  29
ATOM     29  C   LIG d   1       3.490   0.252  -2.453  0.00  0.00    -0.051 C 
ATOM     30  H   LIG d   1       4.109   1.010  -2.934  0.00  0.00     0.027 H 
ATOM     31  H   LIG d   1       2.963   0.696  -1.607  0.00  0.00     0.027 H 
BRANCH  29  32
ATOM     32  C   LIG d   1       4.377  -0.892  -1.957  0.00  0.00    -0.048 C 
ATOM     33  H   LIG d   1       5.400  -0.733  -2.299  0.00  0.00     0.027 H 
ATOM     34  H   LIG d   1       4.358  -0.920  -0.868  0.00  0.00     0.027 H 
BRANCH  32  35
ATOM     35  C   LIG d   1       3.855  -2.219  -2.510  0.00  0.00    -0.013 C 
ATOM     36  H   LIG d   1       3.797  -2.950  -1.704  0.00  0.00     0.033 H 
ATOM     37  H   LIG d   1       2.863  -2.071  -2.936  0.00  0.00     0.033 H 
BRANCH  35  38
ATOM     38  C   LIG d   1       4.791  -2.722  -3.579  0.00  0.00     0.042 C 
ATOM     39  O   LIG d   1       5.918  -2.291  -3.645  0.00  0.00    -0.550 OA
ATOM     40  O   LIG d   1       4.373  -3.647  -4.457  0.00  0.00    -0.550 OA
ENDBRANCH  35  38
ENDBRANCH  32  35
ENDBRANCH  29  32
ENDBRANCH  26  29
ENDBRANCH  23  26
ENDBRANCH   3  23
TORSDOF 13
ENDMDL
MODEL 7
REMARK VINA RESULT:      -4.9      1.343      1.799
REMARK  13 active torsions:
REMARK  status: ('A' for Active; 'I' for Inactive)
REMARK    1  A    between atoms: C_1  and  C_2 
REMARK    2  A    between atoms: C_2  and  C_3 
REMARK    3  A    between atoms: C_2  and  C_4 
REMARK    4  A    between atoms: C_2  and  C_6 
REMARK    5  A    between atoms: C_4  and  O_5 
REMARK    6  A    between atoms: C_6  and  C_8 
REMARK    7  A    between atoms: C_6  and  O_18 
REMARK       I    between atoms: C_8  and  N_10 
REMARK    8  A    between atoms: N_10  and  C_11 
REMARK    9  A    between atoms: C_11  and  C_12 
REMARK   10  A    between atoms: C_12  and  C_13 
REMARK   11  A    between atoms: C_13  and  C_14 
REMARK   12  A    between atoms: C_14  and  C_15 
REMARK   13  A    between atoms: C_15  and  C_16 
ROOT
ATOM      1  C   LIG d   1       4.294  -0.627  -6.367  0.00  0.00     0.242 C 
ATOM      2  O   LIG d   1       4.419  -1.828  -6.491  0.00  0.00    -0.273 OA
ATOM      3  N   LIG d   1       5.290   0.100  -5.821  0.00  0.00    -0.313 N 
ATOM      4  H   LIG d   1       5.222   1.066  -5.788  0.00  0.00     0.149 HD
ENDROOT
BRANCH   1   5
ATOM      5  C   LIG d   1       3.031   0.051  -6.828  0.00  0.00     0.138 C 
ATOM      6  H   LIG d   1       2.176  -0.592  -6.619  0.00  0.00     0.070 H 
BRANCH   5   7
ATOM      7  C   LIG d   1       3.114   0.316  -8.332  0.00  0.00     0.023 C 
BRANCH   7   8
ATOM      8  C   LIG d   1       4.527   0.005  -8.828  0.00  0.00    -0.055 C 
ATOM      9  H   LIG d   1       4.985   0.915  -9.216  0.00  0.00     0.024 H 
ATOM     10  H   LIG d   1       5.126  -0.380  -8.002  0.00  0.00     0.024 H 
ATOM     11  H   LIG d   1       4.478  -0.742  -9.620  0.00  0.00     0.024 H 
ENDBRANCH   7   8
BRANCH   7  12
ATOM     12  C   LIG d   1       2.108  -0.576  -9.063  0.00  0.00    -0.055 C 
ATOM     13  H   LIG d   1       2.199  -0.421 -10.138  0.00  0.00     0.024 H 
ATOM     14  H   LIG d   1       2.312  -1.621  -8.829  0.00  0.00     0.024 H 
ATOM     15  H   LIG d   1       1.097  -0.322  -8.743  0.00  0.00     0.024 H 
ENDBRANCH   7  12
BRANCH   7  16
ATOM     16  C   LIG d   1       2.789   1.786  -8.610  0.00  0.00     0.052 C 
ATOM     17  H   LIG d   1       2.269   1.869  -9.565  0.00  0.00     0.056 H 
ATOM     18  H   LIG d   1       2.152   2.172  -7.815  0.00  0.00     0.056 H 
BRANCH  16  19
ATOM     19  O   LIG d   1       4.001   2.541  -8.660  0.00  0.00    -0.394 OA
ATOM     20  H   LIG d   1       3.871   3.480  -8.851  0.00  0.00     0.209 HD
ENDBRANCH  16  19
ENDBRANCH   7  16
ENDBRANCH   5   7
BRANCH   5  21
ATOM     21  O   LIG d   1       2.876   1.291  -6.134  0.00  0.00    -0.382 OA
ATOM     22  H   LIG d   1       3.707   1.755  -5.968  0.00  0.00     0.210 HD
ENDBRANCH   5  21
ENDBRANCH   1   5
BRANCH   3  23
ATOM     23  C   LIG d   1       6.474  -0.570  -5.278  0.00  0.00     0.012 C 
ATOM     24  H   LIG d   1       6.412  -1.639  -5.482  0.00  0.00     0.046 H 
ATOM     25  H   LIG d   1       7.369  -0.162  -5.746  0.00  0.00     0.046 H 
BRANCH  23  26
ATOM     26  C   LIG d   1       6.540  -0.343  -3.766  0.00  0.00    -0.037 C 
ATOM     27  H   LIG d   1       7.537   0.002  -3.493  0.00  0.00     0.028 H 
ATOM     28  H   LIG d   1       5.805   0.409  -3.479  0.00  0.00     0.028 H 
BRANCH  26  29
ATOM     29  C   LIG d   1       6.238  -1.654  -3.039  0.00  0.00    -0.051 C 
ATOM     30  H   LIG d   1       6.458  -2.494  -3.699  0.00  0.00     0.027 H 
ATOM     31  H   LIG d   1       6.857  -1.724  -2.144  0.00  0.00     0.027 H 
BRANCH  29  32
ATOM     32  C   LIG d   1       4.761  -1.690  -2.642  0.00  0.00    -0.048 C 
ATOM     33  H   LIG d   1       4.152  -1.884  -3.525  0.00  0.00     0.027 H 
ATOM     34  H   LIG d   1       4.601  -2.480  -1.909  0.00  0.00     0.027 H 
BRANCH  32  35
ATOM     35  C   LIG d   1       4.363  -0.344  -2.034  0.00  0.00    -0.013 C 
ATOM     36  H   LIG d   1       3.894  -0.508  -1.064  0.00  0.00     0.033 H 
ATOM     37  H   LIG d   1       5.252   0.275  -1.906  0.00  0.00     0.033 H 
BRANCH  35  38
ATOM     38  C   LIG d   1       3.392   0.355  -2.950  0.00  0.00     0.042 C 
ATOM     39  O   LIG d   1       2.402  -0.222  -3.334  0.00  0.00    -0.550 OA
ATOM     40  O   LIG d   1       3.627   1.618  -3.340  0.00  0.00    -0.550 OA
ENDBRANCH  35  38
ENDBRANCH  32  35
ENDBRANCH  29  32
ENDBRANCH  26  29
ENDBRANCH  23  26
ENDBRANCH   3  23
TORSDOF 13
ENDMDL
MODEL 8
REMARK VINA RESULT:      -4.7      1.981      2.430
REMARK  13 active torsions:
REMARK  status: ('A' for Active; 'I' for Inactive)
REMARK    1  A    between atoms: C_1  and  C_2 
REMARK    2  A    between atoms: C_2  and  C_3 
REMARK    3  A    between atoms: C_2  and  C_4 
REMARK    4  A    between atoms: C_2  and  C_6 
REMARK    5  A    between atoms: C_4  and  O_5 
REMARK    6  A    between atoms: C_6  and  C_8 
REMARK    7  A    between atoms: C_6  and  O_18 
REMARK       I    between atoms: C_8  and  N_10 
REMARK    8  A    between atoms: N_10  and  C_11 
REMARK    9  A    between atoms: C_11  and  C_12 
REMARK   10  A    between atoms: C_12  and  C_13 
REMARK   11  A    between atoms: C_13  and  C_14 
REMARK   12  A    between atoms: C_14  and  C_15 
REMARK   13  A    between atoms: C_15  and  C_16 
ROOT
ATOM      1  C   LIG d   1       3.805  -0.118  -6.975  0.00  0.00     0.242 C 
ATOM      2  O   LIG d   1       4.826   0.319  -6.487  0.00  0.00    -0.273 OA
ATOM      3  N   LIG d   1       2.656  -0.088  -6.271  0.00  0.00    -0.313 N 
ATOM      4  H   LIG d   1       1.826  -0.369  -6.686  0.00  0.00     0.149 HD
ENDROOT
BRANCH   1   5
ATOM      5  C   LIG d   1       3.821  -0.687  -8.369  0.00  0.00     0.138 C 
ATOM      6  H   LIG d   1       4.825  -1.039  -8.608  0.00  0.00     0.070 H 
BRANCH   5   7
ATOM      7  C   LIG d   1       3.408   0.396  -9.367  0.00  0.00     0.023 C 
BRANCH   7   8
ATOM      8  C   LIG d   1       2.271  -0.126 -10.248  0.00  0.00    -0.055 C 
ATOM      9  H   LIG d   1       1.394  -0.320  -9.631  0.00  0.00     0.024 H 
ATOM     10  H   LIG d   1       2.025   0.621 -11.004  0.00  0.00     0.024 H 
ATOM     11  H   LIG d   1       2.584  -1.048 -10.736  0.00  0.00     0.024 H 
ENDBRANCH   7   8
BRANCH   7  12
ATOM     12  C   LIG d   1       2.936   1.637  -8.605  0.00  0.00    -0.055 C 
ATOM     13  H   LIG d   1       2.926   1.425  -7.536  0.00  0.00     0.024 H 
ATOM     14  H   LIG d   1       3.615   2.466  -8.804  0.00  0.00     0.024 H 
ATOM     15  H   LIG d   1       1.931   1.903  -8.932  0.00  0.00     0.024 H 
ENDBRANCH   7  12
BRANCH   7  16
ATOM     16  C   LIG d   1       4.606   0.764 -10.246  0.00  0.00     0.052 C 
ATOM     17  H   LIG d   1       5.037   1.703  -9.899  0.00  0.00     0.056 H 
ATOM     18  H   LIG d   1       5.356  -0.025 -10.185  0.00  0.00     0.056 H 
BRANCH  16  19
ATOM     19  O   LIG d   1       4.177   0.909 -11.601  0.00  0.00    -0.394 OA
ATOM     20  H   LIG d   1       4.184   1.821 -11.920  0.00  0.00     0.209 HD
ENDBRANCH  16  19
ENDBRANCH   7  16
ENDBRANCH   5   7
BRANCH   5  21
ATOM     21  O   LIG d   1       2.902  -1.780  -8.447  0.00  0.00    -0.382 OA
ATOM     22  H   LIG d   1       1.999  -1.519  -8.673  0.00  0.00     0.210 HD
ENDBRANCH   5  21
ENDBRANCH   1   5
BRANCH   3  23
ATOM     23  C   LIG d   1       2.661   0.369  -4.879  0.00  0.00     0.012 C 
ATOM     24  H   LIG d   1       3.495   1.053  -4.724  0.00  0.00     0.046 H 
ATOM     25  H   LIG d   1       1.724   0.881  -4.661  0.00  0.00     0.046 H 
BRANCH  23  26
ATOM     26  C   LIG d   1       2.811  -0.836  -3.948  0.00  0.00    -0.037 C 
ATOM     27  H   LIG d   1       1.964  -1.509  -4.085  0.00  0.00     0.028 H 
ATOM     28  H   LIG d   1       3.735  -1.364  -4.181  0.00  0.00     0.028 H 
BRANCH  26  29
ATOM     29  C   LIG d   1       2.850  -0.357  -2.496  0.00  0.00    -0.051 C 
ATOM     30  H   LIG d   1       2.563   0.693  -2.452  0.00  0.00     0.027 H 
ATOM     31  H   LIG d   1       2.155  -0.949  -1.899  0.00  0.00     0.027 H 
BRANCH  29  32
ATOM     32  C   LIG d   1       4.267  -0.523  -1.942  0.00  0.00    -0.048 C 
ATOM     33  H   LIG d   1       4.215  -0.855  -0.905  0.00  0.00     0.027 H 
ATOM     34  H   LIG d   1       4.804  -1.263  -2.535  0.00  0.00     0.027 H 
BRANCH  32  35
ATOM     35  C   LIG d   1       5.002   0.817  -2.012  0.00  0.00    -0.013 C 
ATOM     36  H   LIG d   1       4.299   1.602  -2.291  0.00  0.00     0.033 H 
ATOM     37  H   LIG d   1       5.433   1.047  -1.038  0.00  0.00     0.033 H 
BRANCH  35  38
ATOM     38  C   LIG d   1       6.100   0.735  -3.041  0.00  0.00     0.042 C 
ATOM     39  O   LIG d   1       6.468  -0.342  -3.447  0.00  0.00    -0.550 OA
ATOM     40  O   LIG d   1       6.669   1.858  -3.506  0.00  0.00    -0.550 OA
ENDBRANCH  35  38
ENDBRANCH  32  35
ENDBRANCH  29  32
ENDBRANCH  26  29
ENDBRANCH  23  26
ENDBRANCH   3  23
TORSDOF 13
ENDMDL
MODEL 9
REMARK VINA RESULT:      -4.7      1.933      2.981
REMARK  13 active torsions:
REMARK  status: ('A' for Active; 'I' for Inactive)
REMARK    1  A    between atoms: C_1  and  C_2 
REMARK    2  A    between atoms: C_2  and  C_3 
REMARK    3  A    between atoms: C_2  and  C_4 
REMARK    4  A    between atoms: C_2  and  C_6 
REMARK    5  A    between atoms: C_4  and  O_5 
REMARK    6  A    between atoms: C_6  and  C_8 
REMARK    7  A    between atoms: C_6  and  O_18 
REMARK       I    between atoms: C_8  and  N_10 
REMARK    8  A    between atoms: N_10  and  C_11 
REMARK    9  A    between atoms: C_11  and  C_12 
REMARK   10  A    between atoms: C_12  and  C_13 
REMARK   11  A    between atoms: C_13  and  C_14 
REMARK   12  A    between atoms: C_14  and  C_15 
REMARK   13  A    between atoms: C_15  and  C_16 
ROOT
ATOM      1  C   LIG d   1       3.855  -0.213  -7.105  0.00  0.00     0.242 C 
ATOM      2  O   LIG d   1       3.906  -1.372  -6.750  0.00  0.00    -0.273 OA
ATOM      3  N   LIG d   1       3.308   0.717  -6.296  0.00  0.00    -0.313 N 
ATOM      4  H   LIG d   1       3.333   1.653  -6.547  0.00  0.00     0.149 HD
ENDROOT
BRANCH   1   5
ATOM      5  C   LIG d   1       4.409   0.189  -8.448  0.00  0.00     0.138 C 
ATOM      6  H   LIG d   1       5.092   1.029  -8.323  0.00  0.00     0.070 H 
BRANCH   5   7
ATOM      7  C   LIG d   1       3.261   0.596  -9.372  0.00  0.00     0.023 C 
BRANCH   7   8
ATOM      8  C   LIG d   1       3.760   0.642 -10.817  0.00  0.00    -0.055 C 
ATOM      9  H   LIG d   1       4.848   0.571 -10.828  0.00  0.00     0.024 H 
ATOM     10  H   LIG d   1       3.336  -0.193 -11.376  0.00  0.00     0.024 H 
ATOM     11  H   LIG d   1       3.453   1.581 -11.278  0.00  0.00     0.024 H 
ENDBRANCH   7   8
BRANCH   7  12
ATOM     12  C   LIG d   1       2.127  -0.427  -9.256  0.00  0.00    -0.055 C 
ATOM     13  H   LIG d   1       2.478  -1.298  -8.703  0.00  0.00     0.024 H 
ATOM     14  H   LIG d   1       1.285   0.023  -8.729  0.00  0.00     0.024 H 
ATOM     15  H   LIG d   1       1.811  -0.733 -10.254  0.00  0.00     0.024 H 
ENDBRANCH   7  12
BRANCH   7  16
ATOM     16  C   LIG d   1       2.744   1.978  -8.966  0.00  0.00     0.052 C 
ATOM     17  H   LIG d   1       2.139   2.392  -9.774  0.00  0.00     0.056 H 
ATOM     18  H   LIG d   1       2.136   1.887  -8.066  0.00  0.00     0.056 H 
BRANCH  16  19
ATOM     19  O   LIG d   1       3.851   2.844  -8.708  0.00  0.00    -0.394 OA
ATOM     20  H   LIG d   1       3.686   3.770  -8.932  0.00  0.00     0.209 HD
ENDBRANCH  16  19
ENDBRANCH   7  16
ENDBRANCH   5   7
BRANCH   5  21
ATOM     21  O   LIG d   1       5.113  -0.915  -9.021  0.00  0.00    -0.382 OA
ATOM     22  H   LIG d   1       5.854  -1.230  -8.487  0.00  0.00     0.210 HD
ENDBRANCH   5  21
ENDBRANCH   1   5
BRANCH   3  23
ATOM     23  C   LIG d   1       2.676   0.311  -5.038  0.00  0.00     0.012 C 
ATOM     24  H   LIG d   1       1.615   0.560  -5.067  0.00  0.00     0.046 H 
ATOM     25  H   LIG d   1       2.795  -0.763  -4.902  0.00  0.00     0.046 H 
BRANCH  23  26
ATOM     26  C   LIG d   1       3.341   1.048  -3.873  0.00  0.00    -0.037 C 
ATOM     27  H   LIG d   1       4.416   1.103  -4.044  0.00  0.00     0.028 H 
ATOM     28  H   LIG d   1       2.933   2.056  -3.800  0.00  0.00     0.028 H 
BRANCH  26  29
ATOM     29  C   LIG d   1       3.070   0.293  -2.571  0.00  0.00    -0.051 C 
ATOM     30  H   LIG d   1       2.563   0.954  -1.867  0.00  0.00     0.027 H 
ATOM     31  H   LIG d   1       2.438  -0.572  -2.777  0.00  0.00     0.027 H 
BRANCH  29  32
ATOM     32  C   LIG d   1       4.395  -0.175  -1.967  0.00  0.00    -0.048 C 
ATOM     33  H   LIG d   1       5.223   0.217  -2.558  0.00  0.00     0.027 H 
ATOM     34  H   LIG d   1       4.476   0.188  -0.942  0.00  0.00     0.027 H 
BRANCH  32  35
ATOM     35  C   LIG d   1       4.446  -1.704  -1.970  0.00  0.00    -0.013 C 
ATOM     36  H   LIG d   1       5.173  -2.045  -1.234  0.00  0.00     0.033 H 
ATOM     37  H   LIG d   1       3.462  -2.101  -1.719  0.00  0.00     0.033 H 
BRANCH  35  38
ATOM     38  C   LIG d   1       4.849  -2.191  -3.339  0.00  0.00     0.042 C 
ATOM     39  O   LIG d   1       5.733  -1.630  -3.942  0.00  0.00    -0.550 OA
ATOM     40  O   LIG d   1       4.227  -3.247  -3.886  0.00  0.00    -0.550 OA
ENDBRANCH  35  38
ENDBRANCH  32  35
ENDBRANCH  29  32
ENDBRANCH  26  29
ENDBRANCH  23  26
ENDBRANCH   3  23
TORSDOF 13
ENDMDL
MODEL 10
REMARK VINA RESULT:      -4.7      1.434      5.247
REMARK  13 active torsions:
REMARK  status: ('A' for Active; 'I' for Inactive)
REMARK    1  A    between atoms: C_1  and  C_2 
REMARK    2  A    between atoms: C_2  and  C_3 
REMARK    3  A    between atoms: C_2  and  C_4 
REMARK    4  A    between atoms: C_2  and  C_6 
REMARK    5  A    between atoms: C_4  and  O_5 
REMARK    6  A    between atoms: C_6  and  C_8 
REMARK    7  A    between atoms: C_6  and  O_18 
REMARK       I    between atoms: C_8  and  N_10 
REMARK    8  A    between atoms: N_10  and  C_11 
REMARK    9  A    between atoms: C_11  and  C_12 
REMARK   10  A    between atoms: C_12  and  C_13 
REMARK   11  A    between atoms: C_13  and  C_14 
REMARK   12  A    between atoms: C_14  and  C_15 
REMARK   13  A    between atoms: C_15  and  C_16 
ROOT
ATOM      1  C   LIG d   1       4.690  -1.837  -5.019  0.00  0.00     0.242 C 
ATOM      2  O   LIG d   1       4.360  -2.920  -4.585  0.00  0.00    -0.273 OA
ATOM      3  N   LIG d   1       4.612  -1.590  -6.343  0.00  0.00    -0.313 N 
ATOM      4  H   LIG d   1       4.805  -0.703  -6.682  0.00  0.00     0.149 HD
ENDROOT
BRANCH   1   5
ATOM      5  C   LIG d   1       5.182  -0.767  -4.080  0.00  0.00     0.138 C 
ATOM      6  H   LIG d   1       6.098  -1.102  -3.594  0.00  0.00     0.070 H 
BRANCH   5   7
ATOM      7  C   LIG d   1       4.114  -0.487  -3.021  0.00  0.00     0.023 C 
BRANCH   7   8
ATOM      8  C   LIG d   1       2.729  -0.538  -3.667  0.00  0.00    -0.055 C 
ATOM      9  H   LIG d   1       2.513  -1.558  -3.986  0.00  0.00     0.024 H 
ATOM     10  H   LIG d   1       1.978  -0.218  -2.944  0.00  0.00     0.024 H 
ATOM     11  H   LIG d   1       2.706   0.125  -4.532  0.00  0.00     0.024 H 
ENDBRANCH   7   8
BRANCH   7  12
ATOM     12  C   LIG d   1       4.202  -1.545  -1.918  0.00  0.00    -0.055 C 
ATOM     13  H   LIG d   1       3.218  -1.687  -1.472  0.00  0.00     0.024 H 
ATOM     14  H   LIG d   1       4.546  -2.488  -2.346  0.00  0.00     0.024 H 
ATOM     15  H   LIG d   1       4.905  -1.215  -1.153  0.00  0.00     0.024 H 
ENDBRANCH   7  12
BRANCH   7  16
ATOM     16  C   LIG d   1       4.345   0.900  -2.417  0.00  0.00     0.052 C 
ATOM     17  H   LIG d   1       3.934   0.930  -1.408  0.00  0.00     0.056 H 
ATOM     18  H   LIG d   1       5.414   1.106  -2.381  0.00  0.00     0.056 H 
BRANCH  16  19
ATOM     19  O   LIG d   1       3.698   1.885  -3.224  0.00  0.00    -0.394 OA
ATOM     20  H   LIG d   1       2.998   1.532  -3.790  0.00  0.00     0.209 HD
ENDBRANCH  16  19
ENDBRANCH   7  16
ENDBRANCH   5   7
BRANCH   5  21
ATOM     21  O   LIG d   1       5.445   0.429  -4.818  0.00  0.00    -0.382 OA
ATOM     22  H   LIG d   1       4.881   0.544  -5.595  0.00  0.00     0.210 HD
ENDBRANCH   5  21
ENDBRANCH   1   5
BRANCH   3  23
ATOM     23  C   LIG d   1       4.234  -2.662  -7.267  0.00  0.00     0.012 C 
ATOM     24  H   LIG d   1       4.948  -3.481  -7.184  0.00  0.00     0.046 H 
ATOM     25  H   LIG d   1       3.236  -3.022  -7.016  0.00  0.00     0.046 H 
BRANCH  23  26
ATOM     26  C   LIG d   1       4.236  -2.125  -8.699  0.00  0.00    -0.037 C 
ATOM     27  H   LIG d   1       4.619  -1.104  -8.704  0.00  0.00     0.028 H 
ATOM     28  H   LIG d   1       4.871  -2.754  -9.323  0.00  0.00     0.028 H 
BRANCH  26  29
ATOM     29  C   LIG d   1       2.809  -2.135  -9.250  0.00  0.00    -0.051 C 
ATOM     30  H   LIG d   1       2.837  -2.303 -10.327  0.00  0.00     0.027 H 
ATOM     31  H   LIG d   1       2.241  -2.934  -8.772  0.00  0.00     0.027 H 
BRANCH  29  32
ATOM     32  C   LIG d   1       2.140  -0.789  -8.961  0.00  0.00    -0.048 C 
ATOM     33  H   LIG d   1       1.286  -0.658  -9.625  0.00  0.00     0.027 H 
ATOM     34  H   LIG d   1       1.803  -0.767  -7.925  0.00  0.00     0.027 H 
BRANCH  32  35
ATOM     35  C   LIG d   1       3.145   0.340  -9.194  0.00  0.00    -0.013 C 
ATOM     36  H   LIG d   1       4.145  -0.080  -9.302  0.00  0.00     0.033 H 
ATOM     37  H   LIG d   1       2.880   0.882 -10.102  0.00  0.00     0.033 H 
BRANCH  35  38
ATOM     38  C   LIG d   1       3.120   1.285  -8.021  0.00  0.00     0.042 C 
ATOM     39  O   LIG d   1       3.223   0.855  -6.897  0.00  0.00    -0.550 OA
ATOM     40  O   LIG d   1       2.984   2.605  -8.224  0.00  0.00    -0.550 OA
ENDBRANCH  35  38
ENDBRANCH  32  35
ENDBRANCH  29  32
ENDBRANCH  26  29
ENDBRANCH  23  26
ENDBRANCH   3  23
TORSDOF 13
ENDMDL
