MODEL 1
REMARK VINA RESULT:      -5.7      0.000      0.000
REMARK  9 active torsions:
REMARK  status: ('A' for Active; 'I' for Inactive)
REMARK    1  A    between atoms: C_1  and  C_2 
REMARK    2  A    between atoms: C_2  and  C_17 
REMARK    3  A    between atoms: C_3  and  C_4 
REMARK    4  A    between atoms: C_4  and  C_5 
REMARK    5  A    between atoms: C_5  and  C_6 
REMARK    6  A    between atoms: C_6  and  C_16 
REMARK    7  A    between atoms: C_7  and  C_8 
REMARK    8  A    between atoms: C_11  and  C_14 
REMARK    9  A    between atoms: C_11  and  C_15 
ROOT
ATOM      1  C   LIG d   1       2.855   0.690  -7.848  0.00  0.00    -0.071 C 
ATOM      2  C   LIG d   1       2.869   1.046  -6.588  0.00  0.00    -0.030 C 
ATOM      3  H   LIG d   1       2.618   2.059  -6.309  0.00  0.00     0.062 H 
ENDROOT
BRANCH   1   4
ATOM      4  C   LIG d   1       2.616   1.722  -8.920  0.00  0.00    -0.028 C 
ATOM      5  H   LIG d   1       2.543   2.710  -8.464  0.00  0.00     0.031 H 
ATOM      6  H   LIG d   1       1.688   1.495  -9.444  0.00  0.00     0.031 H 
BRANCH   4   7
ATOM      7  C   LIG d   1       3.781   1.704  -9.913  0.00  0.00    -0.031 C 
ATOM      8  H   LIG d   1       3.962   0.682 -10.242  0.00  0.00     0.031 H 
ATOM      9  H   LIG d   1       3.533   2.325 -10.773  0.00  0.00     0.031 H 
BRANCH   7  10
ATOM     10  C   LIG d   1       5.019   2.245  -9.245  0.00  0.00    -0.085 C 
ATOM     11  C   LIG d   1       6.127   1.548  -9.259  0.00  0.00    -0.080 C 
ATOM     12  H   LIG d   1       4.992   3.207  -8.753  0.00  0.00     0.057 H 
BRANCH  11  13
ATOM     13  C   LIG d   1       6.201   0.263 -10.044  0.00  0.00    -0.044 C 
ATOM     14  H   LIG d   1       5.447   0.277 -10.833  0.00  0.00     0.027 H 
ATOM     15  H   LIG d   1       7.191   0.165 -10.489  0.00  0.00     0.027 H 
ATOM     16  H   LIG d   1       6.015  -0.579  -9.378  0.00  0.00     0.027 H 
ENDBRANCH  11  13
BRANCH  11  17
ATOM     17  C   LIG d   1       7.331   2.031  -8.492  0.00  0.00    -0.044 C 
ATOM     18  H   LIG d   1       7.026   2.325  -7.486  0.00  0.00     0.027 H 
ATOM     19  H   LIG d   1       8.067   1.229  -8.428  0.00  0.00     0.027 H 
ATOM     20  H   LIG d   1       7.769   2.888  -9.004  0.00  0.00     0.027 H 
ENDBRANCH  11  17
ENDBRANCH   7  10
ENDBRANCH   4   7
ENDBRANCH   1   4
BRANCH   1  21
ATOM     21  C   LIG d   1       3.076  -0.751  -8.227  0.00  0.00    -0.044 C 
ATOM     22  H   LIG d   1       4.025  -0.846  -8.756  0.00  0.00     0.027 H 
ATOM     23  H   LIG d   1       3.101  -1.364  -7.325  0.00  0.00     0.027 H 
ATOM     24  H   LIG d   1       2.266  -1.086  -8.873  0.00  0.00     0.027 H 
ENDBRANCH   1  21
BRANCH   2  25
ATOM     25  C   LIG d   1       3.235   0.042  -5.525  0.00  0.00     0.179 C 
ATOM     26  O   LIG d   1       4.558   0.309  -5.053  0.00  0.00    -0.347 OA
ATOM     27  C   LIG d   1       4.990  -0.579  -4.017  0.00  0.00     0.058 C 
ATOM     28  C   LIG d   1       4.009  -0.489  -2.843  0.00  0.00     0.012 C 
ATOM     29  H   LIG d   1       5.012  -1.600  -4.397  0.00  0.00     0.057 H 
ATOM     30  H   LIG d   1       5.987  -0.290  -3.682  0.00  0.00     0.057 H 
ATOM     31  C   LIG d   1       2.592  -0.759  -3.360  0.00  0.00     0.058 C 
ATOM     32  O   LIG d   1       2.312   0.140  -4.438  0.00  0.00    -0.347 OA
ATOM     33  H   LIG d   1       2.523  -1.787  -3.716  0.00  0.00     0.057 H 
ATOM     34  H   LIG d   1       1.874  -0.602  -2.556  0.00  0.00     0.057 H 
ATOM     35  H   LIG d   1       3.195  -0.963  -5.946  0.00  0.00     0.096 H 
BRANCH  28  36
ATOM     36  C   LIG d   1       4.377  -1.533  -1.787  0.00  0.00    -0.056 C 
ATOM     37  H   LIG d   1       3.496  -2.127  -1.541  0.00  0.00     0.024 H 
ATOM     38  H   LIG d   1       5.157  -2.187  -2.178  0.00  0.00     0.024 H 
ATOM     39  H   LIG d   1       4.740  -1.031  -0.890  0.00  0.00     0.024 H 
ENDBRANCH  28  36
BRANCH  28  40
ATOM     40  C   LIG d   1       4.072   0.910  -2.228  0.00  0.00    -0.056 C 
ATOM     41  H   LIG d   1       5.081   1.100  -1.858  0.00  0.00     0.024 H 
ATOM     42  H   LIG d   1       3.817   1.652  -2.984  0.00  0.00     0.024 H 
ATOM     43  H   LIG d   1       3.366   0.977  -1.400  0.00  0.00     0.024 H 
ENDBRANCH  28  40
ENDBRANCH   2  25
TORSDOF 9
ENDMDL
MODEL 2
REMARK VINA RESULT:      -5.5      1.825      6.310
REMARK  9 active torsions:
REMARK  status: ('A' for Active; 'I' for Inactive)
REMARK    1  A    between atoms: C_1  and  C_2 
REMARK    2  A    between atoms: C_2  and  C_17 
REMARK    3  A    between atoms: C_3  and  C_4 
REMARK    4  A    between atoms: C_4  and  C_5 
REMARK    5  A    between atoms: C_5  and  C_6 
REMARK    6  A    between atoms: C_6  and  C_16 
REMARK    7  A    between atoms: C_7  and  C_8 
REMARK    8  A    between atoms: C_11  and  C_14 
REMARK    9  A    between atoms: C_11  and  C_15 
ROOT
ATOM      1  C   LIG d   1       5.398  -1.827  -5.160  0.00  0.00    -0.071 C 
ATOM      2  C   LIG d   1       4.377  -1.532  -5.923  0.00  0.00    -0.030 C 
ATOM      3  H   LIG d   1       3.420  -2.005  -5.754  0.00  0.00     0.062 H 
ENDROOT
BRANCH   1   4
ATOM      4  C   LIG d   1       5.279  -2.920  -4.130  0.00  0.00    -0.028 C 
ATOM      5  H   LIG d   1       6.235  -3.045  -3.621  0.00  0.00     0.031 H 
ATOM      6  H   LIG d   1       5.004  -3.854  -4.620  0.00  0.00     0.031 H 
BRANCH   4   7
ATOM      7  C   LIG d   1       4.204  -2.543  -3.108  0.00  0.00    -0.031 C 
ATOM      8  H   LIG d   1       3.287  -2.270  -3.629  0.00  0.00     0.031 H 
ATOM      9  H   LIG d   1       4.012  -3.392  -2.454  0.00  0.00     0.031 H 
BRANCH   7  10
ATOM     10  C   LIG d   1       4.682  -1.373  -2.286  0.00  0.00    -0.085 C 
ATOM     11  C   LIG d   1       4.008  -0.250  -2.293  0.00  0.00    -0.080 C 
ATOM     12  H   LIG d   1       5.579  -1.461  -1.691  0.00  0.00     0.057 H 
BRANCH  11  13
ATOM     13  C   LIG d   1       2.694  -0.163  -3.026  0.00  0.00    -0.044 C 
ATOM     14  H   LIG d   1       2.762   0.600  -3.803  0.00  0.00     0.027 H 
ATOM     15  H   LIG d   1       2.467  -1.127  -3.482  0.00  0.00     0.027 H 
ATOM     16  H   LIG d   1       1.904   0.102  -2.324  0.00  0.00     0.027 H 
ENDBRANCH  11  13
BRANCH  11  17
ATOM     17  C   LIG d   1       4.547   0.956  -1.567  0.00  0.00    -0.044 C 
ATOM     18  H   LIG d   1       5.634   0.976  -1.653  0.00  0.00     0.027 H 
ATOM     19  H   LIG d   1       4.131   1.861  -2.009  0.00  0.00     0.027 H 
ATOM     20  H   LIG d   1       4.266   0.903  -0.515  0.00  0.00     0.027 H 
ENDBRANCH  11  17
ENDBRANCH   7  10
ENDBRANCH   4   7
ENDBRANCH   1   4
BRANCH   1  21
ATOM     21  C   LIG d   1       6.695  -1.074  -5.311  0.00  0.00    -0.044 C 
ATOM     22  H   LIG d   1       6.487  -0.057  -5.648  0.00  0.00     0.027 H 
ATOM     23  H   LIG d   1       7.209  -1.039  -4.350  0.00  0.00     0.027 H 
ATOM     24  H   LIG d   1       7.325  -1.577  -6.043  0.00  0.00     0.027 H 
ENDBRANCH   1  21
BRANCH   2  25
ATOM     25  C   LIG d   1       4.533  -0.531  -7.039  0.00  0.00     0.179 C 
ATOM     26  O   LIG d   1       4.564  -1.216  -8.294  0.00  0.00    -0.347 OA
ATOM     27  C   LIG d   1       4.685  -0.346  -9.423  0.00  0.00     0.058 C 
ATOM     28  C   LIG d   1       3.511   0.641  -9.418  0.00  0.00     0.012 C 
ATOM     29  H   LIG d   1       5.624   0.204  -9.363  0.00  0.00     0.057 H 
ATOM     30  H   LIG d   1       4.662  -0.934 -10.341  0.00  0.00     0.057 H 
ATOM     31  C   LIG d   1       3.474   1.358  -8.065  0.00  0.00     0.058 C 
ATOM     32  O   LIG d   1       3.431   0.380  -7.021  0.00  0.00    -0.347 OA
ATOM     33  H   LIG d   1       4.368   1.972  -7.952  0.00  0.00     0.057 H 
ATOM     34  H   LIG d   1       2.588   1.991  -8.011  0.00  0.00     0.057 H 
ATOM     35  H   LIG d   1       5.463   0.022  -6.904  0.00  0.00     0.096 H 
BRANCH  28  36
ATOM     36  C   LIG d   1       3.700   1.667 -10.537  0.00  0.00    -0.056 C 
ATOM     37  H   LIG d   1       2.955   2.456 -10.435  0.00  0.00     0.024 H 
ATOM     38  H   LIG d   1       4.699   2.099 -10.469  0.00  0.00     0.024 H 
ATOM     39  H   LIG d   1       3.582   1.177 -11.503  0.00  0.00     0.024 H 
ENDBRANCH  28  36
BRANCH  28  40
ATOM     40  C   LIG d   1       2.201  -0.119  -9.632  0.00  0.00    -0.056 C 
ATOM     41  H   LIG d   1       1.429   0.298  -8.984  0.00  0.00     0.024 H 
ATOM     42  H   LIG d   1       1.891  -0.025 -10.672  0.00  0.00     0.024 H 
ATOM     43  H   LIG d   1       2.347  -1.172  -9.390  0.00  0.00     0.024 H 
ENDBRANCH  28  40
ENDBRANCH   2  25
TORSDOF 9
ENDMDL
MODEL 3
REMARK VINA RESULT:      -5.2      1.700      5.921
REMARK  9 active torsions:
REMARK  status: ('A' for Active; 'I' for Inactive)
REMARK    1  A    between atoms: C_1  and  C_2 
REMARK    2  A    between atoms: C_2  and  C_17 
REMARK    3  A    between atoms: C_3  and  C_4 
REMARK    4  A    between atoms: C_4  and  C_5 
REMARK    5  A    between atoms: C_5  and  C_6 
REMARK    6  A    between atoms: C_6  and  C_16 
REMARK    7  A    between atoms: C_7  and  C_8 
REMARK    8  A    between atoms: C_11  and  C_14 
REMARK    9  A    between atoms: C_11  and  C_15 
ROOT
ATOM      1  C   LIG d   1       2.705   0.266  -4.473  0.00  0.00    -0.071 C 
ATOM      2  C   LIG d   1       2.900  -0.387  -5.590  0.00  0.00    -0.030 C 
ATOM      3  H   LIG d   1       2.928  -1.467  -5.587  0.00  0.00     0.062 H 
ENDROOT
BRANCH   1   4
ATOM      4  C   LIG d   1       2.649  -0.478  -3.164  0.00  0.00    -0.028 C 
ATOM      5  H   LIG d   1       2.638  -1.552  -3.356  0.00  0.00     0.031 H 
ATOM      6  H   LIG d   1       1.744  -0.198  -2.624  0.00  0.00     0.031 H 
BRANCH   4   7
ATOM      7  C   LIG d   1       3.877  -0.124  -2.323  0.00  0.00    -0.031 C 
ATOM      8  H   LIG d   1       4.267   0.843  -2.638  0.00  0.00     0.031 H 
ATOM      9  H   LIG d   1       3.595  -0.077  -1.271  0.00  0.00     0.031 H 
BRANCH   7  10
ATOM     10  C   LIG d   1       4.936  -1.179  -2.511  0.00  0.00    -0.085 C 
ATOM     11  C   LIG d   1       6.067  -0.874  -3.098  0.00  0.00    -0.080 C 
ATOM     12  H   LIG d   1       4.763  -2.187  -2.163  0.00  0.00     0.057 H 
BRANCH  11  13
ATOM     13  C   LIG d   1       6.358   0.555  -3.477  0.00  0.00    -0.044 C 
ATOM     14  H   LIG d   1       7.387   0.799  -3.209  0.00  0.00     0.027 H 
ATOM     15  H   LIG d   1       6.222   0.682  -4.551  0.00  0.00     0.027 H 
ATOM     16  H   LIG d   1       5.677   1.218  -2.944  0.00  0.00     0.027 H 
ENDBRANCH  11  13
BRANCH  11  17
ATOM     17  C   LIG d   1       7.077  -1.952  -3.394  0.00  0.00    -0.044 C 
ATOM     18  H   LIG d   1       8.071  -1.508  -3.466  0.00  0.00     0.027 H 
ATOM     19  H   LIG d   1       7.067  -2.690  -2.591  0.00  0.00     0.027 H 
ATOM     20  H   LIG d   1       6.826  -2.437  -4.337  0.00  0.00     0.027 H 
ENDBRANCH  11  17
ENDBRANCH   7  10
ENDBRANCH   4   7
ENDBRANCH   1   4
BRANCH   1  21
ATOM     21  C   LIG d   1       2.535   1.763  -4.494  0.00  0.00    -0.044 C 
ATOM     22  H   LIG d   1       3.510   2.241  -4.390  0.00  0.00     0.027 H 
ATOM     23  H   LIG d   1       2.082   2.064  -5.440  0.00  0.00     0.027 H 
ATOM     24  H   LIG d   1       1.892   2.069  -3.670  0.00  0.00     0.027 H 
ENDBRANCH   1  21
BRANCH   2  25
ATOM     25  C   LIG d   1       3.085   0.367  -6.882  0.00  0.00     0.179 C 
ATOM     26  O   LIG d   1       4.462   0.324  -7.265  0.00  0.00    -0.347 OA
ATOM     27  C   LIG d   1       4.737   0.994  -8.500  0.00  0.00     0.058 C 
ATOM     28  C   LIG d   1       3.886   0.363  -9.608  0.00  0.00     0.012 C 
ATOM     29  H   LIG d   1       4.489   2.051  -8.406  0.00  0.00     0.057 H 
ATOM     30  H   LIG d   1       5.794   0.885  -8.745  0.00  0.00     0.057 H 
ATOM     31  C   LIG d   1       2.415   0.397  -9.182  0.00  0.00     0.058 C 
ATOM     32  O   LIG d   1       2.287  -0.234  -7.904  0.00  0.00    -0.347 OA
ATOM     33  H   LIG d   1       2.079   1.432  -9.113  0.00  0.00     0.057 H 
ATOM     34  H   LIG d   1       1.810  -0.136  -9.916  0.00  0.00     0.057 H 
ATOM     35  H   LIG d   1       2.778   1.404  -6.744  0.00  0.00     0.096 H 
BRANCH  28  36
ATOM     36  C   LIG d   1       4.063   1.157 -10.904  0.00  0.00    -0.056 C 
ATOM     37  H   LIG d   1       3.476   2.074 -10.851  0.00  0.00     0.024 H 
ATOM     38  H   LIG d   1       5.116   1.408 -11.036  0.00  0.00     0.024 H 
ATOM     39  H   LIG d   1       3.725   0.556 -11.748  0.00  0.00     0.024 H 
ENDBRANCH  28  36
BRANCH  28  40
ATOM     40  C   LIG d   1       4.323  -1.086  -9.829  0.00  0.00    -0.056 C 
ATOM     41  H   LIG d   1       4.373  -1.292 -10.899  0.00  0.00     0.024 H 
ATOM     42  H   LIG d   1       5.306  -1.242  -9.383  0.00  0.00     0.024 H 
ATOM     43  H   LIG d   1       3.602  -1.759  -9.364  0.00  0.00     0.024 H 
ENDBRANCH  28  40
ENDBRANCH   2  25
TORSDOF 9
ENDMDL
MODEL 4
REMARK VINA RESULT:      -5.2      1.768      5.769
REMARK  9 active torsions:
REMARK  status: ('A' for Active; 'I' for Inactive)
REMARK    1  A    between atoms: C_1  and  C_2 
REMARK    2  A    between atoms: C_2  and  C_17 
REMARK    3  A    between atoms: C_3  and  C_4 
REMARK    4  A    between atoms: C_4  and  C_5 
REMARK    5  A    between atoms: C_5  and  C_6 
REMARK    6  A    between atoms: C_6  and  C_16 
REMARK    7  A    between atoms: C_7  and  C_8 
REMARK    8  A    between atoms: C_11  and  C_14 
REMARK    9  A    between atoms: C_11  and  C_15 
ROOT
ATOM      1  C   LIG d   1       3.551  -0.800  -4.256  0.00  0.00    -0.071 C 
ATOM      2  C   LIG d   1       3.283   0.093  -5.175  0.00  0.00    -0.030 C 
ATOM      3  H   LIG d   1       2.932   1.074  -4.890  0.00  0.00     0.062 H 
ENDROOT
BRANCH   1   4
ATOM      4  C   LIG d   1       3.248  -0.507  -2.809  0.00  0.00    -0.028 C 
ATOM      5  H   LIG d   1       2.683  -1.335  -2.381  0.00  0.00     0.031 H 
ATOM      6  H   LIG d   1       2.660   0.409  -2.738  0.00  0.00     0.031 H 
BRANCH   4   7
ATOM      7  C   LIG d   1       4.559  -0.333  -2.039  0.00  0.00    -0.031 C 
ATOM      8  H   LIG d   1       4.341  -0.094  -0.999  0.00  0.00     0.031 H 
ATOM      9  H   LIG d   1       5.132  -1.259  -2.086  0.00  0.00     0.031 H 
BRANCH   7  10
ATOM     10  C   LIG d   1       5.360   0.785  -2.656  0.00  0.00    -0.085 C 
ATOM     11  C   LIG d   1       6.529   0.535  -3.190  0.00  0.00    -0.080 C 
ATOM     12  H   LIG d   1       4.970   1.792  -2.658  0.00  0.00     0.057 H 
BRANCH  11  13
ATOM     13  C   LIG d   1       7.023  -0.886  -3.294  0.00  0.00    -0.044 C 
ATOM     14  H   LIG d   1       6.909  -1.381  -2.329  0.00  0.00     0.027 H 
ATOM     15  H   LIG d   1       6.442  -1.418  -4.047  0.00  0.00     0.027 H 
ATOM     16  H   LIG d   1       8.075  -0.884  -3.580  0.00  0.00     0.027 H 
ENDBRANCH  11  13
BRANCH  11  17
ATOM     17  C   LIG d   1       7.383   1.668  -3.700  0.00  0.00    -0.044 C 
ATOM     18  H   LIG d   1       7.575   1.526  -4.764  0.00  0.00     0.027 H 
ATOM     19  H   LIG d   1       6.861   2.612  -3.547  0.00  0.00     0.027 H 
ATOM     20  H   LIG d   1       8.329   1.683  -3.158  0.00  0.00     0.027 H 
ENDBRANCH  11  17
ENDBRANCH   7  10
ENDBRANCH   4   7
ENDBRANCH   1   4
BRANCH   1  21
ATOM     21  C   LIG d   1       4.162  -2.121  -4.644  0.00  0.00    -0.044 C 
ATOM     22  H   LIG d   1       4.671  -2.018  -5.603  0.00  0.00     0.027 H 
ATOM     23  H   LIG d   1       4.881  -2.426  -3.883  0.00  0.00     0.027 H 
ATOM     24  H   LIG d   1       3.380  -2.874  -4.728  0.00  0.00     0.027 H 
ENDBRANCH   1  21
BRANCH   2  25
ATOM     25  C   LIG d   1       3.463  -0.247  -6.633  0.00  0.00     0.179 C 
ATOM     26  O   LIG d   1       2.249   0.019  -7.338  0.00  0.00    -0.347 OA
ATOM     27  C   LIG d   1       2.327  -0.249  -8.741  0.00  0.00     0.058 C 
ATOM     28  C   LIG d   1       3.456   0.594  -9.347  0.00  0.00     0.012 C 
ATOM     29  H   LIG d   1       2.536  -1.307  -8.901  0.00  0.00     0.057 H 
ATOM     30  H   LIG d   1       1.382   0.014  -9.216  0.00  0.00     0.057 H 
ATOM     31  C   LIG d   1       4.750   0.317  -8.574  0.00  0.00     0.058 C 
ATOM     32  O   LIG d   1       4.517   0.548  -7.181  0.00  0.00    -0.347 OA
ATOM     33  H   LIG d   1       5.050  -0.720  -8.726  0.00  0.00     0.057 H 
ATOM     34  H   LIG d   1       5.537   0.981  -8.930  0.00  0.00     0.057 H 
ATOM     35  H   LIG d   1       3.717  -1.303  -6.730  0.00  0.00     0.096 H 
BRANCH  28  36
ATOM     36  C   LIG d   1       3.646   0.217 -10.817  0.00  0.00    -0.056 C 
ATOM     37  H   LIG d   1       3.195   0.982 -11.450  0.00  0.00     0.024 H 
ATOM     38  H   LIG d   1       4.711   0.144 -11.039  0.00  0.00     0.024 H 
ATOM     39  H   LIG d   1       3.168  -0.744 -11.010  0.00  0.00     0.024 H 
ENDBRANCH  28  36
BRANCH  28  40
ATOM     40  C   LIG d   1       3.102   2.079  -9.238  0.00  0.00    -0.056 C 
ATOM     41  H   LIG d   1       3.774   2.561  -8.527  0.00  0.00     0.024 H 
ATOM     42  H   LIG d   1       3.207   2.550 -10.215  0.00  0.00     0.024 H 
ATOM     43  H   LIG d   1       2.073   2.183  -8.893  0.00  0.00     0.024 H 
ENDBRANCH  28  40
ENDBRANCH   2  25
TORSDOF 9
ENDMDL
MODEL 5
REMARK VINA RESULT:      -5.0      2.384      3.785
REMARK  9 active torsions:
REMARK  status: ('A' for Active; 'I' for Inactive)
REMARK    1  A    between atoms: C_1  and  C_2 
REMARK    2  A    between atoms: C_2  and  C_17 
REMARK    3  A    between atoms: C_3  and  C_4 
REMARK    4  A    between atoms: C_4  and  C_5 
REMARK    5  A    between atoms: C_5  and  C_6 
REMARK    6  A    between atoms: C_6  and  C_16 
REMARK    7  A    between atoms: C_7  and  C_8 
REMARK    8  A    between atoms: C_11  and  C_14 
REMARK    9  A    between atoms: C_11  and  C_15 
ROOT
ATOM      1  C   LIG d   1       3.245  -0.441  -7.882  0.00  0.00    -0.071 C 
ATOM      2  C   LIG d   1       3.790  -0.999  -6.831  0.00  0.00    -0.030 C 
ATOM      3  H   LIG d   1       4.034  -2.052  -6.844  0.00  0.00     0.062 H 
ENDROOT
BRANCH   1   4
ATOM      4  C   LIG d   1       2.838  -1.287  -9.061  0.00  0.00    -0.028 C 
ATOM      5  H   LIG d   1       2.013  -1.939  -8.772  0.00  0.00     0.031 H 
ATOM      6  H   LIG d   1       3.684  -1.895  -9.382  0.00  0.00     0.031 H 
BRANCH   4   7
ATOM      7  C   LIG d   1       2.393  -0.381 -10.210  0.00  0.00    -0.031 C 
ATOM      8  H   LIG d   1       2.136   0.603  -9.819  0.00  0.00     0.031 H 
ATOM      9  H   LIG d   1       3.204  -0.285 -10.931  0.00  0.00     0.031 H 
BRANCH   7  10
ATOM     10  C   LIG d   1       1.188  -0.983 -10.887  0.00  0.00    -0.085 C 
ATOM     11  C   LIG d   1       1.291  -1.457 -12.104  0.00  0.00    -0.080 C 
ATOM     12  H   LIG d   1       0.241  -1.025 -10.370  0.00  0.00     0.057 H 
BRANCH  11  13
ATOM     13  C   LIG d   1       2.636  -1.508 -12.783  0.00  0.00    -0.044 C 
ATOM     14  H   LIG d   1       3.335  -0.862 -12.251  0.00  0.00     0.027 H 
ATOM     15  H   LIG d   1       3.008  -2.532 -12.775  0.00  0.00     0.027 H 
ATOM     16  H   LIG d   1       2.535  -1.167 -13.813  0.00  0.00     0.027 H 
ENDBRANCH  11  13
BRANCH  11  17
ATOM     17  C   LIG d   1       0.064  -1.950 -12.826  0.00  0.00    -0.044 C 
ATOM     18  H   LIG d   1       0.164  -1.747 -13.893  0.00  0.00     0.027 H 
ATOM     19  H   LIG d   1      -0.043  -3.024 -12.670  0.00  0.00     0.027 H 
ATOM     20  H   LIG d   1      -0.817  -1.437 -12.440  0.00  0.00     0.027 H 
ENDBRANCH  11  17
ENDBRANCH   7  10
ENDBRANCH   4   7
ENDBRANCH   1   4
BRANCH   1  21
ATOM     21  C   LIG d   1       3.025   1.050  -7.915  0.00  0.00    -0.044 C 
ATOM     22  H   LIG d   1       2.048   1.263  -8.350  0.00  0.00     0.027 H 
ATOM     23  H   LIG d   1       3.063   1.445  -6.899  0.00  0.00     0.027 H 
ATOM     24  H   LIG d   1       3.801   1.519  -8.518  0.00  0.00     0.027 H 
ENDBRANCH   1  21
BRANCH   2  25
ATOM     25  C   LIG d   1       4.079  -0.174  -5.603  0.00  0.00     0.179 C 
ATOM     26  O   LIG d   1       2.934  -0.180  -4.746  0.00  0.00    -0.347 OA
ATOM     27  C   LIG d   1       3.119   0.559  -3.534  0.00  0.00     0.058 C 
ATOM     28  C   LIG d   1       4.318  -0.022  -2.776  0.00  0.00     0.012 C 
ATOM     29  H   LIG d   1       3.307   1.606  -3.769  0.00  0.00     0.057 H 
ATOM     30  H   LIG d   1       2.223   0.477  -2.918  0.00  0.00     0.057 H 
ATOM     31  C   LIG d   1       5.535  -0.029  -3.706  0.00  0.00     0.058 C 
ATOM     32  O   LIG d   1       5.197  -0.729  -4.907  0.00  0.00    -0.347 OA
ATOM     33  H   LIG d   1       5.815   0.996  -3.948  0.00  0.00     0.057 H 
ATOM     34  H   LIG d   1       6.369  -0.529  -3.212  0.00  0.00     0.057 H 
ATOM     35  H   LIG d   1       4.307   0.850  -5.899  0.00  0.00     0.096 H 
BRANCH  28  36
ATOM     36  C   LIG d   1       4.615   0.842  -1.549  0.00  0.00    -0.056 C 
ATOM     37  H   LIG d   1       3.684   1.259  -1.164  0.00  0.00     0.024 H 
ATOM     38  H   LIG d   1       5.085   0.230  -0.778  0.00  0.00     0.024 H 
ATOM     39  H   LIG d   1       5.288   1.653  -1.829  0.00  0.00     0.024 H 
ENDBRANCH  28  36
BRANCH  28  40
ATOM     40  C   LIG d   1       4.002  -1.452  -2.334  0.00  0.00    -0.056 C 
ATOM     41  H   LIG d   1       3.167  -1.838  -2.921  0.00  0.00     0.024 H 
ATOM     42  H   LIG d   1       4.877  -2.083  -2.489  0.00  0.00     0.024 H 
ATOM     43  H   LIG d   1       3.734  -1.456  -1.277  0.00  0.00     0.024 H 
ENDBRANCH  28  40
ENDBRANCH   2  25
TORSDOF 9
ENDMDL
MODEL 6
REMARK VINA RESULT:      -4.9      2.069      6.273
REMARK  9 active torsions:
REMARK  status: ('A' for Active; 'I' for Inactive)
REMARK    1  A    between atoms: C_1  and  C_2 
REMARK    2  A    between atoms: C_2  and  C_17 
REMARK    3  A    between atoms: C_3  and  C_4 
REMARK    4  A    between atoms: C_4  and  C_5 
REMARK    5  A    between atoms: C_5  and  C_6 
REMARK    6  A    between atoms: C_6  and  C_16 
REMARK    7  A    between atoms: C_7  and  C_8 
REMARK    8  A    between atoms: C_11  and  C_14 
REMARK    9  A    between atoms: C_11  and  C_15 
ROOT
ATOM      1  C   LIG d   1       6.170  -1.279  -5.583  0.00  0.00    -0.071 C 
ATOM      2  C   LIG d   1       5.810  -0.524  -6.591  0.00  0.00    -0.030 C 
ATOM      3  H   LIG d   1       6.368   0.371  -6.822  0.00  0.00     0.062 H 
ENDROOT
BRANCH   1   4
ATOM      4  C   LIG d   1       7.281  -0.833  -4.667  0.00  0.00    -0.028 C 
ATOM      5  H   LIG d   1       7.559   0.194  -4.906  0.00  0.00     0.031 H 
ATOM      6  H   LIG d   1       8.145  -1.484  -4.800  0.00  0.00     0.031 H 
BRANCH   4   7
ATOM      7  C   LIG d   1       6.804  -0.906  -3.215  0.00  0.00    -0.031 C 
ATOM      8  H   LIG d   1       6.264  -1.839  -3.056  0.00  0.00     0.031 H 
ATOM      9  H   LIG d   1       7.665  -0.867  -2.548  0.00  0.00     0.031 H 
BRANCH   7  10
ATOM     10  C   LIG d   1       5.892   0.258  -2.927  0.00  0.00    -0.085 C 
ATOM     11  C   LIG d   1       4.712   0.049  -2.398  0.00  0.00    -0.080 C 
ATOM     12  H   LIG d   1       6.210   1.264  -3.156  0.00  0.00     0.057 H 
BRANCH  11  13
ATOM     13  C   LIG d   1       4.313  -1.339  -1.967  0.00  0.00    -0.044 C 
ATOM     14  H   LIG d   1       3.523  -1.273  -1.218  0.00  0.00     0.027 H 
ATOM     15  H   LIG d   1       3.950  -1.897  -2.830  0.00  0.00     0.027 H 
ATOM     16  H   LIG d   1       5.177  -1.849  -1.541  0.00  0.00     0.027 H 
ENDBRANCH  11  13
BRANCH  11  17
ATOM     17  C   LIG d   1       3.752   1.198  -2.219  0.00  0.00    -0.044 C 
ATOM     18  H   LIG d   1       2.734   0.813  -2.149  0.00  0.00     0.027 H 
ATOM     19  H   LIG d   1       4.000   1.739  -1.305  0.00  0.00     0.027 H 
ATOM     20  H   LIG d   1       3.828   1.871  -3.072  0.00  0.00     0.027 H 
ENDBRANCH  11  17
ENDBRANCH   7  10
ENDBRANCH   4   7
ENDBRANCH   1   4
BRANCH   1  21
ATOM     21  C   LIG d   1       5.475  -2.593  -5.339  0.00  0.00    -0.044 C 
ATOM     22  H   LIG d   1       5.547  -3.214  -6.233  0.00  0.00     0.027 H 
ATOM     23  H   LIG d   1       5.951  -3.106  -4.503  0.00  0.00     0.027 H 
ATOM     24  H   LIG d   1       4.426  -2.413  -5.106  0.00  0.00     0.027 H 
ENDBRANCH   1  21
BRANCH   2  25
ATOM     25  C   LIG d   1       4.616  -0.905  -7.429  0.00  0.00     0.179 C 
ATOM     26  O   LIG d   1       3.581   0.064  -7.251  0.00  0.00    -0.347 OA
ATOM     27  C   LIG d   1       2.409  -0.196  -8.029  0.00  0.00     0.058 C 
ATOM     28  C   LIG d   1       2.797  -0.250  -9.511  0.00  0.00     0.012 C 
ATOM     29  H   LIG d   1       1.975  -1.151  -7.730  0.00  0.00     0.057 H 
ATOM     30  H   LIG d   1       1.682   0.601  -7.872  0.00  0.00     0.057 H 
ATOM     31  C   LIG d   1       3.920  -1.278  -9.691  0.00  0.00     0.058 C 
ATOM     32  O   LIG d   1       4.996  -0.950  -8.807  0.00  0.00    -0.347 OA
ATOM     33  H   LIG d   1       3.544  -2.274  -9.454  0.00  0.00     0.057 H 
ATOM     34  H   LIG d   1       4.273  -1.256 -10.722  0.00  0.00     0.057 H 
ATOM     35  H   LIG d   1       4.254  -1.886  -7.120  0.00  0.00     0.096 H 
BRANCH  28  36
ATOM     36  C   LIG d   1       1.584  -0.666 -10.345  0.00  0.00    -0.056 C 
ATOM     37  H   LIG d   1       0.671  -0.348  -9.841  0.00  0.00     0.024 H 
ATOM     38  H   LIG d   1       1.639  -0.195 -11.327  0.00  0.00     0.024 H 
ATOM     39  H   LIG d   1       1.576  -1.750 -10.462  0.00  0.00     0.024 H 
ENDBRANCH  28  36
BRANCH  28  40
ATOM     40  C   LIG d   1       3.285   1.127  -9.964  0.00  0.00    -0.056 C 
ATOM     41  H   LIG d   1       2.838   1.372 -10.928  0.00  0.00     0.024 H 
ATOM     42  H   LIG d   1       2.995   1.876  -9.228  0.00  0.00     0.024 H 
ATOM     43  H   LIG d   1       4.371   1.115 -10.061  0.00  0.00     0.024 H 
ENDBRANCH  28  40
ENDBRANCH   2  25
TORSDOF 9
ENDMDL
MODEL 7
REMARK VINA RESULT:      -4.8      4.906      7.078
REMARK  9 active torsions:
REMARK  status: ('A' for Active; 'I' for Inactive)
REMARK    1  A    between atoms: C_1  and  C_2 
REMARK    2  A    between atoms: C_2  and  C_17 
REMARK    3  A    between atoms: C_3  and  C_4 
REMARK    4  A    between atoms: C_4  and  C_5 
REMARK    5  A    between atoms: C_5  and  C_6 
REMARK    6  A    between atoms: C_6  and  C_16 
REMARK    7  A    between atoms: C_7  and  C_8 
REMARK    8  A    between atoms: C_11  and  C_14 
REMARK    9  A    between atoms: C_11  and  C_15 
ROOT
ATOM      1  C   LIG d   1       5.750  -4.616  -5.558  0.00  0.00    -0.071 C 
ATOM      2  C   LIG d   1       4.744  -3.923  -5.088  0.00  0.00    -0.030 C 
ATOM      3  H   LIG d   1       3.734  -4.170  -5.379  0.00  0.00     0.062 H 
ENDROOT
BRANCH   1   4
ATOM      4  C   LIG d   1       5.512  -5.675  -6.604  0.00  0.00    -0.028 C 
ATOM      5  H   LIG d   1       5.984  -5.373  -7.540  0.00  0.00     0.031 H 
ATOM      6  H   LIG d   1       4.440  -5.797  -6.761  0.00  0.00     0.031 H 
BRANCH   4   7
ATOM      7  C   LIG d   1       6.115  -7.001  -6.134  0.00  0.00    -0.031 C 
ATOM      8  H   LIG d   1       6.540  -7.529  -6.987  0.00  0.00     0.031 H 
ATOM      9  H   LIG d   1       6.897  -6.804  -5.402  0.00  0.00     0.031 H 
BRANCH   7  10
ATOM     10  C   LIG d   1       5.038  -7.846  -5.504  0.00  0.00    -0.085 C 
ATOM     11  C   LIG d   1       5.361  -8.783  -4.648  0.00  0.00    -0.080 C 
ATOM     12  H   LIG d   1       4.002  -7.679  -5.757  0.00  0.00     0.057 H 
BRANCH  11  13
ATOM     13  C   LIG d   1       6.792  -8.940  -4.203  0.00  0.00    -0.044 C 
ATOM     14  H   LIG d   1       7.440  -8.353  -4.855  0.00  0.00     0.027 H 
ATOM     15  H   LIG d   1       6.895  -8.589  -3.177  0.00  0.00     0.027 H 
ATOM     16  H   LIG d   1       7.076  -9.991  -4.258  0.00  0.00     0.027 H 
ENDBRANCH  11  13
BRANCH  11  17
ATOM     17  C   LIG d   1       4.299  -9.707  -4.107  0.00  0.00    -0.044 C 
ATOM     18  H   LIG d   1       4.740 -10.370  -3.361  0.00  0.00     0.027 H 
ATOM     19  H   LIG d   1       3.506  -9.118  -3.646  0.00  0.00     0.027 H 
ATOM     20  H   LIG d   1       3.885 -10.301  -4.921  0.00  0.00     0.027 H 
ENDBRANCH  11  17
ENDBRANCH   7  10
ENDBRANCH   4   7
ENDBRANCH   1   4
BRANCH   1  21
ATOM     21  C   LIG d   1       7.146  -4.358  -5.053  0.00  0.00    -0.044 C 
ATOM     22  H   LIG d   1       7.320  -3.282  -5.002  0.00  0.00     0.027 H 
ATOM     23  H   LIG d   1       7.259  -4.791  -4.059  0.00  0.00     0.027 H 
ATOM     24  H   LIG d   1       7.868  -4.810  -5.732  0.00  0.00     0.027 H 
ENDBRANCH   1  21
BRANCH   2  25
ATOM     25  C   LIG d   1       4.995  -2.778  -4.139  0.00  0.00     0.179 C 
ATOM     26  O   LIG d   1       4.803  -1.539  -4.826  0.00  0.00    -0.347 OA
ATOM     27  C   LIG d   1       4.994  -0.387  -4.000  0.00  0.00     0.058 C 
ATOM     28  C   LIG d   1       4.026  -0.460  -2.813  0.00  0.00     0.012 C 
ATOM     29  H   LIG d   1       6.020  -0.366  -3.633  0.00  0.00     0.057 H 
ATOM     30  H   LIG d   1       4.792   0.514  -4.579  0.00  0.00     0.057 H 
ATOM     31  C   LIG d   1       4.226  -1.798  -2.093  0.00  0.00     0.058 C 
ATOM     32  O   LIG d   1       4.085  -2.861  -3.040  0.00  0.00    -0.347 OA
ATOM     33  H   LIG d   1       5.224  -1.831  -1.655  0.00  0.00     0.057 H 
ATOM     34  H   LIG d   1       3.478  -1.905  -1.307  0.00  0.00     0.057 H 
ATOM     35  H   LIG d   1       6.019  -2.833  -3.767  0.00  0.00     0.096 H 
BRANCH  28  36
ATOM     36  C   LIG d   1       4.313   0.690  -1.846  0.00  0.00    -0.056 C 
ATOM     37  H   LIG d   1       3.691   0.581  -0.957  0.00  0.00     0.024 H 
ATOM     38  H   LIG d   1       5.364   0.669  -1.558  0.00  0.00     0.024 H 
ATOM     39  H   LIG d   1       4.089   1.639  -2.333  0.00  0.00     0.024 H 
ENDBRANCH  28  36
BRANCH  28  40
ATOM     40  C   LIG d   1       2.585  -0.361  -3.318  0.00  0.00    -0.056 C 
ATOM     41  H   LIG d   1       2.541  -0.690  -4.358  0.00  0.00     0.024 H 
ATOM     42  H   LIG d   1       1.941  -0.995  -2.709  0.00  0.00     0.024 H 
ATOM     43  H   LIG d   1       2.246   0.673  -3.251  0.00  0.00     0.024 H 
ENDBRANCH  28  40
ENDBRANCH   2  25
TORSDOF 9
ENDMDL
MODEL 8
REMARK VINA RESULT:      -4.8      2.958      6.807
REMARK  9 active torsions:
REMARK  status: ('A' for Active; 'I' for Inactive)
REMARK    1  A    between atoms: C_1  and  C_2 
REMARK    2  A    between atoms: C_2  and  C_17 
REMARK    3  A    between atoms: C_3  and  C_4 
REMARK    4  A    between atoms: C_4  and  C_5 
REMARK    5  A    between atoms: C_5  and  C_6 
REMARK    6  A    between atoms: C_6  and  C_16 
REMARK    7  A    between atoms: C_7  and  C_8 
REMARK    8  A    between atoms: C_11  and  C_14 
REMARK    9  A    between atoms: C_11  and  C_15 
ROOT
ATOM      1  C   LIG d   1       3.037  -0.058  -6.841  0.00  0.00    -0.071 C 
ATOM      2  C   LIG d   1       2.522  -0.045  -8.044  0.00  0.00    -0.030 C 
ATOM      3  H   LIG d   1       1.707   0.625  -8.276  0.00  0.00     0.062 H 
ENDROOT
BRANCH   1   4
ATOM      4  C   LIG d   1       2.411   0.764  -5.743  0.00  0.00    -0.028 C 
ATOM      5  H   LIG d   1       1.374   0.983  -6.000  0.00  0.00     0.031 H 
ATOM      6  H   LIG d   1       2.962   1.698  -5.629  0.00  0.00     0.031 H 
BRANCH   4   7
ATOM      7  C   LIG d   1       2.456  -0.020  -4.430  0.00  0.00    -0.031 C 
ATOM      8  H   LIG d   1       1.448  -0.118  -4.030  0.00  0.00     0.031 H 
ATOM      9  H   LIG d   1       2.871  -1.011  -4.613  0.00  0.00     0.031 H 
BRANCH   7  10
ATOM     10  C   LIG d   1       3.322   0.712  -3.437  0.00  0.00    -0.085 C 
ATOM     11  C   LIG d   1       3.909   0.052  -2.470  0.00  0.00    -0.080 C 
ATOM     12  H   LIG d   1       3.459   1.780  -3.523  0.00  0.00     0.057 H 
BRANCH  11  13
ATOM     13  C   LIG d   1       3.816  -1.451  -2.417  0.00  0.00    -0.044 C 
ATOM     14  H   LIG d   1       4.773  -1.884  -2.711  0.00  0.00     0.027 H 
ATOM     15  H   LIG d   1       3.571  -1.765  -1.403  0.00  0.00     0.027 H 
ATOM     16  H   LIG d   1       3.038  -1.791  -3.100  0.00  0.00     0.027 H 
ENDBRANCH  11  13
BRANCH  11  17
ATOM     17  C   LIG d   1       4.677   0.797  -1.408  0.00  0.00    -0.044 C 
ATOM     18  H   LIG d   1       5.593   1.203  -1.841  0.00  0.00     0.027 H 
ATOM     19  H   LIG d   1       4.066   1.612  -1.022  0.00  0.00     0.027 H 
ATOM     20  H   LIG d   1       4.930   0.115  -0.596  0.00  0.00     0.027 H 
ENDBRANCH  11  17
ENDBRANCH   7  10
ENDBRANCH   4   7
ENDBRANCH   1   4
BRANCH   1  21
ATOM     21  C   LIG d   1       4.257  -0.895  -6.551  0.00  0.00    -0.044 C 
ATOM     22  H   LIG d   1       4.032  -1.944  -6.745  0.00  0.00     0.027 H 
ATOM     23  H   LIG d   1       5.077  -0.575  -7.195  0.00  0.00     0.027 H 
ATOM     24  H   LIG d   1       4.544  -0.771  -5.508  0.00  0.00     0.027 H 
ENDBRANCH   1  21
BRANCH   2  25
ATOM     25  C   LIG d   1       3.067  -0.964  -9.108  0.00  0.00     0.179 C 
ATOM     26  O   LIG d   1       2.123  -2.006  -9.366  0.00  0.00    -0.347 OA
ATOM     27  C   LIG d   1       2.539  -2.920 -10.385  0.00  0.00     0.058 C 
ATOM     28  C   LIG d   1       2.794  -2.140 -11.680  0.00  0.00     0.012 C 
ATOM     29  H   LIG d   1       3.455  -3.422 -10.075  0.00  0.00     0.057 H 
ATOM     30  H   LIG d   1       1.755  -3.659 -10.554  0.00  0.00     0.057 H 
ATOM     31  C   LIG d   1       3.793  -1.014 -11.390  0.00  0.00     0.058 C 
ATOM     32  O   LIG d   1       3.298  -0.221 -10.307  0.00  0.00    -0.347 OA
ATOM     33  H   LIG d   1       4.757  -1.444 -11.117  0.00  0.00     0.057 H 
ATOM     34  H   LIG d   1       3.909  -0.392 -12.278  0.00  0.00     0.057 H 
ATOM     35  H   LIG d   1       4.005  -1.400  -8.764  0.00  0.00     0.096 H 
BRANCH  28  36
ATOM     36  C   LIG d   1       3.373  -3.079 -12.739  0.00  0.00    -0.056 C 
ATOM     37  H   LIG d   1       4.446  -3.190 -12.578  0.00  0.00     0.024 H 
ATOM     38  H   LIG d   1       2.892  -4.055 -12.662  0.00  0.00     0.024 H 
ATOM     39  H   LIG d   1       3.195  -2.664 -13.731  0.00  0.00     0.024 H 
ENDBRANCH  28  36
BRANCH  28  40
ATOM     40  C   LIG d   1       1.480  -1.541 -12.186  0.00  0.00    -0.056 C 
ATOM     41  H   LIG d   1       1.449  -0.477 -11.946  0.00  0.00     0.024 H 
ATOM     42  H   LIG d   1       1.413  -1.672 -13.266  0.00  0.00     0.024 H 
ATOM     43  H   LIG d   1       0.642  -2.045 -11.706  0.00  0.00     0.024 H 
ENDBRANCH  28  40
ENDBRANCH   2  25
TORSDOF 9
ENDMDL
MODEL 9
REMARK VINA RESULT:      -4.7      4.048      5.753
REMARK  9 active torsions:
REMARK  status: ('A' for Active; 'I' for Inactive)
REMARK    1  A    between atoms: C_1  and  C_2 
REMARK    2  A    between atoms: C_2  and  C_17 
REMARK    3  A    between atoms: C_3  and  C_4 
REMARK    4  A    between atoms: C_4  and  C_5 
REMARK    5  A    between atoms: C_5  and  C_6 
REMARK    6  A    between atoms: C_6  and  C_16 
REMARK    7  A    between atoms: C_7  and  C_8 
REMARK    8  A    between atoms: C_11  and  C_14 
REMARK    9  A    between atoms: C_11  and  C_15 
ROOT
ATOM      1  C   LIG d   1       8.728   1.514  -4.498  0.00  0.00    -0.071 C 
ATOM      2  C   LIG d   1       7.619   1.848  -3.887  0.00  0.00    -0.030 C 
ATOM      3  H   LIG d   1       7.428   2.882  -3.640  0.00  0.00     0.062 H 
ENDROOT
BRANCH   1   4
ATOM      4  C   LIG d   1       9.796   2.550  -4.741  0.00  0.00    -0.028 C 
ATOM      5  H   LIG d   1       9.849   2.773  -5.807  0.00  0.00     0.031 H 
ATOM      6  H   LIG d   1      10.758   2.166  -4.401  0.00  0.00     0.031 H 
BRANCH   4   7
ATOM      7  C   LIG d   1       9.453   3.826  -3.970  0.00  0.00    -0.031 C 
ATOM      8  H   LIG d   1       8.474   3.719  -3.505  0.00  0.00     0.031 H 
ATOM      9  H   LIG d   1      10.204   3.997  -3.199  0.00  0.00     0.031 H 
BRANCH   7  10
ATOM     10  C   LIG d   1       9.434   4.996  -4.919  0.00  0.00    -0.085 C 
ATOM     11  C   LIG d   1       9.425   6.219  -4.450  0.00  0.00    -0.080 C 
ATOM     12  H   LIG d   1       9.427   4.827  -5.986  0.00  0.00     0.057 H 
BRANCH  11  13
ATOM     13  C   LIG d   1       9.554   6.460  -2.968  0.00  0.00    -0.044 C 
ATOM     14  H   LIG d   1      10.573   6.234  -2.651  0.00  0.00     0.027 H 
ATOM     15  H   LIG d   1       9.327   7.503  -2.747  0.00  0.00     0.027 H 
ATOM     16  H   LIG d   1       8.855   5.816  -2.433  0.00  0.00     0.027 H 
ENDBRANCH  11  13
BRANCH  11  17
ATOM     17  C   LIG d   1       9.286   7.387  -5.393  0.00  0.00    -0.044 C 
ATOM     18  H   LIG d   1       9.209   7.019  -6.417  0.00  0.00     0.027 H 
ATOM     19  H   LIG d   1       8.388   7.951  -5.142  0.00  0.00     0.027 H 
ATOM     20  H   LIG d   1      10.159   8.033  -5.303  0.00  0.00     0.027 H 
ENDBRANCH  11  17
ENDBRANCH   7  10
ENDBRANCH   4   7
ENDBRANCH   1   4
BRANCH   1  21
ATOM     21  C   LIG d   1       8.937   0.095  -4.959  0.00  0.00    -0.044 C 
ATOM     22  H   LIG d   1       8.394  -0.068  -5.891  0.00  0.00     0.027 H 
ATOM     23  H   LIG d   1      10.001  -0.081  -5.123  0.00  0.00     0.027 H 
ATOM     24  H   LIG d   1       8.568  -0.593  -4.199  0.00  0.00     0.027 H 
ENDBRANCH   1  21
BRANCH   2  25
ATOM     25  C   LIG d   1       6.607   0.789  -3.528  0.00  0.00     0.179 C 
ATOM     26  O   LIG d   1       5.815   1.242  -2.428  0.00  0.00    -0.347 OA
ATOM     27  C   LIG d   1       4.803   0.313  -2.027  0.00  0.00     0.058 C 
ATOM     28  C   LIG d   1       3.887   0.027  -3.223  0.00  0.00     0.012 C 
ATOM     29  H   LIG d   1       5.269  -0.615  -1.694  0.00  0.00     0.057 H 
ATOM     30  H   LIG d   1       4.216   0.741  -1.214  0.00  0.00     0.057 H 
ATOM     31  C   LIG d   1       4.746  -0.440  -4.403  0.00  0.00     0.058 C 
ATOM     32  O   LIG d   1       5.762   0.536  -4.653  0.00  0.00    -0.347 OA
ATOM     33  H   LIG d   1       5.211  -1.396  -4.160  0.00  0.00     0.057 H 
ATOM     34  H   LIG d   1       4.121  -0.553  -5.288  0.00  0.00     0.057 H 
ATOM     35  H   LIG d   1       7.126  -0.129  -3.250  0.00  0.00     0.096 H 
BRANCH  28  36
ATOM     36  C   LIG d   1       2.887  -1.069  -2.852  0.00  0.00    -0.056 C 
ATOM     37  H   LIG d   1       1.906  -0.623  -2.683  0.00  0.00     0.024 H 
ATOM     38  H   LIG d   1       2.821  -1.792  -3.666  0.00  0.00     0.024 H 
ATOM     39  H   LIG d   1       3.219  -1.574  -1.945  0.00  0.00     0.024 H 
ENDBRANCH  28  36
BRANCH  28  40
ATOM     40  C   LIG d   1       3.135   1.302  -3.610  0.00  0.00    -0.056 C 
ATOM     41  H   LIG d   1       3.535   2.145  -3.045  0.00  0.00     0.024 H 
ATOM     42  H   LIG d   1       3.259   1.488  -4.676  0.00  0.00     0.024 H 
ATOM     43  H   LIG d   1       2.076   1.183  -3.382  0.00  0.00     0.024 H 
ENDBRANCH  28  40
ENDBRANCH   2  25
TORSDOF 9
ENDMDL
MODEL 10
REMARK VINA RESULT:      -4.6      1.897      2.937
REMARK  9 active torsions:
REMARK  status: ('A' for Active; 'I' for Inactive)
REMARK    1  A    between atoms: C_1  and  C_2 
REMARK    2  A    between atoms: C_2  and  C_17 
REMARK    3  A    between atoms: C_3  and  C_4 
REMARK    4  A    between atoms: C_4  and  C_5 
REMARK    5  A    between atoms: C_5  and  C_6 
REMARK    6  A    between atoms: C_6  and  C_16 
REMARK    7  A    between atoms: C_7  and  C_8 
REMARK    8  A    between atoms: C_11  and  C_14 
REMARK    9  A    between atoms: C_11  and  C_15 
ROOT
ATOM      1  C   LIG d   1       4.893  -0.367  -8.457  0.00  0.00    -0.071 C 
ATOM      2  C   LIG d   1       4.707   0.290  -7.340  0.00  0.00    -0.030 C 
ATOM      3  H   LIG d   1       4.738   1.370  -7.336  0.00  0.00     0.062 H 
ENDROOT
BRANCH   1   4
ATOM      4  C   LIG d   1       5.278   0.373  -9.712  0.00  0.00    -0.028 C 
ATOM      5  H   LIG d   1       5.738  -0.320 -10.417  0.00  0.00     0.031 H 
ATOM      6  H   LIG d   1       5.988   1.163  -9.465  0.00  0.00     0.031 H 
BRANCH   4   7
ATOM      7  C   LIG d   1       4.028   0.988 -10.345  0.00  0.00    -0.031 C 
ATOM      8  H   LIG d   1       3.246   1.080  -9.591  0.00  0.00     0.031 H 
ATOM      9  H   LIG d   1       4.269   1.975 -10.740  0.00  0.00     0.031 H 
BRANCH   7  10
ATOM     10  C   LIG d   1       3.545   0.103 -11.465  0.00  0.00    -0.085 C 
ATOM     11  C   LIG d   1       2.458  -0.611 -11.312  0.00  0.00    -0.080 C 
ATOM     12  H   LIG d   1       4.095   0.058 -12.393  0.00  0.00     0.057 H 
BRANCH  11  13
ATOM     13  C   LIG d   1       1.625  -0.460 -10.065  0.00  0.00    -0.044 C 
ATOM     14  H   LIG d   1       0.889   0.331 -10.215  0.00  0.00     0.027 H 
ATOM     15  H   LIG d   1       1.112  -1.398  -9.854  0.00  0.00     0.027 H 
ATOM     16  H   LIG d   1       2.271  -0.202  -9.226  0.00  0.00     0.027 H 
ENDBRANCH  11  13
BRANCH  11  17
ATOM     17  C   LIG d   1       2.040  -1.585 -12.384  0.00  0.00    -0.044 C 
ATOM     18  H   LIG d   1       0.952  -1.590 -12.465  0.00  0.00     0.027 H 
ATOM     19  H   LIG d   1       2.474  -1.285 -13.337  0.00  0.00     0.027 H 
ATOM     20  H   LIG d   1       2.389  -2.584 -12.124  0.00  0.00     0.027 H 
ENDBRANCH  11  17
ENDBRANCH   7  10
ENDBRANCH   4   7
ENDBRANCH   1   4
BRANCH   1  21
ATOM     21  C   LIG d   1       4.722  -1.864  -8.489  0.00  0.00    -0.044 C 
ATOM     22  H   LIG d   1       3.708  -2.107  -8.809  0.00  0.00     0.027 H 
ATOM     23  H   LIG d   1       5.437  -2.296  -9.190  0.00  0.00     0.027 H 
ATOM     24  H   LIG d   1       4.896  -2.272  -7.494  0.00  0.00     0.027 H 
ENDBRANCH   1  21
BRANCH   2  25
ATOM     25  C   LIG d   1       4.450  -0.460  -6.058  0.00  0.00     0.179 C 
ATOM     26  O   LIG d   1       5.683  -0.641  -5.356  0.00  0.00    -0.347 OA
ATOM     27  C   LIG d   1       5.539  -1.323  -4.107  0.00  0.00     0.058 C 
ATOM     28  C   LIG d   1       4.566  -0.539  -3.220  0.00  0.00     0.012 C 
ATOM     29  H   LIG d   1       5.149  -2.326  -4.280  0.00  0.00     0.057 H 
ATOM     30  H   LIG d   1       6.510  -1.388  -3.614  0.00  0.00     0.057 H 
ATOM     31  C   LIG d   1       3.254  -0.334  -3.985  0.00  0.00     0.058 C 
ATOM     32  O   LIG d   1       3.543   0.285  -5.243  0.00  0.00    -0.347 OA
ATOM     33  H   LIG d   1       2.777  -1.299  -4.155  0.00  0.00     0.057 H 
ATOM     34  H   LIG d   1       2.589   0.306  -3.406  0.00  0.00     0.057 H 
ATOM     35  H   LIG d   1       4.016  -1.434  -6.287  0.00  0.00     0.096 H 
BRANCH  28  36
ATOM     36  C   LIG d   1       4.293  -1.326  -1.937  0.00  0.00    -0.056 C 
ATOM     37  H   LIG d   1       5.212  -1.404  -1.356  0.00  0.00     0.024 H 
ATOM     38  H   LIG d   1       3.534  -0.810  -1.348  0.00  0.00     0.024 H 
ATOM     39  H   LIG d   1       3.938  -2.324  -2.191  0.00  0.00     0.024 H 
ENDBRANCH  28  36
BRANCH  28  40
ATOM     40  C   LIG d   1       5.173   0.821  -2.870  0.00  0.00    -0.056 C 
ATOM     41  H   LIG d   1       5.181   1.455  -3.758  0.00  0.00     0.024 H 
ATOM     42  H   LIG d   1       4.577   1.296  -2.090  0.00  0.00     0.024 H 
ATOM     43  H   LIG d   1       6.194   0.684  -2.514  0.00  0.00     0.024 H 
ENDBRANCH  28  40
ENDBRANCH   2  25
TORSDOF 9
ENDMDL
