MODEL 1
REMARK VINA RESULT:      -7.5      0.000      0.000
REMARK  5 active torsions:
REMARK  status: ('A' for Active; 'I' for Inactive)
REMARK    1  A    between atoms: C_1  and  N_2 
REMARK    2  A    between atoms: C_9  and  O_26 
REMARK    3  A    between atoms: C_10  and  C_13 
REMARK    4  A    between atoms: C_16  and  C_19 
REMARK    5  A    between atoms: C_24  and  O_25 
ROOT
ATOM      1  N   LIG d   1       4.750  -2.094  -5.163  0.00  0.00    -0.310 N 
ATOM      2  C   LIG d   1       4.514  -1.410  -3.988  0.00  0.00     0.055 A 
ATOM      3  C   LIG d   1       4.963  -1.924  -2.775  0.00  0.00    -0.037 A 
ATOM      4  C   LIG d   1       4.730  -1.232  -1.607  0.00  0.00    -0.060 A 
ATOM      5  C   LIG d   1       4.053  -0.020  -1.626  0.00  0.00    -0.061 A 
ATOM      6  C   LIG d   1       3.608   0.507  -2.805  0.00  0.00    -0.049 A 
ATOM      7  C   LIG d   1       3.834  -0.179  -4.003  0.00  0.00     0.041 A 
ATOM      8  C   LIG d   1       3.364   0.372  -5.279  0.00  0.00     0.140 A 
ATOM      9  C   LIG d   1       3.615  -0.350  -6.443  0.00  0.00     0.104 A 
ATOM     10  C   LIG d   1       4.334  -1.620  -6.351  0.00  0.00     0.264 A 
ATOM     11  O   LIG d   1       4.557  -2.258  -7.365  0.00  0.00    -0.267 OA
ATOM     12  H   LIG d   1       5.491  -2.866  -2.749  0.00  0.00     0.064 H 
ATOM     13  H   LIG d   1       5.076  -1.636  -0.667  0.00  0.00     0.062 H 
ATOM     14  H   LIG d   1       3.878   0.511  -0.702  0.00  0.00     0.062 H 
ATOM     15  H   LIG d   1       3.082   1.451  -2.812  0.00  0.00     0.062 H 
ENDROOT
BRANCH   9  16
ATOM     16  C   LIG d   1       3.164   0.159  -7.748  0.00  0.00     0.077 A 
ATOM     17  C   LIG d   1       2.270  -0.588  -8.713  0.00  0.00     0.016 A 
ATOM     18  C   LIG d   1       2.111   0.384  -9.899  0.00  0.00     0.072 A 
ATOM     19  H   LIG d   1       2.745  -1.514  -9.036  0.00  0.00     0.035 H 
ATOM     20  H   LIG d   1       1.302  -0.792  -8.256  0.00  0.00     0.035 H 
ATOM     21  N   LIG d   1       2.918   1.549  -9.501  0.00  0.00    -0.261 N 
ATOM     22  H   LIG d   1       1.068   0.667 -10.030  0.00  0.00     0.057 H 
ATOM     23  N   LIG d   1       3.475   1.305  -8.247  0.00  0.00    -0.190 NA
ATOM     24  H   LIG d   1       3.042   2.355 -10.027  0.00  0.00     0.169 HD
BRANCH  18  25
ATOM     25  C   LIG d   1       2.656  -0.231 -11.162  0.00  0.00     0.016 A 
ATOM     26  C   LIG d   1       1.873  -1.106 -11.901  0.00  0.00     0.122 A 
ATOM     27  C   LIG d   1       2.377  -1.670 -13.064  0.00  0.00    -0.020 A 
ATOM     28  C   LIG d   1       3.656  -1.361 -13.484  0.00  0.00    -0.058 A 
ATOM     29  H   LIG d   1       1.769  -2.351 -13.642  0.00  0.00     0.065 H 
ATOM     30  C   LIG d   1       4.434  -0.487 -12.745  0.00  0.00    -0.061 A 
ATOM     31  H   LIG d   1       4.048  -1.798 -14.389  0.00  0.00     0.062 H 
ATOM     32  C   LIG d   1       3.933   0.079 -11.588  0.00  0.00    -0.053 A 
ATOM     33  H   LIG d   1       5.434  -0.247 -13.075  0.00  0.00     0.062 H 
ATOM     34  H   LIG d   1       4.541   0.764 -11.015  0.00  0.00     0.062 H 
BRANCH  26  35
ATOM     35  O   LIG d   1       0.615  -1.409 -11.487  0.00  0.00    -0.506 OA
ATOM     36  H   LIG d   1       0.066  -1.825 -12.167  0.00  0.00     0.292 HD
ENDBRANCH  26  35
ENDBRANCH  18  25
ENDBRANCH   9  16
BRANCH   8  37
ATOM     37  O   LIG d   1       2.703   1.551  -5.324  0.00  0.00    -0.505 OA
ATOM     38  H   LIG d   1       1.947   1.601  -4.723  0.00  0.00     0.292 HD
ENDBRANCH   8  37
BRANCH   1  39
ATOM     39  C   LIG d   1       5.466  -3.371  -5.115  0.00  0.00     0.015 C 
ATOM     40  H   LIG d   1       4.978  -4.034  -4.401  0.00  0.00     0.046 H 
ATOM     41  H   LIG d   1       5.455  -3.831  -6.104  0.00  0.00     0.046 H 
ATOM     42  H   LIG d   1       6.496  -3.199  -4.805  0.00  0.00     0.046 H 
ENDBRANCH   1  39
TORSDOF 5
ENDMDL
MODEL 2
REMARK VINA RESULT:      -7.1      5.943      8.418
REMARK  5 active torsions:
REMARK  status: ('A' for Active; 'I' for Inactive)
REMARK    1  A    between atoms: C_1  and  N_2 
REMARK    2  A    between atoms: C_9  and  O_26 
REMARK    3  A    between atoms: C_10  and  C_13 
REMARK    4  A    between atoms: C_16  and  C_19 
REMARK    5  A    between atoms: C_24  and  O_25 
ROOT
ATOM      1  N   LIG d   1       6.955  -1.862  -4.326  0.00  0.00    -0.310 N 
ATOM      2  C   LIG d   1       5.765  -1.641  -3.663  0.00  0.00     0.055 A 
ATOM      3  C   LIG d   1       4.897  -2.698  -3.407  0.00  0.00    -0.037 A 
ATOM      4  C   LIG d   1       3.713  -2.469  -2.739  0.00  0.00    -0.060 A 
ATOM      5  C   LIG d   1       3.378  -1.191  -2.313  0.00  0.00    -0.061 A 
ATOM      6  C   LIG d   1       4.216  -0.139  -2.548  0.00  0.00    -0.049 A 
ATOM      7  C   LIG d   1       5.423  -0.349  -3.224  0.00  0.00     0.041 A 
ATOM      8  C   LIG d   1       6.336   0.769  -3.485  0.00  0.00     0.140 A 
ATOM      9  C   LIG d   1       7.525   0.507  -4.162  0.00  0.00     0.104 A 
ATOM     10  C   LIG d   1       7.817  -0.863  -4.583  0.00  0.00     0.264 A 
ATOM     11  O   LIG d   1       8.854  -1.101  -5.175  0.00  0.00    -0.267 OA
ATOM     12  H   LIG d   1       5.149  -3.696  -3.734  0.00  0.00     0.064 H 
ATOM     13  H   LIG d   1       3.041  -3.291  -2.546  0.00  0.00     0.062 H 
ATOM     14  H   LIG d   1       2.446  -1.028  -1.791  0.00  0.00     0.062 H 
ATOM     15  H   LIG d   1       3.948   0.852  -2.213  0.00  0.00     0.062 H 
ENDROOT
BRANCH   9  16
ATOM     16  C   LIG d   1       8.475   1.593  -4.449  0.00  0.00     0.077 A 
ATOM     17  C   LIG d   1       9.517   2.117  -3.486  0.00  0.00     0.016 A 
ATOM     18  C   LIG d   1      10.230   3.230  -4.280  0.00  0.00     0.072 A 
ATOM     19  H   LIG d   1       9.043   2.525  -2.594  0.00  0.00     0.035 H 
ATOM     20  H   LIG d   1      10.221   1.329  -3.219  0.00  0.00     0.035 H 
ATOM     21  N   LIG d   1       9.532   3.230  -5.576  0.00  0.00    -0.261 N 
ATOM     22  H   LIG d   1      11.286   2.994  -4.413  0.00  0.00     0.057 H 
ATOM     23  N   LIG d   1       8.543   2.248  -5.556  0.00  0.00    -0.190 NA
ATOM     24  H   LIG d   1       9.728   3.819  -6.322  0.00  0.00     0.169 HD
BRANCH  18  25
ATOM     25  C   LIG d   1      10.067   4.559  -3.590  0.00  0.00     0.016 A 
ATOM     26  C   LIG d   1      10.532   4.729  -2.293  0.00  0.00     0.122 A 
ATOM     27  C   LIG d   1      10.381   5.954  -1.660  0.00  0.00    -0.020 A 
ATOM     28  C   LIG d   1       9.768   7.001  -2.321  0.00  0.00    -0.058 A 
ATOM     29  H   LIG d   1      10.742   6.088  -0.651  0.00  0.00     0.065 H 
ATOM     30  C   LIG d   1       9.307   6.829  -3.613  0.00  0.00    -0.061 A 
ATOM     31  H   LIG d   1       9.651   7.955  -1.829  0.00  0.00     0.062 H 
ATOM     32  C   LIG d   1       9.460   5.611  -4.248  0.00  0.00    -0.053 A 
ATOM     33  H   LIG d   1       8.828   7.649  -4.128  0.00  0.00     0.062 H 
ATOM     34  H   LIG d   1       9.102   5.480  -5.259  0.00  0.00     0.062 H 
BRANCH  26  35
ATOM     35  O   LIG d   1      11.133   3.697  -1.645  0.00  0.00    -0.506 OA
ATOM     36  H   LIG d   1      10.667   3.408  -0.848  0.00  0.00     0.292 HD
ENDBRANCH  26  35
ENDBRANCH  18  25
ENDBRANCH   9  16
BRANCH   8  37
ATOM     37  O   LIG d   1       6.032   2.023  -3.080  0.00  0.00    -0.505 OA
ATOM     38  H   LIG d   1       6.466   2.287  -2.258  0.00  0.00     0.292 HD
ENDBRANCH   8  37
BRANCH   1  39
ATOM     39  C   LIG d   1       7.285  -3.220  -4.765  0.00  0.00     0.015 C 
ATOM     40  H   LIG d   1       6.766  -3.942  -4.136  0.00  0.00     0.046 H 
ATOM     41  H   LIG d   1       6.974  -3.352  -5.802  0.00  0.00     0.046 H 
ATOM     42  H   LIG d   1       8.361  -3.377  -4.686  0.00  0.00     0.046 H 
ENDBRANCH   1  39
TORSDOF 5
ENDMDL
MODEL 3
REMARK VINA RESULT:      -6.8      2.237      7.606
REMARK  5 active torsions:
REMARK  status: ('A' for Active; 'I' for Inactive)
REMARK    1  A    between atoms: C_1  and  N_2 
REMARK    2  A    between atoms: C_9  and  O_26 
REMARK    3  A    between atoms: C_10  and  C_13 
REMARK    4  A    between atoms: C_16  and  C_19 
REMARK    5  A    between atoms: C_24  and  O_25 
ROOT
ATOM      1  N   LIG d   1       5.025  -1.592 -10.993  0.00  0.00    -0.310 N 
ATOM      2  C   LIG d   1       3.665  -1.428 -11.161  0.00  0.00     0.055 A 
ATOM      3  C   LIG d   1       3.063  -1.757 -12.373  0.00  0.00    -0.037 A 
ATOM      4  C   LIG d   1       1.704  -1.595 -12.531  0.00  0.00    -0.060 A 
ATOM      5  C   LIG d   1       0.924  -1.110 -11.490  0.00  0.00    -0.061 A 
ATOM      6  C   LIG d   1       1.491  -0.785 -10.291  0.00  0.00    -0.049 A 
ATOM      7  C   LIG d   1       2.870  -0.942 -10.109  0.00  0.00     0.041 A 
ATOM      8  C   LIG d   1       3.497  -0.599  -8.828  0.00  0.00     0.140 A 
ATOM      9  C   LIG d   1       4.872  -0.773  -8.697  0.00  0.00     0.104 A 
ATOM     10  C   LIG d   1       5.634  -1.289  -9.833  0.00  0.00     0.264 A 
ATOM     11  O   LIG d   1       6.838  -1.444  -9.728  0.00  0.00    -0.267 OA
ATOM     12  H   LIG d   1       3.661  -2.136 -13.189  0.00  0.00     0.064 H 
ATOM     13  H   LIG d   1       1.241  -1.848 -13.473  0.00  0.00     0.062 H 
ATOM     14  H   LIG d   1      -0.140  -0.988 -11.630  0.00  0.00     0.062 H 
ATOM     15  H   LIG d   1       0.878  -0.408  -9.486  0.00  0.00     0.062 H 
ENDROOT
BRANCH   9  16
ATOM     16  C   LIG d   1       5.549  -0.444  -7.433  0.00  0.00     0.077 A 
ATOM     17  C   LIG d   1       5.820  -1.419  -6.309  0.00  0.00     0.016 A 
ATOM     18  C   LIG d   1       6.544  -0.568  -5.246  0.00  0.00     0.072 A 
ATOM     19  H   LIG d   1       4.885  -1.815  -5.913  0.00  0.00     0.035 H 
ATOM     20  H   LIG d   1       6.465  -2.227  -6.653  0.00  0.00     0.035 H 
ATOM     21  N   LIG d   1       6.600   0.771  -5.855  0.00  0.00    -0.261 N 
ATOM     22  H   LIG d   1       7.548  -0.949  -5.064  0.00  0.00     0.057 H 
ATOM     23  N   LIG d   1       5.997   0.720  -7.111  0.00  0.00    -0.190 NA
ATOM     24  H   LIG d   1       6.992   1.559  -5.448  0.00  0.00     0.169 HD
BRANCH  18  25
ATOM     25  C   LIG d   1       5.749  -0.535  -3.966  0.00  0.00     0.016 A 
ATOM     26  C   LIG d   1       5.808   0.579  -3.142  0.00  0.00     0.122 A 
ATOM     27  C   LIG d   1       5.075   0.607  -1.965  0.00  0.00    -0.020 A 
ATOM     28  C   LIG d   1       4.288  -0.473  -1.615  0.00  0.00    -0.058 A 
ATOM     29  H   LIG d   1       5.119   1.474  -1.321  0.00  0.00     0.065 H 
ATOM     30  C   LIG d   1       4.231  -1.583  -2.439  0.00  0.00    -0.061 A 
ATOM     31  H   LIG d   1       3.717  -0.452  -0.700  0.00  0.00     0.062 H 
ATOM     32  C   LIG d   1       4.957  -1.612  -3.615  0.00  0.00    -0.053 A 
ATOM     33  H   LIG d   1       3.615  -2.426  -2.165  0.00  0.00     0.062 H 
ATOM     34  H   LIG d   1       4.907  -2.477  -4.259  0.00  0.00     0.062 H 
BRANCH  26  35
ATOM     35  O   LIG d   1       6.583   1.641  -3.487  0.00  0.00    -0.506 OA
ATOM     36  H   LIG d   1       7.500   1.573  -3.186  0.00  0.00     0.292 HD
ENDBRANCH  26  35
ENDBRANCH  18  25
ENDBRANCH   9  16
BRANCH   8  37
ATOM     37  O   LIG d   1       2.758  -0.124  -7.798  0.00  0.00    -0.505 OA
ATOM     38  H   LIG d   1       1.880  -0.524  -7.727  0.00  0.00     0.292 HD
ENDBRANCH   8  37
BRANCH   1  39
ATOM     39  C   LIG d   1       5.826  -2.106 -12.107  0.00  0.00     0.015 C 
ATOM     40  H   LIG d   1       6.816  -2.380 -11.746  0.00  0.00     0.046 H 
ATOM     41  H   LIG d   1       5.338  -2.984 -12.531  0.00  0.00     0.046 H 
ATOM     42  H   LIG d   1       5.919  -1.336 -12.873  0.00  0.00     0.046 H 
ENDBRANCH   1  39
TORSDOF 5
ENDMDL
MODEL 4
REMARK VINA RESULT:      -6.8      7.264      9.695
REMARK  5 active torsions:
REMARK  status: ('A' for Active; 'I' for Inactive)
REMARK    1  A    between atoms: C_1  and  N_2 
REMARK    2  A    between atoms: C_9  and  O_26 
REMARK    3  A    between atoms: C_10  and  C_13 
REMARK    4  A    between atoms: C_16  and  C_19 
REMARK    5  A    between atoms: C_24  and  O_25 
ROOT
ATOM      1  N   LIG d   1      10.266   6.390  -3.938  0.00  0.00    -0.310 N 
ATOM      2  C   LIG d   1      11.086   6.502  -2.833  0.00  0.00     0.055 A 
ATOM      3  C   LIG d   1      11.683   7.720  -2.522  0.00  0.00    -0.037 A 
ATOM      4  C   LIG d   1      12.495   7.825  -1.413  0.00  0.00    -0.060 A 
ATOM      5  C   LIG d   1      12.721   6.725  -0.597  0.00  0.00    -0.061 A 
ATOM      6  C   LIG d   1      12.142   5.521  -0.878  0.00  0.00    -0.049 A 
ATOM      7  C   LIG d   1      11.314   5.393  -1.999  0.00  0.00     0.041 A 
ATOM      8  C   LIG d   1      10.682   4.107  -2.317  0.00  0.00     0.140 A 
ATOM      9  C   LIG d   1       9.867   4.032  -3.443  0.00  0.00     0.104 A 
ATOM     10  C   LIG d   1       9.671   5.229  -4.261  0.00  0.00     0.264 A 
ATOM     11  O   LIG d   1       8.959   5.172  -5.248  0.00  0.00    -0.267 OA
ATOM     12  H   LIG d   1      11.513   8.582  -3.151  0.00  0.00     0.064 H 
ATOM     13  H   LIG d   1      12.959   8.770  -1.178  0.00  0.00     0.062 H 
ATOM     14  H   LIG d   1      13.360   6.823   0.269  0.00  0.00     0.062 H 
ATOM     15  H   LIG d   1      12.322   4.670  -0.238  0.00  0.00     0.062 H 
ENDROOT
BRANCH   9  16
ATOM     16  C   LIG d   1       9.211   2.766  -3.807  0.00  0.00     0.077 A 
ATOM     17  C   LIG d   1       7.771   2.626  -4.247  0.00  0.00     0.016 A 
ATOM     18  C   LIG d   1       7.606   1.114  -4.503  0.00  0.00     0.072 A 
ATOM     19  H   LIG d   1       7.095   2.958  -3.458  0.00  0.00     0.035 H 
ATOM     20  H   LIG d   1       7.595   3.188  -5.164  0.00  0.00     0.035 H 
ATOM     21  N   LIG d   1       8.933   0.563  -4.181  0.00  0.00    -0.261 N 
ATOM     22  H   LIG d   1       7.355   0.924  -5.545  0.00  0.00     0.057 H 
ATOM     23  N   LIG d   1       9.772   1.607  -3.793  0.00  0.00    -0.190 NA
ATOM     24  H   LIG d   1       9.182  -0.373  -4.231  0.00  0.00     0.169 HD
BRANCH  18  25
ATOM     25  C   LIG d   1       6.557   0.535  -3.590  0.00  0.00     0.016 A 
ATOM     26  C   LIG d   1       6.411  -0.840  -3.486  0.00  0.00     0.122 A 
ATOM     27  C   LIG d   1       5.444  -1.371  -2.644  0.00  0.00    -0.020 A 
ATOM     28  C   LIG d   1       4.629  -0.529  -1.912  0.00  0.00    -0.058 A 
ATOM     29  H   LIG d   1       5.328  -2.442  -2.561  0.00  0.00     0.065 H 
ATOM     30  C   LIG d   1       4.777   0.842  -2.017  0.00  0.00    -0.061 A 
ATOM     31  H   LIG d   1       3.877  -0.941  -1.255  0.00  0.00     0.062 H 
ATOM     32  C   LIG d   1       5.743   1.373  -2.852  0.00  0.00    -0.053 A 
ATOM     33  H   LIG d   1       4.140   1.498  -1.444  0.00  0.00     0.062 H 
ATOM     34  H   LIG d   1       5.860   2.444  -2.930  0.00  0.00     0.062 H 
BRANCH  26  35
ATOM     35  O   LIG d   1       7.213  -1.667  -4.207  0.00  0.00    -0.506 OA
ATOM     36  H   LIG d   1       6.732  -2.277  -4.783  0.00  0.00     0.292 HD
ENDBRANCH  26  35
ENDBRANCH  18  25
ENDBRANCH   9  16
BRANCH   8  37
ATOM     37  O   LIG d   1      10.887   3.021  -1.537  0.00  0.00    -0.505 OA
ATOM     38  H   LIG d   1      10.893   3.214  -0.590  0.00  0.00     0.292 HD
ENDBRANCH   8  37
BRANCH   1  39
ATOM     39  C   LIG d   1      10.044   7.566  -4.784  0.00  0.00     0.015 C 
ATOM     40  H   LIG d   1      10.823   8.303  -4.592  0.00  0.00     0.046 H 
ATOM     41  H   LIG d   1      10.074   7.269  -5.832  0.00  0.00     0.046 H 
ATOM     42  H   LIG d   1       9.070   7.999  -4.556  0.00  0.00     0.046 H 
ENDBRANCH   1  39
TORSDOF 5
ENDMDL
MODEL 5
REMARK VINA RESULT:      -6.7      2.505      7.502
REMARK  5 active torsions:
REMARK  status: ('A' for Active; 'I' for Inactive)
REMARK    1  A    between atoms: C_1  and  N_2 
REMARK    2  A    between atoms: C_9  and  O_26 
REMARK    3  A    between atoms: C_10  and  C_13 
REMARK    4  A    between atoms: C_16  and  C_19 
REMARK    5  A    between atoms: C_24  and  O_25 
ROOT
ATOM      1  N   LIG d   1       2.771  -3.919  -9.597  0.00  0.00    -0.310 N 
ATOM      2  C   LIG d   1       2.010  -3.121 -10.427  0.00  0.00     0.055 A 
ATOM      3  C   LIG d   1       1.204  -3.695 -11.406  0.00  0.00    -0.037 A 
ATOM      4  C   LIG d   1       0.442  -2.892 -12.226  0.00  0.00    -0.060 A 
ATOM      5  C   LIG d   1       0.465  -1.512 -12.084  0.00  0.00    -0.061 A 
ATOM      6  C   LIG d   1       1.244  -0.926 -11.127  0.00  0.00    -0.049 A 
ATOM      7  C   LIG d   1       2.026  -1.723 -10.283  0.00  0.00     0.041 A 
ATOM      8  C   LIG d   1       2.868  -1.112  -9.249  0.00  0.00     0.140 A 
ATOM      9  C   LIG d   1       3.626  -1.949  -8.435  0.00  0.00     0.104 A 
ATOM     10  C   LIG d   1       3.555  -3.395  -8.639  0.00  0.00     0.264 A 
ATOM     11  O   LIG d   1       4.216  -4.135  -7.931  0.00  0.00    -0.267 OA
ATOM     12  H   LIG d   1       1.178  -4.769 -11.525  0.00  0.00     0.064 H 
ATOM     13  H   LIG d   1      -0.179  -3.340 -12.987  0.00  0.00     0.062 H 
ATOM     14  H   LIG d   1      -0.138  -0.895 -12.735  0.00  0.00     0.062 H 
ATOM     15  H   LIG d   1       1.257   0.149 -11.022  0.00  0.00     0.062 H 
ENDROOT
BRANCH   9  16
ATOM     16  C   LIG d   1       4.488  -1.386  -7.383  0.00  0.00     0.077 A 
ATOM     17  C   LIG d   1       4.616  -1.930  -5.977  0.00  0.00     0.016 A 
ATOM     18  C   LIG d   1       5.632  -0.986  -5.305  0.00  0.00     0.072 A 
ATOM     19  H   LIG d   1       3.656  -1.890  -5.462  0.00  0.00     0.035 H 
ATOM     20  H   LIG d   1       4.998  -2.950  -5.996  0.00  0.00     0.035 H 
ATOM     21  N   LIG d   1       5.963  -0.021  -6.367  0.00  0.00    -0.261 N 
ATOM     22  H   LIG d   1       6.521  -1.533  -4.994  0.00  0.00     0.057 H 
ATOM     23  N   LIG d   1       5.244  -0.352  -7.515  0.00  0.00    -0.190 NA
ATOM     24  H   LIG d   1       6.579   0.723  -6.281  0.00  0.00     0.169 HD
BRANCH  18  25
ATOM     25  C   LIG d   1       5.004  -0.284  -4.129  0.00  0.00     0.016 A 
ATOM     26  C   LIG d   1       5.764   0.570  -3.343  0.00  0.00     0.122 A 
ATOM     27  C   LIG d   1       5.183   1.215  -2.262  0.00  0.00    -0.020 A 
ATOM     28  C   LIG d   1       3.849   1.007  -1.969  0.00  0.00    -0.058 A 
ATOM     29  H   LIG d   1       5.773   1.880  -1.648  0.00  0.00     0.065 H 
ATOM     30  C   LIG d   1       3.093   0.156  -2.755  0.00  0.00    -0.061 A 
ATOM     31  H   LIG d   1       3.396   1.510  -1.128  0.00  0.00     0.062 H 
ATOM     32  C   LIG d   1       3.669  -0.485  -3.835  0.00  0.00    -0.053 A 
ATOM     33  H   LIG d   1       2.050  -0.006  -2.524  0.00  0.00     0.062 H 
ATOM     34  H   LIG d   1       3.075  -1.146  -4.450  0.00  0.00     0.062 H 
BRANCH  26  35
ATOM     35  O   LIG d   1       7.076   0.773  -3.632  0.00  0.00    -0.506 OA
ATOM     36  H   LIG d   1       7.412   1.637  -3.352  0.00  0.00     0.292 HD
ENDBRANCH  26  35
ENDBRANCH  18  25
ENDBRANCH   9  16
BRANCH   8  37
ATOM     37  O   LIG d   1       2.907   0.231  -9.090  0.00  0.00    -0.505 OA
ATOM     38  H   LIG d   1       2.256   0.572  -8.463  0.00  0.00     0.292 HD
ENDBRANCH   8  37
BRANCH   1  39
ATOM     39  C   LIG d   1       2.729  -5.373  -9.769  0.00  0.00     0.015 C 
ATOM     40  H   LIG d   1       1.749  -5.746  -9.473  0.00  0.00     0.046 H 
ATOM     41  H   LIG d   1       2.912  -5.621 -10.814  0.00  0.00     0.046 H 
ATOM     42  H   LIG d   1       3.496  -5.835  -9.147  0.00  0.00     0.046 H 
ENDBRANCH   1  39
TORSDOF 5
ENDMDL
MODEL 6
REMARK VINA RESULT:      -6.7      2.297      2.676
REMARK  5 active torsions:
REMARK  status: ('A' for Active; 'I' for Inactive)
REMARK    1  A    between atoms: C_1  and  N_2 
REMARK    2  A    between atoms: C_9  and  O_26 
REMARK    3  A    between atoms: C_10  and  C_13 
REMARK    4  A    between atoms: C_16  and  C_19 
REMARK    5  A    between atoms: C_24  and  O_25 
ROOT
ATOM      1  N   LIG d   1       6.005  -1.505  -4.126  0.00  0.00    -0.310 N 
ATOM      2  C   LIG d   1       5.152  -0.562  -3.590  0.00  0.00     0.055 A 
ATOM      3  C   LIG d   1       5.410  -0.015  -2.336  0.00  0.00    -0.037 A 
ATOM      4  C   LIG d   1       4.556   0.930  -1.810  0.00  0.00    -0.060 A 
ATOM      5  C   LIG d   1       3.439   1.347  -2.521  0.00  0.00    -0.061 A 
ATOM      6  C   LIG d   1       3.168   0.829  -3.755  0.00  0.00    -0.049 A 
ATOM      7  C   LIG d   1       4.022  -0.132  -4.308  0.00  0.00     0.041 A 
ATOM      8  C   LIG d   1       3.748  -0.701  -5.632  0.00  0.00     0.140 A 
ATOM      9  C   LIG d   1       4.628  -1.653  -6.138  0.00  0.00     0.104 A 
ATOM     10  C   LIG d   1       5.786  -2.048  -5.337  0.00  0.00     0.264 A 
ATOM     11  O   LIG d   1       6.561  -2.881  -5.772  0.00  0.00    -0.267 OA
ATOM     12  H   LIG d   1       6.277  -0.332  -1.775  0.00  0.00     0.064 H 
ATOM     13  H   LIG d   1       4.757   1.350  -0.836  0.00  0.00     0.062 H 
ATOM     14  H   LIG d   1       2.779   2.089  -2.095  0.00  0.00     0.062 H 
ATOM     15  H   LIG d   1       2.297   1.158  -4.302  0.00  0.00     0.062 H 
ENDROOT
BRANCH   9  16
ATOM     16  C   LIG d   1       4.398  -2.254  -7.461  0.00  0.00     0.077 A 
ATOM     17  C   LIG d   1       4.550  -1.536  -8.783  0.00  0.00     0.016 A 
ATOM     18  C   LIG d   1       4.197  -2.611  -9.832  0.00  0.00     0.072 A 
ATOM     19  H   LIG d   1       3.857  -0.697  -8.845  0.00  0.00     0.035 H 
ATOM     20  H   LIG d   1       5.577  -1.197  -8.917  0.00  0.00     0.035 H 
ATOM     21  N   LIG d   1       3.880  -3.796  -9.018  0.00  0.00    -0.261 N 
ATOM     22  H   LIG d   1       5.048  -2.809 -10.483  0.00  0.00     0.057 H 
ATOM     23  N   LIG d   1       4.030  -3.471  -7.671  0.00  0.00    -0.190 NA
ATOM     24  H   LIG d   1       3.611  -4.661  -9.364  0.00  0.00     0.169 HD
BRANCH  18  25
ATOM     25  C   LIG d   1       2.999  -2.186 -10.640  0.00  0.00     0.016 A 
ATOM     26  C   LIG d   1       2.651  -2.888 -11.785  0.00  0.00     0.122 A 
ATOM     27  C   LIG d   1       1.546  -2.495 -12.527  0.00  0.00    -0.020 A 
ATOM     28  C   LIG d   1       0.795  -1.408 -12.125  0.00  0.00    -0.058 A 
ATOM     29  H   LIG d   1       1.274  -3.040 -13.419  0.00  0.00     0.065 H 
ATOM     30  C   LIG d   1       1.144  -0.711 -10.982  0.00  0.00    -0.061 A 
ATOM     31  H   LIG d   1      -0.065  -1.103 -12.701  0.00  0.00     0.062 H 
ATOM     32  C   LIG d   1       2.241  -1.103 -10.238  0.00  0.00    -0.053 A 
ATOM     33  H   LIG d   1       0.556   0.138 -10.669  0.00  0.00     0.062 H 
ATOM     34  H   LIG d   1       2.510  -0.559  -9.344  0.00  0.00     0.062 H 
BRANCH  26  35
ATOM     35  O   LIG d   1       3.391  -3.957 -12.180  0.00  0.00    -0.506 OA
ATOM     36  H   LIG d   1       3.310  -4.727 -11.600  0.00  0.00     0.292 HD
ENDBRANCH  26  35
ENDBRANCH  18  25
ENDBRANCH   9  16
BRANCH   8  37
ATOM     37  O   LIG d   1       2.665  -0.310  -6.344  0.00  0.00    -0.505 OA
ATOM     38  H   LIG d   1       1.876  -0.157  -5.808  0.00  0.00     0.292 HD
ENDBRANCH   8  37
BRANCH   1  39
ATOM     39  C   LIG d   1       7.177  -1.928  -3.356  0.00  0.00     0.015 C 
ATOM     40  H   LIG d   1       7.927  -2.337  -4.031  0.00  0.00     0.046 H 
ATOM     41  H   LIG d   1       7.593  -1.071  -2.826  0.00  0.00     0.046 H 
ATOM     42  H   LIG d   1       6.882  -2.692  -2.636  0.00  0.00     0.046 H 
ENDBRANCH   1  39
TORSDOF 5
ENDMDL
MODEL 7
REMARK VINA RESULT:      -6.6      2.222      7.628
REMARK  5 active torsions:
REMARK  status: ('A' for Active; 'I' for Inactive)
REMARK    1  A    between atoms: C_1  and  N_2 
REMARK    2  A    between atoms: C_9  and  O_26 
REMARK    3  A    between atoms: C_10  and  C_13 
REMARK    4  A    between atoms: C_16  and  C_19 
REMARK    5  A    between atoms: C_24  and  O_25 
ROOT
ATOM      1  N   LIG d   1       3.036  -4.096 -10.168  0.00  0.00    -0.310 N 
ATOM      2  C   LIG d   1       2.735  -3.545 -11.396  0.00  0.00     0.055 A 
ATOM      3  C   LIG d   1       2.510  -4.366 -12.498  0.00  0.00    -0.037 A 
ATOM      4  C   LIG d   1       2.204  -3.807 -13.720  0.00  0.00    -0.060 A 
ATOM      5  C   LIG d   1       2.113  -2.430 -13.865  0.00  0.00    -0.061 A 
ATOM      6  C   LIG d   1       2.324  -1.604 -12.797  0.00  0.00    -0.049 A 
ATOM      7  C   LIG d   1       2.636  -2.151 -11.547  0.00  0.00     0.041 A 
ATOM      8  C   LIG d   1       2.866  -1.280 -10.389  0.00  0.00     0.140 A 
ATOM      9  C   LIG d   1       3.173  -1.873  -9.167  0.00  0.00     0.104 A 
ATOM     10  C   LIG d   1       3.253  -3.330  -9.084  0.00  0.00     0.264 A 
ATOM     11  O   LIG d   1       3.521  -3.857  -8.019  0.00  0.00    -0.267 OA
ATOM     12  H   LIG d   1       2.578  -5.439 -12.396  0.00  0.00     0.064 H 
ATOM     13  H   LIG d   1       2.034  -4.447 -14.573  0.00  0.00     0.062 H 
ATOM     14  H   LIG d   1       1.872  -2.008 -14.829  0.00  0.00     0.062 H 
ATOM     15  H   LIG d   1       2.251  -0.534 -12.918  0.00  0.00     0.062 H 
ENDROOT
BRANCH   9  16
ATOM     16  C   LIG d   1       3.413  -1.044  -7.975  0.00  0.00     0.077 A 
ATOM     17  C   LIG d   1       4.617  -1.153  -7.066  0.00  0.00     0.016 A 
ATOM     18  C   LIG d   1       4.372  -0.071  -5.995  0.00  0.00     0.072 A 
ATOM     19  H   LIG d   1       4.663  -2.141  -6.609  0.00  0.00     0.035 H 
ATOM     20  H   LIG d   1       5.532  -0.942  -7.618  0.00  0.00     0.035 H 
ATOM     21  N   LIG d   1       3.083   0.521  -6.390  0.00  0.00    -0.261 N 
ATOM     22  H   LIG d   1       5.161   0.680  -6.017  0.00  0.00     0.057 H 
ATOM     23  N   LIG d   1       2.627  -0.119  -7.542  0.00  0.00    -0.190 NA
ATOM     24  H   LIG d   1       2.625   1.238  -5.925  0.00  0.00     0.169 HD
BRANCH  18  25
ATOM     25  C   LIG d   1       4.272  -0.694  -4.627  0.00  0.00     0.016 A 
ATOM     26  C   LIG d   1       4.038   0.104  -3.517  0.00  0.00     0.122 A 
ATOM     27  C   LIG d   1       3.946  -0.473  -2.259  0.00  0.00    -0.020 A 
ATOM     28  C   LIG d   1       4.086  -1.839  -2.114  0.00  0.00    -0.058 A 
ATOM     29  H   LIG d   1       3.764   0.147  -1.392  0.00  0.00     0.065 H 
ATOM     30  C   LIG d   1       4.318  -2.633  -3.223  0.00  0.00    -0.061 A 
ATOM     31  H   LIG d   1       4.013  -2.289  -1.135  0.00  0.00     0.062 H 
ATOM     32  C   LIG d   1       4.406  -2.061  -4.478  0.00  0.00    -0.053 A 
ATOM     33  H   LIG d   1       4.427  -3.701  -3.108  0.00  0.00     0.062 H 
ATOM     34  H   LIG d   1       4.583  -2.683  -5.344  0.00  0.00     0.062 H 
BRANCH  26  35
ATOM     35  O   LIG d   1       3.901   1.448  -3.661  0.00  0.00    -0.506 OA
ATOM     36  H   LIG d   1       3.115   1.812  -3.230  0.00  0.00     0.292 HD
ENDBRANCH  26  35
ENDBRANCH  18  25
ENDBRANCH   9  16
BRANCH   8  37
ATOM     37  O   LIG d   1       2.782   0.066 -10.505  0.00  0.00    -0.505 OA
ATOM     38  H   LIG d   1       3.403   0.444 -11.141  0.00  0.00     0.292 HD
ENDBRANCH   8  37
BRANCH   1  39
ATOM     39  C   LIG d   1       3.127  -5.553 -10.042  0.00  0.00     0.015 C 
ATOM     40  H   LIG d   1       3.466  -5.810  -9.039  0.00  0.00     0.046 H 
ATOM     41  H   LIG d   1       2.146  -5.995 -10.218  0.00  0.00     0.046 H 
ATOM     42  H   LIG d   1       3.836  -5.938 -10.774  0.00  0.00     0.046 H 
ENDBRANCH   1  39
TORSDOF 5
ENDMDL
MODEL 8
REMARK VINA RESULT:      -6.6      5.725      8.237
REMARK  5 active torsions:
REMARK  status: ('A' for Active; 'I' for Inactive)
REMARK    1  A    between atoms: C_1  and  N_2 
REMARK    2  A    between atoms: C_9  and  O_26 
REMARK    3  A    between atoms: C_10  and  C_13 
REMARK    4  A    between atoms: C_16  and  C_19 
REMARK    5  A    between atoms: C_24  and  O_25 
ROOT
ATOM      1  N   LIG d   1       8.516  -6.980  -5.189  0.00  0.00    -0.310 N 
ATOM      2  C   LIG d   1       7.377  -7.704  -5.481  0.00  0.00     0.055 A 
ATOM      3  C   LIG d   1       7.442  -9.087  -5.622  0.00  0.00    -0.037 A 
ATOM      4  C   LIG d   1       6.299  -9.803  -5.908  0.00  0.00    -0.060 A 
ATOM      5  C   LIG d   1       5.079  -9.158  -6.052  0.00  0.00    -0.061 A 
ATOM      6  C   LIG d   1       4.989  -7.802  -5.912  0.00  0.00    -0.049 A 
ATOM      7  C   LIG d   1       6.137  -7.056  -5.622  0.00  0.00     0.041 A 
ATOM      8  C   LIG d   1       6.061  -5.599  -5.468  0.00  0.00     0.140 A 
ATOM      9  C   LIG d   1       7.231  -4.903  -5.179  0.00  0.00     0.104 A 
ATOM     10  C   LIG d   1       8.484  -5.644  -5.041  0.00  0.00     0.264 A 
ATOM     11  O   LIG d   1       9.513  -5.043  -4.789  0.00  0.00    -0.267 OA
ATOM     12  H   LIG d   1       8.387  -9.599  -5.512  0.00  0.00     0.064 H 
ATOM     13  H   LIG d   1       6.354 -10.875  -6.021  0.00  0.00     0.062 H 
ATOM     14  H   LIG d   1       4.192  -9.733  -6.275  0.00  0.00     0.062 H 
ATOM     15  H   LIG d   1       4.036  -7.308  -6.025  0.00  0.00     0.062 H 
ENDROOT
BRANCH   9  16
ATOM     16  C   LIG d   1       7.209  -3.441  -5.015  0.00  0.00     0.077 A 
ATOM     17  C   LIG d   1       7.477  -2.704  -3.722  0.00  0.00     0.016 A 
ATOM     18  C   LIG d   1       7.331  -1.218  -4.104  0.00  0.00     0.072 A 
ATOM     19  H   LIG d   1       6.743  -2.980  -2.965  0.00  0.00     0.035 H 
ATOM     20  H   LIG d   1       8.487  -2.909  -3.369  0.00  0.00     0.035 H 
ATOM     21  N   LIG d   1       6.994  -1.261  -5.536  0.00  0.00    -0.261 N 
ATOM     22  H   LIG d   1       8.267  -0.684  -3.946  0.00  0.00     0.057 H 
ATOM     23  N   LIG d   1       6.952  -2.592  -5.950  0.00  0.00    -0.190 NA
ATOM     24  H   LIG d   1       6.829  -0.489  -6.100  0.00  0.00     0.169 HD
BRANCH  18  25
ATOM     25  C   LIG d   1       6.217  -0.577  -3.317  0.00  0.00     0.016 A 
ATOM     26  C   LIG d   1       6.071   0.802  -3.318  0.00  0.00     0.122 A 
ATOM     27  C   LIG d   1       5.044   1.389  -2.594  0.00  0.00    -0.020 A 
ATOM     28  C   LIG d   1       4.169   0.600  -1.872  0.00  0.00    -0.058 A 
ATOM     29  H   LIG d   1       4.928   2.463  -2.593  0.00  0.00     0.065 H 
ATOM     30  C   LIG d   1       4.317  -0.776  -1.873  0.00  0.00    -0.061 A 
ATOM     31  H   LIG d   1       3.369   1.056  -1.309  0.00  0.00     0.062 H 
ATOM     32  C   LIG d   1       5.337  -1.363  -2.598  0.00  0.00    -0.053 A 
ATOM     33  H   LIG d   1       3.632  -1.391  -1.309  0.00  0.00     0.062 H 
ATOM     34  H   LIG d   1       5.448  -2.438  -2.601  0.00  0.00     0.062 H 
BRANCH  26  35
ATOM     35  O   LIG d   1       6.932   1.577  -4.028  0.00  0.00    -0.506 OA
ATOM     36  H   LIG d   1       7.864   1.418  -3.824  0.00  0.00     0.292 HD
ENDBRANCH  26  35
ENDBRANCH  18  25
ENDBRANCH   9  16
BRANCH   8  37
ATOM     37  O   LIG d   1       4.883  -4.948  -5.603  0.00  0.00    -0.505 OA
ATOM     38  H   LIG d   1       4.155  -5.345  -5.106  0.00  0.00     0.292 HD
ENDBRANCH   8  37
BRANCH   1  39
ATOM     39  C   LIG d   1       9.792  -7.685  -5.043  0.00  0.00     0.015 C 
ATOM     40  H   LIG d   1      10.194  -7.505  -4.047  0.00  0.00     0.046 H 
ATOM     41  H   LIG d   1       9.634  -8.754  -5.184  0.00  0.00     0.046 H 
ATOM     42  H   LIG d   1      10.496  -7.320  -5.790  0.00  0.00     0.046 H 
ENDBRANCH   1  39
TORSDOF 5
ENDMDL
MODEL 9
REMARK VINA RESULT:      -6.5      5.621      7.354
REMARK  5 active torsions:
REMARK  status: ('A' for Active; 'I' for Inactive)
REMARK    1  A    between atoms: C_1  and  N_2 
REMARK    2  A    between atoms: C_9  and  O_26 
REMARK    3  A    between atoms: C_10  and  C_13 
REMARK    4  A    between atoms: C_16  and  C_19 
REMARK    5  A    between atoms: C_24  and  O_25 
ROOT
ATOM      1  N   LIG d   1       6.954  -0.023  -3.830  0.00  0.00    -0.310 N 
ATOM      2  C   LIG d   1       5.659   0.075  -3.364  0.00  0.00     0.055 A 
ATOM      3  C   LIG d   1       5.160   1.301  -2.932  0.00  0.00    -0.037 A 
ATOM      4  C   LIG d   1       3.863   1.391  -2.474  0.00  0.00    -0.060 A 
ATOM      5  C   LIG d   1       3.045   0.271  -2.442  0.00  0.00    -0.061 A 
ATOM      6  C   LIG d   1       3.511  -0.941  -2.866  0.00  0.00    -0.049 A 
ATOM      7  C   LIG d   1       4.824  -1.056  -3.335  0.00  0.00     0.041 A 
ATOM      8  C   LIG d   1       5.342  -2.349  -3.795  0.00  0.00     0.140 A 
ATOM      9  C   LIG d   1       6.655  -2.409  -4.253  0.00  0.00     0.104 A 
ATOM     10  C   LIG d   1       7.464  -1.191  -4.259  0.00  0.00     0.264 A 
ATOM     11  O   LIG d   1       8.614  -1.235  -4.658  0.00  0.00    -0.267 OA
ATOM     12  H   LIG d   1       5.788   2.179  -2.953  0.00  0.00     0.064 H 
ATOM     13  H   LIG d   1       3.481   2.343  -2.136  0.00  0.00     0.062 H 
ATOM     14  H   LIG d   1       2.031   0.359  -2.080  0.00  0.00     0.062 H 
ATOM     15  H   LIG d   1       2.868  -1.808  -2.839  0.00  0.00     0.062 H 
ENDROOT
BRANCH   9  16
ATOM     16  C   LIG d   1       7.223  -3.682  -4.724  0.00  0.00     0.077 A 
ATOM     17  C   LIG d   1       6.676  -4.512  -5.864  0.00  0.00     0.016 A 
ATOM     18  C   LIG d   1       7.632  -5.719  -5.937  0.00  0.00     0.072 A 
ATOM     19  H   LIG d   1       5.659  -4.840  -5.645  0.00  0.00     0.035 H 
ATOM     20  H   LIG d   1       6.704  -3.948  -6.796  0.00  0.00     0.035 H 
ATOM     21  N   LIG d   1       8.595  -5.463  -4.854  0.00  0.00    -0.261 N 
ATOM     22  H   LIG d   1       8.139  -5.753  -6.901  0.00  0.00     0.057 H 
ATOM     23  N   LIG d   1       8.259  -4.264  -4.227  0.00  0.00    -0.190 NA
ATOM     24  H   LIG d   1       9.341  -6.036  -4.615  0.00  0.00     0.169 HD
BRANCH  18  25
ATOM     25  C   LIG d   1       6.883  -7.003  -5.688  0.00  0.00     0.016 A 
ATOM     26  C   LIG d   1       7.574  -8.201  -5.585  0.00  0.00     0.122 A 
ATOM     27  C   LIG d   1       6.882  -9.381  -5.354  0.00  0.00    -0.020 A 
ATOM     28  C   LIG d   1       5.507  -9.361  -5.228  0.00  0.00    -0.058 A 
ATOM     29  H   LIG d   1       7.418 -10.315  -5.274  0.00  0.00     0.065 H 
ATOM     30  C   LIG d   1       4.819  -8.164  -5.330  0.00  0.00    -0.061 A 
ATOM     31  H   LIG d   1       4.967 -10.278  -5.048  0.00  0.00     0.062 H 
ATOM     32  C   LIG d   1       5.507  -6.987  -5.556  0.00  0.00    -0.053 A 
ATOM     33  H   LIG d   1       3.744  -8.151  -5.231  0.00  0.00     0.062 H 
ATOM     34  H   LIG d   1       4.969  -6.053  -5.631  0.00  0.00     0.062 H 
BRANCH  26  35
ATOM     35  O   LIG d   1       8.927  -8.219  -5.710  0.00  0.00    -0.506 OA
ATOM     36  H   LIG d   1       9.238  -8.511  -6.579  0.00  0.00     0.292 HD
ENDBRANCH  26  35
ENDBRANCH  18  25
ENDBRANCH   9  16
BRANCH   8  37
ATOM     37  O   LIG d   1       4.563  -3.455  -3.774  0.00  0.00    -0.505 OA
ATOM     38  H   LIG d   1       3.928  -3.475  -3.046  0.00  0.00     0.292 HD
ENDBRANCH   8  37
BRANCH   1  39
ATOM     39  C   LIG d   1       7.798   1.175  -3.853  0.00  0.00     0.015 C 
ATOM     40  H   LIG d   1       7.253   1.994  -4.322  0.00  0.00     0.046 H 
ATOM     41  H   LIG d   1       8.063   1.452  -2.832  0.00  0.00     0.046 H 
ATOM     42  H   LIG d   1       8.705   0.970  -4.421  0.00  0.00     0.046 H 
ENDBRANCH   1  39
TORSDOF 5
ENDMDL
