MODEL 1
REMARK VINA RESULT:      -6.6      0.000      0.000
REMARK  18 active torsions:
REMARK  status: ('A' for Active; 'I' for Inactive)
REMARK    1  A    between atoms: C_1  and  C_2 
REMARK    2  A    between atoms: C_2  and  C_4 
REMARK    3  A    between atoms: C_2  and  N_24 
REMARK       I    between atoms: C_4  and  N_6 
REMARK    4  A    between atoms: N_6  and  C_7 
REMARK    5  A    between atoms: C_7  and  C_8 
REMARK       I    between atoms: C_8  and  N_10 
REMARK    6  A    between atoms: N_10  and  C_11 
REMARK    7  A    between atoms: C_11  and  C_13 
REMARK    8  A    between atoms: C_11  and  C_17 
REMARK    9  A    between atoms: C_13  and  C_14 
REMARK   10  A    between atoms: C_14  and  C_15 
REMARK   11  A    between atoms: C_14  and  C_16 
REMARK       I    between atoms: C_17  and  N_19 
REMARK   12  A    between atoms: N_19  and  C_20 
REMARK   13  A    between atoms: C_20  and  C_21 
REMARK       I    between atoms: C_21  and  N_23 
REMARK       I    between atoms: N_24  and  C_25 
REMARK   14  A    between atoms: C_25  and  C_27 
REMARK   15  A    between atoms: C_27  and  C_29 
REMARK   16  A    between atoms: C_27  and  N_37 
REMARK   17  A    between atoms: C_29  and  C_30 
REMARK   18  A    between atoms: C_33  and  O_36 
ROOT
ATOM      1  C   LIG d   1       8.397   1.328  -6.932  0.00  0.00     0.234 C 
ATOM      2  O   LIG d   1       9.224   0.453  -6.783  0.00  0.00    -0.274 OA
ATOM      3  N   LIG d   1       7.688   1.772  -5.875  0.00  0.00    -0.305 N 
ATOM      4  H   LIG d   1       7.026   2.471  -5.994  0.00  0.00     0.149 HD
ENDROOT
BRANCH   3   5
ATOM      5  C   LIG d   1       7.917   1.198  -4.547  0.00  0.00     0.088 C 
ATOM      6  H   LIG d   1       8.911   0.751  -4.511  0.00  0.00     0.056 H 
ATOM      7  H   LIG d   1       7.842   1.981  -3.794  0.00  0.00     0.056 H 
BRANCH   5   8
ATOM      8  C   LIG d   1       6.881   0.137  -4.272  0.00  0.00     0.231 C 
ATOM      9  O   LIG d   1       7.131  -0.769  -3.505  0.00  0.00    -0.274 OA
ATOM     10  N   LIG d   1       5.680   0.196  -4.879  0.00  0.00    -0.303 N 
ATOM     11  H   LIG d   1       5.453   0.958  -5.435  0.00  0.00     0.149 HD
BRANCH  10  12
ATOM     12  C   LIG d   1       4.715  -0.892  -4.698  0.00  0.00     0.100 C 
ATOM     13  H   LIG d   1       5.097  -1.597  -3.961  0.00  0.00     0.059 H 
BRANCH  12  14
ATOM     14  C   LIG d   1       3.382  -0.316  -4.211  0.00  0.00    -0.024 C 
ATOM     15  H   LIG d   1       3.354   0.754  -4.415  0.00  0.00     0.029 H 
ATOM     16  H   LIG d   1       2.562  -0.807  -4.734  0.00  0.00     0.029 H 
BRANCH  14  17
ATOM     17  C   LIG d   1       3.244  -0.553  -2.706  0.00  0.00    -0.045 C 
ATOM     18  H   LIG d   1       2.188  -0.578  -2.439  0.00  0.00     0.030 H 
BRANCH  17  19
ATOM     19  C   LIG d   1       3.895  -1.887  -2.338  0.00  0.00    -0.063 C 
ATOM     20  H   LIG d   1       3.713  -2.103  -1.285  0.00  0.00     0.023 H 
ATOM     21  H   LIG d   1       3.467  -2.681  -2.951  0.00  0.00     0.023 H 
ATOM     22  H   LIG d   1       4.969  -1.829  -2.516  0.00  0.00     0.023 H 
ENDBRANCH  17  19
BRANCH  17  23
ATOM     23  C   LIG d   1       3.937   0.580  -1.946  0.00  0.00    -0.063 C 
ATOM     24  H   LIG d   1       4.880   0.218  -1.534  0.00  0.00     0.023 H 
ATOM     25  H   LIG d   1       4.132   1.408  -2.627  0.00  0.00     0.023 H 
ATOM     26  H   LIG d   1       3.293   0.920  -1.135  0.00  0.00     0.023 H 
ENDBRANCH  17  23
ENDBRANCH  14  17
ENDBRANCH  12  14
BRANCH  12  27
ATOM     27  C   LIG d   1       4.505  -1.600  -6.012  0.00  0.00     0.234 C 
ATOM     28  O   LIG d   1       4.199  -0.967  -7.000  0.00  0.00    -0.274 OA
ATOM     29  N   LIG d   1       4.659  -2.937  -6.088  0.00  0.00    -0.305 N 
ATOM     30  H   LIG d   1       4.834  -3.452  -5.285  0.00  0.00     0.149 HD
BRANCH  29  31
ATOM     31  C   LIG d   1       4.561  -3.613  -7.385  0.00  0.00     0.088 C 
ATOM     32  H   LIG d   1       4.160  -2.921  -8.125  0.00  0.00     0.056 H 
ATOM     33  H   LIG d   1       5.551  -3.946  -7.696  0.00  0.00     0.056 H 
BRANCH  31  34
ATOM     34  C   LIG d   1       3.645  -4.804  -7.262  0.00  0.00     0.228 C 
ATOM     35  O   LIG d   1       3.437  -5.299  -6.176  0.00  0.00    -0.274 OA
ATOM     36  N   LIG d   1       3.057  -5.316  -8.361  0.00  0.00    -0.328 N 
ATOM     37  H   LIG d   1       3.222  -4.919  -9.230  0.00  0.00     0.145 HD
ATOM     38  H   LIG d   1       2.467  -6.082  -8.283  0.00  0.00     0.145 HD
ENDBRANCH  31  34
ENDBRANCH  29  31
ENDBRANCH  12  27
ENDBRANCH  10  12
ENDBRANCH   5   8
ENDBRANCH   3   5
BRANCH   1  39
ATOM     39  C   LIG d   1       8.161   1.918  -8.298  0.00  0.00     0.097 C 
ATOM     40  H   LIG d   1       8.506   1.220  -9.060  0.00  0.00     0.059 H 
BRANCH  39  41
ATOM     41  C   LIG d   1       8.931   3.233  -8.426  0.00  0.00    -0.038 C 
ATOM     42  H   LIG d   1       9.867   3.057  -8.957  0.00  0.00     0.025 H 
ATOM     43  H   LIG d   1       8.330   3.954  -8.980  0.00  0.00     0.025 H 
ATOM     44  H   LIG d   1       9.146   3.627  -7.432  0.00  0.00     0.025 H 
ENDBRANCH  39  41
BRANCH  39  45
ATOM     45  N   LIG d   1       6.729   2.172  -8.480  0.00  0.00    -0.303 N 
ATOM     46  C   LIG d   1       5.973   1.301  -9.178  0.00  0.00     0.231 C 
ATOM     47  O   LIG d   1       6.478   0.307  -9.655  0.00  0.00    -0.274 OA
ATOM     48  H   LIG d   1       6.326   2.967  -8.099  0.00  0.00     0.149 HD
BRANCH  46  49
ATOM     49  C   LIG d   1       4.501   1.562  -9.365  0.00  0.00     0.086 C 
ATOM     50  H   LIG d   1       3.930   0.909  -8.704  0.00  0.00     0.056 H 
BRANCH  49  51
ATOM     51  C   LIG d   1       4.114   1.281 -10.818  0.00  0.00    -0.004 C 
ATOM     52  H   LIG d   1       3.665   2.173 -11.253  0.00  0.00     0.033 H 
ATOM     53  H   LIG d   1       5.004   1.008 -11.385  0.00  0.00     0.033 H 
BRANCH  51  54
ATOM     54  C   LIG d   1       3.122   0.147 -10.864  0.00  0.00    -0.045 A 
ATOM     55  C   LIG d   1       2.235  -0.037  -9.818  0.00  0.00    -0.055 A 
ATOM     56  C   LIG d   1       1.323  -1.074  -9.860  0.00  0.00    -0.020 A 
ATOM     57  H   LIG d   1       2.254   0.631  -8.971  0.00  0.00     0.062 H 
ATOM     58  C   LIG d   1       1.302  -1.935 -10.946  0.00  0.00     0.117 A 
ATOM     59  H   LIG d   1       0.628  -1.213  -9.046  0.00  0.00     0.065 H 
ATOM     60  C   LIG d   1       2.197  -1.752 -11.992  0.00  0.00    -0.020 A 
ATOM     61  C   LIG d   1       3.105  -0.712 -11.947  0.00  0.00    -0.055 A 
ATOM     62  H   LIG d   1       2.183  -2.422 -12.838  0.00  0.00     0.065 H 
ATOM     63  H   LIG d   1       3.802  -0.569 -12.760  0.00  0.00     0.062 H 
BRANCH  58  64
ATOM     64  O   LIG d   1       0.408  -2.957 -10.988  0.00  0.00    -0.507 OA
ATOM     65  H   LIG d   1      -0.218  -2.962 -10.252  0.00  0.00     0.292 HD
ENDBRANCH  58  64
ENDBRANCH  51  54
ENDBRANCH  49  51
BRANCH  49  66
ATOM     66  N   LIG d   1       4.208   2.964  -9.042  0.00  0.00    -0.320 N 
ATOM     67  H   LIG d   1       3.501   3.337  -9.658  0.00  0.00     0.119 HD
ATOM     68  H   LIG d   1       3.934   3.062  -8.075  0.00  0.00     0.119 HD
ENDBRANCH  49  66
ENDBRANCH  46  49
ENDBRANCH  39  45
ENDBRANCH   1  39
TORSDOF 18
ENDMDL
MODEL 2
REMARK VINA RESULT:      -6.3      1.903      5.960
REMARK  18 active torsions:
REMARK  status: ('A' for Active; 'I' for Inactive)
REMARK    1  A    between atoms: C_1  and  C_2 
REMARK    2  A    between atoms: C_2  and  C_4 
REMARK    3  A    between atoms: C_2  and  N_24 
REMARK       I    between atoms: C_4  and  N_6 
REMARK    4  A    between atoms: N_6  and  C_7 
REMARK    5  A    between atoms: C_7  and  C_8 
REMARK       I    between atoms: C_8  and  N_10 
REMARK    6  A    between atoms: N_10  and  C_11 
REMARK    7  A    between atoms: C_11  and  C_13 
REMARK    8  A    between atoms: C_11  and  C_17 
REMARK    9  A    between atoms: C_13  and  C_14 
REMARK   10  A    between atoms: C_14  and  C_15 
REMARK   11  A    between atoms: C_14  and  C_16 
REMARK       I    between atoms: C_17  and  N_19 
REMARK   12  A    between atoms: N_19  and  C_20 
REMARK   13  A    between atoms: C_20  and  C_21 
REMARK       I    between atoms: C_21  and  N_23 
REMARK       I    between atoms: N_24  and  C_25 
REMARK   14  A    between atoms: C_25  and  C_27 
REMARK   15  A    between atoms: C_27  and  C_29 
REMARK   16  A    between atoms: C_27  and  N_37 
REMARK   17  A    between atoms: C_29  and  C_30 
REMARK   18  A    between atoms: C_33  and  O_36 
ROOT
ATOM      1  C   LIG d   1       3.682  -5.008  -8.660  0.00  0.00     0.234 C 
ATOM      2  O   LIG d   1       4.551  -5.853  -8.614  0.00  0.00    -0.274 OA
ATOM      3  N   LIG d   1       3.558  -4.115  -7.657  0.00  0.00    -0.305 N 
ATOM      4  H   LIG d   1       2.863  -3.439  -7.693  0.00  0.00     0.149 HD
ENDROOT
BRANCH   3   5
ATOM      5  C   LIG d   1       4.473  -4.166  -6.514  0.00  0.00     0.088 C 
ATOM      6  H   LIG d   1       4.101  -4.886  -5.784  0.00  0.00     0.056 H 
ATOM      7  H   LIG d   1       5.463  -4.469  -6.853  0.00  0.00     0.056 H 
BRANCH   5   8
ATOM      8  C   LIG d   1       4.556  -2.803  -5.876  0.00  0.00     0.231 C 
ATOM      9  O   LIG d   1       4.299  -1.812  -6.528  0.00  0.00    -0.274 OA
ATOM     10  N   LIG d   1       4.917  -2.684  -4.583  0.00  0.00    -0.303 N 
ATOM     11  H   LIG d   1       5.052  -3.478  -4.043  0.00  0.00     0.149 HD
BRANCH  10  12
ATOM     12  C   LIG d   1       5.106  -1.356  -3.994  0.00  0.00     0.100 C 
ATOM     13  H   LIG d   1       4.323  -0.687  -4.351  0.00  0.00     0.059 H 
BRANCH  12  14
ATOM     14  C   LIG d   1       5.032  -1.460  -2.469  0.00  0.00    -0.024 C 
ATOM     15  H   LIG d   1       4.763  -2.477  -2.187  0.00  0.00     0.029 H 
ATOM     16  H   LIG d   1       6.003  -1.209  -2.040  0.00  0.00     0.029 H 
BRANCH  14  17
ATOM     17  C   LIG d   1       3.974  -0.488  -1.942  0.00  0.00    -0.045 C 
ATOM     18  H   LIG d   1       3.569  -0.868  -1.004  0.00  0.00     0.030 H 
BRANCH  17  19
ATOM     19  C   LIG d   1       4.614   0.882  -1.703  0.00  0.00    -0.063 C 
ATOM     20  H   LIG d   1       5.550   0.756  -1.158  0.00  0.00     0.023 H 
ATOM     21  H   LIG d   1       4.813   1.362  -2.661  0.00  0.00     0.023 H 
ATOM     22  H   LIG d   1       3.935   1.503  -1.119  0.00  0.00     0.023 H 
ENDBRANCH  17  19
BRANCH  17  23
ATOM     23  C   LIG d   1       2.849  -0.353  -2.968  0.00  0.00    -0.063 C 
ATOM     24  H   LIG d   1       2.571   0.697  -3.068  0.00  0.00     0.023 H 
ATOM     25  H   LIG d   1       3.190  -0.730  -3.932  0.00  0.00     0.023 H 
ATOM     26  H   LIG d   1       1.985  -0.928  -2.638  0.00  0.00     0.023 H 
ENDBRANCH  17  23
ENDBRANCH  14  17
ENDBRANCH  12  14
BRANCH  12  27
ATOM     27  C   LIG d   1       6.453  -0.815  -4.396  0.00  0.00     0.234 C 
ATOM     28  O   LIG d   1       7.465  -1.312  -3.948  0.00  0.00    -0.274 OA
ATOM     29  N   LIG d   1       6.534   0.221  -5.254  0.00  0.00    -0.305 N 
ATOM     30  H   LIG d   1       5.726   0.664  -5.559  0.00  0.00     0.149 HD
BRANCH  29  31
ATOM     31  C   LIG d   1       7.843   0.679  -5.729  0.00  0.00     0.088 C 
ATOM     32  H   LIG d   1       8.525  -0.170  -5.785  0.00  0.00     0.056 H 
ATOM     33  H   LIG d   1       7.735   1.124  -6.718  0.00  0.00     0.056 H 
BRANCH  31  34
ATOM     34  C   LIG d   1       8.394   1.704  -4.772  0.00  0.00     0.228 C 
ATOM     35  O   LIG d   1       8.000   2.850  -4.819  0.00  0.00    -0.274 OA
ATOM     36  N   LIG d   1       9.325   1.347  -3.866  0.00  0.00    -0.328 N 
ATOM     37  H   LIG d   1       9.639   0.430  -3.829  0.00  0.00     0.145 HD
ATOM     38  H   LIG d   1       9.680   2.007  -3.249  0.00  0.00     0.145 HD
ENDBRANCH  31  34
ENDBRANCH  29  31
ENDBRANCH  12  27
ENDBRANCH  10  12
ENDBRANCH   5   8
ENDBRANCH   3   5
BRANCH   1  39
ATOM     39  C   LIG d   1       2.742  -4.956  -9.835  0.00  0.00     0.097 C 
ATOM     40  H   LIG d   1       1.748  -5.271  -9.520  0.00  0.00     0.059 H 
BRANCH  39  41
ATOM     41  C   LIG d   1       3.248  -5.890 -10.936  0.00  0.00    -0.038 C 
ATOM     42  H   LIG d   1       2.447  -6.567 -11.235  0.00  0.00     0.025 H 
ATOM     43  H   LIG d   1       3.563  -5.300 -11.796  0.00  0.00     0.025 H 
ATOM     44  H   LIG d   1       4.093  -6.468 -10.562  0.00  0.00     0.025 H 
ENDBRANCH  39  41
BRANCH  39  45
ATOM     45  N   LIG d   1       2.679  -3.585 -10.350  0.00  0.00    -0.303 N 
ATOM     46  C   LIG d   1       1.485  -3.020 -10.621  0.00  0.00     0.231 C 
ATOM     47  O   LIG d   1       0.463  -3.647 -10.440  0.00  0.00    -0.274 OA
ATOM     48  H   LIG d   1       3.496  -3.084 -10.495  0.00  0.00     0.149 HD
BRANCH  46  49
ATOM     49  C   LIG d   1       1.421  -1.611 -11.150  0.00  0.00     0.086 C 
ATOM     50  H   LIG d   1       2.350  -1.375 -11.670  0.00  0.00     0.056 H 
BRANCH  49  51
ATOM     51  C   LIG d   1       1.228  -0.637  -9.986  0.00  0.00    -0.004 C 
ATOM     52  H   LIG d   1       0.361  -0.006 -10.179  0.00  0.00     0.033 H 
ATOM     53  H   LIG d   1       1.070  -1.199  -9.064  0.00  0.00     0.033 H 
BRANCH  51  54
ATOM     54  C   LIG d   1       2.455   0.226  -9.843  0.00  0.00    -0.045 A 
ATOM     55  C   LIG d   1       3.514   0.070 -10.718  0.00  0.00    -0.055 A 
ATOM     56  C   LIG d   1       4.639   0.863 -10.592  0.00  0.00    -0.020 A 
ATOM     57  H   LIG d   1       3.461  -0.670 -11.503  0.00  0.00     0.062 H 
ATOM     58  C   LIG d   1       4.709   1.809  -9.581  0.00  0.00     0.117 A 
ATOM     59  H   LIG d   1       5.463   0.743 -11.279  0.00  0.00     0.065 H 
ATOM     60  C   LIG d   1       3.647   1.960  -8.700  0.00  0.00    -0.020 A 
ATOM     61  C   LIG d   1       2.523   1.168  -8.833  0.00  0.00    -0.055 A 
ATOM     62  H   LIG d   1       3.699   2.696  -7.912  0.00  0.00     0.065 H 
ATOM     63  H   LIG d   1       1.696   1.284  -8.148  0.00  0.00     0.062 H 
BRANCH  58  64
ATOM     64  O   LIG d   1       5.815   2.588  -9.453  0.00  0.00    -0.507 OA
ATOM     65  H   LIG d   1       6.289   2.736 -10.282  0.00  0.00     0.292 HD
ENDBRANCH  58  64
ENDBRANCH  51  54
ENDBRANCH  49  51
BRANCH  49  66
ATOM     66  N   LIG d   1       0.293  -1.489 -12.082  0.00  0.00    -0.320 N 
ATOM     67  H   LIG d   1      -0.580  -1.705 -11.625  0.00  0.00     0.119 HD
ATOM     68  H   LIG d   1       0.266  -0.570 -12.499  0.00  0.00     0.119 HD
ENDBRANCH  49  66
ENDBRANCH  46  49
ENDBRANCH  39  45
ENDBRANCH   1  39
TORSDOF 18
ENDMDL
MODEL 3
REMARK VINA RESULT:      -6.1      3.779      7.540
REMARK  18 active torsions:
REMARK  status: ('A' for Active; 'I' for Inactive)
REMARK    1  A    between atoms: C_1  and  C_2 
REMARK    2  A    between atoms: C_2  and  C_4 
REMARK    3  A    between atoms: C_2  and  N_24 
REMARK       I    between atoms: C_4  and  N_6 
REMARK    4  A    between atoms: N_6  and  C_7 
REMARK    5  A    between atoms: C_7  and  C_8 
REMARK       I    between atoms: C_8  and  N_10 
REMARK    6  A    between atoms: N_10  and  C_11 
REMARK    7  A    between atoms: C_11  and  C_13 
REMARK    8  A    between atoms: C_11  and  C_17 
REMARK    9  A    between atoms: C_13  and  C_14 
REMARK   10  A    between atoms: C_14  and  C_15 
REMARK   11  A    between atoms: C_14  and  C_16 
REMARK       I    between atoms: C_17  and  N_19 
REMARK   12  A    between atoms: N_19  and  C_20 
REMARK   13  A    between atoms: C_20  and  C_21 
REMARK       I    between atoms: C_21  and  N_23 
REMARK       I    between atoms: N_24  and  C_25 
REMARK   14  A    between atoms: C_25  and  C_27 
REMARK   15  A    between atoms: C_27  and  C_29 
REMARK   16  A    between atoms: C_27  and  N_37 
REMARK   17  A    between atoms: C_29  and  C_30 
REMARK   18  A    between atoms: C_33  and  O_36 
ROOT
ATOM      1  C   LIG d   1      10.359  -1.860  -5.302  0.00  0.00     0.234 C 
ATOM      2  O   LIG d   1      10.118  -2.333  -6.393  0.00  0.00    -0.274 OA
ATOM      3  N   LIG d   1       9.793  -2.390  -4.199  0.00  0.00    -0.305 N 
ATOM      4  H   LIG d   1       9.986  -2.011  -3.327  0.00  0.00     0.149 HD
ENDROOT
BRANCH   3   5
ATOM      5  C   LIG d   1       8.889  -3.535  -4.318  0.00  0.00     0.088 C 
ATOM      6  H   LIG d   1       9.073  -4.047  -5.263  0.00  0.00     0.056 H 
ATOM      7  H   LIG d   1       9.062  -4.223  -3.491  0.00  0.00     0.056 H 
BRANCH   5   8
ATOM      8  C   LIG d   1       7.461  -3.054  -4.279  0.00  0.00     0.231 C 
ATOM      9  O   LIG d   1       6.569  -3.771  -4.681  0.00  0.00    -0.274 OA
ATOM     10  N   LIG d   1       7.175  -1.828  -3.799  0.00  0.00    -0.303 N 
ATOM     11  H   LIG d   1       7.878  -1.283  -3.410  0.00  0.00     0.149 HD
BRANCH  10  12
ATOM     12  C   LIG d   1       5.804  -1.317  -3.863  0.00  0.00     0.100 C 
ATOM     13  H   LIG d   1       5.104  -2.152  -3.833  0.00  0.00     0.059 H 
BRANCH  12  14
ATOM     14  C   LIG d   1       5.547  -0.394  -2.669  0.00  0.00    -0.024 C 
ATOM     15  H   LIG d   1       6.326  -0.542  -1.922  0.00  0.00     0.029 H 
ATOM     16  H   LIG d   1       5.557   0.643  -3.003  0.00  0.00     0.029 H 
BRANCH  14  17
ATOM     17  C   LIG d   1       4.183  -0.720  -2.056  0.00  0.00    -0.045 C 
ATOM     18  H   LIG d   1       4.238  -0.608  -0.973  0.00  0.00     0.030 H 
BRANCH  17  19
ATOM     19  C   LIG d   1       3.130   0.238  -2.615  0.00  0.00    -0.063 C 
ATOM     20  H   LIG d   1       2.869  -0.061  -3.630  0.00  0.00     0.023 H 
ATOM     21  H   LIG d   1       2.240   0.207  -1.986  0.00  0.00     0.023 H 
ATOM     22  H   LIG d   1       3.531   1.252  -2.627  0.00  0.00     0.023 H 
ENDBRANCH  17  19
BRANCH  17  23
ATOM     23  C   LIG d   1       3.800  -2.159  -2.403  0.00  0.00    -0.063 C 
ATOM     24  H   LIG d   1       3.119  -2.548  -1.644  0.00  0.00     0.023 H 
ATOM     25  H   LIG d   1       3.308  -2.180  -3.375  0.00  0.00     0.023 H 
ATOM     26  H   LIG d   1       4.697  -2.777  -2.436  0.00  0.00     0.023 H 
ENDBRANCH  17  23
ENDBRANCH  14  17
ENDBRANCH  12  14
BRANCH  12  27
ATOM     27  C   LIG d   1       5.614  -0.546  -5.143  0.00  0.00     0.234 C 
ATOM     28  O   LIG d   1       6.222   0.488  -5.325  0.00  0.00    -0.274 OA
ATOM     29  N   LIG d   1       4.770  -1.007  -6.088  0.00  0.00    -0.305 N 
ATOM     30  H   LIG d   1       4.232  -1.795  -5.916  0.00  0.00     0.149 HD
BRANCH  29  31
ATOM     31  C   LIG d   1       4.666  -0.316  -7.377  0.00  0.00     0.088 C 
ATOM     32  H   LIG d   1       5.406   0.483  -7.420  0.00  0.00     0.056 H 
ATOM     33  H   LIG d   1       4.848  -1.025  -8.184  0.00  0.00     0.056 H 
BRANCH  31  34
ATOM     34  C   LIG d   1       3.284   0.269  -7.522  0.00  0.00     0.228 C 
ATOM     35  O   LIG d   1       3.070   1.411  -7.177  0.00  0.00    -0.274 OA
ATOM     36  N   LIG d   1       2.288  -0.479  -8.037  0.00  0.00    -0.328 N 
ATOM     37  H   LIG d   1       2.460  -1.392  -8.314  0.00  0.00     0.145 HD
ATOM     38  H   LIG d   1       1.399  -0.103  -8.131  0.00  0.00     0.145 HD
ENDBRANCH  31  34
ENDBRANCH  29  31
ENDBRANCH  12  27
ENDBRANCH  10  12
ENDBRANCH   5   8
ENDBRANCH   3   5
BRANCH   1  39
ATOM     39  C   LIG d   1      11.289  -0.681  -5.180  0.00  0.00     0.097 C 
ATOM     40  H   LIG d   1      11.551  -0.320  -6.174  0.00  0.00     0.059 H 
BRANCH  39  41
ATOM     41  C   LIG d   1      12.559  -1.108  -4.443  0.00  0.00    -0.038 C 
ATOM     42  H   LIG d   1      13.266  -0.277  -4.423  0.00  0.00     0.025 H 
ATOM     43  H   LIG d   1      12.308  -1.393  -3.421  0.00  0.00     0.025 H 
ATOM     44  H   LIG d   1      13.011  -1.957  -4.956  0.00  0.00     0.025 H 
ENDBRANCH  39  41
BRANCH  39  45
ATOM     45  N   LIG d   1      10.626   0.389  -4.431  0.00  0.00    -0.303 N 
ATOM     46  C   LIG d   1       9.953   1.355  -5.087  0.00  0.00     0.231 C 
ATOM     47  O   LIG d   1       9.897   1.338  -6.298  0.00  0.00    -0.274 OA
ATOM     48  H   LIG d   1      10.672   0.402  -3.462  0.00  0.00     0.149 HD
BRANCH  46  49
ATOM     49  C   LIG d   1       9.271   2.456  -4.316  0.00  0.00     0.086 C 
ATOM     50  H   LIG d   1       9.016   3.270  -4.995  0.00  0.00     0.056 H 
BRANCH  49  51
ATOM     51  C   LIG d   1      10.212   2.975  -3.228  0.00  0.00    -0.004 C 
ATOM     52  H   LIG d   1       9.976   2.489  -2.281  0.00  0.00     0.033 H 
ATOM     53  H   LIG d   1      11.244   2.753  -3.503  0.00  0.00     0.033 H 
BRANCH  51  54
ATOM     54  C   LIG d   1      10.040   4.465  -3.084  0.00  0.00    -0.045 A 
ATOM     55  C   LIG d   1       9.632   5.221  -4.168  0.00  0.00    -0.055 A 
ATOM     56  C   LIG d   1       9.471   6.587  -4.038  0.00  0.00    -0.020 A 
ATOM     57  H   LIG d   1       9.438   4.743  -5.116  0.00  0.00     0.062 H 
ATOM     58  C   LIG d   1       9.726   7.201  -2.821  0.00  0.00     0.117 A 
ATOM     59  H   LIG d   1       9.147   7.175  -4.883  0.00  0.00     0.065 H 
ATOM     60  C   LIG d   1      10.141   6.442  -1.736  0.00  0.00    -0.020 A 
ATOM     61  C   LIG d   1      10.297   5.076  -1.870  0.00  0.00    -0.055 A 
ATOM     62  H   LIG d   1      10.341   6.918  -0.788  0.00  0.00     0.065 H 
ATOM     63  H   LIG d   1      10.620   4.484  -1.026  0.00  0.00     0.062 H 
BRANCH  58  64
ATOM     64  O   LIG d   1       9.571   8.545  -2.691  0.00  0.00    -0.507 OA
ATOM     65  H   LIG d   1       9.921   8.903  -1.864  0.00  0.00     0.292 HD
ENDBRANCH  58  64
ENDBRANCH  51  54
ENDBRANCH  49  51
BRANCH  49  66
ATOM     66  N   LIG d   1       8.046   1.932  -3.696  0.00  0.00    -0.320 N 
ATOM     67  H   LIG d   1       8.056   0.924  -3.670  0.00  0.00     0.119 HD
ATOM     68  H   LIG d   1       7.916   2.318  -2.773  0.00  0.00     0.119 HD
ENDBRANCH  49  66
ENDBRANCH  46  49
ENDBRANCH  39  45
ENDBRANCH   1  39
TORSDOF 18
ENDMDL
MODEL 4
REMARK VINA RESULT:      -6.0      2.745      5.762
REMARK  18 active torsions:
REMARK  status: ('A' for Active; 'I' for Inactive)
REMARK    1  A    between atoms: C_1  and  C_2 
REMARK    2  A    between atoms: C_2  and  C_4 
REMARK    3  A    between atoms: C_2  and  N_24 
REMARK       I    between atoms: C_4  and  N_6 
REMARK    4  A    between atoms: N_6  and  C_7 
REMARK    5  A    between atoms: C_7  and  C_8 
REMARK       I    between atoms: C_8  and  N_10 
REMARK    6  A    between atoms: N_10  and  C_11 
REMARK    7  A    between atoms: C_11  and  C_13 
REMARK    8  A    between atoms: C_11  and  C_17 
REMARK    9  A    between atoms: C_13  and  C_14 
REMARK   10  A    between atoms: C_14  and  C_15 
REMARK   11  A    between atoms: C_14  and  C_16 
REMARK       I    between atoms: C_17  and  N_19 
REMARK   12  A    between atoms: N_19  and  C_20 
REMARK   13  A    between atoms: C_20  and  C_21 
REMARK       I    between atoms: C_21  and  N_23 
REMARK       I    between atoms: N_24  and  C_25 
REMARK   14  A    between atoms: C_25  and  C_27 
REMARK   15  A    between atoms: C_27  and  C_29 
REMARK   16  A    between atoms: C_27  and  N_37 
REMARK   17  A    between atoms: C_29  and  C_30 
REMARK   18  A    between atoms: C_33  and  O_36 
ROOT
ATOM      1  C   LIG d   1       3.604  -5.215  -8.683  0.00  0.00     0.234 C 
ATOM      2  O   LIG d   1       4.714  -5.657  -8.897  0.00  0.00    -0.274 OA
ATOM      3  N   LIG d   1       3.263  -4.826  -7.438  0.00  0.00    -0.305 N 
ATOM      4  H   LIG d   1       2.376  -4.473  -7.267  0.00  0.00     0.149 HD
ENDROOT
BRANCH   3   5
ATOM      5  C   LIG d   1       4.231  -4.938  -6.345  0.00  0.00     0.088 C 
ATOM      6  H   LIG d   1       3.828  -5.589  -5.568  0.00  0.00     0.056 H 
ATOM      7  H   LIG d   1       5.162  -5.357  -6.724  0.00  0.00     0.056 H 
BRANCH   5   8
ATOM      8  C   LIG d   1       4.495  -3.571  -5.766  0.00  0.00     0.231 C 
ATOM      9  O   LIG d   1       4.541  -2.603  -6.495  0.00  0.00    -0.274 OA
ATOM     10  N   LIG d   1       4.680  -3.425  -4.439  0.00  0.00    -0.303 N 
ATOM     11  H   LIG d   1       4.571  -4.186  -3.847  0.00  0.00     0.149 HD
BRANCH  10  12
ATOM     12  C   LIG d   1       5.045  -2.117  -3.890  0.00  0.00     0.100 C 
ATOM     13  H   LIG d   1       4.693  -1.332  -4.558  0.00  0.00     0.059 H 
BRANCH  12  14
ATOM     14  C   LIG d   1       4.399  -1.943  -2.513  0.00  0.00    -0.024 C 
ATOM     15  H   LIG d   1       3.760  -2.800  -2.302  0.00  0.00     0.029 H 
ATOM     16  H   LIG d   1       5.176  -1.872  -1.753  0.00  0.00     0.029 H 
BRANCH  14  17
ATOM     17  C   LIG d   1       3.556  -0.665  -2.503  0.00  0.00    -0.045 C 
ATOM     18  H   LIG d   1       2.637  -0.842  -1.944  0.00  0.00     0.030 H 
BRANCH  17  19
ATOM     19  C   LIG d   1       4.349   0.462  -1.838  0.00  0.00    -0.063 C 
ATOM     20  H   LIG d   1       4.037   0.562  -0.799  0.00  0.00     0.023 H 
ATOM     21  H   LIG d   1       5.413   0.230  -1.878  0.00  0.00     0.023 H 
ATOM     22  H   LIG d   1       4.161   1.398  -2.365  0.00  0.00     0.023 H 
ENDBRANCH  17  19
BRANCH  17  23
ATOM     23  C   LIG d   1       3.213  -0.269  -3.940  0.00  0.00    -0.063 C 
ATOM     24  H   LIG d   1       3.808   0.598  -4.230  0.00  0.00     0.023 H 
ATOM     25  H   LIG d   1       3.434  -1.101  -4.608  0.00  0.00     0.023 H 
ATOM     26  H   LIG d   1       2.154  -0.021  -4.005  0.00  0.00     0.023 H 
ENDBRANCH  17  23
ENDBRANCH  14  17
ENDBRANCH  12  14
BRANCH  12  27
ATOM     27  C   LIG d   1       6.543  -2.030  -3.756  0.00  0.00     0.234 C 
ATOM     28  O   LIG d   1       7.053  -1.036  -3.283  0.00  0.00    -0.274 OA
ATOM     29  N   LIG d   1       7.317  -3.057  -4.160  0.00  0.00    -0.305 N 
ATOM     30  H   LIG d   1       6.916  -3.822  -4.602  0.00  0.00     0.149 HD
BRANCH  29  31
ATOM     31  C   LIG d   1       8.764  -3.018  -3.932  0.00  0.00     0.088 C 
ATOM     32  H   LIG d   1       9.281  -2.989  -4.891  0.00  0.00     0.056 H 
ATOM     33  H   LIG d   1       9.017  -2.129  -3.355  0.00  0.00     0.056 H 
BRANCH  31  34
ATOM     34  C   LIG d   1       9.185  -4.249  -3.170  0.00  0.00     0.228 C 
ATOM     35  O   LIG d   1       9.596  -4.147  -2.035  0.00  0.00    -0.274 OA
ATOM     36  N   LIG d   1       9.105  -5.461  -3.754  0.00  0.00    -0.328 N 
ATOM     37  H   LIG d   1       8.775  -5.542  -4.662  0.00  0.00     0.145 HD
ATOM     38  H   LIG d   1       9.375  -6.254  -3.263  0.00  0.00     0.145 HD
ENDBRANCH  31  34
ENDBRANCH  29  31
ENDBRANCH  12  27
ENDBRANCH  10  12
ENDBRANCH   5   8
ENDBRANCH   3   5
BRANCH   1  39
ATOM     39  C   LIG d   1       2.609  -5.100  -9.808  0.00  0.00     0.097 C 
ATOM     40  H   LIG d   1       1.616  -5.359  -9.442  0.00  0.00     0.059 H 
BRANCH  39  41
ATOM     41  C   LIG d   1       3.001  -6.055 -10.937  0.00  0.00    -0.038 C 
ATOM     42  H   LIG d   1       3.993  -6.464 -10.739  0.00  0.00     0.025 H 
ATOM     43  H   LIG d   1       2.278  -6.868 -10.992  0.00  0.00     0.025 H 
ATOM     44  H   LIG d   1       3.014  -5.514 -11.883  0.00  0.00     0.025 H 
ENDBRANCH  39  41
BRANCH  39  45
ATOM     45  N   LIG d   1       2.599  -3.724 -10.313  0.00  0.00    -0.303 N 
ATOM     46  C   LIG d   1       1.430  -3.121 -10.606  0.00  0.00     0.231 C 
ATOM     47  O   LIG d   1       0.386  -3.717 -10.452  0.00  0.00    -0.274 OA
ATOM     48  H   LIG d   1       3.435  -3.248 -10.437  0.00  0.00     0.149 HD
BRANCH  46  49
ATOM     49  C   LIG d   1       1.421  -1.707 -11.125  0.00  0.00     0.086 C 
ATOM     50  H   LIG d   1       2.392  -1.475 -11.564  0.00  0.00     0.056 H 
BRANCH  49  51
ATOM     51  C   LIG d   1       1.139  -0.742  -9.973  0.00  0.00    -0.004 C 
ATOM     52  H   LIG d   1       0.398  -0.007 -10.287  0.00  0.00     0.033 H 
ATOM     53  H   LIG d   1       0.757  -1.299  -9.117  0.00  0.00     0.033 H 
BRANCH  51  54
ATOM     54  C   LIG d   1       2.413  -0.037  -9.584  0.00  0.00    -0.045 A 
ATOM     55  C   LIG d   1       2.792   0.021  -8.255  0.00  0.00    -0.055 A 
ATOM     56  C   LIG d   1       3.961   0.663  -7.896  0.00  0.00    -0.020 A 
ATOM     57  H   LIG d   1       2.174  -0.438  -7.498  0.00  0.00     0.062 H 
ATOM     58  C   LIG d   1       4.751   1.258  -8.869  0.00  0.00     0.117 A 
ATOM     59  H   LIG d   1       4.258   0.704  -6.859  0.00  0.00     0.065 H 
ATOM     60  C   LIG d   1       4.366   1.203 -10.201  0.00  0.00    -0.020 A 
ATOM     61  C   LIG d   1       3.198   0.556 -10.555  0.00  0.00    -0.055 A 
ATOM     62  H   LIG d   1       4.979   1.666 -10.961  0.00  0.00     0.065 H 
ATOM     63  H   LIG d   1       2.897   0.513 -11.592  0.00  0.00     0.062 H 
BRANCH  58  64
ATOM     64  O   LIG d   1       5.899   1.894  -8.519  0.00  0.00    -0.507 OA
ATOM     65  H   LIG d   1       6.149   2.612  -9.116  0.00  0.00     0.292 HD
ENDBRANCH  58  64
ENDBRANCH  51  54
ENDBRANCH  49  51
BRANCH  49  66
ATOM     66  N   LIG d   1       0.375  -1.568 -12.148  0.00  0.00    -0.320 N 
ATOM     67  H   LIG d   1      -0.409  -1.041 -11.794  0.00  0.00     0.119 HD
ATOM     68  H   LIG d   1       0.745  -1.148 -12.987  0.00  0.00     0.119 HD
ENDBRANCH  49  66
ENDBRANCH  46  49
ENDBRANCH  39  45
ENDBRANCH   1  39
TORSDOF 18
ENDMDL
MODEL 5
REMARK VINA RESULT:      -6.0      3.761      7.959
REMARK  18 active torsions:
REMARK  status: ('A' for Active; 'I' for Inactive)
REMARK    1  A    between atoms: C_1  and  C_2 
REMARK    2  A    between atoms: C_2  and  C_4 
REMARK    3  A    between atoms: C_2  and  N_24 
REMARK       I    between atoms: C_4  and  N_6 
REMARK    4  A    between atoms: N_6  and  C_7 
REMARK    5  A    between atoms: C_7  and  C_8 
REMARK       I    between atoms: C_8  and  N_10 
REMARK    6  A    between atoms: N_10  and  C_11 
REMARK    7  A    between atoms: C_11  and  C_13 
REMARK    8  A    between atoms: C_11  and  C_17 
REMARK    9  A    between atoms: C_13  and  C_14 
REMARK   10  A    between atoms: C_14  and  C_15 
REMARK   11  A    between atoms: C_14  and  C_16 
REMARK       I    between atoms: C_17  and  N_19 
REMARK   12  A    between atoms: N_19  and  C_20 
REMARK   13  A    between atoms: C_20  and  C_21 
REMARK       I    between atoms: C_21  and  N_23 
REMARK       I    between atoms: N_24  and  C_25 
REMARK   14  A    between atoms: C_25  and  C_27 
REMARK   15  A    between atoms: C_27  and  C_29 
REMARK   16  A    between atoms: C_27  and  N_37 
REMARK   17  A    between atoms: C_29  and  C_30 
REMARK   18  A    between atoms: C_33  and  O_36 
ROOT
ATOM      1  C   LIG d   1       8.893   1.252  -6.400  0.00  0.00     0.234 C 
ATOM      2  O   LIG d   1       9.636   0.662  -7.155  0.00  0.00    -0.274 OA
ATOM      3  N   LIG d   1       7.850   0.606  -5.841  0.00  0.00    -0.305 N 
ATOM      4  H   LIG d   1       7.255   1.078  -5.237  0.00  0.00     0.149 HD
ENDROOT
BRANCH   3   5
ATOM      5  C   LIG d   1       7.615  -0.807  -6.145  0.00  0.00     0.088 C 
ATOM      6  H   LIG d   1       7.840  -0.994  -7.196  0.00  0.00     0.056 H 
ATOM      7  H   LIG d   1       8.257  -1.425  -5.519  0.00  0.00     0.056 H 
BRANCH   5   8
ATOM      8  C   LIG d   1       6.171  -1.146  -5.874  0.00  0.00     0.231 C 
ATOM      9  O   LIG d   1       5.711  -2.197  -6.269  0.00  0.00    -0.274 OA
ATOM     10  N   LIG d   1       5.392  -0.283  -5.193  0.00  0.00    -0.303 N 
ATOM     11  H   LIG d   1       5.777   0.523  -4.814  0.00  0.00     0.149 HD
BRANCH  10  12
ATOM     12  C   LIG d   1       3.964  -0.561  -5.024  0.00  0.00     0.100 C 
ATOM     13  H   LIG d   1       3.799  -1.638  -5.043  0.00  0.00     0.059 H 
BRANCH  12  14
ATOM     14  C   LIG d   1       3.488   0.005  -3.684  0.00  0.00    -0.024 C 
ATOM     15  H   LIG d   1       3.285   1.070  -3.792  0.00  0.00     0.029 H 
ATOM     16  H   LIG d   1       2.578  -0.510  -3.375  0.00  0.00     0.029 H 
BRANCH  14  17
ATOM     17  C   LIG d   1       4.576  -0.202  -2.628  0.00  0.00    -0.045 C 
ATOM     18  H   LIG d   1       5.553  -0.215  -3.112  0.00  0.00     0.030 H 
BRANCH  17  19
ATOM     19  C   LIG d   1       4.525   0.942  -1.613  0.00  0.00    -0.063 C 
ATOM     20  H   LIG d   1       3.590   0.893  -1.056  0.00  0.00     0.023 H 
ATOM     21  H   LIG d   1       5.365   0.852  -0.922  0.00  0.00     0.023 H 
ATOM     22  H   LIG d   1       4.587   1.895  -2.137  0.00  0.00     0.023 H 
ENDBRANCH  17  19
BRANCH  17  23
ATOM     23  C   LIG d   1       4.343  -1.532  -1.910  0.00  0.00    -0.063 C 
ATOM     24  H   LIG d   1       3.559  -2.090  -2.423  0.00  0.00     0.023 H 
ATOM     25  H   LIG d   1       5.264  -2.114  -1.914  0.00  0.00     0.023 H 
ATOM     26  H   LIG d   1       4.039  -1.341  -0.881  0.00  0.00     0.023 H 
ENDBRANCH  17  23
ENDBRANCH  14  17
ENDBRANCH  12  14
BRANCH  12  27
ATOM     27  C   LIG d   1       3.191   0.086  -6.144  0.00  0.00     0.234 C 
ATOM     28  O   LIG d   1       2.663   1.164  -5.973  0.00  0.00    -0.274 OA
ATOM     29  N   LIG d   1       3.088  -0.533  -7.337  0.00  0.00    -0.305 N 
ATOM     30  H   LIG d   1       3.450  -1.426  -7.454  0.00  0.00     0.149 HD
BRANCH  29  31
ATOM     31  C   LIG d   1       2.429   0.142  -8.459  0.00  0.00     0.088 C 
ATOM     32  H   LIG d   1       2.064  -0.604  -9.166  0.00  0.00     0.056 H 
ATOM     33  H   LIG d   1       1.591   0.731  -8.086  0.00  0.00     0.056 H 
BRANCH  31  34
ATOM     34  C   LIG d   1       3.415   1.049  -9.149  0.00  0.00     0.228 C 
ATOM     35  O   LIG d   1       4.050   0.643 -10.098  0.00  0.00    -0.274 OA
ATOM     36  N   LIG d   1       3.591   2.310  -8.709  0.00  0.00    -0.328 N 
ATOM     37  H   LIG d   1       3.082   2.634  -7.949  0.00  0.00     0.145 HD
ATOM     38  H   LIG d   1       4.225   2.895  -9.153  0.00  0.00     0.145 HD
ENDBRANCH  31  34
ENDBRANCH  29  31
ENDBRANCH  12  27
ENDBRANCH  10  12
ENDBRANCH   5   8
ENDBRANCH   3   5
BRANCH   1  39
ATOM     39  C   LIG d   1       9.135   2.706  -6.087  0.00  0.00     0.097 C 
ATOM     40  H   LIG d   1       8.246   3.129  -5.619  0.00  0.00     0.059 H 
BRANCH  39  41
ATOM     41  C   LIG d   1       9.440   3.463  -7.380  0.00  0.00    -0.038 C 
ATOM     42  H   LIG d   1      10.402   3.135  -7.776  0.00  0.00     0.025 H 
ATOM     43  H   LIG d   1       8.659   3.260  -8.113  0.00  0.00     0.025 H 
ATOM     44  H   LIG d   1       9.477   4.533  -7.175  0.00  0.00     0.025 H 
ENDBRANCH  39  41
BRANCH  39  45
ATOM     45  N   LIG d   1      10.272   2.825  -5.171  0.00  0.00    -0.303 N 
ATOM     46  C   LIG d   1      10.084   2.704  -3.842  0.00  0.00     0.231 C 
ATOM     47  O   LIG d   1       8.973   2.495  -3.404  0.00  0.00    -0.274 OA
ATOM     48  H   LIG d   1      11.161   2.992  -5.522  0.00  0.00     0.149 HD
BRANCH  46  49
ATOM     49  C   LIG d   1      11.254   2.826  -2.900  0.00  0.00     0.086 C 
ATOM     50  H   LIG d   1      10.905   2.731  -1.872  0.00  0.00     0.056 H 
BRANCH  49  51
ATOM     51  C   LIG d   1      11.919   4.191  -3.088  0.00  0.00    -0.004 C 
ATOM     52  H   LIG d   1      12.877   4.203  -2.568  0.00  0.00     0.033 H 
ATOM     53  H   LIG d   1      12.081   4.374  -4.151  0.00  0.00     0.033 H 
BRANCH  51  54
ATOM     54  C   LIG d   1      11.028   5.267  -2.524  0.00  0.00    -0.045 A 
ATOM     55  C   LIG d   1      10.974   5.472  -1.157  0.00  0.00    -0.055 A 
ATOM     56  C   LIG d   1      10.161   6.460  -0.638  0.00  0.00    -0.020 A 
ATOM     57  H   LIG d   1      11.570   4.860  -0.496  0.00  0.00     0.062 H 
ATOM     58  C   LIG d   1       9.391   7.241  -1.487  0.00  0.00     0.117 A 
ATOM     59  H   LIG d   1      10.123   6.622   0.429  0.00  0.00     0.065 H 
ATOM     60  C   LIG d   1       9.443   7.030  -2.858  0.00  0.00    -0.020 A 
ATOM     61  C   LIG d   1      10.261   6.044  -3.373  0.00  0.00    -0.055 A 
ATOM     62  H   LIG d   1       8.844   7.637  -3.521  0.00  0.00     0.065 H 
ATOM     63  H   LIG d   1      10.302   5.878  -4.439  0.00  0.00     0.062 H 
BRANCH  58  64
ATOM     64  O   LIG d   1       8.588   8.212  -0.978  0.00  0.00    -0.507 OA
ATOM     65  H   LIG d   1       8.918   8.606  -0.160  0.00  0.00     0.292 HD
ENDBRANCH  58  64
ENDBRANCH  51  54
ENDBRANCH  49  51
BRANCH  49  66
ATOM     66  N   LIG d   1      12.227   1.763  -3.187  0.00  0.00    -0.320 N 
ATOM     67  H   LIG d   1      11.895   0.870  -2.856  0.00  0.00     0.119 HD
ATOM     68  H   LIG d   1      12.442   1.728  -4.172  0.00  0.00     0.119 HD
ENDBRANCH  49  66
ENDBRANCH  46  49
ENDBRANCH  39  45
ENDBRANCH   1  39
TORSDOF 18
ENDMDL
MODEL 6
REMARK VINA RESULT:      -5.9      5.022      8.834
REMARK  18 active torsions:
REMARK  status: ('A' for Active; 'I' for Inactive)
REMARK    1  A    between atoms: C_1  and  C_2 
REMARK    2  A    between atoms: C_2  and  C_4 
REMARK    3  A    between atoms: C_2  and  N_24 
REMARK       I    between atoms: C_4  and  N_6 
REMARK    4  A    between atoms: N_6  and  C_7 
REMARK    5  A    between atoms: C_7  and  C_8 
REMARK       I    between atoms: C_8  and  N_10 
REMARK    6  A    between atoms: N_10  and  C_11 
REMARK    7  A    between atoms: C_11  and  C_13 
REMARK    8  A    between atoms: C_11  and  C_17 
REMARK    9  A    between atoms: C_13  and  C_14 
REMARK   10  A    between atoms: C_14  and  C_15 
REMARK   11  A    between atoms: C_14  and  C_16 
REMARK       I    between atoms: C_17  and  N_19 
REMARK   12  A    between atoms: N_19  and  C_20 
REMARK   13  A    between atoms: C_20  and  C_21 
REMARK       I    between atoms: C_21  and  N_23 
REMARK       I    between atoms: N_24  and  C_25 
REMARK   14  A    between atoms: C_25  and  C_27 
REMARK   15  A    between atoms: C_27  and  C_29 
REMARK   16  A    between atoms: C_27  and  N_37 
REMARK   17  A    between atoms: C_29  and  C_30 
REMARK   18  A    between atoms: C_33  and  O_36 
ROOT
ATOM      1  C   LIG d   1       9.790   2.844  -5.140  0.00  0.00     0.234 C 
ATOM      2  O   LIG d   1       9.877   3.002  -6.339  0.00  0.00    -0.274 OA
ATOM      3  N   LIG d   1       8.792   2.094  -4.630  0.00  0.00    -0.305 N 
ATOM      4  H   LIG d   1       8.722   1.967  -3.671  0.00  0.00     0.149 HD
ENDROOT
BRANCH   3   5
ATOM      5  C   LIG d   1       7.815   1.470  -5.525  0.00  0.00     0.088 C 
ATOM      6  H   LIG d   1       7.095   2.219  -5.856  0.00  0.00     0.056 H 
ATOM      7  H   LIG d   1       8.328   1.051  -6.390  0.00  0.00     0.056 H 
BRANCH   5   8
ATOM      8  C   LIG d   1       7.092   0.370  -4.790  0.00  0.00     0.231 C 
ATOM      9  O   LIG d   1       7.678  -0.290  -3.958  0.00  0.00    -0.274 OA
ATOM     10  N   LIG d   1       5.795   0.119  -5.058  0.00  0.00    -0.303 N 
ATOM     11  H   LIG d   1       5.306   0.693  -5.670  0.00  0.00     0.149 HD
BRANCH  10  12
ATOM     12  C   LIG d   1       5.123  -1.019  -4.426  0.00  0.00     0.100 C 
ATOM     13  H   LIG d   1       5.591  -1.228  -3.464  0.00  0.00     0.059 H 
BRANCH  12  14
ATOM     14  C   LIG d   1       3.645  -0.684  -4.213  0.00  0.00    -0.024 C 
ATOM     15  H   LIG d   1       3.399   0.233  -4.749  0.00  0.00     0.029 H 
ATOM     16  H   LIG d   1       3.029  -1.501  -4.590  0.00  0.00     0.029 H 
BRANCH  14  17
ATOM     17  C   LIG d   1       3.376  -0.489  -2.719  0.00  0.00    -0.045 C 
ATOM     18  H   LIG d   1       2.346  -0.767  -2.497  0.00  0.00     0.030 H 
BRANCH  17  19
ATOM     19  C   LIG d   1       4.328  -1.372  -1.910  0.00  0.00    -0.063 C 
ATOM     20  H   LIG d   1       4.326  -2.381  -2.321  0.00  0.00     0.023 H 
ATOM     21  H   LIG d   1       5.337  -0.961  -1.962  0.00  0.00     0.023 H 
ATOM     22  H   LIG d   1       4.001  -1.402  -0.871  0.00  0.00     0.023 H 
ENDBRANCH  17  19
BRANCH  17  23
ATOM     23  C   LIG d   1       3.602   0.977  -2.348  0.00  0.00    -0.063 C 
ATOM     24  H   LIG d   1       4.672   1.174  -2.274  0.00  0.00     0.023 H 
ATOM     25  H   LIG d   1       3.167   1.617  -3.116  0.00  0.00     0.023 H 
ATOM     26  H   LIG d   1       3.127   1.187  -1.389  0.00  0.00     0.023 H 
ENDBRANCH  17  23
ENDBRANCH  14  17
ENDBRANCH  12  14
BRANCH  12  27
ATOM     27  C   LIG d   1       5.240  -2.228  -5.317  0.00  0.00     0.234 C 
ATOM     28  O   LIG d   1       5.094  -2.116  -6.516  0.00  0.00    -0.274 OA
ATOM     29  N   LIG d   1       5.508  -3.436  -4.781  0.00  0.00    -0.305 N 
ATOM     30  H   LIG d   1       5.556  -3.540  -3.818  0.00  0.00     0.149 HD
BRANCH  29  31
ATOM     31  C   LIG d   1       5.728  -4.593  -5.654  0.00  0.00     0.088 C 
ATOM     32  H   LIG d   1       6.031  -4.248  -6.642  0.00  0.00     0.056 H 
ATOM     33  H   LIG d   1       6.512  -5.222  -5.232  0.00  0.00     0.056 H 
BRANCH  31  34
ATOM     34  C   LIG d   1       4.452  -5.387  -5.767  0.00  0.00     0.228 C 
ATOM     35  O   LIG d   1       4.373  -6.482  -5.254  0.00  0.00    -0.274 OA
ATOM     36  N   LIG d   1       3.401  -4.878  -6.438  0.00  0.00    -0.328 N 
ATOM     37  H   LIG d   1       3.465  -4.001  -6.848  0.00  0.00     0.145 HD
ATOM     38  H   LIG d   1       2.579  -5.389  -6.511  0.00  0.00     0.145 HD
ENDBRANCH  31  34
ENDBRANCH  29  31
ENDBRANCH  12  27
ENDBRANCH  10  12
ENDBRANCH   5   8
ENDBRANCH   3   5
BRANCH   1  39
ATOM     39  C   LIG d   1      10.795   3.486  -4.219  0.00  0.00     0.097 C 
ATOM     40  H   LIG d   1      11.707   3.706  -4.774  0.00  0.00     0.059 H 
BRANCH  39  41
ATOM     41  C   LIG d   1      11.116   2.531  -3.068  0.00  0.00    -0.038 C 
ATOM     42  H   LIG d   1      10.219   2.368  -2.470  0.00  0.00     0.025 H 
ATOM     43  H   LIG d   1      11.460   1.579  -3.472  0.00  0.00     0.025 H 
ATOM     44  H   LIG d   1      11.897   2.965  -2.443  0.00  0.00     0.025 H 
ENDBRANCH  39  41
BRANCH  39  45
ATOM     45  N   LIG d   1      10.240   4.730  -3.681  0.00  0.00    -0.303 N 
ATOM     46  C   LIG d   1      10.718   5.919  -4.099  0.00  0.00     0.231 C 
ATOM     47  O   LIG d   1      11.609   5.959  -4.920  0.00  0.00    -0.274 OA
ATOM     48  H   LIG d   1       9.528   4.698  -3.023  0.00  0.00     0.149 HD
BRANCH  46  49
ATOM     49  C   LIG d   1      10.147   7.199  -3.545  0.00  0.00     0.086 C 
ATOM     50  H   LIG d   1      10.961   7.861  -3.247  0.00  0.00     0.056 H 
BRANCH  49  51
ATOM     51  C   LIG d   1       9.275   6.883  -2.328  0.00  0.00    -0.004 C 
ATOM     52  H   LIG d   1       8.340   7.439  -2.397  0.00  0.00     0.033 H 
ATOM     53  H   LIG d   1       9.061   5.815  -2.301  0.00  0.00     0.033 H 
BRANCH  51  54
ATOM     54  C   LIG d   1      10.004   7.281  -1.071  0.00  0.00    -0.045 A 
ATOM     55  C   LIG d   1      10.128   8.618  -0.738  0.00  0.00    -0.055 A 
ATOM     56  C   LIG d   1      10.792   8.985   0.416  0.00  0.00    -0.020 A 
ATOM     57  H   LIG d   1       9.703   9.375  -1.380  0.00  0.00     0.062 H 
ATOM     58  C   LIG d   1      11.342   8.013   1.238  0.00  0.00     0.117 A 
ATOM     59  H   LIG d   1      10.884  10.029   0.677  0.00  0.00     0.065 H 
ATOM     60  C   LIG d   1      11.221   6.672   0.899  0.00  0.00    -0.020 A 
ATOM     61  C   LIG d   1      10.553   6.310  -0.254  0.00  0.00    -0.055 A 
ATOM     62  H   LIG d   1      11.649   5.913   1.537  0.00  0.00     0.065 H 
ATOM     63  H   LIG d   1      10.458   5.267  -0.518  0.00  0.00     0.062 H 
BRANCH  58  64
ATOM     64  O   LIG d   1      11.999   8.371   2.372  0.00  0.00    -0.507 OA
ATOM     65  H   LIG d   1      11.757   7.848   3.148  0.00  0.00     0.292 HD
ENDBRANCH  58  64
ENDBRANCH  51  54
ENDBRANCH  49  51
BRANCH  49  66
ATOM     66  N   LIG d   1       9.332   7.857  -4.574  0.00  0.00    -0.320 N 
ATOM     67  H   LIG d   1       8.367   7.567  -4.513  0.00  0.00     0.119 HD
ATOM     68  H   LIG d   1       9.413   8.861  -4.512  0.00  0.00     0.119 HD
ENDBRANCH  49  66
ENDBRANCH  46  49
ENDBRANCH  39  45
ENDBRANCH   1  39
TORSDOF 18
ENDMDL
MODEL 7
REMARK VINA RESULT:      -5.8      6.653     10.059
REMARK  18 active torsions:
REMARK  status: ('A' for Active; 'I' for Inactive)
REMARK    1  A    between atoms: C_1  and  C_2 
REMARK    2  A    between atoms: C_2  and  C_4 
REMARK    3  A    between atoms: C_2  and  N_24 
REMARK       I    between atoms: C_4  and  N_6 
REMARK    4  A    between atoms: N_6  and  C_7 
REMARK    5  A    between atoms: C_7  and  C_8 
REMARK       I    between atoms: C_8  and  N_10 
REMARK    6  A    between atoms: N_10  and  C_11 
REMARK    7  A    between atoms: C_11  and  C_13 
REMARK    8  A    between atoms: C_11  and  C_17 
REMARK    9  A    between atoms: C_13  and  C_14 
REMARK   10  A    between atoms: C_14  and  C_15 
REMARK   11  A    between atoms: C_14  and  C_16 
REMARK       I    between atoms: C_17  and  N_19 
REMARK   12  A    between atoms: N_19  and  C_20 
REMARK   13  A    between atoms: C_20  and  C_21 
REMARK       I    between atoms: C_21  and  N_23 
REMARK       I    between atoms: N_24  and  C_25 
REMARK   14  A    between atoms: C_25  and  C_27 
REMARK   15  A    between atoms: C_27  and  C_29 
REMARK   16  A    between atoms: C_27  and  N_37 
REMARK   17  A    between atoms: C_29  and  C_30 
REMARK   18  A    between atoms: C_33  and  O_36 
ROOT
ATOM      1  C   LIG d   1       5.048  -8.557  -5.161  0.00  0.00     0.234 C 
ATOM      2  O   LIG d   1       4.135  -9.277  -4.814  0.00  0.00    -0.274 OA
ATOM      3  N   LIG d   1       6.260  -8.681  -4.583  0.00  0.00    -0.305 N 
ATOM      4  H   LIG d   1       6.990  -8.105  -4.861  0.00  0.00     0.149 HD
ENDROOT
BRANCH   3   5
ATOM      5  C   LIG d   1       6.475  -9.685  -3.538  0.00  0.00     0.088 C 
ATOM      6  H   LIG d   1       5.946  -9.385  -2.633  0.00  0.00     0.056 H 
ATOM      7  H   LIG d   1       6.098 -10.649  -3.877  0.00  0.00     0.056 H 
BRANCH   5   8
ATOM      8  C   LIG d   1       7.949  -9.797  -3.244  0.00  0.00     0.231 C 
ATOM      9  O   LIG d   1       8.596 -10.700  -3.731  0.00  0.00    -0.274 OA
ATOM     10  N   LIG d   1       8.547  -8.895  -2.441  0.00  0.00    -0.303 N 
ATOM     11  H   LIG d   1       8.046  -8.132  -2.111  0.00  0.00     0.149 HD
BRANCH  10  12
ATOM     12  C   LIG d   1       9.953  -9.066  -2.067  0.00  0.00     0.100 C 
ATOM     13  H   LIG d   1      10.403  -9.839  -2.690  0.00  0.00     0.059 H 
BRANCH  12  14
ATOM     14  C   LIG d   1      10.700  -7.746  -2.271  0.00  0.00    -0.024 C 
ATOM     15  H   LIG d   1      11.202  -7.467  -1.345  0.00  0.00     0.029 H 
ATOM     16  H   LIG d   1      11.439  -7.865  -3.063  0.00  0.00     0.029 H 
BRANCH  14  17
ATOM     17  C   LIG d   1       9.704  -6.651  -2.662  0.00  0.00    -0.045 C 
ATOM     18  H   LIG d   1       8.701  -7.076  -2.714  0.00  0.00     0.030 H 
BRANCH  17  19
ATOM     19  C   LIG d   1       9.733  -5.538  -1.613  0.00  0.00    -0.063 C 
ATOM     20  H   LIG d   1       9.621  -5.971  -0.620  0.00  0.00     0.023 H 
ATOM     21  H   LIG d   1      10.684  -5.007  -1.673  0.00  0.00     0.023 H 
ATOM     22  H   LIG d   1       8.916  -4.841  -1.800  0.00  0.00     0.023 H 
ENDBRANCH  17  19
BRANCH  17  23
ATOM     23  C   LIG d   1      10.087  -6.077  -4.027  0.00  0.00    -0.063 C 
ATOM     24  H   LIG d   1      11.165  -5.913  -4.063  0.00  0.00     0.023 H 
ATOM     25  H   LIG d   1       9.801  -6.779  -4.810  0.00  0.00     0.023 H 
ATOM     26  H   LIG d   1       9.571  -5.130  -4.180  0.00  0.00     0.023 H 
ENDBRANCH  17  23
ENDBRANCH  14  17
ENDBRANCH  12  14
BRANCH  12  27
ATOM     27  C   LIG d   1      10.041  -9.473  -0.619  0.00  0.00     0.234 C 
ATOM     28  O   LIG d   1       9.611 -10.551  -0.264  0.00  0.00    -0.274 OA
ATOM     29  N   LIG d   1      10.598  -8.640   0.282  0.00  0.00    -0.305 N 
ATOM     30  H   LIG d   1      10.878  -7.751   0.013  0.00  0.00     0.149 HD
BRANCH  29  31
ATOM     31  C   LIG d   1      10.782  -9.077   1.669  0.00  0.00     0.088 C 
ATOM     32  H   LIG d   1       9.822  -9.054   2.186  0.00  0.00     0.056 H 
ATOM     33  H   LIG d   1      11.177 -10.093   1.680  0.00  0.00     0.056 H 
BRANCH  31  34
ATOM     34  C   LIG d   1      11.749  -8.153   2.363  0.00  0.00     0.228 C 
ATOM     35  O   LIG d   1      11.627  -7.928   3.548  0.00  0.00    -0.274 OA
ATOM     36  N   LIG d   1      12.748  -7.578   1.665  0.00  0.00    -0.328 N 
ATOM     37  H   LIG d   1      12.845  -7.759   0.717  0.00  0.00     0.145 HD
ATOM     38  H   LIG d   1      13.371  -6.983   2.112  0.00  0.00     0.145 HD
ENDBRANCH  31  34
ENDBRANCH  29  31
ENDBRANCH  12  27
ENDBRANCH  10  12
ENDBRANCH   5   8
ENDBRANCH   3   5
BRANCH   1  39
ATOM     39  C   LIG d   1       4.828  -7.526  -6.236  0.00  0.00     0.097 C 
ATOM     40  H   LIG d   1       3.774  -7.507  -6.511  0.00  0.00     0.059 H 
BRANCH  39  41
ATOM     41  C   LIG d   1       5.669  -7.879  -7.463  0.00  0.00    -0.038 C 
ATOM     42  H   LIG d   1       6.048  -6.964  -7.921  0.00  0.00     0.025 H 
ATOM     43  H   LIG d   1       6.507  -8.506  -7.160  0.00  0.00     0.025 H 
ATOM     44  H   LIG d   1       5.053  -8.418  -8.184  0.00  0.00     0.025 H 
ENDBRANCH  39  41
BRANCH  39  45
ATOM     45  N   LIG d   1       5.224  -6.206  -5.735  0.00  0.00    -0.303 N 
ATOM     46  C   LIG d   1       4.389  -5.157  -5.865  0.00  0.00     0.231 C 
ATOM     47  O   LIG d   1       3.309  -5.304  -6.396  0.00  0.00    -0.274 OA
ATOM     48  H   LIG d   1       6.088  -6.089  -5.311  0.00  0.00     0.149 HD
BRANCH  46  49
ATOM     49  C   LIG d   1       4.797  -3.801  -5.350  0.00  0.00     0.086 C 
ATOM     50  H   LIG d   1       5.877  -3.686  -5.445  0.00  0.00     0.056 H 
BRANCH  49  51
ATOM     51  C   LIG d   1       4.399  -3.672  -3.879  0.00  0.00    -0.004 C 
ATOM     52  H   LIG d   1       3.334  -3.882  -3.771  0.00  0.00     0.033 H 
ATOM     53  H   LIG d   1       4.971  -4.384  -3.284  0.00  0.00     0.033 H 
BRANCH  51  54
ATOM     54  C   LIG d   1       4.685  -2.273  -3.400  0.00  0.00    -0.045 A 
ATOM     55  C   LIG d   1       3.702  -1.551  -2.749  0.00  0.00    -0.055 A 
ATOM     56  C   LIG d   1       3.963  -0.269  -2.306  0.00  0.00    -0.020 A 
ATOM     57  H   LIG d   1       2.729  -1.991  -2.585  0.00  0.00     0.062 H 
ATOM     58  C   LIG d   1       5.210   0.298  -2.522  0.00  0.00     0.117 A 
ATOM     59  H   LIG d   1       3.196   0.292  -1.793  0.00  0.00     0.065 H 
ATOM     60  C   LIG d   1       6.194  -0.426  -3.181  0.00  0.00    -0.020 A 
ATOM     61  C   LIG d   1       5.929  -1.709  -3.618  0.00  0.00    -0.055 A 
ATOM     62  H   LIG d   1       7.166   0.013  -3.351  0.00  0.00     0.065 H 
ATOM     63  H   LIG d   1       6.694  -2.274  -4.132  0.00  0.00     0.062 H 
BRANCH  58  64
ATOM     64  O   LIG d   1       5.469   1.560  -2.090  0.00  0.00    -0.507 OA
ATOM     65  H   LIG d   1       6.403   1.806  -2.133  0.00  0.00     0.292 HD
ENDBRANCH  58  64
ENDBRANCH  51  54
ENDBRANCH  49  51
BRANCH  49  66
ATOM     66  N   LIG d   1       4.122  -2.757  -6.133  0.00  0.00    -0.320 N 
ATOM     67  H   LIG d   1       3.756  -3.131  -6.996  0.00  0.00     0.119 HD
ATOM     68  H   LIG d   1       3.394  -2.313  -5.593  0.00  0.00     0.119 HD
ENDBRANCH  49  66
ENDBRANCH  46  49
ENDBRANCH  39  45
ENDBRANCH   1  39
TORSDOF 18
ENDMDL
MODEL 8
REMARK VINA RESULT:      -5.8      5.756      9.478
REMARK  18 active torsions:
REMARK  status: ('A' for Active; 'I' for Inactive)
REMARK    1  A    between atoms: C_1  and  C_2 
REMARK    2  A    between atoms: C_2  and  C_4 
REMARK    3  A    between atoms: C_2  and  N_24 
REMARK       I    between atoms: C_4  and  N_6 
REMARK    4  A    between atoms: N_6  and  C_7 
REMARK    5  A    between atoms: C_7  and  C_8 
REMARK       I    between atoms: C_8  and  N_10 
REMARK    6  A    between atoms: N_10  and  C_11 
REMARK    7  A    between atoms: C_11  and  C_13 
REMARK    8  A    between atoms: C_11  and  C_17 
REMARK    9  A    between atoms: C_13  and  C_14 
REMARK   10  A    between atoms: C_14  and  C_15 
REMARK   11  A    between atoms: C_14  and  C_16 
REMARK       I    between atoms: C_17  and  N_19 
REMARK   12  A    between atoms: N_19  and  C_20 
REMARK   13  A    between atoms: C_20  and  C_21 
REMARK       I    between atoms: C_21  and  N_23 
REMARK       I    between atoms: N_24  and  C_25 
REMARK   14  A    between atoms: C_25  and  C_27 
REMARK   15  A    between atoms: C_27  and  C_29 
REMARK   16  A    between atoms: C_27  and  N_37 
REMARK   17  A    between atoms: C_29  and  C_30 
REMARK   18  A    between atoms: C_33  and  O_36 
ROOT
ATOM      1  C   LIG d   1       9.356   2.410  -3.903  0.00  0.00     0.234 C 
ATOM      2  O   LIG d   1      10.395   1.836  -3.651  0.00  0.00    -0.274 OA
ATOM      3  N   LIG d   1       8.286   1.709  -4.328  0.00  0.00    -0.305 N 
ATOM      4  H   LIG d   1       7.455   2.167  -4.529  0.00  0.00     0.149 HD
ENDROOT
BRANCH   3   5
ATOM      5  C   LIG d   1       8.378   0.255  -4.486  0.00  0.00     0.088 C 
ATOM      6  H   LIG d   1       8.771   0.022  -5.476  0.00  0.00     0.056 H 
ATOM      7  H   LIG d   1       9.042  -0.152  -3.725  0.00  0.00     0.056 H 
BRANCH   5   8
ATOM      8  C   LIG d   1       7.008  -0.354  -4.334  0.00  0.00     0.231 C 
ATOM      9  O   LIG d   1       6.888  -1.467  -3.866  0.00  0.00    -0.274 OA
ATOM     10  N   LIG d   1       5.916   0.336  -4.719  0.00  0.00    -0.303 N 
ATOM     11  H   LIG d   1       6.005   1.252  -5.025  0.00  0.00     0.149 HD
BRANCH  10  12
ATOM     12  C   LIG d   1       4.596  -0.297  -4.674  0.00  0.00     0.100 C 
ATOM     13  H   LIG d   1       4.670  -1.256  -4.161  0.00  0.00     0.059 H 
BRANCH  12  14
ATOM     14  C   LIG d   1       3.620   0.610  -3.921  0.00  0.00    -0.024 C 
ATOM     15  H   LIG d   1       3.992   1.634  -3.936  0.00  0.00     0.029 H 
ATOM     16  H   LIG d   1       2.643   0.571  -4.402  0.00  0.00     0.029 H 
BRANCH  14  17
ATOM     17  C   LIG d   1       3.496   0.134  -2.472  0.00  0.00    -0.045 C 
ATOM     18  H   LIG d   1       2.496   0.363  -2.100  0.00  0.00     0.030 H 
BRANCH  17  19
ATOM     19  C   LIG d   1       3.730  -1.376  -2.409  0.00  0.00    -0.063 C 
ATOM     20  H   LIG d   1       4.399  -1.674  -3.216  0.00  0.00     0.023 H 
ATOM     21  H   LIG d   1       4.180  -1.634  -1.450  0.00  0.00     0.023 H 
ATOM     22  H   LIG d   1       2.778  -1.896  -2.515  0.00  0.00     0.023 H 
ENDBRANCH  17  19
BRANCH  17  23
ATOM     23  C   LIG d   1       4.537   0.849  -1.610  0.00  0.00    -0.063 C 
ATOM     24  H   LIG d   1       4.524   0.431  -0.602  0.00  0.00     0.023 H 
ATOM     25  H   LIG d   1       5.526   0.712  -2.046  0.00  0.00     0.023 H 
ATOM     26  H   LIG d   1       4.304   1.913  -1.565  0.00  0.00     0.023 H 
ENDBRANCH  17  23
ENDBRANCH  14  17
ENDBRANCH  12  14
BRANCH  12  27
ATOM     27  C   LIG d   1       4.096  -0.515  -6.079  0.00  0.00     0.234 C 
ATOM     28  O   LIG d   1       3.536   0.383  -6.670  0.00  0.00    -0.274 OA
ATOM     29  N   LIG d   1       4.273  -1.710  -6.679  0.00  0.00    -0.305 N 
ATOM     30  H   LIG d   1       4.657  -2.450  -6.183  0.00  0.00     0.149 HD
BRANCH  29  31
ATOM     31  C   LIG d   1       3.884  -1.890  -8.081  0.00  0.00     0.088 C 
ATOM     32  H   LIG d   1       2.987  -1.307  -8.285  0.00  0.00     0.056 H 
ATOM     33  H   LIG d   1       4.693  -1.553  -8.728  0.00  0.00     0.056 H 
BRANCH  31  34
ATOM     34  C   LIG d   1       3.606  -3.348  -8.340  0.00  0.00     0.228 C 
ATOM     35  O   LIG d   1       3.379  -3.730  -9.468  0.00  0.00    -0.274 OA
ATOM     36  N   LIG d   1       3.610  -4.227  -7.318  0.00  0.00    -0.328 N 
ATOM     37  H   LIG d   1       3.793  -3.921  -6.416  0.00  0.00     0.145 HD
ATOM     38  H   LIG d   1       3.432  -5.166  -7.485  0.00  0.00     0.145 HD
ENDBRANCH  31  34
ENDBRANCH  29  31
ENDBRANCH  12  27
ENDBRANCH  10  12
ENDBRANCH   5   8
ENDBRANCH   3   5
BRANCH   1  39
ATOM     39  C   LIG d   1       9.262   3.904  -3.741  0.00  0.00     0.097 C 
ATOM     40  H   LIG d   1       8.222   4.187  -3.577  0.00  0.00     0.059 H 
BRANCH  39  41
ATOM     41  C   LIG d   1       9.783   4.589  -5.005  0.00  0.00    -0.038 C 
ATOM     42  H   LIG d   1      10.371   5.466  -4.728  0.00  0.00     0.025 H 
ATOM     43  H   LIG d   1      10.410   3.894  -5.562  0.00  0.00     0.025 H 
ATOM     44  H   LIG d   1       8.941   4.898  -5.626  0.00  0.00     0.025 H 
ENDBRANCH  39  41
BRANCH  39  45
ATOM     45  N   LIG d   1      10.068   4.323  -2.591  0.00  0.00    -0.303 N 
ATOM     46  C   LIG d   1       9.931   5.565  -2.087  0.00  0.00     0.231 C 
ATOM     47  O   LIG d   1       9.140   6.338  -2.586  0.00  0.00    -0.274 OA
ATOM     48  H   LIG d   1      10.700   3.705  -2.192  0.00  0.00     0.149 HD
BRANCH  46  49
ATOM     49  C   LIG d   1      10.760   5.995  -0.904  0.00  0.00     0.086 C 
ATOM     50  H   LIG d   1      10.101   6.329  -0.101  0.00  0.00     0.056 H 
BRANCH  49  51
ATOM     51  C   LIG d   1      11.681   7.144  -1.318  0.00  0.00    -0.004 C 
ATOM     52  H   LIG d   1      12.694   6.940  -0.969  0.00  0.00     0.033 H 
ATOM     53  H   LIG d   1      11.683   7.236  -2.404  0.00  0.00     0.033 H 
BRANCH  51  54
ATOM     54  C   LIG d   1      11.189   8.429  -0.706  0.00  0.00    -0.045 A 
ATOM     55  C   LIG d   1      10.458   9.322  -1.470  0.00  0.00    -0.055 A 
ATOM     56  C   LIG d   1      10.002  10.499  -0.910  0.00  0.00    -0.020 A 
ATOM     57  H   LIG d   1      10.242   9.096  -2.503  0.00  0.00     0.062 H 
ATOM     58  C   LIG d   1      10.284  10.791   0.416  0.00  0.00     0.117 A 
ATOM     59  H   LIG d   1       9.428  11.193  -1.506  0.00  0.00     0.065 H 
ATOM     60  C   LIG d   1      11.022   9.897   1.179  0.00  0.00    -0.020 A 
ATOM     61  C   LIG d   1      11.473   8.719   0.616  0.00  0.00    -0.055 A 
ATOM     62  H   LIG d   1      11.244  10.122   2.211  0.00  0.00     0.065 H 
ATOM     63  H   LIG d   1      12.047   8.022   1.209  0.00  0.00     0.062 H 
BRANCH  58  64
ATOM     64  O   LIG d   1       9.840  11.951   0.968  0.00  0.00    -0.507 OA
ATOM     65  H   LIG d   1       9.937  11.991   1.928  0.00  0.00     0.292 HD
ENDBRANCH  58  64
ENDBRANCH  51  54
ENDBRANCH  49  51
BRANCH  49  66
ATOM     66  N   LIG d   1      11.568   4.862  -0.436  0.00  0.00    -0.320 N 
ATOM     67  H   LIG d   1      12.140   4.493  -1.180  0.00  0.00     0.119 HD
ATOM     68  H   LIG d   1      12.133   5.125   0.358  0.00  0.00     0.119 HD
ENDBRANCH  49  66
ENDBRANCH  46  49
ENDBRANCH  39  45
ENDBRANCH   1  39
TORSDOF 18
ENDMDL
MODEL 9
REMARK VINA RESULT:      -5.8      2.665      6.146
REMARK  18 active torsions:
REMARK  status: ('A' for Active; 'I' for Inactive)
REMARK    1  A    between atoms: C_1  and  C_2 
REMARK    2  A    between atoms: C_2  and  C_4 
REMARK    3  A    between atoms: C_2  and  N_24 
REMARK       I    between atoms: C_4  and  N_6 
REMARK    4  A    between atoms: N_6  and  C_7 
REMARK    5  A    between atoms: C_7  and  C_8 
REMARK       I    between atoms: C_8  and  N_10 
REMARK    6  A    between atoms: N_10  and  C_11 
REMARK    7  A    between atoms: C_11  and  C_13 
REMARK    8  A    between atoms: C_11  and  C_17 
REMARK    9  A    between atoms: C_13  and  C_14 
REMARK   10  A    between atoms: C_14  and  C_15 
REMARK   11  A    between atoms: C_14  and  C_16 
REMARK       I    between atoms: C_17  and  N_19 
REMARK   12  A    between atoms: N_19  and  C_20 
REMARK   13  A    between atoms: C_20  and  C_21 
REMARK       I    between atoms: C_21  and  N_23 
REMARK       I    between atoms: N_24  and  C_25 
REMARK   14  A    between atoms: C_25  and  C_27 
REMARK   15  A    between atoms: C_27  and  C_29 
REMARK   16  A    between atoms: C_27  and  N_37 
REMARK   17  A    between atoms: C_29  and  C_30 
REMARK   18  A    between atoms: C_33  and  O_36 
ROOT
ATOM      1  C   LIG d   1       3.035  -5.350  -9.563  0.00  0.00     0.234 C 
ATOM      2  O   LIG d   1       2.182  -6.192  -9.374  0.00  0.00    -0.274 OA
ATOM      3  N   LIG d   1       3.797  -4.921  -8.538  0.00  0.00    -0.305 N 
ATOM      4  H   LIG d   1       4.479  -4.248  -8.689  0.00  0.00     0.149 HD
ENDROOT
BRANCH   3   5
ATOM      5  C   LIG d   1       3.597  -5.472  -7.196  0.00  0.00     0.088 C 
ATOM      6  H   LIG d   1       2.558  -5.331  -6.896  0.00  0.00     0.056 H 
ATOM      7  H   LIG d   1       3.833  -6.535  -7.199  0.00  0.00     0.056 H 
BRANCH   5   8
ATOM      8  C   LIG d   1       4.500  -4.761  -6.220  0.00  0.00     0.231 C 
ATOM      9  O   LIG d   1       5.460  -5.337  -5.753  0.00  0.00    -0.274 OA
ATOM     10  N   LIG d   1       4.241  -3.486  -5.868  0.00  0.00    -0.303 N 
ATOM     11  H   LIG d   1       3.518  -3.002  -6.295  0.00  0.00     0.149 HD
BRANCH  10  12
ATOM     12  C   LIG d   1       5.053  -2.832  -4.838  0.00  0.00     0.100 C 
ATOM     13  H   LIG d   1       5.637  -3.582  -4.306  0.00  0.00     0.059 H 
BRANCH  12  14
ATOM     14  C   LIG d   1       5.997  -1.823  -5.498  0.00  0.00    -0.024 C 
ATOM     15  H   LIG d   1       6.216  -2.144  -6.516  0.00  0.00     0.029 H 
ATOM     16  H   LIG d   1       5.522  -0.842  -5.520  0.00  0.00     0.029 H 
BRANCH  14  17
ATOM     17  C   LIG d   1       7.298  -1.744  -4.697  0.00  0.00    -0.045 C 
ATOM     18  H   LIG d   1       8.121  -1.494  -5.367  0.00  0.00     0.030 H 
BRANCH  17  19
ATOM     19  C   LIG d   1       7.170  -0.663  -3.622  0.00  0.00    -0.063 C 
ATOM     20  H   LIG d   1       6.364  -0.925  -2.937  0.00  0.00     0.023 H 
ATOM     21  H   LIG d   1       8.107  -0.588  -3.069  0.00  0.00     0.023 H 
ATOM     22  H   LIG d   1       6.949   0.295  -4.094  0.00  0.00     0.023 H 
ENDBRANCH  17  19
BRANCH  17  23
ATOM     23  C   LIG d   1       7.572  -3.094  -4.033  0.00  0.00    -0.063 C 
ATOM     24  H   LIG d   1       8.607  -3.129  -3.692  0.00  0.00     0.023 H 
ATOM     25  H   LIG d   1       6.904  -3.222  -3.182  0.00  0.00     0.023 H 
ATOM     26  H   LIG d   1       7.400  -3.894  -4.753  0.00  0.00     0.023 H 
ENDBRANCH  17  23
ENDBRANCH  14  17
ENDBRANCH  12  14
BRANCH  12  27
ATOM     27  C   LIG d   1       4.150  -2.115  -3.869  0.00  0.00     0.234 C 
ATOM     28  O   LIG d   1       3.908  -2.607  -2.787  0.00  0.00    -0.274 OA
ATOM     29  N   LIG d   1       3.612  -0.925  -4.203  0.00  0.00    -0.305 N 
ATOM     30  H   LIG d   1       3.747  -0.563  -5.093  0.00  0.00     0.149 HD
BRANCH  29  31
ATOM     31  C   LIG d   1       2.821  -0.175  -3.222  0.00  0.00     0.088 C 
ATOM     32  H   LIG d   1       1.902   0.176  -3.690  0.00  0.00     0.056 H 
ATOM     33  H   LIG d   1       2.577  -0.825  -2.381  0.00  0.00     0.056 H 
BRANCH  31  34
ATOM     34  C   LIG d   1       3.619   1.005  -2.731  0.00  0.00     0.228 C 
ATOM     35  O   LIG d   1       3.562   2.062  -3.320  0.00  0.00    -0.274 OA
ATOM     36  N   LIG d   1       4.396   0.883  -1.636  0.00  0.00    -0.328 N 
ATOM     37  H   LIG d   1       4.441   0.037  -1.164  0.00  0.00     0.145 HD
ATOM     38  H   LIG d   1       4.910   1.643  -1.319  0.00  0.00     0.145 HD
ENDBRANCH  31  34
ENDBRANCH  29  31
ENDBRANCH  12  27
ENDBRANCH  10  12
ENDBRANCH   5   8
ENDBRANCH   3   5
BRANCH   1  39
ATOM     39  C   LIG d   1       3.241  -4.784 -10.944  0.00  0.00     0.097 C 
ATOM     40  H   LIG d   1       2.574  -5.284 -11.645  0.00  0.00     0.059 H 
BRANCH  39  41
ATOM     41  C   LIG d   1       4.692  -5.004 -11.374  0.00  0.00    -0.038 C 
ATOM     42  H   LIG d   1       5.032  -4.149 -11.960  0.00  0.00     0.025 H 
ATOM     43  H   LIG d   1       5.321  -5.110 -10.491  0.00  0.00     0.025 H 
ATOM     44  H   LIG d   1       4.759  -5.909 -11.979  0.00  0.00     0.025 H 
ENDBRANCH  39  41
BRANCH  39  45
ATOM     45  N   LIG d   1       2.948  -3.348 -10.932  0.00  0.00    -0.303 N 
ATOM     46  C   LIG d   1       1.742  -2.902 -11.337  0.00  0.00     0.231 C 
ATOM     47  O   LIG d   1       0.900  -3.690 -11.712  0.00  0.00    -0.274 OA
ATOM     48  H   LIG d   1       3.622  -2.719 -10.632  0.00  0.00     0.149 HD
BRANCH  46  49
ATOM     49  C   LIG d   1       1.441  -1.426 -11.324  0.00  0.00     0.086 C 
ATOM     50  H   LIG d   1       2.242  -0.888 -11.831  0.00  0.00     0.056 H 
BRANCH  49  51
ATOM     51  C   LIG d   1       1.336  -0.939  -9.878  0.00  0.00    -0.004 C 
ATOM     52  H   LIG d   1       0.453  -0.309  -9.770  0.00  0.00     0.033 H 
ATOM     53  H   LIG d   1       1.253  -1.797  -9.211  0.00  0.00     0.033 H 
BRANCH  51  54
ATOM     54  C   LIG d   1       2.566  -0.144  -9.524  0.00  0.00    -0.045 A 
ATOM     55  C   LIG d   1       3.137   0.697 -10.462  0.00  0.00    -0.055 A 
ATOM     56  C   LIG d   1       4.263   1.430 -10.138  0.00  0.00    -0.020 A 
ATOM     57  H   LIG d   1       2.702   0.783 -11.446  0.00  0.00     0.062 H 
ATOM     58  C   LIG d   1       4.825   1.315  -8.876  0.00  0.00     0.117 A 
ATOM     59  H   LIG d   1       4.705   2.090 -10.869  0.00  0.00     0.065 H 
ATOM     60  C   LIG d   1       4.253   0.466  -7.939  0.00  0.00    -0.020 A 
ATOM     61  C   LIG d   1       3.126  -0.262  -8.265  0.00  0.00    -0.055 A 
ATOM     62  H   LIG d   1       4.689   0.374  -6.955  0.00  0.00     0.065 H 
ATOM     63  H   LIG d   1       2.680  -0.923  -7.537  0.00  0.00     0.062 H 
BRANCH  58  64
ATOM     64  O   LIG d   1       5.934   2.032  -8.556  0.00  0.00    -0.507 OA
ATOM     65  H   LIG d   1       6.335   1.781  -7.714  0.00  0.00     0.292 HD
ENDBRANCH  58  64
ENDBRANCH  51  54
ENDBRANCH  49  51
BRANCH  49  66
ATOM     66  N   LIG d   1       0.170  -1.180 -12.018  0.00  0.00    -0.320 N 
ATOM     67  H   LIG d   1      -0.183  -0.258 -11.811  0.00  0.00     0.119 HD
ATOM     68  H   LIG d   1       0.270  -1.314 -13.013  0.00  0.00     0.119 HD
ENDBRANCH  49  66
ENDBRANCH  46  49
ENDBRANCH  39  45
ENDBRANCH   1  39
TORSDOF 18
ENDMDL
MODEL 10
REMARK VINA RESULT:      -5.6      5.691      9.374
REMARK  18 active torsions:
REMARK  status: ('A' for Active; 'I' for Inactive)
REMARK    1  A    between atoms: C_1  and  C_2 
REMARK    2  A    between atoms: C_2  and  C_4 
REMARK    3  A    between atoms: C_2  and  N_24 
REMARK       I    between atoms: C_4  and  N_6 
REMARK    4  A    between atoms: N_6  and  C_7 
REMARK    5  A    between atoms: C_7  and  C_8 
REMARK       I    between atoms: C_8  and  N_10 
REMARK    6  A    between atoms: N_10  and  C_11 
REMARK    7  A    between atoms: C_11  and  C_13 
REMARK    8  A    between atoms: C_11  and  C_17 
REMARK    9  A    between atoms: C_13  and  C_14 
REMARK   10  A    between atoms: C_14  and  C_15 
REMARK   11  A    between atoms: C_14  and  C_16 
REMARK       I    between atoms: C_17  and  N_19 
REMARK   12  A    between atoms: N_19  and  C_20 
REMARK   13  A    between atoms: C_20  and  C_21 
REMARK       I    between atoms: C_21  and  N_23 
REMARK       I    between atoms: N_24  and  C_25 
REMARK   14  A    between atoms: C_25  and  C_27 
REMARK   15  A    between atoms: C_27  and  C_29 
REMARK   16  A    between atoms: C_27  and  N_37 
REMARK   17  A    between atoms: C_29  and  C_30 
REMARK   18  A    between atoms: C_33  and  O_36 
ROOT
ATOM      1  C   LIG d   1       9.572   3.043  -4.901  0.00  0.00     0.234 C 
ATOM      2  O   LIG d   1       9.523   3.402  -6.059  0.00  0.00    -0.274 OA
ATOM      3  N   LIG d   1       8.784   2.035  -4.475  0.00  0.00    -0.305 N 
ATOM      4  H   LIG d   1       8.823   1.748  -3.550  0.00  0.00     0.149 HD
ENDROOT
BRANCH   3   5
ATOM      5  C   LIG d   1       7.869   1.375  -5.410  0.00  0.00     0.088 C 
ATOM      6  H   LIG d   1       7.256   2.126  -5.909  0.00  0.00     0.056 H 
ATOM      7  H   LIG d   1       8.444   0.822  -6.152  0.00  0.00     0.056 H 
BRANCH   5   8
ATOM      8  C   LIG d   1       6.979   0.422  -4.654  0.00  0.00     0.231 C 
ATOM      9  O   LIG d   1       7.349  -0.041  -3.595  0.00  0.00    -0.274 OA
ATOM     10  N   LIG d   1       5.775   0.084  -5.154  0.00  0.00    -0.303 N 
ATOM     11  H   LIG d   1       5.448   0.509  -5.962  0.00  0.00     0.149 HD
BRANCH  10  12
ATOM     12  C   LIG d   1       4.957  -0.925  -4.476  0.00  0.00     0.100 C 
ATOM     13  H   LIG d   1       5.504  -1.320  -3.620  0.00  0.00     0.059 H 
BRANCH  12  14
ATOM     14  C   LIG d   1       3.651  -0.287  -3.996  0.00  0.00    -0.024 C 
ATOM     15  H   LIG d   1       3.591   0.737  -4.366  0.00  0.00     0.029 H 
ATOM     16  H   LIG d   1       2.806  -0.860  -4.375  0.00  0.00     0.029 H 
BRANCH  14  17
ATOM     17  C   LIG d   1       3.619  -0.278  -2.466  0.00  0.00    -0.045 C 
ATOM     18  H   LIG d   1       2.584  -0.295  -2.126  0.00  0.00     0.030 H 
BRANCH  17  19
ATOM     19  C   LIG d   1       4.351  -1.512  -1.934  0.00  0.00    -0.063 C 
ATOM     20  H   LIG d   1       5.113  -1.819  -2.650  0.00  0.00     0.023 H 
ATOM     21  H   LIG d   1       4.824  -1.271  -0.981  0.00  0.00     0.023 H 
ATOM     22  H   LIG d   1       3.638  -2.324  -1.791  0.00  0.00     0.023 H 
ENDBRANCH  17  19
BRANCH  17  23
ATOM     23  C   LIG d   1       4.307   0.986  -1.949  0.00  0.00    -0.063 C 
ATOM     24  H   LIG d   1       3.607   1.822  -1.984  0.00  0.00     0.023 H 
ATOM     25  H   LIG d   1       4.633   0.828  -0.921  0.00  0.00     0.023 H 
ATOM     26  H   LIG d   1       5.172   1.211  -2.574  0.00  0.00     0.023 H 
ENDBRANCH  17  23
ENDBRANCH  14  17
ENDBRANCH  12  14
BRANCH  12  27
ATOM     27  C   LIG d   1       4.645  -2.045  -5.434  0.00  0.00     0.234 C 
ATOM     28  O   LIG d   1       4.374  -3.149  -5.011  0.00  0.00    -0.274 OA
ATOM     29  N   LIG d   1       4.666  -1.820  -6.763  0.00  0.00    -0.305 N 
ATOM     30  H   LIG d   1       4.951  -0.958  -7.105  0.00  0.00     0.149 HD
BRANCH  29  31
ATOM     31  C   LIG d   1       4.259  -2.878  -7.693  0.00  0.00     0.088 C 
ATOM     32  H   LIG d   1       5.137  -3.258  -8.216  0.00  0.00     0.056 H 
ATOM     33  H   LIG d   1       3.788  -3.688  -7.136  0.00  0.00     0.056 H 
BRANCH  31  34
ATOM     34  C   LIG d   1       3.280  -2.318  -8.693  0.00  0.00     0.228 C 
ATOM     35  O   LIG d   1       2.886  -3.010  -9.607  0.00  0.00    -0.274 OA
ATOM     36  N   LIG d   1       2.845  -1.049  -8.570  0.00  0.00    -0.328 N 
ATOM     37  H   LIG d   1       3.160  -0.496  -7.838  0.00  0.00     0.145 HD
ATOM     38  H   LIG d   1       2.214  -0.688  -9.213  0.00  0.00     0.145 HD
ENDBRANCH  31  34
ENDBRANCH  29  31
ENDBRANCH  12  27
ENDBRANCH  10  12
ENDBRANCH   5   8
ENDBRANCH   3   5
BRANCH   1  39
ATOM     39  C   LIG d   1      10.512   3.721  -3.940  0.00  0.00     0.097 C 
ATOM     40  H   LIG d   1      11.484   3.852  -4.414  0.00  0.00     0.059 H 
BRANCH  39  41
ATOM     41  C   LIG d   1      10.668   2.861  -2.685  0.00  0.00    -0.038 C 
ATOM     42  H   LIG d   1       9.823   3.032  -2.019  0.00  0.00     0.025 H 
ATOM     43  H   LIG d   1      10.700   1.809  -2.968  0.00  0.00     0.025 H 
ATOM     44  H   LIG d   1      11.594   3.128  -2.174  0.00  0.00     0.025 H 
ENDBRANCH  39  41
BRANCH  39  45
ATOM     45  N   LIG d   1       9.970   5.032  -3.569  0.00  0.00    -0.303 N 
ATOM     46  C   LIG d   1      10.799   6.079  -3.392  0.00  0.00     0.231 C 
ATOM     47  O   LIG d   1      11.995   5.937  -3.538  0.00  0.00    -0.274 OA
ATOM     48  H   LIG d   1       9.014   5.144  -3.452  0.00  0.00     0.149 HD
BRANCH  46  49
ATOM     49  C   LIG d   1      10.242   7.426  -3.011  0.00  0.00     0.086 C 
ATOM     50  H   LIG d   1      11.057   8.145  -2.923  0.00  0.00     0.056 H 
BRANCH  49  51
ATOM     51  C   LIG d   1       9.513   7.316  -1.671  0.00  0.00    -0.004 C 
ATOM     52  H   LIG d   1       8.441   7.432  -1.830  0.00  0.00     0.033 H 
ATOM     53  H   LIG d   1       9.710   6.339  -1.228  0.00  0.00     0.033 H 
BRANCH  51  54
ATOM     54  C   LIG d   1      10.003   8.396  -0.741  0.00  0.00    -0.045 A 
ATOM     55  C   LIG d   1      10.988   8.113   0.187  0.00  0.00    -0.055 A 
ATOM     56  C   LIG d   1      11.442   9.103   1.038  0.00  0.00    -0.020 A 
ATOM     57  H   LIG d   1      11.405   7.119   0.245  0.00  0.00     0.062 H 
ATOM     58  C   LIG d   1      10.902  10.378   0.967  0.00  0.00     0.117 A 
ATOM     59  H   LIG d   1      12.215   8.882   1.759  0.00  0.00     0.065 H 
ATOM     60  C   LIG d   1       9.910  10.658   0.038  0.00  0.00    -0.020 A 
ATOM     61  C   LIG d   1       9.462   9.667  -0.813  0.00  0.00    -0.055 A 
ATOM     62  H   LIG d   1       9.488  11.650  -0.019  0.00  0.00     0.065 H 
ATOM     63  H   LIG d   1       8.689   9.884  -1.536  0.00  0.00     0.062 H 
BRANCH  58  64
ATOM     64  O   LIG d   1      11.344  11.352   1.804  0.00  0.00    -0.507 OA
ATOM     65  H   LIG d   1      11.791  12.083   1.356  0.00  0.00     0.292 HD
ENDBRANCH  58  64
ENDBRANCH  51  54
ENDBRANCH  49  51
BRANCH  49  66
ATOM     66  N   LIG d   1       9.301   7.877  -4.045  0.00  0.00    -0.320 N 
ATOM     67  H   LIG d   1       8.347   7.719  -3.759  0.00  0.00     0.119 HD
ATOM     68  H   LIG d   1       9.455   8.847  -4.275  0.00  0.00     0.119 HD
ENDBRANCH  49  66
ENDBRANCH  46  49
ENDBRANCH  39  45
ENDBRANCH   1  39
TORSDOF 18
ENDMDL
