MODEL 1
REMARK VINA RESULT:      -5.9      0.000      0.000
REMARK  9 active torsions:
REMARK  status: ('A' for Active; 'I' for Inactive)
REMARK    1  A    between atoms: C_1  and  C_2 
REMARK    2  A    between atoms: C_2  and  C_3 
REMARK    3  A    between atoms: C_3  and  O_4 
REMARK    4  A    between atoms: O_4  and  C_5 
REMARK    5  A    between atoms: C_8  and  C_11 
REMARK       I    between atoms: C_11  and  N_13 
REMARK       I    between atoms: N_13  and  CA_14 
REMARK    6  A    between atoms: CA_14  and  CB_16 
REMARK       I    between atoms: CA_14  and  C_20 
REMARK    7  A    between atoms: CB_16  and  CG_17 
REMARK    8  A    between atoms: CG_17  and  CD1_18 
REMARK    9  A    between atoms: CG_17  and  CD2_19 
ROOT
ATOM      1  C   UNK d   0       3.100   0.196  -5.852  0.00  0.00     0.245 C 
ATOM      2  O   UNK d   0       1.999  -0.020  -5.386  0.00  0.00    -0.270 OA
ATOM      3  N   LEU d   1       4.171   0.282  -5.038  0.00  0.00    -0.303 N 
ATOM      4  CA  LEU d   1       4.008   0.117  -3.592  0.00  0.00     0.063 C 
ATOM      5  HA  LEU d   1       3.230  -0.623  -3.397  0.00  0.00     0.056 H 
ATOM      6  C   LEU d   1       3.615   1.435  -2.976  0.00  0.00     0.062 C 
ATOM      7  O   LEU d   1       3.485   2.413  -3.674  0.00  0.00    -0.548 OA
ATOM      8  H   LEU d   1       5.051   0.455  -5.409  0.00  0.00     0.150 HD
ATOM      9  OXT LEU d   1       3.410   1.522  -1.652  0.00  0.00    -0.548 OA
ENDROOT
BRANCH   1  10
ATOM     10  C   UNK d   0       3.265   0.363  -7.308  0.00  0.00     0.037 A 
ATOM     11  C   UNK d   0       3.824  -0.664  -8.073  0.00  0.00    -0.046 A 
ATOM     12  C   UNK d   0       3.975  -0.505  -9.432  0.00  0.00    -0.019 A 
ATOM     13  H   UNK d   0       4.135  -1.583  -7.599  0.00  0.00     0.063 H 
ATOM     14  C   UNK d   0       3.574   0.677 -10.044  0.00  0.00     0.120 A 
ATOM     15  H   UNK d   0       4.406  -1.299 -10.024  0.00  0.00     0.065 H 
ATOM     16  C   UNK d   0       3.018   1.702  -9.288  0.00  0.00    -0.019 A 
ATOM     17  C   UNK d   0       2.857   1.548  -7.928  0.00  0.00    -0.046 A 
ATOM     18  H   UNK d   0       2.707   2.619  -9.767  0.00  0.00     0.065 H 
ATOM     19  H   UNK d   0       2.421   2.342  -7.342  0.00  0.00     0.063 H 
BRANCH  14  20
ATOM     20  O   UNK d   0       3.725   0.830 -11.384  0.00  0.00    -0.492 OA
BRANCH  20  21
ATOM     21  C   UNK d   0       4.565  -0.113 -12.054  0.00  0.00     0.089 C 
ATOM     22  H   UNK d   0       5.472   0.386 -12.395  0.00  0.00     0.070 H 
ATOM     23  H   UNK d   0       4.829  -0.916 -11.366  0.00  0.00     0.070 H 
BRANCH  21  24
ATOM     24  C   UNK d   0       3.821  -0.695 -13.257  0.00  0.00    -0.021 C 
ATOM     25  H   UNK d   0       3.471   0.116 -13.896  0.00  0.00     0.029 H 
ATOM     26  H   UNK d   0       4.492  -1.339 -13.824  0.00  0.00     0.029 H 
BRANCH  24  27
ATOM     27  C   UNK d   0       2.622  -1.511 -12.769  0.00  0.00    -0.062 C 
ATOM     28  H   UNK d   0       2.535  -1.420 -11.687  0.00  0.00     0.023 H 
ATOM     29  H   UNK d   0       1.713  -1.137 -13.240  0.00  0.00     0.023 H 
ATOM     30  H   UNK d   0       2.763  -2.559 -13.036  0.00  0.00     0.023 H 
ENDBRANCH  24  27
ENDBRANCH  21  24
ENDBRANCH  20  21
ENDBRANCH  14  20
ENDBRANCH   1  10
BRANCH   4  31
ATOM     31  CB  LEU d   1       5.328  -0.359  -2.980  0.00  0.00    -0.027 C 
ATOM     32  HB1 LEU d   1       6.142  -0.163  -3.678  0.00  0.00     0.029 H 
ATOM     33  HB2 LEU d   1       5.511   0.178  -2.049  0.00  0.00     0.029 H 
BRANCH  31  34
ATOM     34  CG  LEU d   1       5.247  -1.860  -2.697  0.00  0.00    -0.045 C 
ATOM     35  HG  LEU d   1       5.887  -2.104  -1.848  0.00  0.00     0.030 H 
BRANCH  34  36
ATOM     36  CD1 LEU d   1       3.802  -2.241  -2.373  0.00  0.00    -0.063 C 
ATOM     37 1HD1 LEU d   1       3.794  -3.021  -1.611  0.00  0.00     0.023 H 
ATOM     38 2HD1 LEU d   1       3.269  -1.366  -2.002  0.00  0.00     0.023 H 
ATOM     39 3HD1 LEU d   1       3.312  -2.611  -3.274  0.00  0.00     0.023 H 
ENDBRANCH  34  36
BRANCH  34  40
ATOM     40  CD2 LEU d   1       5.715  -2.637  -3.929  0.00  0.00    -0.063 C 
ATOM     41 1HD2 LEU d   1       6.174  -3.575  -3.615  0.00  0.00     0.023 H 
ATOM     42 2HD2 LEU d   1       4.860  -2.849  -4.572  0.00  0.00     0.023 H 
ATOM     43 3HD2 LEU d   1       6.445  -2.043  -4.479  0.00  0.00     0.023 H 
ENDBRANCH  34  40
ENDBRANCH  31  34
ENDBRANCH   4  31
TORSDOF 11
ENDMDL
MODEL 2
REMARK VINA RESULT:      -5.7      2.321      3.066
REMARK  9 active torsions:
REMARK  status: ('A' for Active; 'I' for Inactive)
REMARK    1  A    between atoms: C_1  and  C_2 
REMARK    2  A    between atoms: C_2  and  C_3 
REMARK    3  A    between atoms: C_3  and  O_4 
REMARK    4  A    between atoms: O_4  and  C_5 
REMARK    5  A    between atoms: C_8  and  C_11 
REMARK       I    between atoms: C_11  and  N_13 
REMARK       I    between atoms: N_13  and  CA_14 
REMARK    6  A    between atoms: CA_14  and  CB_16 
REMARK       I    between atoms: CA_14  and  C_20 
REMARK    7  A    between atoms: CB_16  and  CG_17 
REMARK    8  A    between atoms: CG_17  and  CD1_18 
REMARK    9  A    between atoms: CG_17  and  CD2_19 
ROOT
ATOM      1  C   UNK d   0       4.129  -0.607  -6.705  0.00  0.00     0.245 C 
ATOM      2  O   UNK d   0       4.965   0.265  -6.833  0.00  0.00    -0.270 OA
ATOM      3  N   LEU d   1       3.897  -1.146  -5.491  0.00  0.00    -0.303 N 
ATOM      4  CA  LEU d   1       4.655  -0.682  -4.327  0.00  0.00     0.063 C 
ATOM      5  HA  LEU d   1       4.849   0.387  -4.423  0.00  0.00     0.056 H 
ATOM      6  C   LEU d   1       5.962  -1.427  -4.248  0.00  0.00     0.062 C 
ATOM      7  O   LEU d   1       6.234  -2.260  -5.080  0.00  0.00    -0.548 OA
ATOM      8  H   LEU d   1       3.229  -1.842  -5.389  0.00  0.00     0.150 HD
ATOM      9  OXT LEU d   1       6.825  -1.164  -3.254  0.00  0.00    -0.548 OA
ENDROOT
BRANCH   1  10
ATOM     10  C   UNK d   0       3.365  -1.075  -7.878  0.00  0.00     0.037 A 
ATOM     11  C   UNK d   0       3.588  -2.354  -8.394  0.00  0.00    -0.046 A 
ATOM     12  C   UNK d   0       2.872  -2.787  -9.488  0.00  0.00    -0.019 A 
ATOM     13  H   UNK d   0       4.318  -3.003  -7.935  0.00  0.00     0.063 H 
ATOM     14  C   UNK d   0       1.931  -1.953 -10.080  0.00  0.00     0.120 A 
ATOM     15  H   UNK d   0       3.044  -3.776  -9.887  0.00  0.00     0.065 H 
ATOM     16  C   UNK d   0       1.707  -0.680  -9.570  0.00  0.00    -0.019 A 
ATOM     17  C   UNK d   0       2.413  -0.242  -8.472  0.00  0.00    -0.046 A 
ATOM     18  H   UNK d   0       0.975  -0.035 -10.033  0.00  0.00     0.065 H 
ATOM     19  H   UNK d   0       2.235   0.746  -8.074  0.00  0.00     0.063 H 
BRANCH  14  20
ATOM     20  O   UNK d   0       1.229  -2.384 -11.158  0.00  0.00    -0.492 OA
BRANCH  20  21
ATOM     21  C   UNK d   0       1.299  -1.583 -12.341  0.00  0.00     0.089 C 
ATOM     22  H   UNK d   0       0.378  -1.696 -12.912  0.00  0.00     0.070 H 
ATOM     23  H   UNK d   0       1.429  -0.537 -12.063  0.00  0.00     0.070 H 
BRANCH  21  24
ATOM     24  C   UNK d   0       2.486  -2.035 -13.193  0.00  0.00    -0.021 C 
ATOM     25  H   UNK d   0       2.855  -2.993 -12.825  0.00  0.00     0.029 H 
ATOM     26  H   UNK d   0       2.169  -2.144 -14.230  0.00  0.00     0.029 H 
BRANCH  24  27
ATOM     27  C   UNK d   0       3.603  -0.993 -13.108  0.00  0.00    -0.062 C 
ATOM     28  H   UNK d   0       4.496  -1.450 -12.682  0.00  0.00     0.023 H 
ATOM     29  H   UNK d   0       3.826  -0.619 -14.107  0.00  0.00     0.023 H 
ATOM     30  H   UNK d   0       3.280  -0.165 -12.475  0.00  0.00     0.023 H 
ENDBRANCH  24  27
ENDBRANCH  21  24
ENDBRANCH  20  21
ENDBRANCH  14  20
ENDBRANCH   1  10
BRANCH   4  31
ATOM     31  CB  LEU d   1       3.843  -0.939  -3.055  0.00  0.00    -0.027 C 
ATOM     32  HB1 LEU d   1       2.923  -1.464  -3.312  0.00  0.00     0.029 H 
ATOM     33  HB2 LEU d   1       4.430  -1.550  -2.368  0.00  0.00     0.029 H 
BRANCH  31  34
ATOM     34  CG  LEU d   1       3.502   0.395  -2.388  0.00  0.00    -0.045 C 
ATOM     35  HG  LEU d   1       2.610   0.275  -1.772  0.00  0.00     0.030 H 
BRANCH  34  36
ATOM     36  CD1 LEU d   1       4.673   0.840  -1.510  0.00  0.00    -0.063 C 
ATOM     37 1HD1 LEU d   1       5.503   0.144  -1.630  0.00  0.00     0.023 H 
ATOM     38 2HD1 LEU d   1       4.990   1.840  -1.807  0.00  0.00     0.023 H 
ATOM     39 3HD1 LEU d   1       4.360   0.853  -0.466  0.00  0.00     0.023 H 
ENDBRANCH  34  36
BRANCH  34  40
ATOM     40  CD2 LEU d   1       3.242   1.451  -3.464  0.00  0.00    -0.063 C 
ATOM     41 1HD2 LEU d   1       3.045   2.412  -2.990  0.00  0.00     0.023 H 
ATOM     42 2HD2 LEU d   1       4.117   1.536  -4.109  0.00  0.00     0.023 H 
ATOM     43 3HD2 LEU d   1       2.379   1.157  -4.061  0.00  0.00     0.023 H 
ENDBRANCH  34  40
ENDBRANCH  31  34
ENDBRANCH   4  31
TORSDOF 11
ENDMDL
MODEL 3
REMARK VINA RESULT:      -5.6      2.447      3.243
REMARK  9 active torsions:
REMARK  status: ('A' for Active; 'I' for Inactive)
REMARK    1  A    between atoms: C_1  and  C_2 
REMARK    2  A    between atoms: C_2  and  C_3 
REMARK    3  A    between atoms: C_3  and  O_4 
REMARK    4  A    between atoms: O_4  and  C_5 
REMARK    5  A    between atoms: C_8  and  C_11 
REMARK       I    between atoms: C_11  and  N_13 
REMARK       I    between atoms: N_13  and  CA_14 
REMARK    6  A    between atoms: CA_14  and  CB_16 
REMARK       I    between atoms: CA_14  and  C_20 
REMARK    7  A    between atoms: CB_16  and  CG_17 
REMARK    8  A    between atoms: CG_17  and  CD1_18 
REMARK    9  A    between atoms: CG_17  and  CD2_19 
ROOT
ATOM      1  C   UNK d   0       4.106  -0.856  -6.684  0.00  0.00     0.245 C 
ATOM      2  O   UNK d   0       4.600   0.252  -6.600  0.00  0.00    -0.270 OA
ATOM      3  N   LEU d   1       4.252  -1.736  -5.673  0.00  0.00    -0.303 N 
ATOM      4  CA  LEU d   1       5.006  -1.358  -4.475  0.00  0.00     0.063 C 
ATOM      5  HA  LEU d   1       4.843  -0.302  -4.261  0.00  0.00     0.056 H 
ATOM      6  C   LEU d   1       6.475  -1.603  -4.709  0.00  0.00     0.062 C 
ATOM      7  O   LEU d   1       6.853  -2.047  -5.767  0.00  0.00    -0.548 OA
ATOM      8  H   LEU d   1       3.858  -2.620  -5.739  0.00  0.00     0.150 HD
ATOM      9  OXT LEU d   1       7.363  -1.327  -3.740  0.00  0.00    -0.548 OA
ENDROOT
BRANCH   1  10
ATOM     10  C   UNK d   0       3.347  -1.236  -7.890  0.00  0.00     0.037 A 
ATOM     11  C   UNK d   0       2.429  -0.344  -8.450  0.00  0.00    -0.046 A 
ATOM     12  C   UNK d   0       1.723  -0.702  -9.577  0.00  0.00    -0.019 A 
ATOM     13  H   UNK d   0       2.274   0.626  -8.001  0.00  0.00     0.063 H 
ATOM     14  C   UNK d   0       1.920  -1.950 -10.155  0.00  0.00     0.120 A 
ATOM     15  H   UNK d   0       1.013  -0.013 -10.011  0.00  0.00     0.065 H 
ATOM     16  C   UNK d   0       2.832  -2.841  -9.602  0.00  0.00    -0.019 A 
ATOM     17  C   UNK d   0       3.548  -2.488  -8.479  0.00  0.00    -0.046 A 
ATOM     18  H   UNK d   0       2.983  -3.810 -10.054  0.00  0.00     0.065 H 
ATOM     19  H   UNK d   0       4.259  -3.178  -8.052  0.00  0.00     0.063 H 
BRANCH  14  20
ATOM     20  O   UNK d   0       1.222  -2.299 -11.265  0.00  0.00    -0.492 OA
BRANCH  20  21
ATOM     21  C   UNK d   0       1.400  -1.485 -12.427  0.00  0.00     0.089 C 
ATOM     22  H   UNK d   0       0.527  -1.577 -13.073  0.00  0.00     0.070 H 
ATOM     23  H   UNK d   0       1.521  -0.444 -12.125  0.00  0.00     0.070 H 
BRANCH  21  24
ATOM     24  C   UNK d   0       2.646  -1.943 -13.186  0.00  0.00    -0.021 C 
ATOM     25  H   UNK d   0       2.996  -2.889 -12.772  0.00  0.00     0.029 H 
ATOM     26  H   UNK d   0       2.402  -2.077 -14.239  0.00  0.00     0.029 H 
BRANCH  24  27
ATOM     27  C   UNK d   0       3.746  -0.889 -13.047  0.00  0.00    -0.062 C 
ATOM     28  H   UNK d   0       3.360   0.082 -13.359  0.00  0.00     0.023 H 
ATOM     29  H   UNK d   0       4.069  -0.835 -12.008  0.00  0.00     0.023 H 
ATOM     30  H   UNK d   0       4.593  -1.163 -13.676  0.00  0.00     0.023 H 
ENDBRANCH  24  27
ENDBRANCH  21  24
ENDBRANCH  20  21
ENDBRANCH  14  20
ENDBRANCH   1  10
BRANCH   4  31
ATOM     31  CB  LEU d   1       4.531  -2.199  -3.288  0.00  0.00    -0.027 C 
ATOM     32  HB1 LEU d   1       3.917  -3.023  -3.650  0.00  0.00     0.029 H 
ATOM     33  HB2 LEU d   1       5.396  -2.596  -2.756  0.00  0.00     0.029 H 
BRANCH  31  34
ATOM     34  CG  LEU d   1       3.707  -1.324  -2.341  0.00  0.00    -0.045 C 
ATOM     35  HG  LEU d   1       3.369  -1.923  -1.495  0.00  0.00     0.030 H 
BRANCH  34  36
ATOM     36  CD1 LEU d   1       4.570  -0.167  -1.834  0.00  0.00    -0.063 C 
ATOM     37 1HD1 LEU d   1       4.701  -0.257  -0.756  0.00  0.00     0.023 H 
ATOM     38 2HD1 LEU d   1       5.544  -0.198  -2.323  0.00  0.00     0.023 H 
ATOM     39 3HD1 LEU d   1       4.079   0.779  -2.062  0.00  0.00     0.023 H 
ENDBRANCH  34  36
BRANCH  34  40
ATOM     40  CD2 LEU d   1       2.494  -0.766  -3.088  0.00  0.00    -0.063 C 
ATOM     41 1HD2 LEU d   1       1.582  -1.055  -2.567  0.00  0.00     0.023 H 
ATOM     42 2HD2 LEU d   1       2.561   0.322  -3.128  0.00  0.00     0.023 H 
ATOM     43 3HD2 LEU d   1       2.475  -1.166  -4.102  0.00  0.00     0.023 H 
ENDBRANCH  34  40
ENDBRANCH  31  34
ENDBRANCH   4  31
TORSDOF 11
ENDMDL
MODEL 4
REMARK VINA RESULT:      -5.4      2.720      3.415
REMARK  9 active torsions:
REMARK  status: ('A' for Active; 'I' for Inactive)
REMARK    1  A    between atoms: C_1  and  C_2 
REMARK    2  A    between atoms: C_2  and  C_3 
REMARK    3  A    between atoms: C_3  and  O_4 
REMARK    4  A    between atoms: O_4  and  C_5 
REMARK    5  A    between atoms: C_8  and  C_11 
REMARK       I    between atoms: C_11  and  N_13 
REMARK       I    between atoms: N_13  and  CA_14 
REMARK    6  A    between atoms: CA_14  and  CB_16 
REMARK       I    between atoms: CA_14  and  C_20 
REMARK    7  A    between atoms: CB_16  and  CG_17 
REMARK    8  A    between atoms: CG_17  and  CD1_18 
REMARK    9  A    between atoms: CG_17  and  CD2_19 
ROOT
ATOM      1  C   UNK d   0       3.942  -0.382  -6.378  0.00  0.00     0.245 C 
ATOM      2  O   UNK d   0       3.524   0.734  -6.143  0.00  0.00    -0.270 OA
ATOM      3  N   LEU d   1       4.841  -0.953  -5.552  0.00  0.00    -0.303 N 
ATOM      4  CA  LEU d   1       5.317  -0.226  -4.372  0.00  0.00     0.063 C 
ATOM      5  HA  LEU d   1       4.504   0.375  -3.964  0.00  0.00     0.056 H 
ATOM      6  C   LEU d   1       6.461   0.673  -4.763  0.00  0.00     0.062 C 
ATOM      7  O   LEU d   1       6.841   0.705  -5.910  0.00  0.00    -0.548 OA
ATOM      8  H   LEU d   1       5.175  -1.844  -5.739  0.00  0.00     0.150 HD
ATOM      9  OXT LEU d   1       7.058   1.440  -3.837  0.00  0.00    -0.548 OA
ENDROOT
BRANCH   1  10
ATOM     10  C   UNK d   0       3.463  -1.114  -7.567  0.00  0.00     0.037 A 
ATOM     11  C   UNK d   0       2.497  -0.543  -8.399  0.00  0.00    -0.046 A 
ATOM     12  C   UNK d   0       2.054  -1.229  -9.508  0.00  0.00    -0.019 A 
ATOM     13  H   UNK d   0       2.100   0.435  -8.174  0.00  0.00     0.063 H 
ATOM     14  C   UNK d   0       2.564  -2.488  -9.798  0.00  0.00     0.120 A 
ATOM     15  H   UNK d   0       1.307  -0.788 -10.152  0.00  0.00     0.065 H 
ATOM     16  C   UNK d   0       3.525  -3.060  -8.973  0.00  0.00    -0.019 A 
ATOM     17  C   UNK d   0       3.979  -2.378  -7.866  0.00  0.00    -0.046 A 
ATOM     18  H   UNK d   0       3.920  -4.039  -9.202  0.00  0.00     0.065 H 
ATOM     19  H   UNK d   0       4.729  -2.821  -7.228  0.00  0.00     0.063 H 
BRANCH  14  20
ATOM     20  O   UNK d   0       2.125  -3.161 -10.892  0.00  0.00    -0.492 OA
BRANCH  20  21
ATOM     21  C   UNK d   0       1.384  -4.362 -10.661  0.00  0.00     0.089 C 
ATOM     22  H   UNK d   0       1.861  -5.190 -11.184  0.00  0.00     0.070 H 
ATOM     23  H   UNK d   0       1.360  -4.572  -9.591  0.00  0.00     0.070 H 
BRANCH  21  24
ATOM     24  C   UNK d   0      -0.044  -4.188 -11.179  0.00  0.00    -0.021 C 
ATOM     25  H   UNK d   0      -0.314  -3.132 -11.155  0.00  0.00     0.029 H 
ATOM     26  H   UNK d   0      -0.107  -4.555 -12.203  0.00  0.00     0.029 H 
BRANCH  24  27
ATOM     27  C   UNK d   0      -1.009  -4.979 -10.293  0.00  0.00    -0.062 C 
ATOM     28  H   UNK d   0      -1.483  -4.306  -9.579  0.00  0.00     0.023 H 
ATOM     29  H   UNK d   0      -1.772  -5.447 -10.914  0.00  0.00     0.023 H 
ATOM     30  H   UNK d   0      -0.457  -5.751  -9.754  0.00  0.00     0.023 H 
ENDBRANCH  24  27
ENDBRANCH  21  24
ENDBRANCH  20  21
ENDBRANCH  14  20
ENDBRANCH   1  10
BRANCH   4  31
ATOM     31  CB  LEU d   1       5.792  -1.226  -3.315  0.00  0.00    -0.027 C 
ATOM     32  HB1 LEU d   1       5.803  -2.228  -3.743  0.00  0.00     0.029 H 
ATOM     33  HB2 LEU d   1       6.797  -0.958  -2.988  0.00  0.00     0.029 H 
BRANCH  31  34
ATOM     34  CG  LEU d   1       4.840  -1.193  -2.118  0.00  0.00    -0.045 C 
ATOM     35  HG  LEU d   1       5.374  -1.508  -1.221  0.00  0.00     0.030 H 
BRANCH  34  36
ATOM     36  CD1 LEU d   1       4.313   0.230  -1.924  0.00  0.00    -0.063 C 
ATOM     37 1HD1 LEU d   1       3.680   0.265  -1.037  0.00  0.00     0.023 H 
ATOM     38 2HD1 LEU d   1       5.151   0.915  -1.799  0.00  0.00     0.023 H 
ATOM     39 3HD1 LEU d   1       3.730   0.524  -2.797  0.00  0.00     0.023 H 
ENDBRANCH  34  36
BRANCH  34  40
ATOM     40  CD2 LEU d   1       3.666  -2.141  -2.373  0.00  0.00    -0.063 C 
ATOM     41 1HD2 LEU d   1       4.015  -3.008  -2.935  0.00  0.00     0.023 H 
ATOM     42 2HD2 LEU d   1       3.251  -2.470  -1.420  0.00  0.00     0.023 H 
ATOM     43 3HD2 LEU d   1       2.898  -1.623  -2.946  0.00  0.00     0.023 H 
ENDBRANCH  34  40
ENDBRANCH  31  34
ENDBRANCH   4  31
TORSDOF 11
ENDMDL
MODEL 5
REMARK VINA RESULT:      -5.3      5.330      8.574
REMARK  9 active torsions:
REMARK  status: ('A' for Active; 'I' for Inactive)
REMARK    1  A    between atoms: C_1  and  C_2 
REMARK    2  A    between atoms: C_2  and  C_3 
REMARK    3  A    between atoms: C_3  and  O_4 
REMARK    4  A    between atoms: O_4  and  C_5 
REMARK    5  A    between atoms: C_8  and  C_11 
REMARK       I    between atoms: C_11  and  N_13 
REMARK       I    between atoms: N_13  and  CA_14 
REMARK    6  A    between atoms: CA_14  and  CB_16 
REMARK       I    between atoms: CA_14  and  C_20 
REMARK    7  A    between atoms: CB_16  and  CG_17 
REMARK    8  A    between atoms: CG_17  and  CD1_18 
REMARK    9  A    between atoms: CG_17  and  CD2_19 
ROOT
ATOM      1  C   UNK d   0       7.616  -2.619  -3.917  0.00  0.00     0.245 C 
ATOM      2  O   UNK d   0       6.689  -3.321  -4.269  0.00  0.00    -0.270 OA
ATOM      3  N   LEU d   1       7.409  -1.315  -3.644  0.00  0.00    -0.303 N 
ATOM      4  CA  LEU d   1       6.066  -0.745  -3.775  0.00  0.00     0.063 C 
ATOM      5  HA  LEU d   1       5.325  -1.490  -3.482  0.00  0.00     0.056 H 
ATOM      6  C   LEU d   1       5.831  -0.335  -5.206  0.00  0.00     0.062 C 
ATOM      7  O   LEU d   1       6.695  -0.502  -6.032  0.00  0.00    -0.548 OA
ATOM      8  H   LEU d   1       8.148  -0.755  -3.363  0.00  0.00     0.150 HD
ATOM      9  OXT LEU d   1       4.659   0.216  -5.561  0.00  0.00    -0.548 OA
ENDROOT
BRANCH   1  10
ATOM     10  C   UNK d   0       8.969  -3.194  -3.786  0.00  0.00     0.037 A 
ATOM     11  C   UNK d   0       9.978  -2.821  -4.677  0.00  0.00    -0.046 A 
ATOM     12  C   UNK d   0      11.239  -3.359  -4.551  0.00  0.00    -0.019 A 
ATOM     13  H   UNK d   0       9.770  -2.111  -5.463  0.00  0.00     0.063 H 
ATOM     14  C   UNK d   0      11.509  -4.274  -3.540  0.00  0.00     0.120 A 
ATOM     15  H   UNK d   0      12.020  -3.071  -5.239  0.00  0.00     0.065 H 
ATOM     16  C   UNK d   0      10.508  -4.648  -2.651  0.00  0.00    -0.019 A 
ATOM     17  C   UNK d   0       9.245  -4.109  -2.766  0.00  0.00    -0.046 A 
ATOM     18  H   UNK d   0      10.721  -5.358  -1.866  0.00  0.00     0.065 H 
ATOM     19  H   UNK d   0       8.470  -4.396  -2.073  0.00  0.00     0.063 H 
BRANCH  14  20
ATOM     20  O   UNK d   0      12.753  -4.802  -3.419  0.00  0.00    -0.492 OA
BRANCH  20  21
ATOM     21  C   UNK d   0      13.827  -4.078  -4.026  0.00  0.00     0.089 C 
ATOM     22  H   UNK d   0      14.476  -4.771  -4.560  0.00  0.00     0.070 H 
ATOM     23  H   UNK d   0      13.421  -3.347  -4.726  0.00  0.00     0.070 H 
BRANCH  21  24
ATOM     24  C   UNK d   0      14.631  -3.357  -2.944  0.00  0.00    -0.021 C 
ATOM     25  H   UNK d   0      14.164  -3.520  -1.973  0.00  0.00     0.029 H 
ATOM     26  H   UNK d   0      15.649  -3.747  -2.926  0.00  0.00     0.029 H 
BRANCH  24  27
ATOM     27  C   UNK d   0      14.666  -1.858  -3.248  0.00  0.00    -0.062 C 
ATOM     28  H   UNK d   0      14.028  -1.645  -4.105  0.00  0.00     0.023 H 
ATOM     29  H   UNK d   0      14.308  -1.303  -2.381  0.00  0.00     0.023 H 
ATOM     30  H   UNK d   0      15.690  -1.556  -3.472  0.00  0.00     0.023 H 
ENDBRANCH  24  27
ENDBRANCH  21  24
ENDBRANCH  20  21
ENDBRANCH  14  20
ENDBRANCH   1  10
BRANCH   4  31
ATOM     31  CB  LEU d   1       5.943   0.481  -2.866  0.00  0.00    -0.027 C 
ATOM     32  HB1 LEU d   1       6.857   0.594  -2.284  0.00  0.00     0.029 H 
ATOM     33  HB2 LEU d   1       5.787   1.371  -3.476  0.00  0.00     0.029 H 
BRANCH  31  34
ATOM     34  CG  LEU d   1       4.755   0.297  -1.919  0.00  0.00    -0.045 C 
ATOM     35  HG  LEU d   1       5.063   0.533  -0.900  0.00  0.00     0.030 H 
BRANCH  34  36
ATOM     36  CD1 LEU d   1       3.619   1.232  -2.338  0.00  0.00    -0.063 C 
ATOM     37 1HD1 LEU d   1       3.878   2.258  -2.077  0.00  0.00     0.023 H 
ATOM     38 2HD1 LEU d   1       3.465   1.158  -3.415  0.00  0.00     0.023 H 
ATOM     39 3HD1 LEU d   1       2.704   0.947  -1.820  0.00  0.00     0.023 H 
ENDBRANCH  34  36
BRANCH  34  40
ATOM     40  CD2 LEU d   1       4.272  -1.154  -1.984  0.00  0.00    -0.063 C 
ATOM     41 1HD2 LEU d   1       5.053  -1.778  -2.418  0.00  0.00     0.023 H 
ATOM     42 2HD2 LEU d   1       4.043  -1.505  -0.977  0.00  0.00     0.023 H 
ATOM     43 3HD2 LEU d   1       3.376  -1.212  -2.601  0.00  0.00     0.023 H 
ENDBRANCH  34  40
ENDBRANCH  31  34
ENDBRANCH   4  31
TORSDOF 11
ENDMDL
MODEL 6
REMARK VINA RESULT:      -5.3      4.978      7.637
REMARK  9 active torsions:
REMARK  status: ('A' for Active; 'I' for Inactive)
REMARK    1  A    between atoms: C_1  and  C_2 
REMARK    2  A    between atoms: C_2  and  C_3 
REMARK    3  A    between atoms: C_3  and  O_4 
REMARK    4  A    between atoms: O_4  and  C_5 
REMARK    5  A    between atoms: C_8  and  C_11 
REMARK       I    between atoms: C_11  and  N_13 
REMARK       I    between atoms: N_13  and  CA_14 
REMARK    6  A    between atoms: CA_14  and  CB_16 
REMARK       I    between atoms: CA_14  and  C_20 
REMARK    7  A    between atoms: CB_16  and  CG_17 
REMARK    8  A    between atoms: CG_17  and  CD1_18 
REMARK    9  A    between atoms: CG_17  and  CD2_19 
ROOT
ATOM      1  C   UNK d   0       7.474   0.604  -5.235  0.00  0.00     0.245 C 
ATOM      2  O   UNK d   0       7.935  -0.395  -5.750  0.00  0.00    -0.270 OA
ATOM      3  N   LEU d   1       6.168   0.649  -4.901  0.00  0.00    -0.303 N 
ATOM      4  CA  LEU d   1       5.306  -0.506  -5.161  0.00  0.00     0.063 C 
ATOM      5  HA  LEU d   1       5.876  -1.425  -5.018  0.00  0.00     0.056 H 
ATOM      6  C   LEU d   1       4.797  -0.445  -6.578  0.00  0.00     0.062 C 
ATOM      7  O   LEU d   1       5.122   0.470  -7.298  0.00  0.00    -0.548 OA
ATOM      8  H   LEU d   1       5.800   1.446  -4.489  0.00  0.00     0.150 HD
ATOM      9  OXT LEU d   1       3.984  -1.407  -7.041  0.00  0.00    -0.548 OA
ENDROOT
BRANCH   1  10
ATOM     10  C   UNK d   0       8.343   1.768  -4.973  0.00  0.00     0.037 A 
ATOM     11  C   UNK d   0       8.681   2.109  -3.661  0.00  0.00    -0.046 A 
ATOM     12  C   UNK d   0       9.493   3.195  -3.421  0.00  0.00    -0.019 A 
ATOM     13  H   UNK d   0       8.308   1.520  -2.836  0.00  0.00     0.063 H 
ATOM     14  C   UNK d   0       9.974   3.953  -4.481  0.00  0.00     0.120 A 
ATOM     15  H   UNK d   0       9.755   3.458  -2.407  0.00  0.00     0.065 H 
ATOM     16  C   UNK d   0       9.640   3.617  -5.788  0.00  0.00    -0.019 A 
ATOM     17  C   UNK d   0       8.834   2.529  -6.037  0.00  0.00    -0.046 A 
ATOM     18  H   UNK d   0      10.016   4.209  -6.610  0.00  0.00     0.065 H 
ATOM     19  H   UNK d   0       8.579   2.266  -7.053  0.00  0.00     0.063 H 
BRANCH  14  20
ATOM     20  O   UNK d   0      10.774   5.022  -4.240  0.00  0.00    -0.492 OA
BRANCH  20  21
ATOM     21  C   UNK d   0      10.680   5.624  -2.947  0.00  0.00     0.089 C 
ATOM     22  H   UNK d   0      10.315   4.890  -2.230  0.00  0.00     0.070 H 
ATOM     23  H   UNK d   0      11.665   5.976  -2.639  0.00  0.00     0.070 H 
BRANCH  21  24
ATOM     24  C   UNK d   0       9.711   6.806  -3.004  0.00  0.00    -0.021 C 
ATOM     25  H   UNK d   0      10.170   7.626  -3.557  0.00  0.00     0.029 H 
ATOM     26  H   UNK d   0       8.793   6.501  -3.505  0.00  0.00     0.029 H 
BRANCH  24  27
ATOM     27  C   UNK d   0       9.387   7.270  -1.582  0.00  0.00    -0.062 C 
ATOM     28  H   UNK d   0      10.299   7.614  -1.095  0.00  0.00     0.023 H 
ATOM     29  H   UNK d   0       8.666   8.086  -1.622  0.00  0.00     0.023 H 
ATOM     30  H   UNK d   0       8.964   6.439  -1.017  0.00  0.00     0.023 H 
ENDBRANCH  24  27
ENDBRANCH  21  24
ENDBRANCH  20  21
ENDBRANCH  14  20
ENDBRANCH   1  10
BRANCH   4  31
ATOM     31  CB  LEU d   1       4.121  -0.486  -4.192  0.00  0.00    -0.027 C 
ATOM     32  HB1 LEU d   1       3.455   0.336  -4.452  0.00  0.00     0.029 H 
ATOM     33  HB2 LEU d   1       3.579  -1.429  -4.263  0.00  0.00     0.029 H 
BRANCH  31  34
ATOM     34  CG  LEU d   1       4.633  -0.297  -2.763  0.00  0.00    -0.045 C 
ATOM     35  HG  LEU d   1       5.711  -0.129  -2.783  0.00  0.00     0.030 H 
BRANCH  34  36
ATOM     36  CD1 LEU d   1       3.941   0.910  -2.128  0.00  0.00    -0.063 C 
ATOM     37 1HD1 LEU d   1       3.391   0.589  -1.243  0.00  0.00     0.023 H 
ATOM     38 2HD1 LEU d   1       4.688   1.650  -1.844  0.00  0.00     0.023 H 
ATOM     39 3HD1 LEU d   1       3.248   1.350  -2.845  0.00  0.00     0.023 H 
ENDBRANCH  34  36
BRANCH  34  40
ATOM     40  CD2 LEU d   1       4.327  -1.551  -1.942  0.00  0.00    -0.063 C 
ATOM     41 1HD2 LEU d   1       4.063  -1.263  -0.924  0.00  0.00     0.023 H 
ATOM     42 2HD2 LEU d   1       3.492  -2.087  -2.395  0.00  0.00     0.023 H 
ATOM     43 3HD2 LEU d   1       5.205  -2.196  -1.921  0.00  0.00     0.023 H 
ENDBRANCH  34  40
ENDBRANCH  31  34
ENDBRANCH   4  31
TORSDOF 11
ENDMDL
MODEL 7
REMARK VINA RESULT:      -5.3      5.025      7.033
REMARK  9 active torsions:
REMARK  status: ('A' for Active; 'I' for Inactive)
REMARK    1  A    between atoms: C_1  and  C_2 
REMARK    2  A    between atoms: C_2  and  C_3 
REMARK    3  A    between atoms: C_3  and  O_4 
REMARK    4  A    between atoms: O_4  and  C_5 
REMARK    5  A    between atoms: C_8  and  C_11 
REMARK       I    between atoms: C_11  and  N_13 
REMARK       I    between atoms: N_13  and  CA_14 
REMARK    6  A    between atoms: CA_14  and  CB_16 
REMARK       I    between atoms: CA_14  and  C_20 
REMARK    7  A    between atoms: CB_16  and  CG_17 
REMARK    8  A    between atoms: CG_17  and  CD1_18 
REMARK    9  A    between atoms: CG_17  and  CD2_19 
ROOT
ATOM      1  C   UNK d   0       7.322   0.423  -4.544  0.00  0.00     0.245 C 
ATOM      2  O   UNK d   0       7.840  -0.628  -4.223  0.00  0.00    -0.270 OA
ATOM      3  N   LEU d   1       5.984   0.499  -4.688  0.00  0.00    -0.303 N 
ATOM      4  CA  LEU d   1       5.154  -0.686  -4.459  0.00  0.00     0.063 C 
ATOM      5  HA  LEU d   1       5.585  -1.281  -3.653  0.00  0.00     0.056 H 
ATOM      6  C   LEU d   1       5.098  -1.512  -5.719  0.00  0.00     0.062 C 
ATOM      7  O   LEU d   1       5.691  -1.147  -6.707  0.00  0.00    -0.548 OA
ATOM      8  H   LEU d   1       5.570   1.338  -4.944  0.00  0.00     0.150 HD
ATOM      9  OXT LEU d   1       4.390  -2.652  -5.742  0.00  0.00    -0.548 OA
ENDROOT
BRANCH   1  10
ATOM     10  C   UNK d   0       8.158   1.617  -4.775  0.00  0.00     0.037 A 
ATOM     11  C   UNK d   0       8.669   2.336  -3.691  0.00  0.00    -0.046 A 
ATOM     12  C   UNK d   0       9.449   3.449  -3.911  0.00  0.00    -0.019 A 
ATOM     13  H   UNK d   0       8.453   2.018  -2.682  0.00  0.00     0.063 H 
ATOM     14  C   UNK d   0       9.728   3.859  -5.209  0.00  0.00     0.120 A 
ATOM     15  H   UNK d   0       9.844   4.004  -3.073  0.00  0.00     0.065 H 
ATOM     16  C   UNK d   0       9.222   3.148  -6.291  0.00  0.00    -0.019 A 
ATOM     17  C   UNK d   0       8.446   2.029  -6.080  0.00  0.00    -0.046 A 
ATOM     18  H   UNK d   0       9.441   3.469  -7.298  0.00  0.00     0.065 H 
ATOM     19  H   UNK d   0       8.058   1.474  -6.920  0.00  0.00     0.063 H 
BRANCH  14  20
ATOM     20  O   UNK d   0      10.497   4.957  -5.421  0.00  0.00    -0.492 OA
BRANCH  20  21
ATOM     21  C   UNK d   0      10.327   6.052  -4.519  0.00  0.00     0.089 C 
ATOM     22  H   UNK d   0       9.994   5.678  -3.551  0.00  0.00     0.070 H 
ATOM     23  H   UNK d   0      11.277   6.574  -4.399  0.00  0.00     0.070 H 
BRANCH  21  24
ATOM     24  C   UNK d   0       9.282   7.018  -5.079  0.00  0.00    -0.021 C 
ATOM     25  H   UNK d   0       8.311   6.524  -5.111  0.00  0.00     0.029 H 
ATOM     26  H   UNK d   0       9.220   7.898  -4.440  0.00  0.00     0.029 H 
BRANCH  24  27
ATOM     27  C   UNK d   0       9.685   7.442  -6.493  0.00  0.00    -0.062 C 
ATOM     28  H   UNK d   0      10.772   7.483  -6.565  0.00  0.00     0.023 H 
ATOM     29  H   UNK d   0       9.300   6.720  -7.212  0.00  0.00     0.023 H 
ATOM     30  H   UNK d   0       9.269   8.426  -6.710  0.00  0.00     0.023 H 
ENDBRANCH  24  27
ENDBRANCH  21  24
ENDBRANCH  20  21
ENDBRANCH  14  20
ENDBRANCH   1  10
BRANCH   4  31
ATOM     31  CB  LEU d   1       3.739  -0.251  -4.071  0.00  0.00    -0.027 C 
ATOM     32  HB1 LEU d   1       3.567   0.770  -4.413  0.00  0.00     0.029 H 
ATOM     33  HB2 LEU d   1       3.014  -0.917  -4.537  0.00  0.00     0.029 H 
BRANCH  31  34
ATOM     34  CG  LEU d   1       3.586  -0.312  -2.550  0.00  0.00    -0.045 C 
ATOM     35  HG  LEU d   1       2.530  -0.418  -2.296  0.00  0.00     0.030 H 
BRANCH  34  36
ATOM     36  CD1 LEU d   1       4.364  -1.512  -2.007  0.00  0.00    -0.063 C 
ATOM     37 1HD1 LEU d   1       4.887  -2.007  -2.826  0.00  0.00     0.023 H 
ATOM     38 2HD1 LEU d   1       5.087  -1.172  -1.266  0.00  0.00     0.023 H 
ATOM     39 3HD1 LEU d   1       3.671  -2.215  -1.543  0.00  0.00     0.023 H 
ENDBRANCH  34  36
BRANCH  34  40
ATOM     40  CD2 LEU d   1       4.134   0.974  -1.929  0.00  0.00    -0.063 C 
ATOM     41 1HD2 LEU d   1       4.416   0.786  -0.893  0.00  0.00     0.023 H 
ATOM     42 2HD2 LEU d   1       5.010   1.303  -2.490  0.00  0.00     0.023 H 
ATOM     43 3HD2 LEU d   1       3.369   1.749  -1.962  0.00  0.00     0.023 H 
ENDBRANCH  34  40
ENDBRANCH  31  34
ENDBRANCH   4  31
TORSDOF 11
ENDMDL
MODEL 8
REMARK VINA RESULT:      -5.2      4.776      7.512
REMARK  9 active torsions:
REMARK  status: ('A' for Active; 'I' for Inactive)
REMARK    1  A    between atoms: C_1  and  C_2 
REMARK    2  A    between atoms: C_2  and  C_3 
REMARK    3  A    between atoms: C_3  and  O_4 
REMARK    4  A    between atoms: O_4  and  C_5 
REMARK    5  A    between atoms: C_8  and  C_11 
REMARK       I    between atoms: C_11  and  N_13 
REMARK       I    between atoms: N_13  and  CA_14 
REMARK    6  A    between atoms: CA_14  and  CB_16 
REMARK       I    between atoms: CA_14  and  C_20 
REMARK    7  A    between atoms: CB_16  and  CG_17 
REMARK    8  A    between atoms: CG_17  and  CD1_18 
REMARK    9  A    between atoms: CG_17  and  CD2_19 
ROOT
ATOM      1  C   UNK d   0       5.173  -3.643  -5.245  0.00  0.00     0.245 C 
ATOM      2  O   UNK d   0       4.469  -3.109  -6.078  0.00  0.00    -0.270 OA
ATOM      3  N   LEU d   1       5.618  -2.938  -4.186  0.00  0.00    -0.303 N 
ATOM      4  CA  LEU d   1       5.255  -1.526  -4.041  0.00  0.00     0.063 C 
ATOM      5  HA  LEU d   1       4.242  -1.371  -4.415  0.00  0.00     0.056 H 
ATOM      6  C   LEU d   1       6.218  -0.676  -4.830  0.00  0.00     0.062 C 
ATOM      7  O   LEU d   1       7.115  -1.196  -5.450  0.00  0.00    -0.548 OA
ATOM      8  H   LEU d   1       6.180  -3.364  -3.520  0.00  0.00     0.150 HD
ATOM      9  OXT LEU d   1       6.077   0.659  -4.844  0.00  0.00    -0.548 OA
ENDROOT
BRANCH   1  10
ATOM     10  C   UNK d   0       5.539  -5.065  -5.390  0.00  0.00     0.037 A 
ATOM     11  C   UNK d   0       4.542  -6.039  -5.493  0.00  0.00    -0.046 A 
ATOM     12  C   UNK d   0       4.888  -7.364  -5.630  0.00  0.00    -0.019 A 
ATOM     13  H   UNK d   0       3.502  -5.752  -5.467  0.00  0.00     0.063 H 
ATOM     14  C   UNK d   0       6.227  -7.735  -5.664  0.00  0.00     0.120 A 
ATOM     15  H   UNK d   0       4.117  -8.117  -5.710  0.00  0.00     0.065 H 
ATOM     16  C   UNK d   0       7.222  -6.771  -5.562  0.00  0.00    -0.019 A 
ATOM     17  C   UNK d   0       6.885  -5.441  -5.432  0.00  0.00    -0.046 A 
ATOM     18  H   UNK d   0       8.261  -7.063  -5.589  0.00  0.00     0.065 H 
ATOM     19  H   UNK d   0       7.658  -4.692  -5.357  0.00  0.00     0.063 H 
BRANCH  14  20
ATOM     20  O   UNK d   0       6.563  -9.043  -5.799  0.00  0.00    -0.492 OA
BRANCH  20  21
ATOM     21  C   UNK d   0       5.539 -10.007  -5.541  0.00  0.00     0.089 C 
ATOM     22  H   UNK d   0       4.566  -9.515  -5.551  0.00  0.00     0.070 H 
ATOM     23  H   UNK d   0       5.564 -10.777  -6.312  0.00  0.00     0.070 H 
BRANCH  21  24
ATOM     24  C   UNK d   0       5.773 -10.646  -4.172  0.00  0.00    -0.021 C 
ATOM     25  H   UNK d   0       5.792 -11.731  -4.275  0.00  0.00     0.029 H 
ATOM     26  H   UNK d   0       6.725 -10.304  -3.768  0.00  0.00     0.029 H 
BRANCH  24  27
ATOM     27  C   UNK d   0       4.643 -10.246  -3.221  0.00  0.00    -0.062 C 
ATOM     28  H   UNK d   0       3.695 -10.625  -3.602  0.00  0.00     0.023 H 
ATOM     29  H   UNK d   0       4.833 -10.666  -2.234  0.00  0.00     0.023 H 
ATOM     30  H   UNK d   0       4.597  -9.158  -3.149  0.00  0.00     0.023 H 
ENDBRANCH  24  27
ENDBRANCH  21  24
ENDBRANCH  20  21
ENDBRANCH  14  20
ENDBRANCH   1  10
BRANCH   4  31
ATOM     31  CB  LEU d   1       5.318  -1.132  -2.564  0.00  0.00    -0.027 C 
ATOM     32  HB1 LEU d   1       5.535  -2.014  -1.962  0.00  0.00     0.029 H 
ATOM     33  HB2 LEU d   1       6.106  -0.392  -2.419  0.00  0.00     0.029 H 
BRANCH  31  34
ATOM     34  CG  LEU d   1       3.975  -0.538  -2.136  0.00  0.00    -0.045 C 
ATOM     35  HG  LEU d   1       3.687  -0.953  -1.169  0.00  0.00     0.030 H 
BRANCH  34  36
ATOM     36  CD1 LEU d   1       4.102   0.982  -2.022  0.00  0.00    -0.063 C 
ATOM     37 1HD1 LEU d   1       3.784   1.299  -1.028  0.00  0.00     0.023 H 
ATOM     38 2HD1 LEU d   1       5.140   1.274  -2.182  0.00  0.00     0.023 H 
ATOM     39 3HD1 LEU d   1       3.470   1.457  -2.772  0.00  0.00     0.023 H 
ENDBRANCH  34  36
BRANCH  34  40
ATOM     40  CD2 LEU d   1       2.910  -0.884  -3.178  0.00  0.00    -0.063 C 
ATOM     41 1HD2 LEU d   1       2.155  -0.098  -3.200  0.00  0.00     0.023 H 
ATOM     42 2HD2 LEU d   1       3.376  -0.967  -4.161  0.00  0.00     0.023 H 
ATOM     43 3HD2 LEU d   1       2.440  -1.832  -2.917  0.00  0.00     0.023 H 
ENDBRANCH  34  40
ENDBRANCH  31  34
ENDBRANCH   4  31
TORSDOF 11
ENDMDL
MODEL 9
REMARK VINA RESULT:      -5.1      5.074      7.037
REMARK  9 active torsions:
REMARK  status: ('A' for Active; 'I' for Inactive)
REMARK    1  A    between atoms: C_1  and  C_2 
REMARK    2  A    between atoms: C_2  and  C_3 
REMARK    3  A    between atoms: C_3  and  O_4 
REMARK    4  A    between atoms: O_4  and  C_5 
REMARK    5  A    between atoms: C_8  and  C_11 
REMARK       I    between atoms: C_11  and  N_13 
REMARK       I    between atoms: N_13  and  CA_14 
REMARK    6  A    between atoms: CA_14  and  CB_16 
REMARK       I    between atoms: CA_14  and  C_20 
REMARK    7  A    between atoms: CB_16  and  CG_17 
REMARK    8  A    between atoms: CG_17  and  CD1_18 
REMARK    9  A    between atoms: CG_17  and  CD2_19 
ROOT
ATOM      1  C   UNK d   0       4.832  -3.534  -5.585  0.00  0.00     0.245 C 
ATOM      2  O   UNK d   0       5.174  -2.671  -6.369  0.00  0.00    -0.270 OA
ATOM      3  N   LEU d   1       4.587  -3.218  -4.298  0.00  0.00    -0.303 N 
ATOM      4  CA  LEU d   1       4.735  -1.833  -3.843  0.00  0.00     0.063 C 
ATOM      5  HA  LEU d   1       4.431  -1.154  -4.641  0.00  0.00     0.056 H 
ATOM      6  C   LEU d   1       6.175  -1.573  -3.483  0.00  0.00     0.062 C 
ATOM      7  O   LEU d   1       6.994  -2.454  -3.595  0.00  0.00    -0.548 OA
ATOM      8  H   LEU d   1       4.314  -3.906  -3.672  0.00  0.00     0.150 HD
ATOM      9  OXT LEU d   1       6.547  -0.362  -3.038  0.00  0.00    -0.548 OA
ENDROOT
BRANCH   1  10
ATOM     10  C   UNK d   0       4.684  -4.929  -6.043  0.00  0.00     0.037 A 
ATOM     11  C   UNK d   0       5.057  -5.985  -5.207  0.00  0.00    -0.046 A 
ATOM     12  C   UNK d   0       4.915  -7.285  -5.638  0.00  0.00    -0.019 A 
ATOM     13  H   UNK d   0       5.454  -5.781  -4.224  0.00  0.00     0.063 H 
ATOM     14  C   UNK d   0       4.404  -7.548  -6.903  0.00  0.00     0.120 A 
ATOM     15  H   UNK d   0       5.203  -8.101  -4.991  0.00  0.00     0.065 H 
ATOM     16  C   UNK d   0       4.032  -6.502  -7.738  0.00  0.00    -0.019 A 
ATOM     17  C   UNK d   0       4.164  -5.198  -7.312  0.00  0.00    -0.046 A 
ATOM     18  H   UNK d   0       3.635  -6.710  -8.720  0.00  0.00     0.065 H 
ATOM     19  H   UNK d   0       3.870  -4.386  -7.959  0.00  0.00     0.063 H 
BRANCH  14  20
ATOM     20  O   UNK d   0       4.267  -8.831  -7.323  0.00  0.00    -0.492 OA
BRANCH  20  21
ATOM     21  C   UNK d   0       5.071  -9.817  -6.671  0.00  0.00     0.089 C 
ATOM     22  H   UNK d   0       5.907 -10.089  -7.314  0.00  0.00     0.070 H 
ATOM     23  H   UNK d   0       5.450  -9.413  -5.732  0.00  0.00     0.070 H 
BRANCH  21  24
ATOM     24  C   UNK d   0       4.223 -11.058  -6.386  0.00  0.00    -0.021 C 
ATOM     25  H   UNK d   0       3.209 -10.755  -6.124  0.00  0.00     0.029 H 
ATOM     26  H   UNK d   0       4.194 -11.691  -7.273  0.00  0.00     0.029 H 
BRANCH  24  27
ATOM     27  C   UNK d   0       4.837 -11.840  -5.222  0.00  0.00    -0.062 C 
ATOM     28  H   UNK d   0       4.596 -11.343  -4.283  0.00  0.00     0.023 H 
ATOM     29  H   UNK d   0       4.435 -12.852  -5.212  0.00  0.00     0.023 H 
ATOM     30  H   UNK d   0       5.920 -11.882  -5.344  0.00  0.00     0.023 H 
ENDBRANCH  24  27
ENDBRANCH  21  24
ENDBRANCH  20  21
ENDBRANCH  14  20
ENDBRANCH   1  10
BRANCH   4  31
ATOM     31  CB  LEU d   1       3.852  -1.603  -2.615  0.00  0.00    -0.027 C 
ATOM     32  HB1 LEU d   1       3.232  -2.483  -2.444  0.00  0.00     0.029 H 
ATOM     33  HB2 LEU d   1       4.482  -1.427  -1.743  0.00  0.00     0.029 H 
BRANCH  31  34
ATOM     34  CG  LEU d   1       2.956  -0.385  -2.851  0.00  0.00    -0.045 C 
ATOM     35  HG  LEU d   1       1.981  -0.557  -2.394  0.00  0.00     0.030 H 
BRANCH  34  36
ATOM     36  CD1 LEU d   1       3.602   0.852  -2.224  0.00  0.00    -0.063 C 
ATOM     37 1HD1 LEU d   1       4.142   1.408  -2.991  0.00  0.00     0.023 H 
ATOM     38 2HD1 LEU d   1       2.828   1.486  -1.792  0.00  0.00     0.023 H 
ATOM     39 3HD1 LEU d   1       4.297   0.544  -1.444  0.00  0.00     0.023 H 
ENDBRANCH  34  36
BRANCH  34  40
ATOM     40  CD2 LEU d   1       2.784  -0.163  -4.355  0.00  0.00    -0.063 C 
ATOM     41 1HD2 LEU d   1       3.732   0.160  -4.786  0.00  0.00     0.023 H 
ATOM     42 2HD2 LEU d   1       2.470  -1.096  -4.826  0.00  0.00     0.023 H 
ATOM     43 3HD2 LEU d   1       2.027   0.603  -4.525  0.00  0.00     0.023 H 
ENDBRANCH  34  40
ENDBRANCH  31  34
ENDBRANCH   4  31
TORSDOF 11
ENDMDL
MODEL 10
REMARK VINA RESULT:      -5.1      5.212      8.367
REMARK  9 active torsions:
REMARK  status: ('A' for Active; 'I' for Inactive)
REMARK    1  A    between atoms: C_1  and  C_2 
REMARK    2  A    between atoms: C_2  and  C_3 
REMARK    3  A    between atoms: C_3  and  O_4 
REMARK    4  A    between atoms: O_4  and  C_5 
REMARK    5  A    between atoms: C_8  and  C_11 
REMARK       I    between atoms: C_11  and  N_13 
REMARK       I    between atoms: N_13  and  CA_14 
REMARK    6  A    between atoms: CA_14  and  CB_16 
REMARK       I    between atoms: CA_14  and  C_20 
REMARK    7  A    between atoms: CB_16  and  CG_17 
REMARK    8  A    between atoms: CG_17  and  CD1_18 
REMARK    9  A    between atoms: CG_17  and  CD2_19 
ROOT
ATOM      1  C   UNK d   0       7.594  -2.630  -3.924  0.00  0.00     0.245 C 
ATOM      2  O   UNK d   0       6.665  -3.346  -4.238  0.00  0.00    -0.270 OA
ATOM      3  N   LEU d   1       7.385  -1.320  -3.683  0.00  0.00    -0.303 N 
ATOM      4  CA  LEU d   1       6.036  -0.760  -3.802  0.00  0.00     0.063 C 
ATOM      5  HA  LEU d   1       5.306  -1.500  -3.474  0.00  0.00     0.056 H 
ATOM      6  C   LEU d   1       5.770  -0.391  -5.239  0.00  0.00     0.062 C 
ATOM      7  O   LEU d   1       6.619  -0.577  -6.078  0.00  0.00    -0.548 OA
ATOM      8  H   LEU d   1       8.127  -0.748  -3.432  0.00  0.00     0.150 HD
ATOM      9  OXT LEU d   1       4.589   0.144  -5.586  0.00  0.00    -0.548 OA
ENDROOT
BRANCH   1  10
ATOM     10  C   UNK d   0       8.952  -3.194  -3.804  0.00  0.00     0.037 A 
ATOM     11  C   UNK d   0       9.220  -4.181  -2.852  0.00  0.00    -0.046 A 
ATOM     12  C   UNK d   0      10.489  -4.705  -2.745  0.00  0.00    -0.019 A 
ATOM     13  H   UNK d   0       8.433  -4.533  -2.202  0.00  0.00     0.063 H 
ATOM     14  C   UNK d   0      11.503  -4.253  -3.580  0.00  0.00     0.120 A 
ATOM     15  H   UNK d   0      10.696  -5.469  -2.009  0.00  0.00     0.065 H 
ATOM     16  C   UNK d   0      11.241  -3.272  -4.529  0.00  0.00    -0.019 A 
ATOM     17  C   UNK d   0       9.973  -2.746  -4.648  0.00  0.00    -0.046 A 
ATOM     18  H   UNK d   0      12.032  -2.923  -5.176  0.00  0.00     0.065 H 
ATOM     19  H   UNK d   0       9.770  -1.987  -5.387  0.00  0.00     0.063 H 
BRANCH  14  20
ATOM     20  O   UNK d   0      12.752  -4.773  -3.471  0.00  0.00    -0.492 OA
BRANCH  20  21
ATOM     21  C   UNK d   0      12.853  -6.190  -3.311  0.00  0.00     0.089 C 
ATOM     22  H   UNK d   0      13.662  -6.421  -2.619  0.00  0.00     0.070 H 
ATOM     23  H   UNK d   0      11.914  -6.578  -2.917  0.00  0.00     0.070 H 
BRANCH  21  24
ATOM     24  C   UNK d   0      13.143  -6.836  -4.667  0.00  0.00    -0.021 C 
ATOM     25  H   UNK d   0      13.151  -6.069  -5.442  0.00  0.00     0.029 H 
ATOM     26  H   UNK d   0      14.115  -7.329  -4.635  0.00  0.00     0.029 H 
BRANCH  24  27
ATOM     27  C   UNK d   0      12.058  -7.868  -4.983  0.00  0.00    -0.062 C 
ATOM     28  H   UNK d   0      11.284  -7.828  -4.218  0.00  0.00     0.023 H 
ATOM     29  H   UNK d   0      11.620  -7.647  -5.956  0.00  0.00     0.023 H 
ATOM     30  H   UNK d   0      12.500  -8.865  -5.003  0.00  0.00     0.023 H 
ENDBRANCH  24  27
ENDBRANCH  21  24
ENDBRANCH  20  21
ENDBRANCH  14  20
ENDBRANCH   1  10
BRANCH   4  31
ATOM     31  CB  LEU d   1       5.924   0.489  -2.925  0.00  0.00    -0.027 C 
ATOM     32  HB1 LEU d   1       6.848   0.622  -2.363  0.00  0.00     0.029 H 
ATOM     33  HB2 LEU d   1       5.754   1.362  -3.556  0.00  0.00     0.029 H 
BRANCH  31  34
ATOM     34  CG  LEU d   1       4.754   0.327  -1.953  0.00  0.00    -0.045 C 
ATOM     35  HG  LEU d   1       5.093   0.537  -0.938  0.00  0.00     0.030 H 
BRANCH  34  36
ATOM     36  CD1 LEU d   1       3.638   1.304  -2.330  0.00  0.00    -0.063 C 
ATOM     37 1HD1 LEU d   1       3.625   2.131  -1.620  0.00  0.00     0.023 H 
ATOM     38 2HD1 LEU d   1       3.816   1.688  -3.334  0.00  0.00     0.023 H 
ATOM     39 3HD1 LEU d   1       2.679   0.787  -2.303  0.00  0.00     0.023 H 
ENDBRANCH  34  36
BRANCH  34  40
ATOM     40  CD2 LEU d   1       4.224  -1.106  -2.028  0.00  0.00    -0.063 C 
ATOM     41 1HD2 LEU d   1       4.975  -1.748  -2.490  0.00  0.00     0.023 H 
ATOM     42 2HD2 LEU d   1       4.008  -1.467  -1.021  0.00  0.00     0.023 H 
ATOM     43 3HD2 LEU d   1       3.312  -1.126  -2.624  0.00  0.00     0.023 H 
ENDBRANCH  34  40
ENDBRANCH  31  34
ENDBRANCH   4  31
TORSDOF 11
ENDMDL
