MODEL 1
REMARK VINA RESULT:      -6.4      0.000      0.000
REMARK  7 active torsions:
REMARK  status: ('A' for Active; 'I' for Inactive)
REMARK    1  A    between atoms: C_1  and  C_2 
REMARK    2  A    between atoms: C_11  and  C_25 
REMARK    3  A    between atoms: C_17  and  C_22 
REMARK    4  A    between atoms: C_22  and  C_24 
REMARK    5  A    between atoms: C_26  and  C_35 
REMARK    6  A    between atoms: C_27  and  O_34 
REMARK    7  A    between atoms: C_29  and  O_33 
ROOT
ATOM      1  C   LIG d   1       2.455  -0.456 -10.040  0.00  0.00    -0.014 C 
ATOM      2  H   LIG d   1       2.839   0.510 -10.368  0.00  0.00     0.033 H 
ATOM      3  C   LIG d   1       2.413  -0.467  -8.520  0.00  0.00    -0.044 C 
ATOM      4  C   LIG d   1       3.792  -0.300  -7.906  0.00  0.00    -0.034 C 
ATOM      5  H   LIG d   1       4.096   0.741  -8.020  0.00  0.00     0.031 H 
ATOM      6  C   LIG d   1       4.848  -1.192  -8.528  0.00  0.00    -0.030 C 
ATOM      7  H   LIG d   1       5.809  -0.733  -8.295  0.00  0.00     0.031 H 
ATOM      8  C   LIG d   1       4.880  -2.563  -7.855  0.00  0.00    -0.049 C 
ATOM      9  C   LIG d   1       5.464  -2.419  -6.438  0.00  0.00    -0.046 C 
ATOM     10  C   LIG d   1       5.160  -1.010  -5.956  0.00  0.00    -0.016 C 
ATOM     11  C   LIG d   1       3.728  -0.634  -6.418  0.00  0.00    -0.031 C 
ATOM     12  H   LIG d   1       3.033  -1.454  -6.236  0.00  0.00     0.031 H 
ATOM     13  C   LIG d   1       3.409   0.577  -5.526  0.00  0.00    -0.046 C 
ATOM     14  C   LIG d   1       4.020   0.173  -4.156  0.00  0.00    -0.028 C 
ATOM     15  H   LIG d   1       4.543   1.057  -3.793  0.00  0.00     0.031 H 
ATOM     16  C   LIG d   1       5.084  -0.868  -4.431  0.00  0.00     0.037 C 
ATOM     17  C   LIG d   1       4.864  -2.215  -3.785  0.00  0.00    -0.040 C 
ATOM     18  C   LIG d   1       4.281  -2.065  -2.388  0.00  0.00    -0.052 C 
ATOM     19  C   LIG d   1       2.881  -1.478  -2.553  0.00  0.00    -0.053 C 
ATOM     20  C   LIG d   1       2.943  -0.097  -3.161  0.00  0.00    -0.049 C 
ATOM     21  C   LIG d   1       4.791  -1.308 -10.030  0.00  0.00     0.000 C 
ATOM     22  C   LIG d   1       3.379  -1.570 -10.538  0.00  0.00     0.077 C 
ATOM     23  C   LIG d   1       3.376  -1.574 -12.070  0.00  0.00     0.003 C 
ATOM     24  C   LIG d   1       4.297  -2.692 -12.561  0.00  0.00     0.058 C 
ATOM     25  H   LIG d   1       3.939  -3.651 -12.186  0.00  0.00     0.059 H 
ATOM     26  C   LIG d   1       5.719  -2.445 -12.052  0.00  0.00    -0.026 C 
ATOM     27  C   LIG d   1       5.716  -2.426 -10.521  0.00  0.00    -0.042 C 
ATOM     28  H   LIG d   1       1.997  -1.424  -8.204  0.00  0.00     0.027 H 
ATOM     29  H   LIG d   1       1.767   0.335  -8.166  0.00  0.00     0.027 H 
ATOM     30  H   LIG d   1       3.868  -2.963  -7.792  0.00  0.00     0.027 H 
ATOM     31  H   LIG d   1       5.504  -3.240  -8.437  0.00  0.00     0.027 H 
ATOM     32  H   LIG d   1       6.541  -2.577  -6.464  0.00  0.00     0.027 H 
ATOM     33  H   LIG d   1       4.999  -3.146  -5.771  0.00  0.00     0.027 H 
ATOM     34  H   LIG d   1       3.889   1.477  -5.911  0.00  0.00     0.027 H 
ATOM     35  H   LIG d   1       2.332   0.723  -5.444  0.00  0.00     0.027 H 
ATOM     36  H   LIG d   1       4.186  -2.804  -4.403  0.00  0.00     0.028 H 
ATOM     37  H   LIG d   1       5.819  -2.735  -3.705  0.00  0.00     0.028 H 
ATOM     38  H   LIG d   1       4.896  -1.391  -1.791  0.00  0.00     0.027 H 
ATOM     39  H   LIG d   1       4.220  -3.038  -1.901  0.00  0.00     0.027 H 
ATOM     40  H   LIG d   1       2.400  -1.418  -1.577  0.00  0.00     0.026 H 
ATOM     41  H   LIG d   1       2.295  -2.128  -3.202  0.00  0.00     0.026 H 
ATOM     42  H   LIG d   1       3.054   0.620  -2.347  0.00  0.00     0.027 H 
ATOM     43  H   LIG d   1       1.986   0.098  -3.643  0.00  0.00     0.027 H 
ATOM     44  H   LIG d   1       3.733  -0.617 -12.447  0.00  0.00     0.032 H 
ATOM     45  H   LIG d   1       2.363  -1.752 -12.431  0.00  0.00     0.032 H 
ATOM     46  H   LIG d   1       6.077  -1.487 -12.427  0.00  0.00     0.029 H 
ATOM     47  H   LIG d   1       6.374  -3.242 -12.402  0.00  0.00     0.029 H 
ATOM     48  H   LIG d   1       6.727  -2.246 -10.158  0.00  0.00     0.027 H 
ATOM     49  H   LIG d   1       5.359  -3.384 -10.145  0.00  0.00     0.027 H 
ENDROOT
BRANCH  16  50
ATOM     50  C   LIG d   1       6.404  -0.325  -3.949  0.00  0.00     0.137 C 
ATOM     51  O   LIG d   1       7.389  -1.023  -3.975  0.00  0.00    -0.297 OA
BRANCH  50  52
ATOM     52  C   LIG d   1       6.495   1.087  -3.429  0.00  0.00    -0.005 C 
ATOM     53  H   LIG d   1       5.756   1.250  -2.777  0.00  0.00     0.031 H 
ATOM     54  H   LIG d   1       7.456   1.230  -2.933  0.00  0.00     0.031 H 
ATOM     55  H   LIG d   1       6.408   1.786  -4.261  0.00  0.00     0.031 H 
ENDBRANCH  50  52
ENDBRANCH  16  50
BRANCH  10  56
ATOM     56  C   LIG d   1       6.173  -0.014  -6.526  0.00  0.00    -0.058 C 
ATOM     57  H   LIG d   1       5.790   0.400  -7.458  0.00  0.00     0.024 H 
ATOM     58  H   LIG d   1       6.333   0.792  -5.809  0.00  0.00     0.024 H 
ATOM     59  H   LIG d   1       7.117  -0.524  -6.715  0.00  0.00     0.024 H 
ENDBRANCH  10  56
BRANCH  21  60
ATOM     60  C   LIG d   1       5.279   0.012 -10.630  0.00  0.00    -0.057 C 
ATOM     61  H   LIG d   1       5.920   0.523  -9.912  0.00  0.00     0.024 H 
ATOM     62  H   LIG d   1       5.842  -0.190 -11.542  0.00  0.00     0.024 H 
ATOM     63  H   LIG d   1       4.421   0.642 -10.866  0.00  0.00     0.024 H 
ENDBRANCH  21  60
BRANCH   1  64
ATOM     64  C   LIG d   1       1.048  -0.667 -10.604  0.00  0.00    -0.060 C 
ATOM     65  H   LIG d   1       0.325  -0.657  -9.789  0.00  0.00     0.023 H 
ATOM     66  H   LIG d   1       0.815   0.131 -11.308  0.00  0.00     0.023 H 
ATOM     67  H   LIG d   1       1.004  -1.628 -11.117  0.00  0.00     0.023 H 
ENDBRANCH   1  64
BRANCH  22  68
ATOM     68  O   LIG d   1       2.919  -2.828 -10.044  0.00  0.00    -0.388 OA
ATOM     69  H   LIG d   1       1.970  -2.974 -10.159  0.00  0.00     0.210 HD
ENDBRANCH  22  68
BRANCH  24  70
ATOM     70  O   LIG d   1       4.302  -2.712 -13.990  0.00  0.00    -0.392 OA
ATOM     71  H   LIG d   1       3.443  -2.514 -14.389  0.00  0.00     0.210 HD
ENDBRANCH  24  70
TORSDOF 7
ENDMDL
MODEL 2
REMARK VINA RESULT:      -6.1      3.962      6.375
REMARK  7 active torsions:
REMARK  status: ('A' for Active; 'I' for Inactive)
REMARK    1  A    between atoms: C_1  and  C_2 
REMARK    2  A    between atoms: C_11  and  C_25 
REMARK    3  A    between atoms: C_17  and  C_22 
REMARK    4  A    between atoms: C_22  and  C_24 
REMARK    5  A    between atoms: C_26  and  C_35 
REMARK    6  A    between atoms: C_27  and  O_34 
REMARK    7  A    between atoms: C_29  and  O_33 
ROOT
ATOM      1  C   LIG d   1      10.250   1.933  -4.815  0.00  0.00    -0.014 C 
ATOM      2  H   LIG d   1      10.783   1.422  -4.014  0.00  0.00     0.033 H 
ATOM      3  C   LIG d   1       8.772   1.981  -4.459  0.00  0.00    -0.044 C 
ATOM      4  C   LIG d   1       8.166   0.594  -4.328  0.00  0.00    -0.034 C 
ATOM      5  H   LIG d   1       8.513   0.154  -3.393  0.00  0.00     0.031 H 
ATOM      6  C   LIG d   1       8.524  -0.336  -5.471  0.00  0.00    -0.030 C 
ATOM      7  H   LIG d   1       8.372  -1.348  -5.097  0.00  0.00     0.031 H 
ATOM      8  C   LIG d   1       7.545  -0.183  -6.634  0.00  0.00    -0.049 C 
ATOM      9  C   LIG d   1       6.182  -0.775  -6.232  0.00  0.00    -0.046 C 
ATOM     10  C   LIG d   1       6.058  -0.660  -4.723  0.00  0.00    -0.016 C 
ATOM     11  C   LIG d   1       6.645   0.708  -4.287  0.00  0.00    -0.031 C 
ATOM     12  H   LIG d   1       6.299   1.507  -4.943  0.00  0.00     0.031 H 
ATOM     13  C   LIG d   1       6.076   0.866  -2.867  0.00  0.00    -0.046 C 
ATOM     14  C   LIG d   1       4.629   0.319  -3.008  0.00  0.00    -0.028 C 
ATOM     15  H   LIG d   1       4.466  -0.316  -2.137  0.00  0.00     0.031 H 
ATOM     16  C   LIG d   1       4.613  -0.598  -4.212  0.00  0.00     0.037 C 
ATOM     17  C   LIG d   1       3.675  -0.199  -5.327  0.00  0.00    -0.040 C 
ATOM     18  C   LIG d   1       2.374   0.365  -4.774  0.00  0.00    -0.052 C 
ATOM     19  C   LIG d   1       2.722   1.673  -4.068  0.00  0.00    -0.053 C 
ATOM     20  C   LIG d   1       3.636   1.426  -2.892  0.00  0.00    -0.049 C 
ATOM     21  C   LIG d   1       9.956  -0.269  -5.933  0.00  0.00     0.000 C 
ATOM     22  C   LIG d   1      10.438   1.164  -6.125  0.00  0.00     0.077 C 
ATOM     23  C   LIG d   1      11.925   1.162  -6.495  0.00  0.00     0.003 C 
ATOM     24  C   LIG d   1      12.106   0.396  -7.806  0.00  0.00     0.058 C 
ATOM     25  H   LIG d   1      11.528   0.880  -8.593  0.00  0.00     0.059 H 
ATOM     26  C   LIG d   1      11.619  -1.044  -7.630  0.00  0.00    -0.026 C 
ATOM     27  C   LIG d   1      10.138  -1.039  -7.245  0.00  0.00    -0.042 C 
ATOM     28  H   LIG d   1       8.254   2.522  -5.250  0.00  0.00     0.027 H 
ATOM     29  H   LIG d   1       8.640   2.516  -3.519  0.00  0.00     0.027 H 
ATOM     30  H   LIG d   1       7.425   0.874  -6.874  0.00  0.00     0.027 H 
ATOM     31  H   LIG d   1       7.929  -0.713  -7.505  0.00  0.00     0.027 H 
ATOM     32  H   LIG d   1       6.132  -1.822  -6.529  0.00  0.00     0.027 H 
ATOM     33  H   LIG d   1       5.379  -0.215  -6.713  0.00  0.00     0.027 H 
ATOM     34  H   LIG d   1       6.645   0.269  -2.155  0.00  0.00     0.027 H 
ATOM     35  H   LIG d   1       6.068   1.914  -2.569  0.00  0.00     0.027 H 
ATOM     36  H   LIG d   1       4.160   0.549  -5.954  0.00  0.00     0.028 H 
ATOM     37  H   LIG d   1       3.442  -1.076  -5.931  0.00  0.00     0.028 H 
ATOM     38  H   LIG d   1       1.932  -0.333  -4.062  0.00  0.00     0.027 H 
ATOM     39  H   LIG d   1       1.674   0.556  -5.587  0.00  0.00     0.027 H 
ATOM     40  H   LIG d   1       1.806   2.146  -3.716  0.00  0.00     0.026 H 
ATOM     41  H   LIG d   1       3.220   2.339  -4.774  0.00  0.00     0.026 H 
ATOM     42  H   LIG d   1       3.011   1.223  -2.022  0.00  0.00     0.027 H 
ATOM     43  H   LIG d   1       4.184   2.347  -2.696  0.00  0.00     0.027 H 
ATOM     44  H   LIG d   1      12.504   0.679  -5.709  0.00  0.00     0.032 H 
ATOM     45  H   LIG d   1      12.269   2.188  -6.622  0.00  0.00     0.032 H 
ATOM     46  H   LIG d   1      12.197  -1.529  -6.843  0.00  0.00     0.029 H 
ATOM     47  H   LIG d   1      11.748  -1.589  -8.564  0.00  0.00     0.029 H 
ATOM     48  H   LIG d   1       9.792  -2.064  -7.115  0.00  0.00     0.027 H 
ATOM     49  H   LIG d   1       9.558  -0.556  -8.032  0.00  0.00     0.027 H 
ENDROOT
BRANCH  16  50
ATOM     50  C   LIG d   1       4.226  -1.977  -3.744  0.00  0.00     0.137 C 
ATOM     51  O   LIG d   1       4.156  -2.886  -4.536  0.00  0.00    -0.297 OA
BRANCH  50  52
ATOM     52  C   LIG d   1       3.922  -2.222  -2.289  0.00  0.00    -0.005 C 
ATOM     53  H   LIG d   1       3.161  -2.865  -2.210  0.00  0.00     0.031 H 
ATOM     54  H   LIG d   1       4.802  -2.640  -1.799  0.00  0.00     0.031 H 
ATOM     55  H   LIG d   1       3.654  -1.280  -1.810  0.00  0.00     0.031 H 
ENDBRANCH  50  52
ENDBRANCH  16  50
BRANCH  10  56
ATOM     56  C   LIG d   1       6.810  -1.798  -4.029  0.00  0.00    -0.058 C 
ATOM     57  H   LIG d   1       6.094  -2.493  -3.591  0.00  0.00     0.024 H 
ATOM     58  H   LIG d   1       7.426  -2.324  -4.758  0.00  0.00     0.024 H 
ATOM     59  H   LIG d   1       7.445  -1.388  -3.244  0.00  0.00     0.024 H 
ENDBRANCH  10  56
BRANCH  21  60
ATOM     60  C   LIG d   1      10.833  -0.930  -4.869  0.00  0.00    -0.057 C 
ATOM     61  H   LIG d   1      10.228  -1.166  -3.994  0.00  0.00     0.024 H 
ATOM     62  H   LIG d   1      11.265  -1.848  -5.271  0.00  0.00     0.024 H 
ATOM     63  H   LIG d   1      11.635  -0.248  -4.583  0.00  0.00     0.024 H 
ENDBRANCH  21  60
BRANCH   1  64
ATOM     64  C   LIG d   1      10.797   3.353  -4.973  0.00  0.00    -0.060 C 
ATOM     65  H   LIG d   1      10.706   3.885  -4.026  0.00  0.00     0.023 H 
ATOM     66  H   LIG d   1      11.846   3.308  -5.266  0.00  0.00     0.023 H 
ATOM     67  H   LIG d   1      10.228   3.878  -5.741  0.00  0.00     0.023 H 
ENDBRANCH   1  64
BRANCH  22  68
ATOM     68  O   LIG d   1       9.677   1.789  -7.160  0.00  0.00    -0.388 OA
ATOM     69  H   LIG d   1       8.720   1.708  -7.049  0.00  0.00     0.210 HD
ENDBRANCH  22  68
BRANCH  24  70
ATOM     70  O   LIG d   1      13.489   0.389  -8.166  0.00  0.00    -0.392 OA
ATOM     71  H   LIG d   1      14.089   0.257  -7.420  0.00  0.00     0.210 HD
ENDBRANCH  24  70
TORSDOF 7
ENDMDL
MODEL 3
REMARK VINA RESULT:      -6.1      2.333      6.564
REMARK  7 active torsions:
REMARK  status: ('A' for Active; 'I' for Inactive)
REMARK    1  A    between atoms: C_1  and  C_2 
REMARK    2  A    between atoms: C_11  and  C_25 
REMARK    3  A    between atoms: C_17  and  C_22 
REMARK    4  A    between atoms: C_22  and  C_24 
REMARK    5  A    between atoms: C_26  and  C_35 
REMARK    6  A    between atoms: C_27  and  O_34 
REMARK    7  A    between atoms: C_29  and  O_33 
ROOT
ATOM      1  C   LIG d   1       6.268  -2.332  -4.264  0.00  0.00    -0.014 C 
ATOM      2  H   LIG d   1       5.497  -3.009  -3.897  0.00  0.00     0.033 H 
ATOM      3  C   LIG d   1       5.605  -1.262  -5.117  0.00  0.00    -0.044 C 
ATOM      4  C   LIG d   1       4.905  -1.846  -6.332  0.00  0.00    -0.034 C 
ATOM      5  H   LIG d   1       3.989  -2.334  -5.999  0.00  0.00     0.031 H 
ATOM      6  C   LIG d   1       5.747  -2.849  -7.095  0.00  0.00    -0.030 C 
ATOM      7  H   LIG d   1       5.049  -3.454  -7.674  0.00  0.00     0.031 H 
ATOM      8  C   LIG d   1       6.633  -2.154  -8.128  0.00  0.00    -0.049 C 
ATOM      9  C   LIG d   1       5.754  -1.624  -9.276  0.00  0.00    -0.046 C 
ATOM     10  C   LIG d   1       4.374  -1.346  -8.708  0.00  0.00    -0.016 C 
ATOM     11  C   LIG d   1       4.543  -0.721  -7.297  0.00  0.00    -0.031 C 
ATOM     12  H   LIG d   1       5.316   0.048  -7.302  0.00  0.00     0.031 H 
ATOM     13  C   LIG d   1       3.153  -0.114  -7.044  0.00  0.00    -0.046 C 
ATOM     14  C   LIG d   1       2.767   0.467  -8.433  0.00  0.00    -0.028 C 
ATOM     15  H   LIG d   1       1.728   0.180  -8.596  0.00  0.00     0.031 H 
ATOM     16  C   LIG d   1       3.581  -0.276  -9.470  0.00  0.00     0.037 C 
ATOM     17  C   LIG d   1       4.510   0.574 -10.305  0.00  0.00    -0.040 C 
ATOM     18  C   LIG d   1       3.871   1.912 -10.646  0.00  0.00    -0.052 C 
ATOM     19  C   LIG d   1       3.716   2.676  -9.333  0.00  0.00    -0.053 C 
ATOM     20  C   LIG d   1       2.774   1.957  -8.397  0.00  0.00    -0.049 C 
ATOM     21  C   LIG d   1       6.533  -3.813  -6.244  0.00  0.00     0.000 C 
ATOM     22  C   LIG d   1       7.274  -3.115  -5.111  0.00  0.00     0.077 C 
ATOM     23  C   LIG d   1       7.966  -4.159  -4.228  0.00  0.00     0.003 C 
ATOM     24  C   LIG d   1       8.973  -4.935  -5.079  0.00  0.00     0.058 C 
ATOM     25  H   LIG d   1       9.712  -4.245  -5.487  0.00  0.00     0.059 H 
ATOM     26  C   LIG d   1       8.242  -5.635  -6.226  0.00  0.00    -0.026 C 
ATOM     27  C   LIG d   1       7.539  -4.592  -7.097  0.00  0.00    -0.042 C 
ATOM     28  H   LIG d   1       6.380  -0.572  -5.451  0.00  0.00     0.027 H 
ATOM     29  H   LIG d   1       4.879  -0.714  -4.518  0.00  0.00     0.027 H 
ATOM     30  H   LIG d   1       7.158  -1.321  -7.659  0.00  0.00     0.027 H 
ATOM     31  H   LIG d   1       7.358  -2.865  -8.524  0.00  0.00     0.027 H 
ATOM     32  H   LIG d   1       5.686  -2.372 -10.065  0.00  0.00     0.027 H 
ATOM     33  H   LIG d   1       6.183  -0.704  -9.675  0.00  0.00     0.027 H 
ATOM     34  H   LIG d   1       2.445  -0.885  -6.740  0.00  0.00     0.027 H 
ATOM     35  H   LIG d   1       3.207   0.674  -6.294  0.00  0.00     0.027 H 
ATOM     36  H   LIG d   1       5.436   0.740  -9.756  0.00  0.00     0.028 H 
ATOM     37  H   LIG d   1       4.734   0.052 -11.236  0.00  0.00     0.028 H 
ATOM     38  H   LIG d   1       2.892   1.759 -11.102  0.00  0.00     0.027 H 
ATOM     39  H   LIG d   1       4.512   2.470 -11.327  0.00  0.00     0.027 H 
ATOM     40  H   LIG d   1       3.324   3.671  -9.541  0.00  0.00     0.026 H 
ATOM     41  H   LIG d   1       4.692   2.768  -8.856  0.00  0.00     0.026 H 
ATOM     42  H   LIG d   1       1.762   2.301  -8.616  0.00  0.00     0.027 H 
ATOM     43  H   LIG d   1       3.014   2.267  -7.381  0.00  0.00     0.027 H 
ATOM     44  H   LIG d   1       7.228  -4.848  -3.818  0.00  0.00     0.032 H 
ATOM     45  H   LIG d   1       8.487  -3.658  -3.413  0.00  0.00     0.032 H 
ATOM     46  H   LIG d   1       7.503  -6.325  -5.818  0.00  0.00     0.029 H 
ATOM     47  H   LIG d   1       8.960  -6.188  -6.831  0.00  0.00     0.029 H 
ATOM     48  H   LIG d   1       7.016  -5.090  -7.912  0.00  0.00     0.027 H 
ATOM     49  H   LIG d   1       8.278  -3.902  -7.507  0.00  0.00     0.027 H 
ENDROOT
BRANCH  16  50
ATOM     50  C   LIG d   1       2.626  -0.980 -10.398  0.00  0.00     0.137 C 
ATOM     51  O   LIG d   1       3.049  -1.594 -11.347  0.00  0.00    -0.297 OA
BRANCH  50  52
ATOM     52  C   LIG d   1       1.142  -0.914 -10.145  0.00  0.00    -0.005 C 
ATOM     53  H   LIG d   1       0.704  -0.376 -10.865  0.00  0.00     0.031 H 
ATOM     54  H   LIG d   1       0.728  -1.923 -10.142  0.00  0.00     0.031 H 
ATOM     55  H   LIG d   1       0.959  -0.444  -9.178  0.00  0.00     0.031 H 
ENDBRANCH  50  52
ENDBRANCH  16  50
BRANCH  10  56
ATOM     56  C   LIG d   1       3.556  -2.636  -8.614  0.00  0.00    -0.058 C 
ATOM     57  H   LIG d   1       3.383  -3.029  -9.616  0.00  0.00     0.024 H 
ATOM     58  H   LIG d   1       4.104  -3.371  -8.025  0.00  0.00     0.024 H 
ATOM     59  H   LIG d   1       2.600  -2.426  -8.137  0.00  0.00     0.024 H 
ENDBRANCH  10  56
BRANCH  21  60
ATOM     60  C   LIG d   1       5.554  -4.815  -5.630  0.00  0.00    -0.057 C 
ATOM     61  H   LIG d   1       5.053  -4.358  -4.778  0.00  0.00     0.024 H 
ATOM     62  H   LIG d   1       4.813  -5.104  -6.376  0.00  0.00     0.024 H 
ATOM     63  H   LIG d   1       6.099  -5.700  -5.300  0.00  0.00     0.024 H 
ENDBRANCH  21  60
BRANCH   1  64
ATOM     64  C   LIG d   1       6.989  -1.685  -3.080  0.00  0.00    -0.060 C 
ATOM     65  H   LIG d   1       7.922  -2.215  -2.889  0.00  0.00     0.023 H 
ATOM     66  H   LIG d   1       7.204  -0.642  -3.311  0.00  0.00     0.023 H 
ATOM     67  H   LIG d   1       6.354  -1.737  -2.195  0.00  0.00     0.023 H 
ENDBRANCH   1  64
BRANCH  22  68
ATOM     68  O   LIG d   1       8.242  -2.216  -5.655  0.00  0.00    -0.388 OA
ATOM     69  H   LIG d   1       7.971  -1.288  -5.640  0.00  0.00     0.210 HD
ENDBRANCH  22  68
BRANCH  24  70
ATOM     70  O   LIG d   1       9.629  -5.911  -4.267  0.00  0.00    -0.392 OA
ATOM     71  H   LIG d   1       9.715  -6.778  -4.686  0.00  0.00     0.210 HD
ENDBRANCH  24  70
TORSDOF 7
ENDMDL
MODEL 4
REMARK VINA RESULT:      -5.7      4.075      7.172
REMARK  7 active torsions:
REMARK  status: ('A' for Active; 'I' for Inactive)
REMARK    1  A    between atoms: C_1  and  C_2 
REMARK    2  A    between atoms: C_11  and  C_25 
REMARK    3  A    between atoms: C_17  and  C_22 
REMARK    4  A    between atoms: C_22  and  C_24 
REMARK    5  A    between atoms: C_26  and  C_35 
REMARK    6  A    between atoms: C_27  and  O_34 
REMARK    7  A    between atoms: C_29  and  O_33 
ROOT
ATOM      1  C   LIG d   1       6.508  -0.351  -7.168  0.00  0.00    -0.014 C 
ATOM      2  H   LIG d   1       7.221  -1.087  -7.538  0.00  0.00     0.033 H 
ATOM      3  C   LIG d   1       7.178   1.014  -7.172  0.00  0.00    -0.044 C 
ATOM      4  C   LIG d   1       8.390   1.064  -6.258  0.00  0.00    -0.034 C 
ATOM      5  H   LIG d   1       9.204   0.518  -6.736  0.00  0.00     0.031 H 
ATOM      6  C   LIG d   1       8.141   0.472  -4.885  0.00  0.00    -0.030 C 
ATOM      7  H   LIG d   1       9.121   0.219  -4.481  0.00  0.00     0.031 H 
ATOM      8  C   LIG d   1       7.566   1.517  -3.929  0.00  0.00    -0.049 C 
ATOM      9  C   LIG d   1       8.662   2.540  -3.578  0.00  0.00    -0.046 C 
ATOM     10  C   LIG d   1       9.633   2.594  -4.745  0.00  0.00    -0.016 C 
ATOM     11  C   LIG d   1       8.818   2.516  -6.063  0.00  0.00    -0.031 C 
ATOM     12  H   LIG d   1       7.949   3.172  -6.022  0.00  0.00     0.031 H 
ATOM     13  C   LIG d   1       9.839   3.004  -7.103  0.00  0.00    -0.046 C 
ATOM     14  C   LIG d   1      10.568   4.159  -6.362  0.00  0.00    -0.028 C 
ATOM     15  H   LIG d   1      11.629   4.019  -6.567  0.00  0.00     0.031 H 
ATOM     16  C   LIG d   1      10.385   3.924  -4.879  0.00  0.00     0.037 C 
ATOM     17  C   LIG d   1       9.665   5.016  -4.125  0.00  0.00    -0.040 C 
ATOM     18  C   LIG d   1      10.063   6.392  -4.641  0.00  0.00    -0.052 C 
ATOM     19  C   LIG d   1       9.543   6.496  -6.073  0.00  0.00    -0.053 C 
ATOM     20  C   LIG d   1      10.210   5.476  -6.964  0.00  0.00    -0.049 C 
ATOM     21  C   LIG d   1       7.337  -0.802  -4.867  0.00  0.00     0.000 C 
ATOM     22  C   LIG d   1       6.092  -0.715  -5.741  0.00  0.00     0.077 C 
ATOM     23  C   LIG d   1       5.380  -2.072  -5.759  0.00  0.00     0.003 C 
ATOM     24  C   LIG d   1       4.963  -2.428  -4.331  0.00  0.00     0.058 C 
ATOM     25  H   LIG d   1       4.291  -1.661  -3.946  0.00  0.00     0.059 H 
ATOM     26  C   LIG d   1       6.204  -2.512  -3.441  0.00  0.00    -0.026 C 
ATOM     27  C   LIG d   1       6.922  -1.161  -3.437  0.00  0.00    -0.042 C 
ATOM     28  H   LIG d   1       6.446   1.747  -6.832  0.00  0.00     0.027 H 
ATOM     29  H   LIG d   1       7.487   1.267  -8.186  0.00  0.00     0.027 H 
ATOM     30  H   LIG d   1       6.731   2.029  -4.407  0.00  0.00     0.027 H 
ATOM     31  H   LIG d   1       7.221   1.027  -3.019  0.00  0.00     0.027 H 
ATOM     32  H   LIG d   1       9.185   2.226  -2.675  0.00  0.00     0.027 H 
ATOM     33  H   LIG d   1       8.214   3.522  -3.424  0.00  0.00     0.027 H 
ATOM     34  H   LIG d   1      10.539   2.209  -7.358  0.00  0.00     0.027 H 
ATOM     35  H   LIG d   1       9.334   3.372  -7.996  0.00  0.00     0.027 H 
ATOM     36  H   LIG d   1       8.589   4.881  -4.237  0.00  0.00     0.028 H 
ATOM     37  H   LIG d   1       9.925   4.956  -3.068  0.00  0.00     0.028 H 
ATOM     38  H   LIG d   1      11.147   6.499  -4.632  0.00  0.00     0.027 H 
ATOM     39  H   LIG d   1       9.610   7.167  -4.024  0.00  0.00     0.027 H 
ATOM     40  H   LIG d   1       9.747   7.495  -6.457  0.00  0.00     0.026 H 
ATOM     41  H   LIG d   1       8.466   6.324  -6.076  0.00  0.00     0.026 H 
ATOM     42  H   LIG d   1      11.124   5.923  -7.355  0.00  0.00     0.027 H 
ATOM     43  H   LIG d   1       9.548   5.288  -7.809  0.00  0.00     0.027 H 
ATOM     44  H   LIG d   1       6.050  -2.840  -6.144  0.00  0.00     0.032 H 
ATOM     45  H   LIG d   1       4.495  -2.010  -6.392  0.00  0.00     0.032 H 
ATOM     46  H   LIG d   1       6.876  -3.279  -3.825  0.00  0.00     0.029 H 
ATOM     47  H   LIG d   1       5.906  -2.766  -2.424  0.00  0.00     0.029 H 
ATOM     48  H   LIG d   1       7.808  -1.221  -2.806  0.00  0.00     0.027 H 
ATOM     49  H   LIG d   1       6.252  -0.393  -3.051  0.00  0.00     0.027 H 
ENDROOT
BRANCH  16  50
ATOM     50  C   LIG d   1      11.749   3.748  -4.262  0.00  0.00     0.137 C 
ATOM     51  O   LIG d   1      11.866   3.688  -3.062  0.00  0.00    -0.297 OA
BRANCH  50  52
ATOM     52  C   LIG d   1      12.968   3.653  -5.143  0.00  0.00    -0.005 C 
ATOM     53  H   LIG d   1      12.835   4.214  -5.959  0.00  0.00     0.031 H 
ATOM     54  H   LIG d   1      13.841   4.011  -4.595  0.00  0.00     0.031 H 
ATOM     55  H   LIG d   1      13.125   2.615  -5.437  0.00  0.00     0.031 H 
ENDBRANCH  50  52
ENDBRANCH  16  50
BRANCH  10  56
ATOM     56  C   LIG d   1      10.628   1.433  -4.675  0.00  0.00    -0.058 C 
ATOM     57  H   LIG d   1      11.640   1.827  -4.582  0.00  0.00     0.024 H 
ATOM     58  H   LIG d   1      10.400   0.810  -3.810  0.00  0.00     0.024 H 
ATOM     59  H   LIG d   1      10.553   0.835  -5.583  0.00  0.00     0.024 H 
ENDBRANCH  10  56
BRANCH  21  60
ATOM     60  C   LIG d   1       8.220  -1.931  -5.403  0.00  0.00    -0.057 C 
ATOM     61  H   LIG d   1       8.008  -2.087  -6.460  0.00  0.00     0.024 H 
ATOM     62  H   LIG d   1       9.269  -1.663  -5.278  0.00  0.00     0.024 H 
ATOM     63  H   LIG d   1       8.012  -2.848  -4.851  0.00  0.00     0.024 H 
ENDBRANCH  21  60
BRANCH   1  64
ATOM     64  C   LIG d   1       5.274  -0.332  -8.072  0.00  0.00    -0.060 C 
ATOM     65  H   LIG d   1       5.568  -0.053  -9.083  0.00  0.00     0.023 H 
ATOM     66  H   LIG d   1       4.818  -1.322  -8.085  0.00  0.00     0.023 H 
ATOM     67  H   LIG d   1       4.555   0.393  -7.689  0.00  0.00     0.023 H 
ENDBRANCH   1  64
BRANCH  22  68
ATOM     68  O   LIG d   1       5.217   0.290  -5.227  0.00  0.00    -0.388 OA
ATOM     69  H   LIG d   1       5.671   1.019  -4.784  0.00  0.00     0.210 HD
ENDBRANCH  22  68
BRANCH  24  70
ATOM     70  O   LIG d   1       4.293  -3.691  -4.332  0.00  0.00    -0.392 OA
ATOM     71  H   LIG d   1       4.864  -4.439  -4.111  0.00  0.00     0.210 HD
ENDBRANCH  24  70
TORSDOF 7
ENDMDL
MODEL 5
REMARK VINA RESULT:      -5.7      4.230      6.308
REMARK  7 active torsions:
REMARK  status: ('A' for Active; 'I' for Inactive)
REMARK    1  A    between atoms: C_1  and  C_2 
REMARK    2  A    between atoms: C_11  and  C_25 
REMARK    3  A    between atoms: C_17  and  C_22 
REMARK    4  A    between atoms: C_22  and  C_24 
REMARK    5  A    between atoms: C_26  and  C_35 
REMARK    6  A    between atoms: C_27  and  O_34 
REMARK    7  A    between atoms: C_29  and  O_33 
ROOT
ATOM      1  C   LIG d   1       5.157  -1.152  -3.648  0.00  0.00    -0.014 C 
ATOM      2  H   LIG d   1       5.676  -0.204  -3.512  0.00  0.00     0.033 H 
ATOM      3  C   LIG d   1       6.054  -2.270  -3.140  0.00  0.00    -0.044 C 
ATOM      4  C   LIG d   1       7.359  -2.356  -3.912  0.00  0.00    -0.034 C 
ATOM      5  H   LIG d   1       7.997  -1.527  -3.605  0.00  0.00     0.031 H 
ATOM      6  C   LIG d   1       7.180  -2.306  -5.417  0.00  0.00    -0.030 C 
ATOM      7  H   LIG d   1       8.142  -1.998  -5.827  0.00  0.00     0.031 H 
ATOM      8  C   LIG d   1       6.925  -3.700  -5.990  0.00  0.00    -0.049 C 
ATOM      9  C   LIG d   1       8.221  -4.527  -5.908  0.00  0.00    -0.046 C 
ATOM     10  C   LIG d   1       9.034  -3.996  -4.740  0.00  0.00    -0.016 C 
ATOM     11  C   LIG d   1       8.061  -3.669  -3.576  0.00  0.00    -0.031 C 
ATOM     12  H   LIG d   1       7.335  -4.471  -3.440  0.00  0.00     0.031 H 
ATOM     13  C   LIG d   1       9.016  -3.569  -2.376  0.00  0.00    -0.046 C 
ATOM     14  C   LIG d   1      10.026  -4.721  -2.635  0.00  0.00    -0.028 C 
ATOM     15  H   LIG d   1      11.011  -4.303  -2.432  0.00  0.00     0.031 H 
ATOM     16  C   LIG d   1       9.989  -5.022  -4.118  0.00  0.00     0.037 C 
ATOM     17  C   LIG d   1       9.575  -6.425  -4.493  0.00  0.00    -0.040 C 
ATOM     18  C   LIG d   1      10.145  -7.444  -3.517  0.00  0.00    -0.052 C 
ATOM     19  C   LIG d   1       9.479  -7.186  -2.168  0.00  0.00    -0.053 C 
ATOM     20  C   LIG d   1       9.838  -5.817  -1.642  0.00  0.00    -0.049 C 
ATOM     21  C   LIG d   1       6.170  -1.305  -5.914  0.00  0.00     0.000 C 
ATOM     22  C   LIG d   1       4.862  -1.364  -5.135  0.00  0.00     0.077 C 
ATOM     23  C   LIG d   1       3.922  -0.256  -5.621  0.00  0.00     0.003 C 
ATOM     24  C   LIG d   1       3.628  -0.477  -7.106  0.00  0.00     0.058 C 
ATOM     25  H   LIG d   1       3.157  -1.450  -7.244  0.00  0.00     0.059 H 
ATOM     26  C   LIG d   1       4.935  -0.426  -7.900  0.00  0.00    -0.026 C 
ATOM     27  C   LIG d   1       5.878  -1.524  -7.402  0.00  0.00    -0.042 C 
ATOM     28  H   LIG d   1       5.513  -3.210  -3.251  0.00  0.00     0.027 H 
ATOM     29  H   LIG d   1       6.275  -2.111  -2.085  0.00  0.00     0.027 H 
ATOM     30  H   LIG d   1       6.142  -4.194  -5.413  0.00  0.00     0.027 H 
ATOM     31  H   LIG d   1       6.613  -3.615  -7.030  0.00  0.00     0.027 H 
ATOM     32  H   LIG d   1       8.787  -4.419  -6.833  0.00  0.00     0.027 H 
ATOM     33  H   LIG d   1       7.979  -5.578  -5.743  0.00  0.00     0.027 H 
ATOM     34  H   LIG d   1       9.526  -2.606  -2.368  0.00  0.00     0.027 H 
ATOM     35  H   LIG d   1       8.479  -3.726  -1.441  0.00  0.00     0.027 H 
ATOM     36  H   LIG d   1       8.487  -6.490  -4.494  0.00  0.00     0.028 H 
ATOM     37  H   LIG d   1       9.949  -6.656  -5.491  0.00  0.00     0.028 H 
ATOM     38  H   LIG d   1      11.225  -7.318  -3.427  0.00  0.00     0.027 H 
ATOM     39  H   LIG d   1       9.918  -8.454  -3.857  0.00  0.00     0.027 H 
ATOM     40  H   LIG d   1       9.810  -7.941  -1.455  0.00  0.00     0.026 H 
ATOM     41  H   LIG d   1       8.398  -7.253  -2.284  0.00  0.00     0.026 H 
ATOM     42  H   LIG d   1      10.762  -5.911  -1.070  0.00  0.00     0.027 H 
ATOM     43  H   LIG d   1       9.053  -5.510  -0.950  0.00  0.00     0.027 H 
ATOM     44  H   LIG d   1       4.391   0.717  -5.484  0.00  0.00     0.032 H 
ATOM     45  H   LIG d   1       2.991  -0.295  -5.056  0.00  0.00     0.032 H 
ATOM     46  H   LIG d   1       5.406   0.547  -7.763  0.00  0.00     0.029 H 
ATOM     47  H   LIG d   1       4.724  -0.583  -8.958  0.00  0.00     0.029 H 
ATOM     48  H   LIG d   1       6.810  -1.486  -7.964  0.00  0.00     0.027 H 
ATOM     49  H   LIG d   1       5.409  -2.498  -7.540  0.00  0.00     0.027 H 
ENDROOT
BRANCH  16  50
ATOM     50  C   LIG d   1      11.366  -4.773  -4.679  0.00  0.00     0.137 C 
ATOM     51  O   LIG d   1      11.618  -5.081  -5.819  0.00  0.00    -0.297 OA
BRANCH  50  52
ATOM     52  C   LIG d   1      12.429  -4.144  -3.817  0.00  0.00    -0.005 C 
ATOM     53  H   LIG d   1      13.194  -4.779  -3.714  0.00  0.00     0.031 H 
ATOM     54  H   LIG d   1      12.781  -3.224  -4.286  0.00  0.00     0.031 H 
ATOM     55  H   LIG d   1      12.013  -3.914  -2.836  0.00  0.00     0.031 H 
ENDBRANCH  50  52
ENDBRANCH  16  50
BRANCH  10  56
ATOM     56  C   LIG d   1       9.806  -2.738  -5.146  0.00  0.00    -0.058 C 
ATOM     57  H   LIG d   1      10.337  -2.924  -6.080  0.00  0.00     0.024 H 
ATOM     58  H   LIG d   1       9.109  -1.912  -5.282  0.00  0.00     0.024 H 
ATOM     59  H   LIG d   1      10.523  -2.485  -4.365  0.00  0.00     0.024 H 
ENDBRANCH  10  56
BRANCH  21  60
ATOM     60  C   LIG d   1       6.763   0.095  -5.747  0.00  0.00    -0.057 C 
ATOM     61  H   LIG d   1       6.720   0.624  -6.698  0.00  0.00     0.024 H 
ATOM     62  H   LIG d   1       6.192   0.645  -4.998  0.00  0.00     0.024 H 
ATOM     63  H   LIG d   1       7.801   0.014  -5.422  0.00  0.00     0.024 H 
ENDBRANCH  21  60
BRANCH   1  64
ATOM     64  C   LIG d   1       3.844  -1.138  -2.863  0.00  0.00    -0.060 C 
ATOM     65  H   LIG d   1       4.039  -0.841  -1.833  0.00  0.00     0.023 H 
ATOM     66  H   LIG d   1       3.155  -0.428  -3.322  0.00  0.00     0.023 H 
ATOM     67  H   LIG d   1       3.401  -2.134  -2.877  0.00  0.00     0.023 H 
ENDBRANCH   1  64
BRANCH  22  68
ATOM     68  O   LIG d   1       4.251  -2.642  -5.323  0.00  0.00    -0.388 OA
ATOM     69  H   LIG d   1       3.657  -2.904  -4.607  0.00  0.00     0.210 HD
ENDBRANCH  22  68
BRANCH  24  70
ATOM     70  O   LIG d   1       2.748   0.548  -7.574  0.00  0.00    -0.392 OA
ATOM     71  H   LIG d   1       3.202   1.314  -7.952  0.00  0.00     0.210 HD
ENDBRANCH  24  70
TORSDOF 7
ENDMDL
MODEL 6
REMARK VINA RESULT:      -5.7      7.602     12.386
REMARK  7 active torsions:
REMARK  status: ('A' for Active; 'I' for Inactive)
REMARK    1  A    between atoms: C_1  and  C_2 
REMARK    2  A    between atoms: C_11  and  C_25 
REMARK    3  A    between atoms: C_17  and  C_22 
REMARK    4  A    between atoms: C_22  and  C_24 
REMARK    5  A    between atoms: C_26  and  C_35 
REMARK    6  A    between atoms: C_27  and  O_34 
REMARK    7  A    between atoms: C_29  and  O_33 
ROOT
ATOM      1  C   LIG d   1      11.395   6.707  -0.178  0.00  0.00    -0.014 C 
ATOM      2  H   LIG d   1      12.433   7.030  -0.249  0.00  0.00     0.033 H 
ATOM      3  C   LIG d   1      11.223   5.449  -1.015  0.00  0.00    -0.044 C 
ATOM      4  C   LIG d   1      11.520   5.690  -2.485  0.00  0.00    -0.034 C 
ATOM      5  H   LIG d   1      12.599   5.783  -2.607  0.00  0.00     0.031 H 
ATOM      6  C   LIG d   1      10.854   6.932  -3.044  0.00  0.00    -0.030 C 
ATOM      7  H   LIG d   1      11.417   7.203  -3.936  0.00  0.00     0.031 H 
ATOM      8  C   LIG d   1       9.439   6.626  -3.535  0.00  0.00    -0.049 C 
ATOM      9  C   LIG d   1       9.520   5.775  -4.815  0.00  0.00    -0.046 C 
ATOM     10  C   LIG d   1      10.815   4.983  -4.761  0.00  0.00    -0.016 C 
ATOM     11  C   LIG d   1      11.031   4.498  -3.303  0.00  0.00    -0.031 C 
ATOM     12  H   LIG d   1      10.107   4.097  -2.886  0.00  0.00     0.031 H 
ATOM     13  C   LIG d   1      12.088   3.397  -3.482  0.00  0.00    -0.046 C 
ATOM     14  C   LIG d   1      11.638   2.689  -4.790  0.00  0.00    -0.028 C 
ATOM     15  H   LIG d   1      12.545   2.541  -5.374  0.00  0.00     0.031 H 
ATOM     16  C   LIG d   1      10.790   3.676  -5.563  0.00  0.00     0.037 C 
ATOM     17  C   LIG d   1       9.367   3.248  -5.831  0.00  0.00    -0.040 C 
ATOM     18  C   LIG d   1       9.291   1.761  -6.145  0.00  0.00    -0.052 C 
ATOM     19  C   LIG d   1       9.689   1.019  -4.871  0.00  0.00    -0.053 C 
ATOM     20  C   LIG d   1      11.119   1.323  -4.494  0.00  0.00    -0.049 C 
ATOM     21  C   LIG d   1      10.883   8.141  -2.145  0.00  0.00     0.000 C 
ATOM     22  C   LIG d   1      10.478   7.810  -0.713  0.00  0.00     0.077 C 
ATOM     23  C   LIG d   1      10.629   9.056   0.165  0.00  0.00     0.003 C 
ATOM     24  C   LIG d   1       9.707  10.152  -0.372  0.00  0.00     0.058 C 
ATOM     25  H   LIG d   1       8.675   9.803  -0.349  0.00  0.00     0.059 H 
ATOM     26  C   LIG d   1      10.099  10.490  -1.812  0.00  0.00    -0.026 C 
ATOM     27  C   LIG d   1       9.963   9.240  -2.684  0.00  0.00    -0.042 C 
ATOM     28  H   LIG d   1      10.191   5.116  -0.911  0.00  0.00     0.027 H 
ATOM     29  H   LIG d   1      11.886   4.669  -0.642  0.00  0.00     0.027 H 
ATOM     30  H   LIG d   1       8.896   6.076  -2.766  0.00  0.00     0.027 H 
ATOM     31  H   LIG d   1       8.919   7.559  -3.751  0.00  0.00     0.027 H 
ATOM     32  H   LIG d   1       9.518   6.423  -5.691  0.00  0.00     0.027 H 
ATOM     33  H   LIG d   1       8.671   5.092  -4.858  0.00  0.00     0.027 H 
ATOM     34  H   LIG d   1      13.081   3.831  -3.602  0.00  0.00     0.027 H 
ATOM     35  H   LIG d   1      12.072   2.705  -2.640  0.00  0.00     0.027 H 
ATOM     36  H   LIG d   1       8.754   3.469  -4.957  0.00  0.00     0.028 H 
ATOM     37  H   LIG d   1       8.981   3.802  -6.688  0.00  0.00     0.028 H 
ATOM     38  H   LIG d   1       9.980   1.509  -6.950  0.00  0.00     0.027 H 
ATOM     39  H   LIG d   1       8.274   1.491  -6.430  0.00  0.00     0.027 H 
ATOM     40  H   LIG d   1       9.581  -0.053  -5.032  0.00  0.00     0.026 H 
ATOM     41  H   LIG d   1       9.031   1.327  -4.057  0.00  0.00     0.026 H 
ATOM     42  H   LIG d   1      11.758   0.605  -5.009  0.00  0.00     0.027 H 
ATOM     43  H   LIG d   1      11.225   1.149  -3.423  0.00  0.00     0.027 H 
ATOM     44  H   LIG d   1      11.660   9.405   0.144  0.00  0.00     0.032 H 
ATOM     45  H   LIG d   1      10.347   8.813   1.190  0.00  0.00     0.032 H 
ATOM     46  H   LIG d   1      11.131  10.838  -1.835  0.00  0.00     0.029 H 
ATOM     47  H   LIG d   1       9.442  11.271  -2.194  0.00  0.00     0.029 H 
ATOM     48  H   LIG d   1      10.245   9.479  -3.709  0.00  0.00     0.027 H 
ATOM     49  H   LIG d   1       8.930   8.891  -2.663  0.00  0.00     0.027 H 
ENDROOT
BRANCH  16  50
ATOM     50  C   LIG d   1      11.461   3.932  -6.887  0.00  0.00     0.137 C 
ATOM     51  O   LIG d   1      10.898   4.581  -7.734  0.00  0.00    -0.297 OA
BRANCH  50  52
ATOM     52  C   LIG d   1      12.835   3.373  -7.157  0.00  0.00    -0.005 C 
ATOM     53  H   LIG d   1      13.526   3.989  -6.781  0.00  0.00     0.031 H 
ATOM     54  H   LIG d   1      12.927   2.393  -6.686  0.00  0.00     0.031 H 
ATOM     55  H   LIG d   1      12.982   3.273  -8.232  0.00  0.00     0.031 H 
ENDBRANCH  50  52
ENDBRANCH  16  50
BRANCH  10  56
ATOM     56  C   LIG d   1      11.997   5.849  -5.205  0.00  0.00    -0.058 C 
ATOM     57  H   LIG d   1      12.923   5.425  -4.818  0.00  0.00     0.024 H 
ATOM     58  H   LIG d   1      12.037   5.877  -6.294  0.00  0.00     0.024 H 
ATOM     59  H   LIG d   1      11.871   6.860  -4.819  0.00  0.00     0.024 H 
ENDBRANCH  10  56
BRANCH  21  60
ATOM     60  C   LIG d   1      12.312   8.686  -2.123  0.00  0.00    -0.057 C 
ATOM     61  H   LIG d   1      13.017   7.862  -2.237  0.00  0.00     0.024 H 
ATOM     62  H   LIG d   1      12.444   9.393  -2.943  0.00  0.00     0.024 H 
ATOM     63  H   LIG d   1      12.494   9.191  -1.175  0.00  0.00     0.024 H 
ENDBRANCH  21  60
BRANCH   1  64
ATOM     64  C   LIG d   1      11.045   6.416   1.283  0.00  0.00    -0.060 C 
ATOM     65  H   LIG d   1      10.152   6.973   1.561  0.00  0.00     0.023 H 
ATOM     66  H   LIG d   1      10.862   5.348   1.406  0.00  0.00     0.023 H 
ATOM     67  H   LIG d   1      11.876   6.718   1.922  0.00  0.00     0.023 H 
ENDBRANCH   1  64
BRANCH  22  68
ATOM     68  O   LIG d   1       9.124   7.357  -0.693  0.00  0.00    -0.388 OA
ATOM     69  H   LIG d   1       8.470   8.068  -0.736  0.00  0.00     0.210 HD
ENDBRANCH  22  68
BRANCH  24  70
ATOM     70  O   LIG d   1       9.834  11.320   0.441  0.00  0.00    -0.392 OA
ATOM     71  H   LIG d   1       9.531  11.201   1.352  0.00  0.00     0.210 HD
ENDBRANCH  24  70
TORSDOF 7
ENDMDL
MODEL 7
REMARK VINA RESULT:      -5.6      3.396      5.313
REMARK  7 active torsions:
REMARK  status: ('A' for Active; 'I' for Inactive)
REMARK    1  A    between atoms: C_1  and  C_2 
REMARK    2  A    between atoms: C_11  and  C_25 
REMARK    3  A    between atoms: C_17  and  C_22 
REMARK    4  A    between atoms: C_22  and  C_24 
REMARK    5  A    between atoms: C_26  and  C_35 
REMARK    6  A    between atoms: C_27  and  O_34 
REMARK    7  A    between atoms: C_29  and  O_33 
ROOT
ATOM      1  C   LIG d   1       8.148  -5.185  -5.878  0.00  0.00    -0.014 C 
ATOM      2  H   LIG d   1       7.462  -5.815  -6.444  0.00  0.00     0.033 H 
ATOM      3  C   LIG d   1       7.340  -4.350  -4.898  0.00  0.00    -0.044 C 
ATOM      4  C   LIG d   1       6.358  -3.428  -5.600  0.00  0.00    -0.034 C 
ATOM      5  H   LIG d   1       5.529  -4.028  -5.975  0.00  0.00     0.031 H 
ATOM      6  C   LIG d   1       6.967  -2.657  -6.754  0.00  0.00    -0.030 C 
ATOM      7  H   LIG d   1       6.135  -2.349  -7.387  0.00  0.00     0.031 H 
ATOM      8  C   LIG d   1       7.611  -1.357  -6.272  0.00  0.00    -0.049 C 
ATOM      9  C   LIG d   1       6.507  -0.370  -5.852  0.00  0.00    -0.046 C 
ATOM     10  C   LIG d   1       5.306  -1.185  -5.406  0.00  0.00    -0.016 C 
ATOM     11  C   LIG d   1       5.817  -2.409  -4.601  0.00  0.00    -0.031 C 
ATOM     12  H   LIG d   1       6.592  -2.113  -3.894  0.00  0.00     0.031 H 
ATOM     13  C   LIG d   1       4.544  -2.872  -3.874  0.00  0.00    -0.046 C 
ATOM     14  C   LIG d   1       3.865  -1.535  -3.471  0.00  0.00    -0.028 C 
ATOM     15  H   LIG d   1       2.809  -1.655  -3.708  0.00  0.00     0.031 H 
ATOM     16  C   LIG d   1       4.392  -0.467  -4.404  0.00  0.00     0.037 C 
ATOM     17  C   LIG d   1       5.128   0.676  -3.744  0.00  0.00    -0.040 C 
ATOM     18  C   LIG d   1       4.470   1.064  -2.428  0.00  0.00    -0.052 C 
ATOM     19  C   LIG d   1       4.650  -0.118  -1.478  0.00  0.00    -0.053 C 
ATOM     20  C   LIG d   1       3.928  -1.340  -1.993  0.00  0.00    -0.049 C 
ATOM     21  C   LIG d   1       7.898  -3.446  -7.638  0.00  0.00     0.000 C 
ATOM     22  C   LIG d   1       8.905  -4.263  -6.838  0.00  0.00     0.077 C 
ATOM     23  C   LIG d   1       9.748  -5.116  -7.791  0.00  0.00     0.003 C 
ATOM     24  C   LIG d   1      10.505  -4.189  -8.743  0.00  0.00     0.058 C 
ATOM     25  H   LIG d   1      11.151  -3.525  -8.169  0.00  0.00     0.059 H 
ATOM     26  C   LIG d   1       9.506  -3.357  -9.549  0.00  0.00    -0.026 C 
ATOM     27  C   LIG d   1       8.654  -2.518  -8.594  0.00  0.00    -0.042 C 
ATOM     28  H   LIG d   1       8.038  -3.749  -4.316  0.00  0.00     0.027 H 
ATOM     29  H   LIG d   1       6.790  -5.007  -4.225  0.00  0.00     0.027 H 
ATOM     30  H   LIG d   1       8.257  -1.564  -5.418  0.00  0.00     0.027 H 
ATOM     31  H   LIG d   1       8.201  -0.921  -7.078  0.00  0.00     0.027 H 
ATOM     32  H   LIG d   1       6.233   0.260  -6.698  0.00  0.00     0.027 H 
ATOM     33  H   LIG d   1       6.860   0.251  -5.028  0.00  0.00     0.027 H 
ATOM     34  H   LIG d   1       3.903  -3.442  -4.546  0.00  0.00     0.027 H 
ATOM     35  H   LIG d   1       4.797  -3.462  -2.993  0.00  0.00     0.027 H 
ATOM     36  H   LIG d   1       6.161   0.381  -3.564  0.00  0.00     0.028 H 
ATOM     37  H   LIG d   1       5.113   1.543  -4.406  0.00  0.00     0.028 H 
ATOM     38  H   LIG d   1       3.408   1.259  -2.579  0.00  0.00     0.027 H 
ATOM     39  H   LIG d   1       4.953   1.949  -2.015  0.00  0.00     0.027 H 
ATOM     40  H   LIG d   1       4.252   0.146  -0.498  0.00  0.00     0.026 H 
ATOM     41  H   LIG d   1       5.712  -0.343  -1.384  0.00  0.00     0.026 H 
ATOM     42  H   LIG d   1       2.905  -1.305  -1.618  0.00  0.00     0.027 H 
ATOM     43  H   LIG d   1       4.407  -2.217  -1.560  0.00  0.00     0.027 H 
ATOM     44  H   LIG d   1       9.105  -5.782  -8.365  0.00  0.00     0.032 H 
ATOM     45  H   LIG d   1      10.461  -5.707  -7.215  0.00  0.00     0.032 H 
ATOM     46  H   LIG d   1       8.860  -4.021 -10.124  0.00  0.00     0.029 H 
ATOM     47  H   LIG d   1      10.046  -2.697 -10.228  0.00  0.00     0.029 H 
ATOM     48  H   LIG d   1       7.939  -1.927  -9.167  0.00  0.00     0.027 H 
ATOM     49  H   LIG d   1       9.298  -1.852  -8.020  0.00  0.00     0.027 H 
ENDROOT
BRANCH  16  50
ATOM     50  C   LIG d   1       3.225   0.104  -5.168  0.00  0.00     0.137 C 
ATOM     51  O   LIG d   1       3.419   0.796  -6.138  0.00  0.00    -0.297 OA
BRANCH  50  52
ATOM     52  C   LIG d   1       1.816  -0.183  -4.717  0.00  0.00    -0.005 C 
ATOM     53  H   LIG d   1       1.492   0.564  -4.138  0.00  0.00     0.031 H 
ATOM     54  H   LIG d   1       1.168  -0.276  -5.589  0.00  0.00     0.031 H 
ATOM     55  H   LIG d   1       1.799  -1.115  -4.151  0.00  0.00     0.031 H 
ENDBRANCH  50  52
ENDBRANCH  16  50
BRANCH  10  56
ATOM     56  C   LIG d   1       4.491  -1.655  -6.613  0.00  0.00    -0.058 C 
ATOM     57  H   LIG d   1       5.115  -1.623  -7.507  0.00  0.00     0.024 H 
ATOM     58  H   LIG d   1       4.149  -2.676  -6.446  0.00  0.00     0.024 H 
ATOM     59  H   LIG d   1       3.631  -1.001  -6.748  0.00  0.00     0.024 H 
ENDBRANCH  10  56
BRANCH  21  60
ATOM     60  C   LIG d   1       7.058  -4.410  -8.477  0.00  0.00    -0.057 C 
ATOM     61  H   LIG d   1       7.666  -4.814  -9.285  0.00  0.00     0.024 H 
ATOM     62  H   LIG d   1       6.702  -5.226  -7.846  0.00  0.00     0.024 H 
ATOM     63  H   LIG d   1       6.203  -3.878  -8.896  0.00  0.00     0.024 H 
ENDBRANCH  21  60
BRANCH   1  64
ATOM     64  C   LIG d   1       9.145  -6.064  -5.121  0.00  0.00    -0.060 C 
ATOM     65  H   LIG d   1       9.440  -6.904  -5.748  0.00  0.00     0.023 H 
ATOM     66  H   LIG d   1      10.026  -5.475  -4.864  0.00  0.00     0.023 H 
ATOM     67  H   LIG d   1       8.680  -6.437  -4.208  0.00  0.00     0.023 H 
ENDBRANCH   1  64
BRANCH  22  68
ATOM     68  O   LIG d   1       9.748  -3.385  -6.091  0.00  0.00    -0.388 OA
ATOM     69  H   LIG d   1      10.693  -3.542  -6.219  0.00  0.00     0.210 HD
ENDBRANCH  22  68
BRANCH  24  70
ATOM     70  O   LIG d   1      11.301  -4.972  -9.636  0.00  0.00    -0.392 OA
ATOM     71  H   LIG d   1      12.028  -5.442  -9.207  0.00  0.00     0.210 HD
ENDBRANCH  24  70
TORSDOF 7
ENDMDL
MODEL 8
REMARK VINA RESULT:      -5.5      3.758      5.379
REMARK  7 active torsions:
REMARK  status: ('A' for Active; 'I' for Inactive)
REMARK    1  A    between atoms: C_1  and  C_2 
REMARK    2  A    between atoms: C_11  and  C_25 
REMARK    3  A    between atoms: C_17  and  C_22 
REMARK    4  A    between atoms: C_22  and  C_24 
REMARK    5  A    between atoms: C_26  and  C_35 
REMARK    6  A    between atoms: C_27  and  O_34 
REMARK    7  A    between atoms: C_29  and  O_33 
ROOT
ATOM      1  C   LIG d   1       9.704   2.974  -7.044  0.00  0.00    -0.014 C 
ATOM      2  H   LIG d   1      10.621   2.495  -6.704  0.00  0.00     0.033 H 
ATOM      3  C   LIG d   1       8.617   2.723  -6.010  0.00  0.00    -0.044 C 
ATOM      4  C   LIG d   1       8.316   1.245  -5.838  0.00  0.00    -0.034 C 
ATOM      5  H   LIG d   1       9.135   0.789  -5.281  0.00  0.00     0.031 H 
ATOM      6  C   LIG d   1       8.141   0.503  -7.148  0.00  0.00    -0.030 C 
ATOM      7  H   LIG d   1       8.311  -0.550  -6.926  0.00  0.00     0.031 H 
ATOM      8  C   LIG d   1       6.697   0.585  -7.642  0.00  0.00    -0.049 C 
ATOM      9  C   LIG d   1       5.801  -0.276  -6.733  0.00  0.00    -0.046 C 
ATOM     10  C   LIG d   1       6.449  -0.325  -5.360  0.00  0.00    -0.016 C 
ATOM     11  C   LIG d   1       7.024   1.080  -5.041  0.00  0.00    -0.031 C 
ATOM     12  H   LIG d   1       6.309   1.862  -5.299  0.00  0.00     0.031 H 
ATOM     13  C   LIG d   1       7.243   1.002  -3.521  0.00  0.00    -0.046 C 
ATOM     14  C   LIG d   1       5.994   0.220  -3.029  0.00  0.00    -0.028 C 
ATOM     15  H   LIG d   1       6.365  -0.511  -2.312  0.00  0.00     0.031 H 
ATOM     16  C   LIG d   1       5.467  -0.569  -4.207  0.00  0.00     0.037 C 
ATOM     17  C   LIG d   1       4.056  -0.243  -4.637  0.00  0.00    -0.040 C 
ATOM     18  C   LIG d   1       3.165   0.025  -3.434  0.00  0.00    -0.052 C 
ATOM     19  C   LIG d   1       3.679   1.304  -2.777  0.00  0.00    -0.053 C 
ATOM     20  C   LIG d   1       5.085   1.117  -2.258  0.00  0.00    -0.049 C 
ATOM     21  C   LIG d   1       9.123   0.867  -8.232  0.00  0.00     0.000 C 
ATOM     22  C   LIG d   1       9.282   2.375  -8.388  0.00  0.00     0.077 C 
ATOM     23  C   LIG d   1      10.365   2.673  -9.430  0.00  0.00     0.003 C 
ATOM     24  C   LIG d   1       9.936   2.076 -10.772  0.00  0.00     0.058 C 
ATOM     25  H   LIG d   1       8.990   2.519 -11.082  0.00  0.00     0.059 H 
ATOM     26  C   LIG d   1       9.766   0.562 -10.627  0.00  0.00    -0.026 C 
ATOM     27  C   LIG d   1       8.695   0.267  -9.575  0.00  0.00    -0.042 C 
ATOM     28  H   LIG d   1       7.714   3.234  -6.343  0.00  0.00     0.027 H 
ATOM     29  H   LIG d   1       8.924   3.137  -5.050  0.00  0.00     0.027 H 
ATOM     30  H   LIG d   1       6.358   1.621  -7.609  0.00  0.00     0.027 H 
ATOM     31  H   LIG d   1       6.640   0.215  -8.665  0.00  0.00     0.027 H 
ATOM     32  H   LIG d   1       5.721  -1.283  -7.141  0.00  0.00     0.027 H 
ATOM     33  H   LIG d   1       4.810   0.174  -6.659  0.00  0.00     0.027 H 
ATOM     34  H   LIG d   1       8.155   0.453  -3.291  0.00  0.00     0.027 H 
ATOM     35  H   LIG d   1       7.274   2.000  -3.084  0.00  0.00     0.027 H 
ATOM     36  H   LIG d   1       4.071   0.634  -5.284  0.00  0.00     0.028 H 
ATOM     37  H   LIG d   1       3.645  -1.088  -5.190  0.00  0.00     0.028 H 
ATOM     38  H   LIG d   1       3.224  -0.803  -2.727  0.00  0.00     0.027 H 
ATOM     39  H   LIG d   1       2.133   0.163  -3.756  0.00  0.00     0.027 H 
ATOM     40  H   LIG d   1       3.024   1.571  -1.948  0.00  0.00     0.026 H 
ATOM     41  H   LIG d   1       3.674   2.110  -3.511  0.00  0.00     0.026 H 
ATOM     42  H   LIG d   1       5.014   0.726  -1.242  0.00  0.00     0.027 H 
ATOM     43  H   LIG d   1       5.553   2.099  -2.201  0.00  0.00     0.027 H 
ATOM     44  H   LIG d   1      11.312   2.230  -9.121  0.00  0.00     0.032 H 
ATOM     45  H   LIG d   1      10.484   3.751  -9.533  0.00  0.00     0.032 H 
ATOM     46  H   LIG d   1      10.711   0.118 -10.317  0.00  0.00     0.029 H 
ATOM     47  H   LIG d   1       9.460   0.137 -11.583  0.00  0.00     0.029 H 
ATOM     48  H   LIG d   1       8.576  -0.811  -9.469  0.00  0.00     0.027 H 
ATOM     49  H   LIG d   1       7.747   0.709  -9.884  0.00  0.00     0.027 H 
ENDROOT
BRANCH  16  50
ATOM     50  C   LIG d   1       5.524  -2.032  -3.853  0.00  0.00     0.137 C 
ATOM     51  O   LIG d   1       6.203  -2.403  -2.926  0.00  0.00    -0.297 OA
BRANCH  50  52
ATOM     52  C   LIG d   1       4.737  -3.035  -4.658  0.00  0.00    -0.005 C 
ATOM     53  H   LIG d   1       3.760  -2.844  -4.565  0.00  0.00     0.031 H 
ATOM     54  H   LIG d   1       5.024  -2.963  -5.708  0.00  0.00     0.031 H 
ATOM     55  H   LIG d   1       4.947  -4.040  -4.292  0.00  0.00     0.031 H 
ENDBRANCH  50  52
ENDBRANCH  16  50
BRANCH  10  56
ATOM     56  C   LIG d   1       7.567  -1.369  -5.327  0.00  0.00    -0.058 C 
ATOM     57  H   LIG d   1       8.505  -0.907  -5.636  0.00  0.00     0.024 H 
ATOM     58  H   LIG d   1       7.670  -1.759  -4.314  0.00  0.00     0.024 H 
ATOM     59  H   LIG d   1       7.323  -2.184  -6.007  0.00  0.00     0.024 H 
ENDBRANCH  10  56
BRANCH  21  60
ATOM     60  C   LIG d   1      10.485   0.278  -7.861  0.00  0.00    -0.057 C 
ATOM     61  H   LIG d   1      11.263   0.763  -8.449  0.00  0.00     0.024 H 
ATOM     62  H   LIG d   1      10.675   0.443  -6.799  0.00  0.00     0.024 H 
ATOM     63  H   LIG d   1      10.486  -0.792  -8.067  0.00  0.00     0.024 H 
ENDBRANCH  21  60
BRANCH   1  64
ATOM     64  C   LIG d   1       9.937   4.477  -7.205  0.00  0.00    -0.060 C 
ATOM     65  H   LIG d   1       9.705   4.774  -8.227  0.00  0.00     0.023 H 
ATOM     66  H   LIG d   1       9.294   5.021  -6.513  0.00  0.00     0.023 H 
ATOM     67  H   LIG d   1      10.980   4.707  -6.987  0.00  0.00     0.023 H 
ENDBRANCH   1  64
BRANCH  22  68
ATOM     68  O   LIG d   1       8.039   2.947  -8.797  0.00  0.00    -0.388 OA
ATOM     69  H   LIG d   1       7.342   2.893  -8.129  0.00  0.00     0.210 HD
ENDBRANCH  22  68
BRANCH  24  70
ATOM     70  O   LIG d   1      10.936   2.349 -11.756  0.00  0.00    -0.392 OA
ATOM     71  H   LIG d   1      11.626   1.674 -11.814  0.00  0.00     0.210 HD
ENDBRANCH  24  70
TORSDOF 7
ENDMDL
MODEL 9
REMARK VINA RESULT:      -5.5      3.514      4.973
REMARK  7 active torsions:
REMARK  status: ('A' for Active; 'I' for Inactive)
REMARK    1  A    between atoms: C_1  and  C_2 
REMARK    2  A    between atoms: C_11  and  C_25 
REMARK    3  A    between atoms: C_17  and  C_22 
REMARK    4  A    between atoms: C_22  and  C_24 
REMARK    5  A    between atoms: C_26  and  C_35 
REMARK    6  A    between atoms: C_27  and  O_34 
REMARK    7  A    between atoms: C_29  and  O_33 
ROOT
ATOM      1  C   LIG d   1       4.490  -5.884  -8.662  0.00  0.00    -0.014 C 
ATOM      2  H   LIG d   1       5.318  -5.677  -9.339  0.00  0.00     0.033 H 
ATOM      3  C   LIG d   1       3.964  -4.563  -8.124  0.00  0.00    -0.044 C 
ATOM      4  C   LIG d   1       5.015  -3.806  -7.331  0.00  0.00    -0.034 C 
ATOM      5  H   LIG d   1       5.737  -3.384  -8.030  0.00  0.00     0.031 H 
ATOM      6  C   LIG d   1       5.752  -4.665  -6.322  0.00  0.00    -0.030 C 
ATOM      7  H   LIG d   1       6.686  -4.146  -6.107  0.00  0.00     0.031 H 
ATOM      8  C   LIG d   1       5.003  -4.719  -4.991  0.00  0.00    -0.049 C 
ATOM      9  C   LIG d   1       5.108  -3.351  -4.294  0.00  0.00    -0.046 C 
ATOM     10  C   LIG d   1       5.270  -2.295  -5.374  0.00  0.00    -0.016 C 
ATOM     11  C   LIG d   1       4.347  -2.667  -6.564  0.00  0.00    -0.031 C 
ATOM     12  H   LIG d   1       3.360  -2.966  -6.211  0.00  0.00     0.031 H 
ATOM     13  C   LIG d   1       4.285  -1.347  -7.349  0.00  0.00    -0.046 C 
ATOM     14  C   LIG d   1       4.204  -0.276  -6.227  0.00  0.00    -0.028 C 
ATOM     15  H   LIG d   1       4.896   0.513  -6.519  0.00  0.00     0.031 H 
ATOM     16  C   LIG d   1       4.775  -0.900  -4.972  0.00  0.00     0.037 C 
ATOM     17  C   LIG d   1       3.830  -0.993  -3.798  0.00  0.00    -0.040 C 
ATOM     18  C   LIG d   1       2.946   0.242  -3.706  0.00  0.00    -0.052 C 
ATOM     19  C   LIG d   1       2.042   0.232  -4.937  0.00  0.00    -0.053 C 
ATOM     20  C   LIG d   1       2.855   0.359  -6.204  0.00  0.00    -0.049 C 
ATOM     21  C   LIG d   1       6.136  -6.040  -6.804  0.00  0.00     0.000 C 
ATOM     22  C   LIG d   1       4.984  -6.752  -7.502  0.00  0.00     0.077 C 
ATOM     23  C   LIG d   1       5.470  -8.096  -8.055  0.00  0.00     0.003 C 
ATOM     24  C   LIG d   1       5.957  -8.961  -6.890  0.00  0.00     0.058 C 
ATOM     25  H   LIG d   1       5.139  -9.121  -6.189  0.00  0.00     0.059 H 
ATOM     26  C   LIG d   1       7.110  -8.253  -6.175  0.00  0.00    -0.026 C 
ATOM     27  C   LIG d   1       6.627  -6.904  -5.638  0.00  0.00    -0.042 C 
ATOM     28  H   LIG d   1       3.116  -4.780  -7.474  0.00  0.00     0.027 H 
ATOM     29  H   LIG d   1       3.626  -3.940  -8.951  0.00  0.00     0.027 H 
ATOM     30  H   LIG d   1       3.954  -4.956  -5.171  0.00  0.00     0.027 H 
ATOM     31  H   LIG d   1       5.446  -5.486  -4.355  0.00  0.00     0.027 H 
ATOM     32  H   LIG d   1       5.973  -3.338  -3.631  0.00  0.00     0.027 H 
ATOM     33  H   LIG d   1       4.200  -3.157  -3.721  0.00  0.00     0.027 H 
ATOM     34  H   LIG d   1       5.186  -1.211  -7.947  0.00  0.00     0.027 H 
ATOM     35  H   LIG d   1       3.397  -1.316  -7.981  0.00  0.00     0.027 H 
ATOM     36  H   LIG d   1       3.208  -1.881  -3.906  0.00  0.00     0.028 H 
ATOM     37  H   LIG d   1       4.409  -1.072  -2.876  0.00  0.00     0.028 H 
ATOM     38  H   LIG d   1       3.557   1.145  -3.703  0.00  0.00     0.027 H 
ATOM     39  H   LIG d   1       2.341   0.203  -2.801  0.00  0.00     0.027 H 
ATOM     40  H   LIG d   1       1.343   1.066  -4.875  0.00  0.00     0.026 H 
ATOM     41  H   LIG d   1       1.483  -0.703  -4.962  0.00  0.00     0.026 H 
ATOM     42  H   LIG d   1       2.982   1.421  -6.413  0.00  0.00     0.027 H 
ATOM     43  H   LIG d   1       2.270  -0.069  -7.018  0.00  0.00     0.027 H 
ATOM     44  H   LIG d   1       6.287  -7.938  -8.757  0.00  0.00     0.032 H 
ATOM     45  H   LIG d   1       4.646  -8.599  -8.562  0.00  0.00     0.032 H 
ATOM     46  H   LIG d   1       7.928  -8.093  -6.877  0.00  0.00     0.029 H 
ATOM     47  H   LIG d   1       7.457  -8.869  -5.346  0.00  0.00     0.029 H 
ATOM     48  H   LIG d   1       7.448  -6.398  -5.132  0.00  0.00     0.027 H 
ATOM     49  H   LIG d   1       5.809  -7.063  -4.935  0.00  0.00     0.027 H 
ENDROOT
BRANCH  16  50
ATOM     50  C   LIG d   1       5.972  -0.087  -4.549  0.00  0.00     0.137 C 
ATOM     51  O   LIG d   1       6.498   0.665  -5.333  0.00  0.00    -0.297 OA
BRANCH  50  52
ATOM     52  C   LIG d   1       6.515  -0.217  -3.150  0.00  0.00    -0.005 C 
ATOM     53  H   LIG d   1       7.070   0.585  -2.931  0.00  0.00     0.031 H 
ATOM     54  H   LIG d   1       5.687  -0.289  -2.443  0.00  0.00     0.031 H 
ATOM     55  H   LIG d   1       7.130  -1.115  -3.080  0.00  0.00     0.031 H 
ENDBRANCH  50  52
ENDBRANCH  16  50
BRANCH  10  56
ATOM     56  C   LIG d   1       6.725  -2.220  -5.843  0.00  0.00    -0.058 C 
ATOM     57  H   LIG d   1       7.321  -1.698  -5.095  0.00  0.00     0.024 H 
ATOM     58  H   LIG d   1       7.115  -3.228  -5.979  0.00  0.00     0.024 H 
ATOM     59  H   LIG d   1       6.774  -1.680  -6.788  0.00  0.00     0.024 H 
ENDBRANCH  10  56
BRANCH  21  60
ATOM     60  C   LIG d   1       7.284  -5.893  -7.804  0.00  0.00    -0.057 C 
ATOM     61  H   LIG d   1       7.674  -6.878  -8.056  0.00  0.00     0.024 H 
ATOM     62  H   LIG d   1       6.919  -5.403  -8.707  0.00  0.00     0.024 H 
ATOM     63  H   LIG d   1       8.077  -5.291  -7.360  0.00  0.00     0.024 H 
ENDBRANCH  21  60
BRANCH   1  64
ATOM     64  C   LIG d   1       3.382  -6.621  -9.417  0.00  0.00    -0.060 C 
ATOM     65  H   LIG d   1       2.805  -7.224  -8.717  0.00  0.00     0.023 H 
ATOM     66  H   LIG d   1       2.726  -5.895  -9.899  0.00  0.00     0.023 H 
ATOM     67  H   LIG d   1       3.826  -7.268 -10.174  0.00  0.00     0.023 H 
ENDBRANCH   1  64
BRANCH  22  68
ATOM     68  O   LIG d   1       3.918  -6.961  -6.575  0.00  0.00    -0.388 OA
ATOM     69  H   LIG d   1       3.174  -6.354  -6.686  0.00  0.00     0.210 HD
ENDBRANCH  22  68
BRANCH  24  70
ATOM     70  O   LIG d   1       6.410 -10.220  -7.390  0.00  0.00    -0.392 OA
ATOM     71  H   LIG d   1       5.786 -10.946  -7.252  0.00  0.00     0.210 HD
ENDBRANCH  24  70
TORSDOF 7
ENDMDL
MODEL 10
REMARK VINA RESULT:      -5.5     10.634     14.214
REMARK  7 active torsions:
REMARK  status: ('A' for Active; 'I' for Inactive)
REMARK    1  A    between atoms: C_1  and  C_2 
REMARK    2  A    between atoms: C_11  and  C_25 
REMARK    3  A    between atoms: C_17  and  C_22 
REMARK    4  A    between atoms: C_22  and  C_24 
REMARK    5  A    between atoms: C_26  and  C_35 
REMARK    6  A    between atoms: C_27  and  O_34 
REMARK    7  A    between atoms: C_29  and  O_33 
ROOT
ATOM      1  C   LIG d   1      10.122  10.012  -1.064  0.00  0.00    -0.014 C 
ATOM      2  H   LIG d   1       9.054   9.834  -0.941  0.00  0.00     0.033 H 
ATOM      3  C   LIG d   1      10.362  10.557  -2.463  0.00  0.00    -0.044 C 
ATOM      4  C   LIG d   1       9.943   9.575  -3.544  0.00  0.00    -0.034 C 
ATOM      5  H   LIG d   1       8.854   9.563  -3.593  0.00  0.00     0.031 H 
ATOM      6  C   LIG d   1      10.440   8.163  -3.308  0.00  0.00    -0.030 C 
ATOM      7  H   LIG d   1       9.793   7.511  -3.894  0.00  0.00     0.031 H 
ATOM      8  C   LIG d   1      11.841   7.966  -3.886  0.00  0.00    -0.049 C 
ATOM      9  C   LIG d   1      11.760   7.961  -5.423  0.00  0.00    -0.046 C 
ATOM     10  C   LIG d   1      10.558   8.800  -5.823  0.00  0.00    -0.016 C 
ATOM     11  C   LIG d   1      10.493  10.038  -4.890  0.00  0.00    -0.031 C 
ATOM     12  H   LIG d   1      11.479  10.487  -4.770  0.00  0.00     0.031 H 
ATOM     13  C   LIG d   1       9.543  10.971  -5.658  0.00  0.00    -0.046 C 
ATOM     14  C   LIG d   1       9.973  10.768  -7.137  0.00  0.00    -0.028 C 
ATOM     15  H   LIG d   1       9.047  10.675  -7.704  0.00  0.00     0.031 H 
ATOM     16  C   LIG d   1      10.661   9.423  -7.221  0.00  0.00     0.037 C 
ATOM     17  C   LIG d   1      12.099   9.450  -7.683  0.00  0.00    -0.040 C 
ATOM     18  C   LIG d   1      12.303  10.487  -8.778  0.00  0.00    -0.052 C 
ATOM     19  C   LIG d   1      12.071  11.855  -8.142  0.00  0.00    -0.053 C 
ATOM     20  C   LIG d   1      10.646  11.991  -7.660  0.00  0.00    -0.049 C 
ATOM     21  C   LIG d   1      10.350   7.675  -1.885  0.00  0.00     0.000 C 
ATOM     22  C   LIG d   1      10.883   8.696  -0.887  0.00  0.00     0.077 C 
ATOM     23  C   LIG d   1      10.668   8.182   0.540  0.00  0.00     0.003 C 
ATOM     24  C   LIG d   1      11.435   6.869   0.712  0.00  0.00     0.058 C 
ATOM     25  H   LIG d   1      12.496   7.042   0.535  0.00  0.00     0.059 H 
ATOM     26  C   LIG d   1      10.913   5.837  -0.290  0.00  0.00    -0.026 C 
ATOM     27  C   LIG d   1      11.115   6.359  -1.714  0.00  0.00    -0.042 C 
ATOM     28  H   LIG d   1      11.428  10.762  -2.565  0.00  0.00     0.027 H 
ATOM     29  H   LIG d   1       9.809  11.486  -2.594  0.00  0.00     0.027 H 
ATOM     30  H   LIG d   1      12.489   8.781  -3.559  0.00  0.00     0.027 H 
ATOM     31  H   LIG d   1      12.248   7.017  -3.540  0.00  0.00     0.027 H 
ATOM     32  H   LIG d   1      11.636   6.941  -5.783  0.00  0.00     0.027 H 
ATOM     33  H   LIG d   1      12.669   8.394  -5.843  0.00  0.00     0.027 H 
ATOM     34  H   LIG d   1       8.506  10.669  -5.514  0.00  0.00     0.027 H 
ATOM     35  H   LIG d   1       9.687  12.007  -5.350  0.00  0.00     0.027 H 
ATOM     36  H   LIG d   1      12.744   9.681  -6.836  0.00  0.00     0.028 H 
ATOM     37  H   LIG d   1      12.367   8.471  -8.081  0.00  0.00     0.028 H 
ATOM     38  H   LIG d   1      11.589  10.329  -9.587  0.00  0.00     0.027 H 
ATOM     39  H   LIG d   1      13.320  10.425  -9.166  0.00  0.00     0.027 H 
ATOM     40  H   LIG d   1      12.275  12.632  -8.878  0.00  0.00     0.026 H 
ATOM     41  H   LIG d   1      12.748  11.976  -7.296  0.00  0.00     0.026 H 
ATOM     42  H   LIG d   1      10.049  12.372  -8.489  0.00  0.00     0.027 H 
ATOM     43  H   LIG d   1      10.632  12.744  -6.872  0.00  0.00     0.027 H 
ATOM     44  H   LIG d   1       9.607   8.009   0.718  0.00  0.00     0.032 H 
ATOM     45  H   LIG d   1      11.042   8.918   1.251  0.00  0.00     0.032 H 
ATOM     46  H   LIG d   1       9.852   5.664  -0.113  0.00  0.00     0.029 H 
ATOM     47  H   LIG d   1      11.460   4.902  -0.167  0.00  0.00     0.029 H 
ATOM     48  H   LIG d   1      10.740   5.626  -2.428  0.00  0.00     0.027 H 
ATOM     49  H   LIG d   1      12.177   6.531  -1.892  0.00  0.00     0.027 H 
ENDROOT
BRANCH  16  50
ATOM     50  C   LIG d   1       9.878   8.556  -8.174  0.00  0.00     0.137 C 
ATOM     51  O   LIG d   1       8.793   8.915  -8.563  0.00  0.00    -0.297 OA
BRANCH  50  52
ATOM     52  C   LIG d   1      10.446   7.239  -8.636  0.00  0.00    -0.005 C 
ATOM     53  H   LIG d   1      10.630   6.659  -7.843  0.00  0.00     0.031 H 
ATOM     54  H   LIG d   1       9.729   6.744  -9.291  0.00  0.00     0.031 H 
ATOM     55  H   LIG d   1      11.374   7.415  -9.181  0.00  0.00     0.031 H 
ENDBRANCH  50  52
ENDBRANCH  16  50
BRANCH  10  56
ATOM     56  C   LIG d   1       9.268   7.986  -5.705  0.00  0.00    -0.058 C 
ATOM     57  H   LIG d   1       8.419   8.609  -5.987  0.00  0.00     0.024 H 
ATOM     58  H   LIG d   1       9.320   7.122  -6.367  0.00  0.00     0.024 H 
ATOM     59  H   LIG d   1       9.144   7.649  -4.677  0.00  0.00     0.024 H 
ENDBRANCH  10  56
BRANCH  21  60
ATOM     60  C   LIG d   1       8.878   7.415  -1.562  0.00  0.00    -0.057 C 
ATOM     61  H   LIG d   1       8.694   6.341  -1.546  0.00  0.00     0.024 H 
ATOM     62  H   LIG d   1       8.639   7.840  -0.586  0.00  0.00     0.024 H 
ATOM     63  H   LIG d   1       8.251   7.880  -2.323  0.00  0.00     0.024 H 
ENDBRANCH  21  60
BRANCH   1  64
ATOM     64  C   LIG d   1      10.598  11.023  -0.020  0.00  0.00    -0.060 C 
ATOM     65  H   LIG d   1      11.129  10.501   0.776  0.00  0.00     0.023 H 
ATOM     66  H   LIG d   1      11.267  11.744  -0.490  0.00  0.00     0.023 H 
ATOM     67  H   LIG d   1       9.738  11.545   0.399  0.00  0.00     0.023 H 
ENDBRANCH   1  64
BRANCH  22  68
ATOM     68  O   LIG d   1      12.275   8.913  -1.124  0.00  0.00    -0.388 OA
ATOM     69  H   LIG d   1      12.460   9.563  -1.816  0.00  0.00     0.210 HD
ENDBRANCH  22  68
BRANCH  24  70
ATOM     70  O   LIG d   1      11.246   6.379   2.041  0.00  0.00    -0.392 OA
ATOM     71  H   LIG d   1      11.334   7.055   2.726  0.00  0.00     0.210 HD
ENDBRANCH  24  70
TORSDOF 7
ENDMDL
