MODEL 1
REMARK VINA RESULT:      -5.3      0.000      0.000
REMARK  11 active torsions:
REMARK  status: ('A' for Active; 'I' for Inactive)
REMARK    1  A    between atoms: C_1  and  C_2 
REMARK    2  A    between atoms: C_6  and  C_23 
REMARK    3  A    between atoms: C_6  and  C_24 
REMARK    4  A    between atoms: C_11  and  C_21 
REMARK    5  A    between atoms: C_11  and  O_22 
REMARK    6  A    between atoms: C_12  and  C_14 
REMARK    7  A    between atoms: C_14  and  C_15 
REMARK    8  A    between atoms: C_15  and  C_16 
REMARK    9  A    between atoms: C_16  and  C_17 
REMARK   10  A    between atoms: C_16  and  C_18 
REMARK   11  A    between atoms: C_16  and  O_20 
ROOT
ATOM      1  C   LIG d   1       4.802  -0.693  -5.323  0.00  0.00    -0.023 C 
ATOM      2  C   LIG d   1       3.407  -0.136  -5.652  0.00  0.00    -0.047 C 
ATOM      3  C   LIG d   1       2.801   0.507  -4.405  0.00  0.00    -0.052 C 
ATOM      4  C   LIG d   1       2.619  -0.546  -3.319  0.00  0.00    -0.048 C 
ATOM      5  C   LIG d   1       3.941  -1.229  -2.966  0.00  0.00    -0.032 C 
ATOM      6  C   LIG d   1       4.674  -1.712  -4.200  0.00  0.00    -0.030 C 
ATOM      7  H   LIG d   1       4.074  -2.558  -4.615  0.00  0.00     0.031 H 
ATOM      8  C   LIG d   1       6.048  -2.292  -3.875  0.00  0.00    -0.047 C 
ATOM      9  C   LIG d   1       6.538  -3.081  -5.087  0.00  0.00    -0.024 C 
ATOM     10  C   LIG d   1       6.573  -2.246  -6.355  0.00  0.00     0.067 C 
ATOM     11  C   LIG d   1       5.346  -1.382  -6.578  0.00  0.00    -0.007 C 
ATOM     12  H   LIG d   1       4.543  -2.009  -6.995  0.00  0.00     0.033 H 
ATOM     13  H   LIG d   1       3.486   0.615  -6.438  0.00  0.00     0.027 H 
ATOM     14  H   LIG d   1       2.769  -0.952  -5.990  0.00  0.00     0.027 H 
ATOM     15  H   LIG d   1       3.415   1.326  -4.048  0.00  0.00     0.027 H 
ATOM     16  H   LIG d   1       1.815   0.914  -4.669  0.00  0.00     0.027 H 
ATOM     17  H   LIG d   1       2.213  -0.072  -2.420  0.00  0.00     0.027 H 
ATOM     18  H   LIG d   1       1.907  -1.302  -3.661  0.00  0.00     0.027 H 
ATOM     19  H   LIG d   1       6.761  -1.513  -3.627  0.00  0.00     0.027 H 
ATOM     20  H   LIG d   1       5.976  -2.977  -3.025  0.00  0.00     0.027 H 
ATOM     21  H   LIG d   1       7.543  -3.464  -4.876  0.00  0.00     0.029 H 
ATOM     22  H   LIG d   1       5.878  -3.944  -5.238  0.00  0.00     0.029 H 
ENDROOT
BRANCH  11  23
ATOM     23  C   LIG d   1       5.685  -0.309  -7.625  0.00  0.00    -0.044 C 
ATOM     24  H   LIG d   1       5.442   0.677  -7.227  0.00  0.00     0.027 H 
ATOM     25  H   LIG d   1       6.749  -0.353  -7.859  0.00  0.00     0.027 H 
BRANCH  23  26
ATOM     26  C   LIG d   1       4.872  -0.561  -8.896  0.00  0.00    -0.020 C 
ATOM     27  H   LIG d   1       5.466  -1.149  -9.597  0.00  0.00     0.030 H 
ATOM     28  H   LIG d   1       3.963  -1.106  -8.644  0.00  0.00     0.030 H 
BRANCH  26  29
ATOM     29  C   LIG d   1       4.503   0.777  -9.540  0.00  0.00     0.081 C 
BRANCH  29  30
ATOM     30  C   LIG d   1       5.447   1.867  -9.029  0.00  0.00    -0.033 C 
ATOM     31  H   LIG d   1       4.898   2.803  -8.925  0.00  0.00     0.026 H 
ATOM     32  H   LIG d   1       5.852   1.574  -8.061  0.00  0.00     0.026 H 
ATOM     33  H   LIG d   1       6.264   2.002  -9.738  0.00  0.00     0.026 H 
ENDBRANCH  29  30
BRANCH  29  34
ATOM     34  C   LIG d   1       3.084   1.133  -9.180  0.00  0.00    -0.060 C 
ATOM     35  C   LIG d   1       2.837   2.209  -8.475  0.00  0.00    -0.100 C 
ATOM     36  H   LIG d   1       1.820   2.465  -8.218  0.00  0.00     0.053 H 
ATOM     37  H   LIG d   1       3.651   2.841  -8.151  0.00  0.00     0.053 H 
ATOM     38  H   LIG d   1       2.270   0.501  -9.504  0.00  0.00     0.059 H 
ENDBRANCH  29  34
BRANCH  29  39
ATOM     39  O   LIG d   1       4.623   0.671 -10.960  0.00  0.00    -0.385 OA
ATOM     40  H   LIG d   1       4.556   1.516 -11.425  0.00  0.00     0.211 HD
ENDBRANCH  29  39
ENDBRANCH  26  29
ENDBRANCH  23  26
ENDBRANCH  11  23
BRANCH   1  41
ATOM     41  C   LIG d   1       5.713   0.480  -4.964  0.00  0.00    -0.059 C 
ATOM     42  H   LIG d   1       5.794   1.152  -5.818  0.00  0.00     0.024 H 
ATOM     43  H   LIG d   1       5.292   1.019  -4.115  0.00  0.00     0.024 H 
ATOM     44  H   LIG d   1       6.702   0.104  -4.702  0.00  0.00     0.024 H 
ENDBRANCH   1  41
BRANCH  10  45
ATOM     45  C   LIG d   1       7.856  -1.407  -6.395  0.00  0.00    -0.036 C 
ATOM     46  H   LIG d   1       8.379  -1.497  -5.443  0.00  0.00     0.026 H 
ATOM     47  H   LIG d   1       8.500  -1.766  -7.199  0.00  0.00     0.026 H 
ATOM     48  H   LIG d   1       7.602  -0.363  -6.572  0.00  0.00     0.026 H 
ENDBRANCH  10  45
BRANCH  10  49
ATOM     49  O   LIG d   1       6.653  -3.169  -7.471  0.00  0.00    -0.389 OA
ATOM     50  H   LIG d   1       7.043  -2.788  -8.269  0.00  0.00     0.210 HD
ENDBRANCH  10  49
BRANCH   5  51
ATOM     51  C   LIG d   1       3.574  -2.468  -2.112  0.00  0.00    -0.059 C 
ATOM     52  H   LIG d   1       4.482  -2.907  -1.698  0.00  0.00     0.024 H 
ATOM     53  H   LIG d   1       2.912  -2.167  -1.299  0.00  0.00     0.024 H 
ATOM     54  H   LIG d   1       3.068  -3.204  -2.737  0.00  0.00     0.024 H 
ENDBRANCH   5  51
BRANCH   5  55
ATOM     55  C   LIG d   1       4.788  -0.314  -2.085  0.00  0.00    -0.059 C 
ATOM     56  H   LIG d   1       4.441   0.714  -2.190  0.00  0.00     0.024 H 
ATOM     57  H   LIG d   1       4.697  -0.624  -1.045  0.00  0.00     0.024 H 
ATOM     58  H   LIG d   1       5.831  -0.378  -2.394  0.00  0.00     0.024 H 
ENDBRANCH   5  55
TORSDOF 11
ENDMDL
MODEL 2
REMARK VINA RESULT:      -5.3      3.076      4.643
REMARK  11 active torsions:
REMARK  status: ('A' for Active; 'I' for Inactive)
REMARK    1  A    between atoms: C_1  and  C_2 
REMARK    2  A    between atoms: C_6  and  C_23 
REMARK    3  A    between atoms: C_6  and  C_24 
REMARK    4  A    between atoms: C_11  and  C_21 
REMARK    5  A    between atoms: C_11  and  O_22 
REMARK    6  A    between atoms: C_12  and  C_14 
REMARK    7  A    between atoms: C_14  and  C_15 
REMARK    8  A    between atoms: C_15  and  C_16 
REMARK    9  A    between atoms: C_16  and  C_17 
REMARK   10  A    between atoms: C_16  and  C_18 
REMARK   11  A    between atoms: C_16  and  O_20 
ROOT
ATOM      1  C   LIG d   1       5.885   0.177  -3.763  0.00  0.00    -0.023 C 
ATOM      2  C   LIG d   1       5.675   1.305  -2.739  0.00  0.00    -0.047 C 
ATOM      3  C   LIG d   1       4.652   0.866  -1.692  0.00  0.00    -0.052 C 
ATOM      4  C   LIG d   1       3.307   0.610  -2.361  0.00  0.00    -0.048 C 
ATOM      5  C   LIG d   1       3.415  -0.446  -3.461  0.00  0.00    -0.032 C 
ATOM      6  C   LIG d   1       4.552  -0.152  -4.417  0.00  0.00    -0.030 C 
ATOM      7  H   LIG d   1       4.255   0.759  -4.992  0.00  0.00     0.031 H 
ATOM      8  C   LIG d   1       4.746  -1.256  -5.453  0.00  0.00    -0.047 C 
ATOM      9  C   LIG d   1       5.629  -0.715  -6.575  0.00  0.00    -0.024 C 
ATOM     10  C   LIG d   1       6.960  -0.184  -6.072  0.00  0.00     0.067 C 
ATOM     11  C   LIG d   1       6.866   0.678  -4.826  0.00  0.00    -0.007 C 
ATOM     12  H   LIG d   1       6.557   1.692  -5.121  0.00  0.00     0.033 H 
ATOM     13  H   LIG d   1       6.617   1.533  -2.243  0.00  0.00     0.027 H 
ATOM     14  H   LIG d   1       5.311   2.191  -3.258  0.00  0.00     0.027 H 
ATOM     15  H   LIG d   1       4.990  -0.014  -1.157  0.00  0.00     0.027 H 
ATOM     16  H   LIG d   1       4.533   1.680  -0.962  0.00  0.00     0.027 H 
ATOM     17  H   LIG d   1       2.589   0.268  -1.609  0.00  0.00     0.027 H 
ATOM     18  H   LIG d   1       2.934   1.541  -2.795  0.00  0.00     0.027 H 
ATOM     19  H   LIG d   1       5.203  -2.137  -5.015  0.00  0.00     0.027 H 
ATOM     20  H   LIG d   1       3.782  -1.544  -5.882  0.00  0.00     0.027 H 
ATOM     21  H   LIG d   1       5.808  -1.516  -7.301  0.00  0.00     0.029 H 
ATOM     22  H   LIG d   1       5.090   0.089  -7.093  0.00  0.00     0.029 H 
ENDROOT
BRANCH  11  23
ATOM     23  C   LIG d   1       8.266   0.786  -4.198  0.00  0.00    -0.044 C 
ATOM     24  H   LIG d   1       8.249   0.356  -3.197  0.00  0.00     0.027 H 
ATOM     25  H   LIG d   1       8.983   0.243  -4.814  0.00  0.00     0.027 H 
BRANCH  23  26
ATOM     26  C   LIG d   1       8.675   2.257  -4.115  0.00  0.00    -0.020 C 
ATOM     27  H   LIG d   1       7.912   2.875  -4.589  0.00  0.00     0.030 H 
ATOM     28  H   LIG d   1       8.780   2.547  -3.070  0.00  0.00     0.030 H 
BRANCH  26  29
ATOM     29  C   LIG d   1      10.010   2.457  -4.836  0.00  0.00     0.081 C 
BRANCH  29  30
ATOM     30  C   LIG d   1      11.160   2.154  -3.872  0.00  0.00    -0.033 C 
ATOM     31  H   LIG d   1      11.497   3.080  -3.407  0.00  0.00     0.026 H 
ATOM     32  H   LIG d   1      10.817   1.464  -3.102  0.00  0.00     0.026 H 
ATOM     33  H   LIG d   1      11.986   1.703  -4.423  0.00  0.00     0.026 H 
ENDBRANCH  29  30
BRANCH  29  34
ATOM     34  C   LIG d   1      10.117   3.883  -5.311  0.00  0.00    -0.060 C 
ATOM     35  C   LIG d   1       9.399   4.819  -4.742  0.00  0.00    -0.100 C 
ATOM     36  H   LIG d   1       9.475   5.841  -5.082  0.00  0.00     0.053 H 
ATOM     37  H   LIG d   1       8.730   4.569  -3.931  0.00  0.00     0.053 H 
ATOM     38  H   LIG d   1      10.785   4.133  -6.122  0.00  0.00     0.059 H 
ENDBRANCH  29  34
BRANCH  29  39
ATOM     39  O   LIG d   1      10.083   1.574  -5.957  0.00  0.00    -0.385 OA
ATOM     40  H   LIG d   1      10.940   1.136  -6.057  0.00  0.00     0.211 HD
ENDBRANCH  29  39
ENDBRANCH  26  29
ENDBRANCH  23  26
ENDBRANCH  11  23
BRANCH   1  41
ATOM     41  C   LIG d   1       6.504  -1.017  -3.038  0.00  0.00    -0.059 C 
ATOM     42  H   LIG d   1       6.444  -0.860  -1.961  0.00  0.00     0.024 H 
ATOM     43  H   LIG d   1       5.961  -1.924  -3.304  0.00  0.00     0.024 H 
ATOM     44  H   LIG d   1       7.549  -1.120  -3.332  0.00  0.00     0.024 H 
ENDBRANCH   1  41
BRANCH  10  45
ATOM     45  C   LIG d   1       7.943  -1.343  -5.871  0.00  0.00    -0.036 C 
ATOM     46  H   LIG d   1       7.440  -2.163  -5.357  0.00  0.00     0.026 H 
ATOM     47  H   LIG d   1       8.302  -1.688  -6.840  0.00  0.00     0.026 H 
ATOM     48  H   LIG d   1       8.788  -1.003  -5.272  0.00  0.00     0.026 H 
ENDBRANCH  10  45
BRANCH  10  49
ATOM     49  O   LIG d   1       7.514   0.645  -7.124  0.00  0.00    -0.389 OA
ATOM     50  H   LIG d   1       7.055   1.487  -7.243  0.00  0.00     0.210 HD
ENDBRANCH  10  49
BRANCH   5  51
ATOM     51  C   LIG d   1       2.088  -0.378  -4.259  0.00  0.00    -0.059 C 
ATOM     52  H   LIG d   1       1.672   0.628  -4.187  0.00  0.00     0.024 H 
ATOM     53  H   LIG d   1       2.279  -0.618  -5.305  0.00  0.00     0.024 H 
ATOM     54  H   LIG d   1       1.379  -1.094  -3.846  0.00  0.00     0.024 H 
ENDBRANCH   5  51
BRANCH   5  55
ATOM     55  C   LIG d   1       3.495  -1.841  -2.847  0.00  0.00    -0.059 C 
ATOM     56  H   LIG d   1       3.803  -1.762  -1.804  0.00  0.00     0.024 H 
ATOM     57  H   LIG d   1       2.517  -2.320  -2.901  0.00  0.00     0.024 H 
ATOM     58  H   LIG d   1       4.222  -2.438  -3.396  0.00  0.00     0.024 H 
ENDBRANCH   5  55
TORSDOF 11
ENDMDL
MODEL 3
REMARK VINA RESULT:      -5.2      3.106      5.314
REMARK  11 active torsions:
REMARK  status: ('A' for Active; 'I' for Inactive)
REMARK    1  A    between atoms: C_1  and  C_2 
REMARK    2  A    between atoms: C_6  and  C_23 
REMARK    3  A    between atoms: C_6  and  C_24 
REMARK    4  A    between atoms: C_11  and  C_21 
REMARK    5  A    between atoms: C_11  and  O_22 
REMARK    6  A    between atoms: C_12  and  C_14 
REMARK    7  A    between atoms: C_14  and  C_15 
REMARK    8  A    between atoms: C_15  and  C_16 
REMARK    9  A    between atoms: C_16  and  C_17 
REMARK   10  A    between atoms: C_16  and  C_18 
REMARK   11  A    between atoms: C_16  and  O_20 
ROOT
ATOM      1  C   LIG d   1       6.357  -1.020  -4.210  0.00  0.00    -0.023 C 
ATOM      2  C   LIG d   1       5.975  -2.393  -3.633  0.00  0.00    -0.047 C 
ATOM      3  C   LIG d   1       4.487  -2.411  -3.287  0.00  0.00    -0.052 C 
ATOM      4  C   LIG d   1       4.195  -1.375  -2.209  0.00  0.00    -0.048 C 
ATOM      5  C   LIG d   1       4.614   0.029  -2.646  0.00  0.00    -0.032 C 
ATOM      6  C   LIG d   1       6.030   0.054  -3.184  0.00  0.00    -0.030 C 
ATOM      7  H   LIG d   1       6.704  -0.132  -2.312  0.00  0.00     0.031 H 
ATOM      8  C   LIG d   1       6.423   1.424  -3.731  0.00  0.00    -0.047 C 
ATOM      9  C   LIG d   1       7.941   1.462  -3.892  0.00  0.00    -0.024 C 
ATOM     10  C   LIG d   1       8.467   0.340  -4.770  0.00  0.00     0.067 C 
ATOM     11  C   LIG d   1       7.863  -1.023  -4.484  0.00  0.00    -0.007 C 
ATOM     12  H   LIG d   1       8.366  -1.455  -3.605  0.00  0.00     0.033 H 
ATOM     13  H   LIG d   1       6.179  -3.172  -4.367  0.00  0.00     0.027 H 
ATOM     14  H   LIG d   1       6.562  -2.577  -2.733  0.00  0.00     0.027 H 
ATOM     15  H   LIG d   1       3.877  -2.234  -4.166  0.00  0.00     0.027 H 
ATOM     16  H   LIG d   1       4.234  -3.407  -2.895  0.00  0.00     0.027 H 
ATOM     17  H   LIG d   1       3.124  -1.373  -1.988  0.00  0.00     0.027 H 
ATOM     18  H   LIG d   1       4.735  -1.639  -1.295  0.00  0.00     0.027 H 
ATOM     19  H   LIG d   1       5.946   1.624  -4.685  0.00  0.00     0.027 H 
ATOM     20  H   LIG d   1       6.132   2.209  -3.028  0.00  0.00     0.027 H 
ATOM     21  H   LIG d   1       8.227   2.427  -4.326  0.00  0.00     0.029 H 
ATOM     22  H   LIG d   1       8.404   1.393  -2.899  0.00  0.00     0.029 H 
ENDROOT
BRANCH  11  23
ATOM     23  C   LIG d   1       8.148  -1.946  -5.680  0.00  0.00    -0.044 C 
ATOM     24  H   LIG d   1       7.280  -2.579  -5.866  0.00  0.00     0.027 H 
ATOM     25  H   LIG d   1       8.353  -1.343  -6.564  0.00  0.00     0.027 H 
BRANCH  23  26
ATOM     26  C   LIG d   1       9.362  -2.824  -5.369  0.00  0.00    -0.020 C 
ATOM     27  H   LIG d   1      10.131  -2.662  -6.125  0.00  0.00     0.030 H 
ATOM     28  H   LIG d   1       9.757  -2.563  -4.387  0.00  0.00     0.030 H 
BRANCH  26  29
ATOM     29  C   LIG d   1       8.943  -4.295  -5.375  0.00  0.00     0.081 C 
BRANCH  29  30
ATOM     30  C   LIG d   1       7.602  -4.441  -6.099  0.00  0.00    -0.033 C 
ATOM     31  H   LIG d   1       7.628  -3.872  -7.028  0.00  0.00     0.026 H 
ATOM     32  H   LIG d   1       7.422  -5.493  -6.321  0.00  0.00     0.026 H 
ATOM     33  H   LIG d   1       6.803  -4.062  -5.462  0.00  0.00     0.026 H 
ENDBRANCH  29  30
BRANCH  29  34
ATOM     34  C   LIG d   1       8.804  -4.785  -3.957  0.00  0.00    -0.060 C 
ATOM     35  C   LIG d   1       9.395  -4.142  -2.981  0.00  0.00    -0.100 C 
ATOM     36  H   LIG d   1       9.295  -4.492  -1.965  0.00  0.00     0.053 H 
ATOM     37  H   LIG d   1       9.983  -3.261  -3.192  0.00  0.00     0.053 H 
ATOM     38  H   LIG d   1       8.216  -5.666  -3.746  0.00  0.00     0.059 H 
ENDBRANCH  29  34
BRANCH  29  39
ATOM     39  O   LIG d   1       9.935  -5.070  -6.052  0.00  0.00    -0.385 OA
ATOM     40  H   LIG d   1       9.777  -6.024  -6.022  0.00  0.00     0.211 HD
ENDBRANCH  29  39
ENDBRANCH  26  29
ENDBRANCH  23  26
ENDBRANCH  11  23
BRANCH   1  41
ATOM     41  C   LIG d   1       5.611  -0.832  -5.530  0.00  0.00    -0.059 C 
ATOM     42  H   LIG d   1       5.536   0.231  -5.757  0.00  0.00     0.024 H 
ATOM     43  H   LIG d   1       6.155  -1.337  -6.329  0.00  0.00     0.024 H 
ATOM     44  H   LIG d   1       4.611  -1.258  -5.446  0.00  0.00     0.024 H 
ENDBRANCH   1  41
BRANCH  10  45
ATOM     45  C   LIG d   1       8.312   0.715  -6.248  0.00  0.00    -0.036 C 
ATOM     46  H   LIG d   1       7.269   0.961  -6.454  0.00  0.00     0.026 H 
ATOM     47  H   LIG d   1       8.939   1.578  -6.473  0.00  0.00     0.026 H 
ATOM     48  H   LIG d   1       8.616  -0.127  -6.871  0.00  0.00     0.026 H 
ENDBRANCH  10  45
BRANCH  10  49
ATOM     49  O   LIG d   1       9.892   0.235  -4.521  0.00  0.00    -0.389 OA
ATOM     50  H   LIG d   1      10.137  -0.501  -3.946  0.00  0.00     0.210 HD
ENDBRANCH  10  49
BRANCH   5  51
ATOM     51  C   LIG d   1       4.570   0.911  -1.373  0.00  0.00    -0.059 C 
ATOM     52  H   LIG d   1       5.166   0.446  -0.587  0.00  0.00     0.024 H 
ATOM     53  H   LIG d   1       4.974   1.898  -1.599  0.00  0.00     0.024 H 
ATOM     54  H   LIG d   1       3.538   1.010  -1.035  0.00  0.00     0.024 H 
ENDBRANCH   5  51
BRANCH   5  55
ATOM     55  C   LIG d   1       3.592   0.604  -3.623  0.00  0.00    -0.059 C 
ATOM     56  H   LIG d   1       4.100   1.237  -4.350  0.00  0.00     0.024 H 
ATOM     57  H   LIG d   1       3.086  -0.211  -4.141  0.00  0.00     0.024 H 
ATOM     58  H   LIG d   1       2.859   1.196  -3.074  0.00  0.00     0.024 H 
ENDBRANCH   5  55
TORSDOF 11
ENDMDL
MODEL 4
REMARK VINA RESULT:      -5.0      2.928      5.756
REMARK  11 active torsions:
REMARK  status: ('A' for Active; 'I' for Inactive)
REMARK    1  A    between atoms: C_1  and  C_2 
REMARK    2  A    between atoms: C_6  and  C_23 
REMARK    3  A    between atoms: C_6  and  C_24 
REMARK    4  A    between atoms: C_11  and  C_21 
REMARK    5  A    between atoms: C_11  and  O_22 
REMARK    6  A    between atoms: C_12  and  C_14 
REMARK    7  A    between atoms: C_14  and  C_15 
REMARK    8  A    between atoms: C_15  and  C_16 
REMARK    9  A    between atoms: C_16  and  C_17 
REMARK   10  A    between atoms: C_16  and  C_18 
REMARK   11  A    between atoms: C_16  and  O_20 
ROOT
ATOM      1  C   LIG d   1       7.651  -3.552  -4.719  0.00  0.00    -0.023 C 
ATOM      2  C   LIG d   1       8.337  -3.375  -3.355  0.00  0.00    -0.047 C 
ATOM      3  C   LIG d   1       9.699  -4.069  -3.369  0.00  0.00    -0.052 C 
ATOM      4  C   LIG d   1       9.513  -5.565  -3.587  0.00  0.00    -0.048 C 
ATOM      5  C   LIG d   1       8.763  -5.858  -4.887  0.00  0.00    -0.032 C 
ATOM      6  C   LIG d   1       7.495  -5.038  -5.004  0.00  0.00    -0.030 C 
ATOM      7  H   LIG d   1       6.791  -5.432  -4.231  0.00  0.00     0.031 H 
ATOM      8  C   LIG d   1       6.795  -5.233  -6.347  0.00  0.00    -0.047 C 
ATOM      9  C   LIG d   1       5.373  -4.688  -6.232  0.00  0.00    -0.024 C 
ATOM     10  C   LIG d   1       5.334  -3.236  -5.790  0.00  0.00     0.067 C 
ATOM     11  C   LIG d   1       6.268  -2.899  -4.642  0.00  0.00    -0.007 C 
ATOM     12  H   LIG d   1       5.797  -3.215  -3.699  0.00  0.00     0.033 H 
ATOM     13  H   LIG d   1       8.479  -2.315  -3.148  0.00  0.00     0.027 H 
ATOM     14  H   LIG d   1       7.710  -3.817  -2.581  0.00  0.00     0.027 H 
ATOM     15  H   LIG d   1      10.347  -3.646  -4.128  0.00  0.00     0.027 H 
ATOM     16  H   LIG d   1      10.178  -3.913  -2.392  0.00  0.00     0.027 H 
ATOM     17  H   LIG d   1      10.494  -6.050  -3.625  0.00  0.00     0.027 H 
ATOM     18  H   LIG d   1       8.953  -5.988  -2.749  0.00  0.00     0.027 H 
ATOM     19  H   LIG d   1       7.322  -4.726  -7.148  0.00  0.00     0.027 H 
ATOM     20  H   LIG d   1       6.737  -6.297  -6.591  0.00  0.00     0.027 H 
ATOM     21  H   LIG d   1       4.878  -4.786  -7.206  0.00  0.00     0.029 H 
ATOM     22  H   LIG d   1       4.816  -5.302  -5.513  0.00  0.00     0.029 H 
ENDROOT
BRANCH  11  23
ATOM     23  C   LIG d   1       6.443  -1.373  -4.584  0.00  0.00    -0.044 C 
ATOM     24  H   LIG d   1       7.487  -1.119  -4.764  0.00  0.00     0.027 H 
ATOM     25  H   LIG d   1       5.820  -0.906  -5.347  0.00  0.00     0.027 H 
BRANCH  23  26
ATOM     26  C   LIG d   1       6.025  -0.864  -3.203  0.00  0.00    -0.020 C 
ATOM     27  H   LIG d   1       5.870  -1.711  -2.535  0.00  0.00     0.030 H 
ATOM     28  H   LIG d   1       6.808  -0.221  -2.800  0.00  0.00     0.030 H 
BRANCH  26  29
ATOM     29  C   LIG d   1       4.724  -0.068  -3.325  0.00  0.00     0.081 C 
BRANCH  29  30
ATOM     30  C   LIG d   1       4.896   1.296  -2.650  0.00  0.00    -0.033 C 
ATOM     31  H   LIG d   1       4.051   1.935  -2.905  0.00  0.00     0.026 H 
ATOM     32  H   LIG d   1       4.939   1.163  -1.569  0.00  0.00     0.026 H 
ATOM     33  H   LIG d   1       5.820   1.759  -2.996  0.00  0.00     0.026 H 
ENDBRANCH  29  30
BRANCH  29  34
ATOM     34  C   LIG d   1       3.607  -0.823  -2.653  0.00  0.00    -0.060 C 
ATOM     35  C   LIG d   1       3.842  -1.988  -2.102  0.00  0.00    -0.100 C 
ATOM     36  H   LIG d   1       3.042  -2.529  -1.621  0.00  0.00     0.053 H 
ATOM     37  H   LIG d   1       4.837  -2.408  -2.130  0.00  0.00     0.053 H 
ATOM     38  H   LIG d   1       2.612  -0.403  -2.626  0.00  0.00     0.059 H 
ENDBRANCH  29  34
BRANCH  29  39
ATOM     39  O   LIG d   1       4.409   0.122  -4.705  0.00  0.00    -0.385 OA
ATOM     40  H   LIG d   1       4.508  -0.675  -5.245  0.00  0.00     0.211 HD
ENDBRANCH  29  39
ENDBRANCH  26  29
ENDBRANCH  23  26
ENDBRANCH  11  23
BRANCH   1  41
ATOM     41  C   LIG d   1       8.486  -2.826  -5.772  0.00  0.00    -0.059 C 
ATOM     42  H   LIG d   1       9.447  -2.542  -5.342  0.00  0.00     0.024 H 
ATOM     43  H   LIG d   1       8.650  -3.488  -6.623  0.00  0.00     0.024 H 
ATOM     44  H   LIG d   1       7.957  -1.933  -6.103  0.00  0.00     0.024 H 
ENDBRANCH   1  41
BRANCH  10  45
ATOM     45  C   LIG d   1       5.579  -2.316  -6.991  0.00  0.00    -0.036 C 
ATOM     46  H   LIG d   1       6.648  -2.263  -7.198  0.00  0.00     0.026 H 
ATOM     47  H   LIG d   1       5.060  -2.712  -7.865  0.00  0.00     0.026 H 
ATOM     48  H   LIG d   1       5.203  -1.318  -6.767  0.00  0.00     0.026 H 
ENDBRANCH  10  45
BRANCH  10  49
ATOM     49  O   LIG d   1       3.984  -2.965  -5.335  0.00  0.00    -0.389 OA
ATOM     50  H   LIG d   1       3.914  -2.202  -4.746  0.00  0.00     0.210 HD
ENDBRANCH  10  49
BRANCH   5  51
ATOM     51  C   LIG d   1       8.363  -7.354  -4.829  0.00  0.00    -0.059 C 
ATOM     52  H   LIG d   1       9.211  -7.944  -4.480  0.00  0.00     0.024 H 
ATOM     53  H   LIG d   1       7.526  -7.480  -4.142  0.00  0.00     0.024 H 
ATOM     54  H   LIG d   1       8.070  -7.691  -5.823  0.00  0.00     0.024 H 
ENDBRANCH   5  51
BRANCH   5  55
ATOM     55  C   LIG d   1       9.697  -5.692  -6.083  0.00  0.00    -0.059 C 
ATOM     56  H   LIG d   1       9.857  -6.661  -6.556  0.00  0.00     0.024 H 
ATOM     57  H   LIG d   1       9.250  -5.006  -6.802  0.00  0.00     0.024 H 
ATOM     58  H   LIG d   1      10.653  -5.291  -5.744  0.00  0.00     0.024 H 
ENDBRANCH   5  55
TORSDOF 11
ENDMDL
MODEL 5
REMARK VINA RESULT:      -4.9      2.548      6.568
REMARK  11 active torsions:
REMARK  status: ('A' for Active; 'I' for Inactive)
REMARK    1  A    between atoms: C_1  and  C_2 
REMARK    2  A    between atoms: C_6  and  C_23 
REMARK    3  A    between atoms: C_6  and  C_24 
REMARK    4  A    between atoms: C_11  and  C_21 
REMARK    5  A    between atoms: C_11  and  O_22 
REMARK    6  A    between atoms: C_12  and  C_14 
REMARK    7  A    between atoms: C_14  and  C_15 
REMARK    8  A    between atoms: C_15  and  C_16 
REMARK    9  A    between atoms: C_16  and  C_17 
REMARK   10  A    between atoms: C_16  and  C_18 
REMARK   11  A    between atoms: C_16  and  O_20 
ROOT
ATOM      1  C   LIG d   1       3.886  -1.084  -9.464  0.00  0.00    -0.023 C 
ATOM      2  C   LIG d   1       3.120  -2.279  -8.873  0.00  0.00    -0.047 C 
ATOM      3  C   LIG d   1       3.277  -3.495  -9.785  0.00  0.00    -0.052 C 
ATOM      4  C   LIG d   1       2.665  -3.199 -11.149  0.00  0.00    -0.048 C 
ATOM      5  C   LIG d   1       3.301  -1.970 -11.800  0.00  0.00    -0.032 C 
ATOM      6  C   LIG d   1       3.344  -0.788 -10.854  0.00  0.00    -0.030 C 
ATOM      7  H   LIG d   1       2.285  -0.458 -10.711  0.00  0.00     0.031 H 
ATOM      8  C   LIG d   1       4.079   0.410 -11.448  0.00  0.00    -0.047 C 
ATOM      9  C   LIG d   1       3.748   1.643 -10.610  0.00  0.00    -0.024 C 
ATOM     10  C   LIG d   1       4.080   1.460  -9.139  0.00  0.00     0.067 C 
ATOM     11  C   LIG d   1       3.652   0.126  -8.556  0.00  0.00    -0.007 C 
ATOM     12  H   LIG d   1       2.577   0.171  -8.322  0.00  0.00     0.033 H 
ATOM     13  H   LIG d   1       3.515  -2.520  -7.887  0.00  0.00     0.027 H 
ATOM     14  H   LIG d   1       2.065  -2.018  -8.790  0.00  0.00     0.027 H 
ATOM     15  H   LIG d   1       4.319  -3.779  -9.884  0.00  0.00     0.027 H 
ATOM     16  H   LIG d   1       2.737  -4.339  -9.333  0.00  0.00     0.027 H 
ATOM     17  H   LIG d   1       2.808  -4.063 -11.805  0.00  0.00     0.027 H 
ATOM     18  H   LIG d   1       1.591  -3.026 -11.036  0.00  0.00     0.027 H 
ATOM     19  H   LIG d   1       5.152   0.251 -11.464  0.00  0.00     0.027 H 
ATOM     20  H   LIG d   1       3.741   0.590 -12.472  0.00  0.00     0.027 H 
ATOM     21  H   LIG d   1       4.308   2.499 -11.005  0.00  0.00     0.029 H 
ATOM     22  H   LIG d   1       2.679   1.867 -10.716  0.00  0.00     0.029 H 
ENDROOT
BRANCH  11  23
ATOM     23  C   LIG d   1       4.403  -0.094  -7.232  0.00  0.00    -0.044 C 
ATOM     24  H   LIG d   1       4.922  -1.052  -7.264  0.00  0.00     0.027 H 
ATOM     25  H   LIG d   1       5.128   0.706  -7.088  0.00  0.00     0.027 H 
BRANCH  23  26
ATOM     26  C   LIG d   1       3.405  -0.092  -6.073  0.00  0.00    -0.020 C 
ATOM     27  H   LIG d   1       3.010   0.915  -5.934  0.00  0.00     0.030 H 
ATOM     28  H   LIG d   1       2.585  -0.776  -6.297  0.00  0.00     0.030 H 
BRANCH  26  29
ATOM     29  C   LIG d   1       4.109  -0.544  -4.792  0.00  0.00     0.081 C 
BRANCH  29  30
ATOM     30  C   LIG d   1       4.771  -1.904  -5.026  0.00  0.00    -0.033 C 
ATOM     31  H   LIG d   1       4.990  -2.371  -4.066  0.00  0.00     0.026 H 
ATOM     32  H   LIG d   1       4.098  -2.543  -5.596  0.00  0.00     0.026 H 
ATOM     33  H   LIG d   1       5.698  -1.765  -5.583  0.00  0.00     0.026 H 
ENDBRANCH  29  30
BRANCH  29  34
ATOM     34  C   LIG d   1       3.101  -0.662  -3.679  0.00  0.00    -0.060 C 
ATOM     35  C   LIG d   1       3.285  -1.533  -2.717  0.00  0.00    -0.100 C 
ATOM     36  H   LIG d   1       2.563  -1.617  -1.919  0.00  0.00     0.053 H 
ATOM     37  H   LIG d   1       4.160  -2.166  -2.722  0.00  0.00     0.053 H 
ATOM     38  H   LIG d   1       2.226  -0.029  -3.673  0.00  0.00     0.059 H 
ENDBRANCH  29  34
BRANCH  29  39
ATOM     39  O   LIG d   1       5.106   0.415  -4.433  0.00  0.00    -0.385 OA
ATOM     40  H   LIG d   1       4.958   1.295  -4.807  0.00  0.00     0.211 HD
ENDBRANCH  29  39
ENDBRANCH  26  29
ENDBRANCH  23  26
ENDBRANCH  11  23
BRANCH   1  41
ATOM     41  C   LIG d   1       5.375  -1.425  -9.465  0.00  0.00    -0.059 C 
ATOM     42  H   LIG d   1       5.519  -2.426  -9.871  0.00  0.00     0.024 H 
ATOM     43  H   LIG d   1       5.912  -0.702 -10.080  0.00  0.00     0.024 H 
ATOM     44  H   LIG d   1       5.757  -1.388  -8.444  0.00  0.00     0.024 H 
ENDBRANCH   1  41
BRANCH  10  45
ATOM     45  C   LIG d   1       5.574   1.713  -8.904  0.00  0.00    -0.036 C 
ATOM     46  H   LIG d   1       5.982   0.923  -8.273  0.00  0.00     0.026 H 
ATOM     47  H   LIG d   1       6.097   1.720  -9.860  0.00  0.00     0.026 H 
ATOM     48  H   LIG d   1       5.706   2.676  -8.410  0.00  0.00     0.026 H 
ENDBRANCH  10  45
BRANCH  10  49
ATOM     49  O   LIG d   1       3.370   2.492  -8.410  0.00  0.00    -0.389 OA
ATOM     50  H   LIG d   1       2.977   2.188  -7.581  0.00  0.00     0.210 HD
ENDBRANCH  10  49
BRANCH   5  51
ATOM     51  C   LIG d   1       2.392  -1.594 -12.997  0.00  0.00    -0.059 C 
ATOM     52  H   LIG d   1       1.816  -0.702 -12.750  0.00  0.00     0.024 H 
ATOM     53  H   LIG d   1       3.008  -1.398 -13.874  0.00  0.00     0.024 H 
ATOM     54  H   LIG d   1       1.711  -2.418 -13.208  0.00  0.00     0.024 H 
ENDBRANCH   5  51
BRANCH   5  55
ATOM     55  C   LIG d   1       4.670  -2.327 -12.374  0.00  0.00    -0.059 C 
ATOM     56  H   LIG d   1       4.826  -1.783 -13.305  0.00  0.00     0.024 H 
ATOM     57  H   LIG d   1       5.447  -2.056 -11.659  0.00  0.00     0.024 H 
ATOM     58  H   LIG d   1       4.713  -3.399 -12.568  0.00  0.00     0.024 H 
ENDBRANCH   5  55
TORSDOF 11
ENDMDL
MODEL 6
REMARK VINA RESULT:      -4.8      1.896      5.828
REMARK  11 active torsions:
REMARK  status: ('A' for Active; 'I' for Inactive)
REMARK    1  A    between atoms: C_1  and  C_2 
REMARK    2  A    between atoms: C_6  and  C_23 
REMARK    3  A    between atoms: C_6  and  C_24 
REMARK    4  A    between atoms: C_11  and  C_21 
REMARK    5  A    between atoms: C_11  and  O_22 
REMARK    6  A    between atoms: C_12  and  C_14 
REMARK    7  A    between atoms: C_14  and  C_15 
REMARK    8  A    between atoms: C_15  and  C_16 
REMARK    9  A    between atoms: C_16  and  C_17 
REMARK   10  A    between atoms: C_16  and  C_18 
REMARK   11  A    between atoms: C_16  and  O_20 
ROOT
ATOM      1  C   LIG d   1       3.957  -0.147  -8.081  0.00  0.00    -0.023 C 
ATOM      2  C   LIG d   1       3.743   1.371  -7.968  0.00  0.00    -0.047 C 
ATOM      3  C   LIG d   1       2.943   1.870  -9.170  0.00  0.00    -0.052 C 
ATOM      4  C   LIG d   1       3.727   1.620 -10.452  0.00  0.00    -0.048 C 
ATOM      5  C   LIG d   1       4.068   0.140 -10.628  0.00  0.00    -0.032 C 
ATOM      6  C   LIG d   1       4.690  -0.448  -9.379  0.00  0.00    -0.030 C 
ATOM      7  H   LIG d   1       5.702   0.016  -9.280  0.00  0.00     0.031 H 
ATOM      8  C   LIG d   1       4.930  -1.951  -9.497  0.00  0.00    -0.047 C 
ATOM      9  C   LIG d   1       5.882  -2.377  -8.382  0.00  0.00    -0.024 C 
ATOM     10  C   LIG d   1       5.375  -2.002  -7.001  0.00  0.00     0.067 C 
ATOM     11  C   LIG d   1       4.814  -0.596  -6.894  0.00  0.00    -0.007 C 
ATOM     12  H   LIG d   1       5.651   0.112  -6.795  0.00  0.00     0.033 H 
ATOM     13  H   LIG d   1       3.196   1.600  -7.055  0.00  0.00     0.027 H 
ATOM     14  H   LIG d   1       4.715   1.865  -7.945  0.00  0.00     0.027 H 
ATOM     15  H   LIG d   1       1.968   1.396  -9.216  0.00  0.00     0.027 H 
ATOM     16  H   LIG d   1       2.787   2.952  -9.058  0.00  0.00     0.027 H 
ATOM     17  H   LIG d   1       3.135   1.953 -11.310  0.00  0.00     0.027 H 
ATOM     18  H   LIG d   1       4.655   2.199 -10.429  0.00  0.00     0.027 H 
ATOM     19  H   LIG d   1       4.003  -2.510  -9.425  0.00  0.00     0.027 H 
ATOM     20  H   LIG d   1       5.399  -2.184 -10.458  0.00  0.00     0.027 H 
ATOM     21  H   LIG d   1       6.025  -3.463  -8.435  0.00  0.00     0.029 H 
ATOM     22  H   LIG d   1       6.859  -1.905  -8.551  0.00  0.00     0.029 H 
ENDROOT
BRANCH  11  23
ATOM     23  C   LIG d   1       3.973  -0.500  -5.611  0.00  0.00    -0.044 C 
ATOM     24  H   LIG d   1       3.128   0.168  -5.778  0.00  0.00     0.027 H 
ATOM     25  H   LIG d   1       3.605  -1.490  -5.342  0.00  0.00     0.027 H 
BRANCH  23  26
ATOM     26  C   LIG d   1       4.838   0.048  -4.474  0.00  0.00    -0.020 C 
ATOM     27  H   LIG d   1       5.886   0.034  -4.774  0.00  0.00     0.030 H 
ATOM     28  H   LIG d   1       4.538   1.072  -4.250  0.00  0.00     0.030 H 
BRANCH  26  29
ATOM     29  C   LIG d   1       4.654  -0.820  -3.228  0.00  0.00     0.081 C 
BRANCH  29  30
ATOM     30  C   LIG d   1       3.279  -1.491  -3.271  0.00  0.00    -0.033 C 
ATOM     31  H   LIG d   1       2.552  -0.800  -3.700  0.00  0.00     0.026 H 
ATOM     32  H   LIG d   1       3.332  -2.390  -3.884  0.00  0.00     0.026 H 
ATOM     33  H   LIG d   1       2.973  -1.758  -2.260  0.00  0.00     0.026 H 
ENDBRANCH  29  30
BRANCH  29  34
ATOM     34  C   LIG d   1       4.754   0.041  -1.995  0.00  0.00    -0.060 C 
ATOM     35  C   LIG d   1       4.198   1.227  -1.978  0.00  0.00    -0.100 C 
ATOM     36  H   LIG d   1       4.269   1.844  -1.095  0.00  0.00     0.053 H 
ATOM     37  H   LIG d   1       3.668   1.588  -2.847  0.00  0.00     0.053 H 
ATOM     38  H   LIG d   1       5.284  -0.320  -1.126  0.00  0.00     0.059 H 
ENDBRANCH  29  34
BRANCH  29  39
ATOM     39  O   LIG d   1       5.671  -1.823  -3.192  0.00  0.00    -0.385 OA
ATOM     40  H   LIG d   1       5.883  -2.199  -4.058  0.00  0.00     0.211 HD
ENDBRANCH  29  39
ENDBRANCH  26  29
ENDBRANCH  23  26
ENDBRANCH  11  23
BRANCH   1  41
ATOM     41  C   LIG d   1       2.592  -0.829  -7.995  0.00  0.00    -0.059 C 
ATOM     42  H   LIG d   1       2.704  -1.894  -8.200  0.00  0.00     0.024 H 
ATOM     43  H   LIG d   1       2.181  -0.693  -6.994  0.00  0.00     0.024 H 
ATOM     44  H   LIG d   1       1.918  -0.386  -8.727  0.00  0.00     0.024 H 
ENDBRANCH   1  41
BRANCH  10  45
ATOM     45  C   LIG d   1       4.358  -3.042  -6.516  0.00  0.00    -0.036 C 
ATOM     46  H   LIG d   1       4.765  -3.574  -5.656  0.00  0.00     0.026 H 
ATOM     47  H   LIG d   1       3.434  -2.540  -6.229  0.00  0.00     0.026 H 
ATOM     48  H   LIG d   1       4.153  -3.751  -7.317  0.00  0.00     0.026 H 
ENDBRANCH  10  45
BRANCH  10  49
ATOM     49  O   LIG d   1       6.505  -2.080  -6.096  0.00  0.00    -0.389 OA
ATOM     50  H   LIG d   1       7.363  -1.972  -6.527  0.00  0.00     0.210 HD
ENDBRANCH  10  49
BRANCH   5  51
ATOM     51  C   LIG d   1       5.117   0.069 -11.766  0.00  0.00    -0.059 C 
ATOM     52  H   LIG d   1       5.073  -0.912 -12.240  0.00  0.00     0.024 H 
ATOM     53  H   LIG d   1       4.904   0.841 -12.506  0.00  0.00     0.024 H 
ATOM     54  H   LIG d   1       6.113   0.228 -11.352  0.00  0.00     0.024 H 
ENDBRANCH   5  51
BRANCH   5  55
ATOM     55  C   LIG d   1       2.839  -0.630 -11.105  0.00  0.00    -0.059 C 
ATOM     56  H   LIG d   1       2.684  -0.444 -12.168  0.00  0.00     0.024 H 
ATOM     57  H   LIG d   1       2.991  -1.697 -10.941  0.00  0.00     0.024 H 
ATOM     58  H   LIG d   1       1.964  -0.298 -10.547  0.00  0.00     0.024 H 
ENDBRANCH   5  55
TORSDOF 11
ENDMDL
MODEL 7
REMARK VINA RESULT:      -4.7      1.860      3.558
REMARK  11 active torsions:
REMARK  status: ('A' for Active; 'I' for Inactive)
REMARK    1  A    between atoms: C_1  and  C_2 
REMARK    2  A    between atoms: C_6  and  C_23 
REMARK    3  A    between atoms: C_6  and  C_24 
REMARK    4  A    between atoms: C_11  and  C_21 
REMARK    5  A    between atoms: C_11  and  O_22 
REMARK    6  A    between atoms: C_12  and  C_14 
REMARK    7  A    between atoms: C_14  and  C_15 
REMARK    8  A    between atoms: C_15  and  C_16 
REMARK    9  A    between atoms: C_16  and  C_17 
REMARK   10  A    between atoms: C_16  and  C_18 
REMARK   11  A    between atoms: C_16  and  O_20 
ROOT
ATOM      1  C   LIG d   1       5.154  -1.013  -5.465  0.00  0.00    -0.023 C 
ATOM      2  C   LIG d   1       6.653  -1.112  -5.140  0.00  0.00    -0.047 C 
ATOM      3  C   LIG d   1       6.849  -1.890  -3.839  0.00  0.00    -0.052 C 
ATOM      4  C   LIG d   1       6.188  -1.143  -2.687  0.00  0.00    -0.048 C 
ATOM      5  C   LIG d   1       4.698  -0.915  -2.942  0.00  0.00    -0.032 C 
ATOM      6  C   LIG d   1       4.443  -0.321  -4.311  0.00  0.00    -0.030 C 
ATOM      7  H   LIG d   1       4.840   0.723  -4.282  0.00  0.00     0.031 H 
ATOM      8  C   LIG d   1       2.955  -0.194  -4.626  0.00  0.00    -0.047 C 
ATOM      9  C   LIG d   1       2.793   0.739  -5.824  0.00  0.00    -0.024 C 
ATOM     10  C   LIG d   1       3.581   0.279  -7.037  0.00  0.00     0.067 C 
ATOM     11  C   LIG d   1       4.998  -0.175  -6.737  0.00  0.00    -0.007 C 
ATOM     12  H   LIG d   1       5.640   0.713  -6.638  0.00  0.00     0.033 H 
ATOM     13  H   LIG d   1       7.172  -1.630  -5.946  0.00  0.00     0.027 H 
ATOM     14  H   LIG d   1       7.060  -0.107  -5.030  0.00  0.00     0.027 H 
ATOM     15  H   LIG d   1       6.456  -2.898  -3.921  0.00  0.00     0.027 H 
ATOM     16  H   LIG d   1       7.927  -1.964  -3.638  0.00  0.00     0.027 H 
ATOM     17  H   LIG d   1       6.307  -1.721  -1.766  0.00  0.00     0.027 H 
ATOM     18  H   LIG d   1       6.679  -0.176  -2.553  0.00  0.00     0.027 H 
ATOM     19  H   LIG d   1       2.511  -1.160  -4.847  0.00  0.00     0.027 H 
ATOM     20  H   LIG d   1       2.425   0.243  -3.775  0.00  0.00     0.027 H 
ATOM     21  H   LIG d   1       1.729   0.800  -6.082  0.00  0.00     0.029 H 
ATOM     22  H   LIG d   1       3.124   1.745  -5.536  0.00  0.00     0.029 H 
ENDROOT
BRANCH  11  23
ATOM     23  C   LIG d   1       5.516  -0.990  -7.933  0.00  0.00    -0.044 C 
ATOM     24  H   LIG d   1       5.777  -1.995  -7.603  0.00  0.00     0.027 H 
ATOM     25  H   LIG d   1       4.740  -1.049  -8.697  0.00  0.00     0.027 H 
BRANCH  23  26
ATOM     26  C   LIG d   1       6.754  -0.307  -8.517  0.00  0.00    -0.020 C 
ATOM     27  H   LIG d   1       7.051   0.521  -7.872  0.00  0.00     0.030 H 
ATOM     28  H   LIG d   1       7.570  -1.027  -8.583  0.00  0.00     0.030 H 
BRANCH  26  29
ATOM     29  C   LIG d   1       6.432   0.227  -9.914  0.00  0.00     0.081 C 
BRANCH  29  30
ATOM     30  C   LIG d   1       5.353  -0.647 -10.558  0.00  0.00    -0.033 C 
ATOM     31  H   LIG d   1       4.482  -0.035 -10.793  0.00  0.00     0.026 H 
ATOM     32  H   LIG d   1       5.744  -1.090 -11.475  0.00  0.00     0.026 H 
ATOM     33  H   LIG d   1       5.066  -1.438  -9.866  0.00  0.00     0.026 H 
ENDBRANCH  29  30
BRANCH  29  34
ATOM     34  C   LIG d   1       7.675   0.198 -10.763  0.00  0.00    -0.060 C 
ATOM     35  C   LIG d   1       8.811   0.638 -10.280  0.00  0.00    -0.100 C 
ATOM     36  H   LIG d   1       9.702   0.616 -10.888  0.00  0.00     0.053 H 
ATOM     37  H   LIG d   1       8.855   1.022  -9.271  0.00  0.00     0.053 H 
ATOM     38  H   LIG d   1       7.631  -0.187 -11.772  0.00  0.00     0.059 H 
ENDBRANCH  29  34
BRANCH  29  39
ATOM     39  O   LIG d   1       5.956   1.571  -9.812  0.00  0.00    -0.385 OA
ATOM     40  H   LIG d   1       5.257   1.790 -10.443  0.00  0.00     0.211 HD
ENDBRANCH  29  39
ENDBRANCH  26  29
ENDBRANCH  23  26
ENDBRANCH  11  23
BRANCH   1  41
ATOM     41  C   LIG d   1       4.628  -2.423  -5.730  0.00  0.00    -0.059 C 
ATOM     42  H   LIG d   1       5.089  -2.820  -6.633  0.00  0.00     0.024 H 
ATOM     43  H   LIG d   1       4.872  -3.066  -4.884  0.00  0.00     0.024 H 
ATOM     44  H   LIG d   1       3.546  -2.389  -5.858  0.00  0.00     0.024 H 
ENDBRANCH   1  41
BRANCH  10  45
ATOM     45  C   LIG d   1       2.800  -0.805  -7.790  0.00  0.00    -0.036 C 
ATOM     46  H   LIG d   1       2.137  -1.323  -7.096  0.00  0.00     0.026 H 
ATOM     47  H   LIG d   1       2.209  -0.344  -8.581  0.00  0.00     0.026 H 
ATOM     48  H   LIG d   1       3.498  -1.519  -8.226  0.00  0.00     0.026 H 
ENDBRANCH  10  45
BRANCH  10  49
ATOM     49  O   LIG d   1       3.679   1.412  -7.937  0.00  0.00    -0.389 OA
ATOM     50  H   LIG d   1       3.508   2.264  -7.515  0.00  0.00     0.210 HD
ENDBRANCH  10  49
BRANCH   5  51
ATOM     51  C   LIG d   1       4.229   0.111  -1.879  0.00  0.00    -0.059 C 
ATOM     52  H   LIG d   1       3.151   0.027  -1.744  0.00  0.00     0.024 H 
ATOM     53  H   LIG d   1       4.731  -0.090  -0.932  0.00  0.00     0.024 H 
ATOM     54  H   LIG d   1       4.476   1.118  -2.214  0.00  0.00     0.024 H 
ENDBRANCH   5  51
BRANCH   5  55
ATOM     55  C   LIG d   1       3.918  -2.204  -2.693  0.00  0.00    -0.059 C 
ATOM     56  H   LIG d   1       3.104  -2.281  -3.414  0.00  0.00     0.024 H 
ATOM     57  H   LIG d   1       4.583  -3.060  -2.803  0.00  0.00     0.024 H 
ATOM     58  H   LIG d   1       3.507  -2.190  -1.683  0.00  0.00     0.024 H 
ENDBRANCH   5  55
TORSDOF 11
ENDMDL
MODEL 8
REMARK VINA RESULT:      -4.7      2.671      5.375
REMARK  11 active torsions:
REMARK  status: ('A' for Active; 'I' for Inactive)
REMARK    1  A    between atoms: C_1  and  C_2 
REMARK    2  A    between atoms: C_6  and  C_23 
REMARK    3  A    between atoms: C_6  and  C_24 
REMARK    4  A    between atoms: C_11  and  C_21 
REMARK    5  A    between atoms: C_11  and  O_22 
REMARK    6  A    between atoms: C_12  and  C_14 
REMARK    7  A    between atoms: C_14  and  C_15 
REMARK    8  A    between atoms: C_15  and  C_16 
REMARK    9  A    between atoms: C_16  and  C_17 
REMARK   10  A    between atoms: C_16  and  C_18 
REMARK   11  A    between atoms: C_16  and  O_20 
ROOT
ATOM      1  C   LIG d   1       5.175  -3.043  -6.185  0.00  0.00    -0.023 C 
ATOM      2  C   LIG d   1       4.846  -3.987  -5.018  0.00  0.00    -0.047 C 
ATOM      3  C   LIG d   1       5.154  -5.429  -5.420  0.00  0.00    -0.052 C 
ATOM      4  C   LIG d   1       4.270  -5.839  -6.592  0.00  0.00    -0.048 C 
ATOM      5  C   LIG d   1       4.457  -4.910  -7.792  0.00  0.00    -0.032 C 
ATOM      6  C   LIG d   1       4.353  -3.451  -7.399  0.00  0.00    -0.030 C 
ATOM      7  H   LIG d   1       3.285  -3.272  -7.125  0.00  0.00     0.031 H 
ATOM      8  C   LIG d   1       4.651  -2.509  -8.562  0.00  0.00    -0.047 C 
ATOM      9  C   LIG d   1       4.162  -1.112  -8.189  0.00  0.00    -0.024 C 
ATOM     10  C   LIG d   1       4.768  -0.604  -6.893  0.00  0.00     0.067 C 
ATOM     11  C   LIG d   1       4.795  -1.620  -5.766  0.00  0.00    -0.007 C 
ATOM     12  H   LIG d   1       3.797  -1.660  -5.302  0.00  0.00     0.033 H 
ATOM     13  H   LIG d   1       5.447  -3.724  -4.149  0.00  0.00     0.027 H 
ATOM     14  H   LIG d   1       3.788  -3.894  -4.773  0.00  0.00     0.027 H 
ATOM     15  H   LIG d   1       6.203  -5.553  -5.667  0.00  0.00     0.027 H 
ATOM     16  H   LIG d   1       4.929  -6.083  -4.565  0.00  0.00     0.027 H 
ATOM     17  H   LIG d   1       4.518  -6.862  -6.892  0.00  0.00     0.027 H 
ATOM     18  H   LIG d   1       3.222  -5.815  -6.282  0.00  0.00     0.027 H 
ATOM     19  H   LIG d   1       5.712  -2.481  -8.790  0.00  0.00     0.027 H 
ATOM     20  H   LIG d   1       4.115  -2.834  -9.458  0.00  0.00     0.027 H 
ATOM     21  H   LIG d   1       4.412  -0.421  -9.003  0.00  0.00     0.029 H 
ATOM     22  H   LIG d   1       3.069  -1.133  -8.095  0.00  0.00     0.029 H 
ENDROOT
BRANCH  11  23
ATOM     23  C   LIG d   1       5.785  -1.137  -4.694  0.00  0.00    -0.044 C 
ATOM     24  H   LIG d   1       6.650  -1.800  -4.673  0.00  0.00     0.027 H 
ATOM     25  H   LIG d   1       6.111  -0.124  -4.929  0.00  0.00     0.027 H 
BRANCH  23  26
ATOM     26  C   LIG d   1       5.101  -1.148  -3.326  0.00  0.00    -0.020 C 
ATOM     27  H   LIG d   1       4.275  -1.860  -3.338  0.00  0.00     0.030 H 
ATOM     28  H   LIG d   1       5.821  -1.440  -2.561  0.00  0.00     0.030 H 
BRANCH  26  29
ATOM     29  C   LIG d   1       4.564   0.250  -3.012  0.00  0.00     0.081 C 
BRANCH  29  30
ATOM     30  C   LIG d   1       4.762   0.550  -1.525  0.00  0.00    -0.033 C 
ATOM     31  H   LIG d   1       5.248  -0.299  -1.045  0.00  0.00     0.026 H 
ATOM     32  H   LIG d   1       5.385   1.437  -1.413  0.00  0.00     0.026 H 
ATOM     33  H   LIG d   1       3.793   0.726  -1.057  0.00  0.00     0.026 H 
ENDBRANCH  29  30
BRANCH  29  34
ATOM     34  C   LIG d   1       3.096   0.311  -3.345  0.00  0.00    -0.060 C 
ATOM     35  C   LIG d   1       2.337  -0.741  -3.161  0.00  0.00    -0.100 C 
ATOM     36  H   LIG d   1       1.285  -0.697  -3.399  0.00  0.00     0.053 H 
ATOM     37  H   LIG d   1       2.764  -1.652  -2.769  0.00  0.00     0.053 H 
ATOM     38  H   LIG d   1       2.669   1.223  -3.737  0.00  0.00     0.059 H 
ENDBRANCH  29  34
BRANCH  29  39
ATOM     39  O   LIG d   1       5.271   1.217  -3.791  0.00  0.00    -0.385 OA
ATOM     40  H   LIG d   1       5.826   0.834  -4.484  0.00  0.00     0.211 HD
ENDBRANCH  29  39
ENDBRANCH  26  29
ENDBRANCH  23  26
ENDBRANCH  11  23
BRANCH   1  41
ATOM     41  C   LIG d   1       6.681  -3.101  -6.438  0.00  0.00    -0.059 C 
ATOM     42  H   LIG d   1       7.211  -2.710  -5.570  0.00  0.00     0.024 H 
ATOM     43  H   LIG d   1       6.979  -4.136  -6.611  0.00  0.00     0.024 H 
ATOM     44  H   LIG d   1       6.926  -2.501  -7.314  0.00  0.00     0.024 H 
ENDBRANCH   1  41
BRANCH  10  45
ATOM     45  C   LIG d   1       6.166  -0.032  -7.157  0.00  0.00    -0.036 C 
ATOM     46  H   LIG d   1       6.076   0.928  -7.666  0.00  0.00     0.026 H 
ATOM     47  H   LIG d   1       6.686   0.107  -6.209  0.00  0.00     0.026 H 
ATOM     48  H   LIG d   1       6.729  -0.724  -7.782  0.00  0.00     0.026 H 
ENDBRANCH  10  45
BRANCH  10  49
ATOM     49  O   LIG d   1       3.949   0.507  -6.446  0.00  0.00    -0.389 OA
ATOM     50  H   LIG d   1       3.006   0.303  -6.393  0.00  0.00     0.210 HD
ENDBRANCH  10  49
BRANCH   5  51
ATOM     51  C   LIG d   1       3.297  -5.227  -8.769  0.00  0.00    -0.059 C 
ATOM     52  H   LIG d   1       2.764  -6.114  -8.426  0.00  0.00     0.024 H 
ATOM     53  H   LIG d   1       2.610  -4.381  -8.805  0.00  0.00     0.024 H 
ATOM     54  H   LIG d   1       3.701  -5.408  -9.765  0.00  0.00     0.024 H 
ENDBRANCH   5  51
BRANCH   5  55
ATOM     55  C   LIG d   1       5.757  -5.244  -8.519  0.00  0.00    -0.059 C 
ATOM     56  H   LIG d   1       6.368  -4.344  -8.602  0.00  0.00     0.024 H 
ATOM     57  H   LIG d   1       6.303  -6.003  -7.959  0.00  0.00     0.024 H 
ATOM     58  H   LIG d   1       5.528  -5.621  -9.516  0.00  0.00     0.024 H 
ENDBRANCH   5  55
TORSDOF 11
ENDMDL
MODEL 9
REMARK VINA RESULT:      -4.6     10.169     11.884
REMARK  11 active torsions:
REMARK  status: ('A' for Active; 'I' for Inactive)
REMARK    1  A    between atoms: C_1  and  C_2 
REMARK    2  A    between atoms: C_6  and  C_23 
REMARK    3  A    between atoms: C_6  and  C_24 
REMARK    4  A    between atoms: C_11  and  C_21 
REMARK    5  A    between atoms: C_11  and  O_22 
REMARK    6  A    between atoms: C_12  and  C_14 
REMARK    7  A    between atoms: C_14  and  C_15 
REMARK    8  A    between atoms: C_15  and  C_16 
REMARK    9  A    between atoms: C_16  and  C_17 
REMARK   10  A    between atoms: C_16  and  C_18 
REMARK   11  A    between atoms: C_16  and  O_20 
ROOT
ATOM      1  C   LIG d   1      10.974   8.623  -1.509  0.00  0.00    -0.023 C 
ATOM      2  C   LIG d   1      10.018   9.109  -2.610  0.00  0.00    -0.047 C 
ATOM      3  C   LIG d   1      10.288  10.582  -2.914  0.00  0.00    -0.052 C 
ATOM      4  C   LIG d   1      10.012  11.424  -1.675  0.00  0.00    -0.048 C 
ATOM      5  C   LIG d   1      10.857  10.972  -0.484  0.00  0.00    -0.032 C 
ATOM      6  C   LIG d   1      10.772   9.476  -0.266  0.00  0.00    -0.030 C 
ATOM      7  H   LIG d   1       9.733   9.267   0.089  0.00  0.00     0.031 H 
ATOM      8  C   LIG d   1      11.699   8.993   0.847  0.00  0.00    -0.047 C 
ATOM      9  C   LIG d   1      11.277   7.582   1.247  0.00  0.00    -0.024 C 
ATOM     10  C   LIG d   1      11.265   6.617   0.075  0.00  0.00     0.067 C 
ATOM     11  C   LIG d   1      10.630   7.166  -1.189  0.00  0.00    -0.007 C 
ATOM     12  H   LIG d   1       9.535   7.089  -1.097  0.00  0.00     0.033 H 
ATOM     13  H   LIG d   1      10.170   8.524  -3.516  0.00  0.00     0.027 H 
ATOM     14  H   LIG d   1       8.991   8.989  -2.266  0.00  0.00     0.027 H 
ATOM     15  H   LIG d   1      11.305  10.730  -3.263  0.00  0.00     0.027 H 
ATOM     16  H   LIG d   1       9.607  10.901  -3.716  0.00  0.00     0.027 H 
ATOM     17  H   LIG d   1      10.236  12.473  -1.893  0.00  0.00     0.027 H 
ATOM     18  H   LIG d   1       8.954  11.346  -1.412  0.00  0.00     0.027 H 
ATOM     19  H   LIG d   1      12.736   8.993   0.528  0.00  0.00     0.027 H 
ATOM     20  H   LIG d   1      11.607   9.642   1.722  0.00  0.00     0.027 H 
ATOM     21  H   LIG d   1      11.966   7.212   2.015  0.00  0.00     0.029 H 
ATOM     22  H   LIG d   1      10.275   7.625   1.692  0.00  0.00     0.029 H 
ENDROOT
BRANCH  11  23
ATOM     23  C   LIG d   1      11.056   6.284  -2.375  0.00  0.00    -0.044 C 
ATOM     24  H   LIG d   1      11.290   6.916  -3.232  0.00  0.00     0.027 H 
ATOM     25  H   LIG d   1      11.937   5.705  -2.100  0.00  0.00     0.027 H 
BRANCH  23  26
ATOM     26  C   LIG d   1       9.915   5.333  -2.739  0.00  0.00    -0.020 C 
ATOM     27  H   LIG d   1       9.181   5.319  -1.932  0.00  0.00     0.030 H 
ATOM     28  H   LIG d   1       9.437   5.672  -3.658  0.00  0.00     0.030 H 
BRANCH  26  29
ATOM     29  C   LIG d   1      10.471   3.922  -2.944  0.00  0.00     0.081 C 
BRANCH  29  30
ATOM     30  C   LIG d   1      11.623   3.970  -3.951  0.00  0.00    -0.033 C 
ATOM     31  H   LIG d   1      12.506   3.502  -3.515  0.00  0.00     0.026 H 
ATOM     32  H   LIG d   1      11.337   3.435  -4.856  0.00  0.00     0.026 H 
ATOM     33  H   LIG d   1      11.847   5.008  -4.198  0.00  0.00     0.026 H 
ENDBRANCH  29  30
BRANCH  29  34
ATOM     34  C   LIG d   1       9.383   3.023  -3.470  0.00  0.00    -0.060 C 
ATOM     35  C   LIG d   1       8.902   3.210  -4.674  0.00  0.00    -0.100 C 
ATOM     36  H   LIG d   1       8.123   2.566  -5.051  0.00  0.00     0.053 H 
ATOM     37  H   LIG d   1       9.287   4.010  -5.291  0.00  0.00     0.053 H 
ATOM     38  H   LIG d   1       8.998   2.224  -2.854  0.00  0.00     0.059 H 
ENDBRANCH  29  34
BRANCH  29  39
ATOM     39  O   LIG d   1      10.950   3.413  -1.698  0.00  0.00    -0.385 OA
ATOM     40  H   LIG d   1      10.249   3.175  -1.075  0.00  0.00     0.211 HD
ENDBRANCH  29  39
ENDBRANCH  26  29
ENDBRANCH  23  26
ENDBRANCH  11  23
BRANCH   1  41
ATOM     41  C   LIG d   1      12.401   8.689  -2.051  0.00  0.00    -0.059 C 
ATOM     42  H   LIG d   1      12.860   9.632  -1.754  0.00  0.00     0.024 H 
ATOM     43  H   LIG d   1      12.981   7.859  -1.649  0.00  0.00     0.024 H 
ATOM     44  H   LIG d   1      12.380   8.623  -3.139  0.00  0.00     0.024 H 
ENDBRANCH   1  41
BRANCH  10  45
ATOM     45  C   LIG d   1      12.685   6.104  -0.197  0.00  0.00    -0.036 C 
ATOM     46  H   LIG d   1      13.301   6.922  -0.572  0.00  0.00     0.026 H 
ATOM     47  H   LIG d   1      13.116   5.720   0.728  0.00  0.00     0.026 H 
ATOM     48  H   LIG d   1      12.648   5.307  -0.939  0.00  0.00     0.026 H 
ENDBRANCH  10  45
BRANCH  10  49
ATOM     49  O   LIG d   1      10.484   5.464   0.479  0.00  0.00    -0.389 OA
ATOM     50  H   LIG d   1      10.612   4.687  -0.082  0.00  0.00     0.210 HD
ENDBRANCH  10  49
BRANCH   5  51
ATOM     51  C   LIG d   1      10.260  11.674   0.762  0.00  0.00    -0.059 C 
ATOM     52  H   LIG d   1      10.983  11.642   1.578  0.00  0.00     0.024 H 
ATOM     53  H   LIG d   1      10.030  12.712   0.520  0.00  0.00     0.024 H 
ATOM     54  H   LIG d   1       9.348  11.161   1.065  0.00  0.00     0.024 H 
ENDBRANCH   5  51
BRANCH   5  55
ATOM     55  C   LIG d   1      12.291  11.474  -0.635  0.00  0.00    -0.059 C 
ATOM     56  H   LIG d   1      12.771  10.959  -1.468  0.00  0.00     0.024 H 
ATOM     57  H   LIG d   1      12.283  12.547  -0.828  0.00  0.00     0.024 H 
ATOM     58  H   LIG d   1      12.844  11.274   0.283  0.00  0.00     0.024 H 
ENDBRANCH   5  55
TORSDOF 11
ENDMDL
MODEL 10
REMARK VINA RESULT:      -4.6      2.948      6.095
REMARK  11 active torsions:
REMARK  status: ('A' for Active; 'I' for Inactive)
REMARK    1  A    between atoms: C_1  and  C_2 
REMARK    2  A    between atoms: C_6  and  C_23 
REMARK    3  A    between atoms: C_6  and  C_24 
REMARK    4  A    between atoms: C_11  and  C_21 
REMARK    5  A    between atoms: C_11  and  O_22 
REMARK    6  A    between atoms: C_12  and  C_14 
REMARK    7  A    between atoms: C_14  and  C_15 
REMARK    8  A    between atoms: C_15  and  C_16 
REMARK    9  A    between atoms: C_16  and  C_17 
REMARK   10  A    between atoms: C_16  and  C_18 
REMARK   11  A    between atoms: C_16  and  O_20 
ROOT
ATOM      1  C   LIG d   1       4.040  -2.526  -8.192  0.00  0.00    -0.023 C 
ATOM      2  C   LIG d   1       4.042  -3.922  -7.549  0.00  0.00    -0.047 C 
ATOM      3  C   LIG d   1       4.072  -4.993  -8.639  0.00  0.00    -0.052 C 
ATOM      4  C   LIG d   1       2.816  -4.894  -9.495  0.00  0.00    -0.048 C 
ATOM      5  C   LIG d   1       2.669  -3.509 -10.125  0.00  0.00    -0.032 C 
ATOM      6  C   LIG d   1       2.828  -2.403  -9.103  0.00  0.00    -0.030 C 
ATOM      7  H   LIG d   1       1.932  -2.455  -8.437  0.00  0.00     0.031 H 
ATOM      8  C   LIG d   1       2.799  -1.013  -9.735  0.00  0.00    -0.047 C 
ATOM      9  C   LIG d   1       2.584   0.015  -8.627  0.00  0.00    -0.024 C 
ATOM     10  C   LIG d   1       3.631  -0.075  -7.530  0.00  0.00     0.067 C 
ATOM     11  C   LIG d   1       3.946  -1.487  -7.072  0.00  0.00    -0.007 C 
ATOM     12  H   LIG d   1       3.162  -1.815  -6.372  0.00  0.00     0.033 H 
ATOM     13  H   LIG d   1       4.919  -4.036  -6.914  0.00  0.00     0.027 H 
ATOM     14  H   LIG d   1       3.139  -4.038  -6.949  0.00  0.00     0.027 H 
ATOM     15  H   LIG d   1       4.963  -4.905  -9.251  0.00  0.00     0.027 H 
ATOM     16  H   LIG d   1       4.091  -5.980  -8.155  0.00  0.00     0.027 H 
ATOM     17  H   LIG d   1       2.859  -5.644 -10.290  0.00  0.00     0.027 H 
ATOM     18  H   LIG d   1       1.937  -5.099  -8.876  0.00  0.00     0.027 H 
ATOM     19  H   LIG d   1       3.720  -0.798 -10.266  0.00  0.00     0.027 H 
ATOM     20  H   LIG d   1       1.968  -0.938 -10.441  0.00  0.00     0.027 H 
ATOM     21  H   LIG d   1       2.606   1.019  -9.068  0.00  0.00     0.029 H 
ATOM     22  H   LIG d   1       1.588  -0.135  -8.192  0.00  0.00     0.029 H 
ENDROOT
BRANCH  11  23
ATOM     23  C   LIG d   1       5.276  -1.467  -6.301  0.00  0.00    -0.044 C 
ATOM     24  H   LIG d   1       6.003  -2.097  -6.813  0.00  0.00     0.027 H 
ATOM     25  H   LIG d   1       5.652  -0.445  -6.251  0.00  0.00     0.027 H 
BRANCH  23  26
ATOM     26  C   LIG d   1       5.051  -1.997  -4.883  0.00  0.00    -0.020 C 
ATOM     27  H   LIG d   1       3.994  -2.222  -4.742  0.00  0.00     0.030 H 
ATOM     28  H   LIG d   1       5.638  -2.903  -4.736  0.00  0.00     0.030 H 
BRANCH  26  29
ATOM     29  C   LIG d   1       5.486  -0.938  -3.868  0.00  0.00     0.081 C 
BRANCH  29  30
ATOM     30  C   LIG d   1       7.010  -0.960  -3.728  0.00  0.00    -0.033 C 
ATOM     31  H   LIG d   1       7.424  -1.718  -4.393  0.00  0.00     0.026 H 
ATOM     32  H   LIG d   1       7.414   0.017  -3.994  0.00  0.00     0.026 H 
ATOM     33  H   LIG d   1       7.277  -1.196  -2.698  0.00  0.00     0.026 H 
ENDBRANCH  29  30
BRANCH  29  34
ATOM     34  C   LIG d   1       4.855  -1.233  -2.532  0.00  0.00    -0.060 C 
ATOM     35  C   LIG d   1       3.870  -2.093  -2.447  0.00  0.00    -0.100 C 
ATOM     36  H   LIG d   1       3.418  -2.305  -1.490  0.00  0.00     0.053 H 
ATOM     37  H   LIG d   1       3.509  -2.589  -3.336  0.00  0.00     0.053 H 
ATOM     38  H   LIG d   1       5.216  -0.737  -1.643  0.00  0.00     0.059 H 
ENDBRANCH  29  34
BRANCH  29  39
ATOM     39  O   LIG d   1       5.068   0.353  -4.317  0.00  0.00    -0.385 OA
ATOM     40  H   LIG d   1       4.457   0.330  -5.066  0.00  0.00     0.211 HD
ENDBRANCH  29  39
ENDBRANCH  26  29
ENDBRANCH  23  26
ENDBRANCH  11  23
BRANCH   1  41
ATOM     41  C   LIG d   1       5.364  -2.341  -8.933  0.00  0.00    -0.059 C 
ATOM     42  H   LIG d   1       6.186  -2.347  -8.217  0.00  0.00     0.024 H 
ATOM     43  H   LIG d   1       5.497  -3.154  -9.646  0.00  0.00     0.024 H 
ATOM     44  H   LIG d   1       5.352  -1.390  -9.465  0.00  0.00     0.024 H 
ENDBRANCH   1  41
BRANCH  10  45
ATOM     45  C   LIG d   1       4.903   0.665  -7.957  0.00  0.00    -0.036 C 
ATOM     46  H   LIG d   1       5.027   1.559  -7.344  0.00  0.00     0.026 H 
ATOM     47  H   LIG d   1       5.766   0.012  -7.825  0.00  0.00     0.026 H 
ATOM     48  H   LIG d   1       4.823   0.953  -9.005  0.00  0.00     0.026 H 
ENDBRANCH  10  45
BRANCH  10  49
ATOM     49  O   LIG d   1       3.107   0.639  -6.381  0.00  0.00    -0.389 OA
ATOM     50  H   LIG d   1       2.223   0.357  -6.114  0.00  0.00     0.210 HD
ENDBRANCH  10  49
BRANCH   5  51
ATOM     51  C   LIG d   1       1.226  -3.439 -10.686  0.00  0.00    -0.059 C 
ATOM     52  H   LIG d   1       0.718  -4.386 -10.504  0.00  0.00     0.024 H 
ATOM     53  H   LIG d   1       0.682  -2.634 -10.191  0.00  0.00     0.024 H 
ATOM     54  H   LIG d   1       1.262  -3.246 -11.758  0.00  0.00     0.024 H 
ENDBRANCH   5  51
BRANCH   5  55
ATOM     55  C   LIG d   1       3.617  -3.367 -11.313  0.00  0.00    -0.059 C 
ATOM     56  H   LIG d   1       3.159  -3.811 -12.198  0.00  0.00     0.024 H 
ATOM     57  H   LIG d   1       3.815  -2.312 -11.498  0.00  0.00     0.024 H 
ATOM     58  H   LIG d   1       4.553  -3.880 -11.093  0.00  0.00     0.024 H 
ENDBRANCH   5  55
TORSDOF 11
ENDMDL
