MODEL 1
REMARK VINA RESULT:      -6.4      0.000      0.000
REMARK  6 active torsions:
REMARK  status: ('A' for Active; 'I' for Inactive)
REMARK    1  A    between atoms: C_1  and  C_2 
REMARK    2  A    between atoms: C_6  and  C_11 
REMARK    3  A    between atoms: C_12  and  O_14 
REMARK    4  A    between atoms: O_14  and  C_15 
REMARK    5  A    between atoms: C_15  and  C_16 
REMARK       I    between atoms: C_16  and  N_18 
REMARK    6  A    between atoms: C_21  and  C_24 
REMARK       I    between atoms: C_24  and  N_26 
ROOT
ATOM      1  C   LIG d   1       6.317  -3.251  -6.586  0.00  0.00     0.165 C 
ATOM      2  H   LIG d   1       7.006  -2.621  -7.146  0.00  0.00     0.080 H 
ATOM      3  H   LIG d   1       6.650  -4.288  -6.637  0.00  0.00     0.080 H 
ENDROOT
BRANCH   1   4
ATOM      4  O   LIG d   1       6.286  -2.828  -5.221  0.00  0.00    -0.482 OA
BRANCH   4   5
ATOM      5  C   LIG d   1       6.740  -1.578  -4.953  0.00  0.00     0.132 A 
ATOM      6  C   LIG d   1       6.125  -0.799  -3.962  0.00  0.00     0.062 A 
ATOM      7  C   LIG d   1       6.602   0.497  -3.690  0.00  0.00     0.143 A 
ATOM      8  C   LIG d   1       4.986  -1.310  -3.198  0.00  0.00    -0.029 A 
ATOM      9  C   LIG d   1       7.682   0.990  -4.408  0.00  0.00    -0.015 A 
ATOM     10  O   LIG d   1       6.009   1.245  -2.735  0.00  0.00    -0.422 OA
ATOM     11  C   LIG d   1       8.280   0.214  -5.381  0.00  0.00    -0.043 A 
ATOM     12  H   LIG d   1       8.055   1.983  -4.206  0.00  0.00     0.066 H 
ATOM     13  C   LIG d   1       7.812  -1.059  -5.659  0.00  0.00    -0.016 A 
ATOM     14  H   LIG d   1       8.288  -1.651  -6.425  0.00  0.00     0.066 H 
ATOM     15  C   LIG d   1       4.964   0.782  -2.033  0.00  0.00     0.338 A 
ATOM     16  C   LIG d   1       4.434  -0.506  -2.253  0.00  0.00     0.027 A 
ATOM     17  O   LIG d   1       4.460   1.493  -1.181  0.00  0.00    -0.245 OA
ATOM     18  H   LIG d   1       3.592  -0.852  -1.672  0.00  0.00     0.069 H 
BRANCH  11  19
ATOM     19  C   LIG d   1       9.453   0.762  -6.154  0.00  0.00    -0.040 C 
ATOM     20  H   LIG d   1      10.297   0.077  -6.068  0.00  0.00     0.028 H 
ATOM     21  H   LIG d   1       9.178   0.869  -7.203  0.00  0.00     0.028 H 
ATOM     22  H   LIG d   1       9.731   1.735  -5.750  0.00  0.00     0.028 H 
ENDBRANCH  11  19
BRANCH   8  23
ATOM     23  C   LIG d   1       4.439  -2.690  -3.456  0.00  0.00    -0.039 C 
ATOM     24  H   LIG d   1       4.980  -3.415  -2.846  0.00  0.00     0.028 H 
ATOM     25  H   LIG d   1       3.381  -2.716  -3.195  0.00  0.00     0.028 H 
ATOM     26  H   LIG d   1       4.561  -2.939  -4.509  0.00  0.00     0.028 H 
ENDBRANCH   8  23
ENDBRANCH   4   5
ENDBRANCH   1   4
BRANCH   1  27
ATOM     27  C   LIG d   1       4.936  -3.137  -7.177  0.00  0.00     0.253 C 
ATOM     28  O   LIG d   1       4.056  -3.889  -6.814  0.00  0.00    -0.272 OA
ATOM     29  N   LIG d   1       4.679  -2.199  -8.110  0.00  0.00    -0.299 N 
ATOM     30  C   LIG d   1       3.337  -2.074  -8.697  0.00  0.00     0.015 C 
ATOM     31  C   LIG d   1       5.735  -1.285  -8.565  0.00  0.00     0.015 C 
ATOM     32  C   LIG d   1       2.867  -0.620  -8.538  0.00  0.00    -0.026 C 
ATOM     33  H   LIG d   1       3.374  -2.336  -9.754  0.00  0.00     0.046 H 
ATOM     34  H   LIG d   1       2.648  -2.742  -8.178  0.00  0.00     0.046 H 
ATOM     35  C   LIG d   1       3.910   0.316  -9.152  0.00  0.00     0.038 C 
ATOM     36  H   LIG d   1       2.747  -0.388  -7.480  0.00  0.00     0.029 H 
ATOM     37  H   LIG d   1       1.914  -0.490  -9.051  0.00  0.00     0.029 H 
ATOM     38  C   LIG d   1       5.240   0.156  -8.412  0.00  0.00    -0.026 C 
ATOM     39  H   LIG d   1       4.048   0.067 -10.204  0.00  0.00     0.040 H 
ATOM     40  H   LIG d   1       5.097   0.382  -7.355  0.00  0.00     0.029 H 
ATOM     41  H   LIG d   1       5.976   0.841  -8.834  0.00  0.00     0.029 H 
ATOM     42  H   LIG d   1       6.630  -1.430  -7.959  0.00  0.00     0.046 H 
ATOM     43  H   LIG d   1       5.964  -1.484  -9.612  0.00  0.00     0.046 H 
BRANCH  35  44
ATOM     44  C   LIG d   1       3.437   1.742  -9.032  0.00  0.00     0.214 C 
ATOM     45  O   LIG d   1       3.570   2.507  -9.963  0.00  0.00    -0.276 OA
ATOM     46  N   LIG d   1       2.864   2.167  -7.888  0.00  0.00    -0.329 N 
ATOM     47  H   LIG d   1       2.756   1.555  -7.143  0.00  0.00     0.145 HD
ATOM     48  H   LIG d   1       2.558   3.084  -7.810  0.00  0.00     0.145 HD
ENDBRANCH  35  44
ENDBRANCH   1  27
TORSDOF 6
ENDMDL
MODEL 2
REMARK VINA RESULT:      -6.3      3.895      6.884
REMARK  6 active torsions:
REMARK  status: ('A' for Active; 'I' for Inactive)
REMARK    1  A    between atoms: C_1  and  C_2 
REMARK    2  A    between atoms: C_6  and  C_11 
REMARK    3  A    between atoms: C_12  and  O_14 
REMARK    4  A    between atoms: O_14  and  C_15 
REMARK    5  A    between atoms: C_15  and  C_16 
REMARK       I    between atoms: C_16  and  N_18 
REMARK    6  A    between atoms: C_21  and  C_24 
REMARK       I    between atoms: C_24  and  N_26 
ROOT
ATOM      1  C   LIG d   1       8.677   0.902  -4.266  0.00  0.00     0.165 C 
ATOM      2  H   LIG d   1       8.271   1.169  -3.292  0.00  0.00     0.080 H 
ATOM      3  H   LIG d   1       9.684   0.502  -4.144  0.00  0.00     0.080 H 
ENDROOT
BRANCH   1   4
ATOM      4  O   LIG d   1       7.844  -0.086  -4.875  0.00  0.00    -0.482 OA
BRANCH   4   5
ATOM      5  C   LIG d   1       6.729  -0.457  -4.196  0.00  0.00     0.132 A 
ATOM      6  C   LIG d   1       6.123  -1.696  -4.453  0.00  0.00     0.062 A 
ATOM      7  C   LIG d   1       4.967  -2.072  -3.744  0.00  0.00     0.143 A 
ATOM      8  C   LIG d   1       6.673  -2.613  -5.451  0.00  0.00    -0.029 A 
ATOM      9  C   LIG d   1       4.439  -1.209  -2.794  0.00  0.00    -0.015 A 
ATOM     10  O   LIG d   1       4.386  -3.265  -3.991  0.00  0.00    -0.422 OA
ATOM     11  C   LIG d   1       5.044   0.008  -2.550  0.00  0.00    -0.043 A 
ATOM     12  H   LIG d   1       3.552  -1.490  -2.246  0.00  0.00     0.066 H 
ATOM     13  C   LIG d   1       6.178   0.388  -3.249  0.00  0.00    -0.016 A 
ATOM     14  H   LIG d   1       6.636   1.344  -3.049  0.00  0.00     0.066 H 
ATOM     15  C   LIG d   1       4.885  -4.110  -4.906  0.00  0.00     0.338 A 
ATOM     16  C   LIG d   1       6.039  -3.798  -5.652  0.00  0.00     0.027 A 
ATOM     17  O   LIG d   1       4.327  -5.176  -5.096  0.00  0.00    -0.245 OA
ATOM     18  H   LIG d   1       6.419  -4.498  -6.383  0.00  0.00     0.069 H 
BRANCH  11  19
ATOM     19  C   LIG d   1       4.459   0.936  -1.516  0.00  0.00    -0.040 C 
ATOM     20  H   LIG d   1       3.870   1.708  -2.013  0.00  0.00     0.028 H 
ATOM     21  H   LIG d   1       3.820   0.371  -0.840  0.00  0.00     0.028 H 
ATOM     22  H   LIG d   1       5.266   1.402  -0.950  0.00  0.00     0.028 H 
ENDBRANCH  11  19
BRANCH   8  23
ATOM     23  C   LIG d   1       7.908  -2.252  -6.236  0.00  0.00    -0.039 C 
ATOM     24  H   LIG d   1       8.775  -2.748  -5.798  0.00  0.00     0.028 H 
ATOM     25  H   LIG d   1       7.789  -2.577  -7.270  0.00  0.00     0.028 H 
ATOM     26  H   LIG d   1       8.054  -1.173  -6.209  0.00  0.00     0.028 H 
ENDBRANCH   8  23
ENDBRANCH   4   5
ENDBRANCH   1   4
BRANCH   1  27
ATOM     27  C   LIG d   1       8.727   2.126  -5.143  0.00  0.00     0.253 C 
ATOM     28  O   LIG d   1       8.087   2.162  -6.172  0.00  0.00    -0.272 OA
ATOM     29  N   LIG d   1       9.482   3.183  -4.782  0.00  0.00    -0.299 N 
ATOM     30  C   LIG d   1       9.540   4.385  -5.626  0.00  0.00     0.015 C 
ATOM     31  C   LIG d   1      10.268   3.153  -3.541  0.00  0.00     0.015 C 
ATOM     32  C   LIG d   1       9.190   5.606  -4.762  0.00  0.00    -0.026 C 
ATOM     33  H   LIG d   1      10.545   4.498  -6.032  0.00  0.00     0.046 H 
ATOM     34  H   LIG d   1       8.823   4.294  -6.442  0.00  0.00     0.046 H 
ATOM     35  C   LIG d   1      10.119   5.647  -3.546  0.00  0.00     0.038 C 
ATOM     36  H   LIG d   1       8.156   5.533  -4.427  0.00  0.00     0.029 H 
ATOM     37  H   LIG d   1       9.320   6.515  -5.350  0.00  0.00     0.029 H 
ATOM     38  C   LIG d   1       9.914   4.386  -2.703  0.00  0.00    -0.026 C 
ATOM     39  H   LIG d   1      11.155   5.695  -3.882  0.00  0.00     0.040 H 
ATOM     40  H   LIG d   1       8.872   4.325  -2.388  0.00  0.00     0.029 H 
ATOM     41  H   LIG d   1      10.558   4.427  -1.825  0.00  0.00     0.029 H 
ATOM     42  H   LIG d   1      10.029   2.249  -2.979  0.00  0.00     0.046 H 
ATOM     43  H   LIG d   1      11.330   3.167  -3.781  0.00  0.00     0.046 H 
BRANCH  35  44
ATOM     44  C   LIG d   1       9.804   6.863  -2.715  0.00  0.00     0.214 C 
ATOM     45  O   LIG d   1       9.633   6.753  -1.519  0.00  0.00    -0.276 OA
ATOM     46  N   LIG d   1       9.712   8.074  -3.300  0.00  0.00    -0.329 N 
ATOM     47  H   LIG d   1       9.849   8.163  -4.256  0.00  0.00     0.145 HD
ATOM     48  H   LIG d   1       9.510   8.858  -2.764  0.00  0.00     0.145 HD
ENDBRANCH  35  44
ENDBRANCH   1  27
TORSDOF 6
ENDMDL
MODEL 3
REMARK VINA RESULT:      -6.0      3.867      6.428
REMARK  6 active torsions:
REMARK  status: ('A' for Active; 'I' for Inactive)
REMARK    1  A    between atoms: C_1  and  C_2 
REMARK    2  A    between atoms: C_6  and  C_11 
REMARK    3  A    between atoms: C_12  and  O_14 
REMARK    4  A    between atoms: O_14  and  C_15 
REMARK    5  A    between atoms: C_15  and  C_16 
REMARK       I    between atoms: C_16  and  N_18 
REMARK    6  A    between atoms: C_21  and  C_24 
REMARK       I    between atoms: C_24  and  N_26 
ROOT
ATOM      1  C   LIG d   1       8.792  -0.009  -5.222  0.00  0.00     0.165 C 
ATOM      2  H   LIG d   1       9.822  -0.257  -4.967  0.00  0.00     0.080 H 
ATOM      3  H   LIG d   1       8.476  -0.605  -6.078  0.00  0.00     0.080 H 
ENDROOT
BRANCH   1   4
ATOM      4  O   LIG d   1       7.945  -0.290  -4.107  0.00  0.00    -0.482 OA
BRANCH   4   5
ATOM      5  C   LIG d   1       7.071  -1.320  -4.240  0.00  0.00     0.132 A 
ATOM      6  C   LIG d   1       5.729  -1.163  -3.860  0.00  0.00     0.062 A 
ATOM      7  C   LIG d   1       4.830  -2.236  -4.001  0.00  0.00     0.143 A 
ATOM      8  C   LIG d   1       5.242   0.104  -3.315  0.00  0.00    -0.029 A 
ATOM      9  C   LIG d   1       5.283  -3.442  -4.518  0.00  0.00    -0.015 A 
ATOM     10  O   LIG d   1       3.539  -2.084  -3.636  0.00  0.00    -0.422 OA
ATOM     11  C   LIG d   1       6.605  -3.584  -4.888  0.00  0.00    -0.043 A 
ATOM     12  H   LIG d   1       4.600  -4.270  -4.630  0.00  0.00     0.066 H 
ATOM     13  C   LIG d   1       7.498  -2.535  -4.746  0.00  0.00    -0.016 A 
ATOM     14  H   LIG d   1       8.529  -2.663  -5.037  0.00  0.00     0.066 H 
ATOM     15  C   LIG d   1       3.086  -0.924  -3.135  0.00  0.00     0.338 A 
ATOM     16  C   LIG d   1       3.932   0.191  -2.966  0.00  0.00     0.027 A 
ATOM     17  O   LIG d   1       1.913  -0.833  -2.819  0.00  0.00    -0.245 OA
ATOM     18  H   LIG d   1       3.539   1.112  -2.560  0.00  0.00     0.069 H 
BRANCH  11  19
ATOM     19  C   LIG d   1       7.085  -4.899  -5.448  0.00  0.00    -0.040 C 
ATOM     20  H   LIG d   1       6.274  -5.376  -6.000  0.00  0.00     0.028 H 
ATOM     21  H   LIG d   1       7.926  -4.724  -6.118  0.00  0.00     0.028 H 
ATOM     22  H   LIG d   1       7.399  -5.548  -4.630  0.00  0.00     0.028 H 
ENDBRANCH  11  19
BRANCH   8  23
ATOM     23  C   LIG d   1       6.168   1.281  -3.144  0.00  0.00    -0.039 C 
ATOM     24  H   LIG d   1       6.230   1.544  -2.087  0.00  0.00     0.028 H 
ATOM     25  H   LIG d   1       7.160   1.018  -3.510  0.00  0.00     0.028 H 
ATOM     26  H   LIG d   1       5.785   2.130  -3.708  0.00  0.00     0.028 H 
ENDBRANCH   8  23
ENDBRANCH   4   5
ENDBRANCH   1   4
BRANCH   1  27
ATOM     27  C   LIG d   1       8.699   1.455  -5.567  0.00  0.00     0.253 C 
ATOM     28  O   LIG d   1       7.828   1.848  -6.314  0.00  0.00    -0.272 OA
ATOM     29  N   LIG d   1       9.584   2.327  -5.046  0.00  0.00    -0.299 N 
ATOM     30  C   LIG d   1       9.506   3.758  -5.372  0.00  0.00     0.015 C 
ATOM     31  C   LIG d   1      10.649   1.866  -4.144  0.00  0.00     0.015 C 
ATOM     32  C   LIG d   1       9.456   4.557  -4.061  0.00  0.00    -0.026 C 
ATOM     33  H   LIG d   1      10.384   4.050  -5.948  0.00  0.00     0.046 H 
ATOM     34  H   LIG d   1       8.605   3.952  -5.954  0.00  0.00     0.046 H 
ATOM     35  C   LIG d   1      10.657   4.176  -3.192  0.00  0.00     0.038 C 
ATOM     36  H   LIG d   1       8.534   4.328  -3.527  0.00  0.00     0.029 H 
ATOM     37  H   LIG d   1       9.493   5.623  -4.284  0.00  0.00     0.029 H 
ATOM     38  C   LIG d   1      10.590   2.685  -2.851  0.00  0.00    -0.026 C 
ATOM     39  H   LIG d   1      11.579   4.382  -3.736  0.00  0.00     0.040 H 
ATOM     40  H   LIG d   1       9.656   2.474  -2.329  0.00  0.00     0.029 H 
ATOM     41  H   LIG d   1      11.433   2.419  -2.213  0.00  0.00     0.029 H 
ATOM     42  H   LIG d   1      10.501   0.810  -3.915  0.00  0.00     0.046 H 
ATOM     43  H   LIG d   1      11.618   2.007  -4.622  0.00  0.00     0.046 H 
BRANCH  35  44
ATOM     44  C   LIG d   1      10.633   4.983  -1.920  0.00  0.00     0.214 C 
ATOM     45  O   LIG d   1       9.961   5.990  -1.853  0.00  0.00    -0.276 OA
ATOM     46  N   LIG d   1      11.359   4.585  -0.856  0.00  0.00    -0.329 N 
ATOM     47  H   LIG d   1      11.896   3.779  -0.909  0.00  0.00     0.145 HD
ATOM     48  H   LIG d   1      11.343   5.104  -0.037  0.00  0.00     0.145 HD
ENDBRANCH  35  44
ENDBRANCH   1  27
TORSDOF 6
ENDMDL
MODEL 4
REMARK VINA RESULT:      -6.0      2.405      4.667
REMARK  6 active torsions:
REMARK  status: ('A' for Active; 'I' for Inactive)
REMARK    1  A    between atoms: C_1  and  C_2 
REMARK    2  A    between atoms: C_6  and  C_11 
REMARK    3  A    between atoms: C_12  and  O_14 
REMARK    4  A    between atoms: O_14  and  C_15 
REMARK    5  A    between atoms: C_15  and  C_16 
REMARK       I    between atoms: C_16  and  N_18 
REMARK    6  A    between atoms: C_21  and  C_24 
REMARK       I    between atoms: C_24  and  N_26 
ROOT
ATOM      1  C   LIG d   1       6.380   0.996  -7.409  0.00  0.00     0.165 C 
ATOM      2  H   LIG d   1       5.628   1.378  -6.719  0.00  0.00     0.080 H 
ATOM      3  H   LIG d   1       7.325   1.511  -7.238  0.00  0.00     0.080 H 
ENDROOT
BRANCH   1   4
ATOM      4  O   LIG d   1       6.555  -0.405  -7.193  0.00  0.00    -0.482 OA
BRANCH   4   5
ATOM      5  C   LIG d   1       5.965  -0.939  -6.094  0.00  0.00     0.132 A 
ATOM      6  C   LIG d   1       5.359  -2.203  -6.159  0.00  0.00     0.062 A 
ATOM      7  C   LIG d   1       4.750  -2.749  -5.014  0.00  0.00     0.143 A 
ATOM      8  C   LIG d   1       5.349  -2.972  -7.403  0.00  0.00    -0.029 A 
ATOM      9  C   LIG d   1       4.756  -2.027  -3.829  0.00  0.00    -0.015 A 
ATOM     10  O   LIG d   1       4.168  -3.966  -5.077  0.00  0.00    -0.422 OA
ATOM     11  C   LIG d   1       5.354  -0.785  -3.777  0.00  0.00    -0.043 A 
ATOM     12  H   LIG d   1       4.290  -2.439  -2.945  0.00  0.00     0.066 H 
ATOM     13  C   LIG d   1       5.951  -0.237  -4.901  0.00  0.00    -0.016 A 
ATOM     14  H   LIG d   1       6.411   0.737  -4.845  0.00  0.00     0.066 H 
ATOM     15  C   LIG d   1       4.155  -4.676  -6.216  0.00  0.00     0.338 A 
ATOM     16  C   LIG d   1       4.747  -4.190  -7.400  0.00  0.00     0.027 A 
ATOM     17  O   LIG d   1       3.619  -5.770  -6.227  0.00  0.00    -0.245 OA
ATOM     18  H   LIG d   1       4.720  -4.783  -8.303  0.00  0.00     0.069 H 
BRANCH  11  19
ATOM     19  C   LIG d   1       5.353  -0.011  -2.483  0.00  0.00    -0.040 C 
ATOM     20  H   LIG d   1       6.215   0.658  -2.459  0.00  0.00     0.028 H 
ATOM     21  H   LIG d   1       4.438   0.575  -2.411  0.00  0.00     0.028 H 
ATOM     22  H   LIG d   1       5.408  -0.705  -1.645  0.00  0.00     0.028 H 
ENDBRANCH  11  19
BRANCH   8  23
ATOM     23  C   LIG d   1       5.988  -2.428  -8.655  0.00  0.00    -0.039 C 
ATOM     24  H   LIG d   1       5.247  -1.869  -9.228  0.00  0.00     0.028 H 
ATOM     25  H   LIG d   1       6.811  -1.767  -8.384  0.00  0.00     0.028 H 
ATOM     26  H   LIG d   1       6.366  -3.252  -9.258  0.00  0.00     0.028 H 
ENDBRANCH   8  23
ENDBRANCH   4   5
ENDBRANCH   1   4
BRANCH   1  27
ATOM     27  C   LIG d   1       5.928   1.233  -8.826  0.00  0.00     0.253 C 
ATOM     28  O   LIG d   1       6.738   1.520  -9.682  0.00  0.00    -0.272 OA
ATOM     29  N   LIG d   1       4.623   1.125  -9.144  0.00  0.00    -0.299 N 
ATOM     30  C   LIG d   1       4.166   1.353 -10.522  0.00  0.00     0.015 C 
ATOM     31  C   LIG d   1       3.628   0.784  -8.118  0.00  0.00     0.015 C 
ATOM     32  C   LIG d   1       3.353   0.131 -10.976  0.00  0.00    -0.026 C 
ATOM     33  H   LIG d   1       3.541   2.245 -10.558  0.00  0.00     0.046 H 
ATOM     34  H   LIG d   1       5.029   1.483 -11.176  0.00  0.00     0.046 H 
ATOM     35  C   LIG d   1       2.224  -0.124  -9.975  0.00  0.00     0.038 C 
ATOM     36  H   LIG d   1       4.002  -0.744 -11.023  0.00  0.00     0.029 H 
ATOM     37  H   LIG d   1       2.929   0.323 -11.961  0.00  0.00     0.029 H 
ATOM     38  C   LIG d   1       2.819  -0.426  -8.597  0.00  0.00    -0.026 C 
ATOM     39  H   LIG d   1       1.590   0.760  -9.910  0.00  0.00     0.040 H 
ATOM     40  H   LIG d   1       3.474  -1.295  -8.667  0.00  0.00     0.029 H 
ATOM     41  H   LIG d   1       2.016  -0.630  -7.890  0.00  0.00     0.029 H 
ATOM     42  H   LIG d   1       4.135   0.539  -7.185  0.00  0.00     0.046 H 
ATOM     43  H   LIG d   1       2.960   1.631  -7.962  0.00  0.00     0.046 H 
BRANCH  35  44
ATOM     44  C   LIG d   1       1.401  -1.299 -10.434  0.00  0.00     0.214 C 
ATOM     45  O   LIG d   1       1.549  -2.384  -9.913  0.00  0.00    -0.276 OA
ATOM     46  N   LIG d   1       0.499  -1.145 -11.424  0.00  0.00    -0.329 N 
ATOM     47  H   LIG d   1       0.381  -0.277 -11.841  0.00  0.00     0.145 HD
ATOM     48  H   LIG d   1      -0.031  -1.901 -11.720  0.00  0.00     0.145 HD
ENDBRANCH  35  44
ENDBRANCH   1  27
TORSDOF 6
ENDMDL
MODEL 5
REMARK VINA RESULT:      -6.0      2.641      4.483
REMARK  6 active torsions:
REMARK  status: ('A' for Active; 'I' for Inactive)
REMARK    1  A    between atoms: C_1  and  C_2 
REMARK    2  A    between atoms: C_6  and  C_11 
REMARK    3  A    between atoms: C_12  and  O_14 
REMARK    4  A    between atoms: O_14  and  C_15 
REMARK    5  A    between atoms: C_15  and  C_16 
REMARK       I    between atoms: C_16  and  N_18 
REMARK    6  A    between atoms: C_21  and  C_24 
REMARK       I    between atoms: C_24  and  N_26 
ROOT
ATOM      1  C   LIG d   1       3.050   0.068  -7.022  0.00  0.00     0.165 C 
ATOM      2  H   LIG d   1       2.092  -0.365  -7.308  0.00  0.00     0.080 H 
ATOM      3  H   LIG d   1       2.894   0.817  -6.246  0.00  0.00     0.080 H 
ENDROOT
BRANCH   1   4
ATOM      4  O   LIG d   1       3.908  -0.961  -6.525  0.00  0.00    -0.482 OA
BRANCH   4   5
ATOM      5  C   LIG d   1       4.408  -0.797  -5.274  0.00  0.00     0.132 A 
ATOM      6  C   LIG d   1       5.523  -1.538  -4.855  0.00  0.00     0.062 A 
ATOM      7  C   LIG d   1       6.035  -1.361  -3.556  0.00  0.00     0.143 A 
ATOM      8  C   LIG d   1       6.170  -2.500  -5.747  0.00  0.00    -0.029 A 
ATOM      9  C   LIG d   1       5.428  -0.451  -2.702  0.00  0.00    -0.015 A 
ATOM     10  O   LIG d   1       7.108  -2.075  -3.154  0.00  0.00    -0.422 OA
ATOM     11  C   LIG d   1       4.332   0.272  -3.126  0.00  0.00    -0.043 A 
ATOM     12  H   LIG d   1       5.815  -0.309  -1.704  0.00  0.00     0.066 H 
ATOM     13  C   LIG d   1       3.818   0.099  -4.400  0.00  0.00    -0.016 A 
ATOM     14  H   LIG d   1       2.957   0.670  -4.715  0.00  0.00     0.066 H 
ATOM     15  C   LIG d   1       7.706  -2.958  -3.968  0.00  0.00     0.338 A 
ATOM     16  C   LIG d   1       7.246  -3.185  -5.281  0.00  0.00     0.027 A 
ATOM     17  O   LIG d   1       8.672  -3.579  -3.562  0.00  0.00    -0.245 OA
ATOM     18  H   LIG d   1       7.747  -3.904  -5.914  0.00  0.00     0.069 H 
BRANCH  11  19
ATOM     19  C   LIG d   1       3.681   1.258  -2.188  0.00  0.00    -0.040 C 
ATOM     20  H   LIG d   1       2.781   1.661  -2.652  0.00  0.00     0.028 H 
ATOM     21  H   LIG d   1       3.416   0.755  -1.259  0.00  0.00     0.028 H 
ATOM     22  H   LIG d   1       4.377   2.070  -1.977  0.00  0.00     0.028 H 
ENDBRANCH  11  19
BRANCH   8  23
ATOM     23  C   LIG d   1       5.656  -2.724  -7.147  0.00  0.00    -0.039 C 
ATOM     24  H   LIG d   1       6.445  -2.497  -7.864  0.00  0.00     0.028 H 
ATOM     25  H   LIG d   1       5.353  -3.765  -7.259  0.00  0.00     0.028 H 
ATOM     26  H   LIG d   1       4.801  -2.074  -7.329  0.00  0.00     0.028 H 
ENDBRANCH   8  23
ENDBRANCH   4   5
ENDBRANCH   1   4
BRANCH   1  27
ATOM     27  C   LIG d   1       3.688   0.715  -8.224  0.00  0.00     0.253 C 
ATOM     28  O   LIG d   1       4.680   1.399  -8.090  0.00  0.00    -0.272 OA
ATOM     29  N   LIG d   1       3.155   0.534  -9.449  0.00  0.00    -0.299 N 
ATOM     30  C   LIG d   1       3.765   1.158 -10.631  0.00  0.00     0.015 C 
ATOM     31  C   LIG d   1       1.949  -0.287  -9.627  0.00  0.00     0.015 C 
ATOM     32  C   LIG d   1       4.033   0.065 -11.678  0.00  0.00    -0.026 C 
ATOM     33  H   LIG d   1       3.085   1.903 -11.043  0.00  0.00     0.046 H 
ATOM     34  H   LIG d   1       4.704   1.634 -10.349  0.00  0.00     0.046 H 
ATOM     35  C   LIG d   1       2.731  -0.686 -11.966  0.00  0.00     0.038 C 
ATOM     36  H   LIG d   1       4.778  -0.632 -11.296  0.00  0.00     0.029 H 
ATOM     37  H   LIG d   1       4.398   0.525 -12.595  0.00  0.00     0.029 H 
ATOM     38  C   LIG d   1       2.233  -1.358 -10.684  0.00  0.00    -0.026 C 
ATOM     39  H   LIG d   1       1.978   0.016 -12.323  0.00  0.00     0.040 H 
ATOM     40  H   LIG d   1       2.997  -2.042 -10.312  0.00  0.00     0.029 H 
ATOM     41  H   LIG d   1       1.319  -1.913 -10.896  0.00  0.00     0.029 H 
ATOM     42  H   LIG d   1       1.690  -0.765  -8.682  0.00  0.00     0.046 H 
ATOM     43  H   LIG d   1       1.124   0.343  -9.958  0.00  0.00     0.046 H 
BRANCH  35  44
ATOM     44  C   LIG d   1       2.980  -1.735 -13.019  0.00  0.00     0.214 C 
ATOM     45  O   LIG d   1       4.088  -2.210 -13.152  0.00  0.00    -0.276 OA
ATOM     46  N   LIG d   1       1.970  -2.146 -13.811  0.00  0.00    -0.329 N 
ATOM     47  H   LIG d   1       1.084  -1.767 -13.705  0.00  0.00     0.145 HD
ATOM     48  H   LIG d   1       2.130  -2.822 -14.489  0.00  0.00     0.145 HD
ENDBRANCH  35  44
ENDBRANCH   1  27
TORSDOF 6
ENDMDL
MODEL 6
REMARK VINA RESULT:      -5.9      3.829      5.970
REMARK  6 active torsions:
REMARK  status: ('A' for Active; 'I' for Inactive)
REMARK    1  A    between atoms: C_1  and  C_2 
REMARK    2  A    between atoms: C_6  and  C_11 
REMARK    3  A    between atoms: C_12  and  O_14 
REMARK    4  A    between atoms: O_14  and  C_15 
REMARK    5  A    between atoms: C_15  and  C_16 
REMARK       I    between atoms: C_16  and  N_18 
REMARK    6  A    between atoms: C_21  and  C_24 
REMARK       I    between atoms: C_24  and  N_26 
ROOT
ATOM      1  C   LIG d   1       6.864  -3.564  -5.425  0.00  0.00     0.165 C 
ATOM      2  H   LIG d   1       5.935  -3.850  -5.916  0.00  0.00     0.080 H 
ATOM      3  H   LIG d   1       7.419  -2.879  -6.067  0.00  0.00     0.080 H 
ENDROOT
BRANCH   1   4
ATOM      4  O   LIG d   1       6.567  -2.918  -4.186  0.00  0.00    -0.482 OA
BRANCH   4   5
ATOM      5  C   LIG d   1       6.808  -1.584  -4.111  0.00  0.00     0.132 A 
ATOM      6  C   LIG d   1       5.859  -0.724  -3.540  0.00  0.00     0.062 A 
ATOM      7  C   LIG d   1       6.117   0.657  -3.467  0.00  0.00     0.143 A 
ATOM      8  C   LIG d   1       4.594  -1.238  -3.012  0.00  0.00    -0.029 A 
ATOM      9  C   LIG d   1       7.314   1.155  -3.963  0.00  0.00    -0.015 A 
ATOM     10  O   LIG d   1       5.203   1.484  -2.915  0.00  0.00    -0.422 OA
ATOM     11  C   LIG d   1       8.240   0.298  -4.524  0.00  0.00    -0.043 A 
ATOM     12  H   LIG d   1       7.520   2.213  -3.911  0.00  0.00     0.066 H 
ATOM     13  C   LIG d   1       7.991  -1.062  -4.605  0.00  0.00    -0.016 A 
ATOM     14  H   LIG d   1       8.724  -1.717  -5.050  0.00  0.00     0.066 H 
ATOM     15  C   LIG d   1       4.041   1.019  -2.431  0.00  0.00     0.338 A 
ATOM     16  C   LIG d   1       3.717  -0.353  -2.471  0.00  0.00     0.027 A 
ATOM     17  O   LIG d   1       3.246   1.802  -1.942  0.00  0.00    -0.245 OA
ATOM     18  H   LIG d   1       2.774  -0.699  -2.074  0.00  0.00     0.069 H 
BRANCH  11  19
ATOM     19  C   LIG d   1       9.537   0.851  -5.060  0.00  0.00    -0.040 C 
ATOM     20  H   LIG d   1       9.966   1.541  -4.332  0.00  0.00     0.028 H 
ATOM     21  H   LIG d   1      10.234   0.033  -5.240  0.00  0.00     0.028 H 
ATOM     22  H   LIG d   1       9.347   1.379  -5.994  0.00  0.00     0.028 H 
ENDBRANCH  11  19
BRANCH   8  23
ATOM     23  C   LIG d   1       4.273  -2.709  -3.070  0.00  0.00    -0.039 C 
ATOM     24  H   LIG d   1       3.232  -2.865  -2.786  0.00  0.00     0.028 H 
ATOM     25  H   LIG d   1       4.431  -3.076  -4.084  0.00  0.00     0.028 H 
ATOM     26  H   LIG d   1       4.922  -3.250  -2.382  0.00  0.00     0.028 H 
ENDBRANCH   8  23
ENDBRANCH   4   5
ENDBRANCH   1   4
BRANCH   1  27
ATOM     27  C   LIG d   1       7.695  -4.793  -5.163  0.00  0.00     0.253 C 
ATOM     28  O   LIG d   1       8.779  -4.691  -4.630  0.00  0.00    -0.272 OA
ATOM     29  N   LIG d   1       7.232  -6.007  -5.522  0.00  0.00    -0.299 N 
ATOM     30  C   LIG d   1       8.030  -7.216  -5.274  0.00  0.00     0.015 C 
ATOM     31  C   LIG d   1       5.923  -6.147  -6.175  0.00  0.00     0.015 C 
ATOM     32  C   LIG d   1       7.168  -8.220  -4.493  0.00  0.00    -0.026 C 
ATOM     33  H   LIG d   1       8.336  -7.654  -6.224  0.00  0.00     0.046 H 
ATOM     34  H   LIG d   1       8.913  -6.957  -4.688  0.00  0.00     0.046 H 
ATOM     35  C   LIG d   1       5.868  -8.472  -5.261  0.00  0.00     0.038 C 
ATOM     36  H   LIG d   1       6.935  -7.814  -3.508  0.00  0.00     0.029 H 
ATOM     37  H   LIG d   1       7.713  -9.156  -4.382  0.00  0.00     0.029 H 
ATOM     38  C   LIG d   1       5.087  -7.162  -5.390  0.00  0.00    -0.026 C 
ATOM     39  H   LIG d   1       6.102  -8.854  -6.255  0.00  0.00     0.040 H 
ATOM     40  H   LIG d   1       4.874  -6.767  -4.396  0.00  0.00     0.029 H 
ATOM     41  H   LIG d   1       4.150  -7.347  -5.916  0.00  0.00     0.029 H 
ATOM     42  H   LIG d   1       5.414  -5.183  -6.184  0.00  0.00     0.046 H 
ATOM     43  H   LIG d   1       6.061  -6.500  -7.197  0.00  0.00     0.046 H 
BRANCH  35  44
ATOM     44  C   LIG d   1       5.034  -9.483  -4.518  0.00  0.00     0.214 C 
ATOM     45  O   LIG d   1       3.850  -9.587  -4.758  0.00  0.00    -0.276 OA
ATOM     46  N   LIG d   1       5.605 -10.274  -3.588  0.00  0.00    -0.329 N 
ATOM     47  H   LIG d   1       6.552 -10.191  -3.396  0.00  0.00     0.145 HD
ATOM     48  H   LIG d   1       5.069 -10.925  -3.109  0.00  0.00     0.145 HD
ENDBRANCH  35  44
ENDBRANCH   1  27
TORSDOF 6
ENDMDL
MODEL 7
REMARK VINA RESULT:      -5.8      3.784      6.329
REMARK  6 active torsions:
REMARK  status: ('A' for Active; 'I' for Inactive)
REMARK    1  A    between atoms: C_1  and  C_2 
REMARK    2  A    between atoms: C_6  and  C_11 
REMARK    3  A    between atoms: C_12  and  O_14 
REMARK    4  A    between atoms: O_14  and  C_15 
REMARK    5  A    between atoms: C_15  and  C_16 
REMARK       I    between atoms: C_16  and  N_18 
REMARK    6  A    between atoms: C_21  and  C_24 
REMARK       I    between atoms: C_24  and  N_26 
ROOT
ATOM      1  C   LIG d   1       8.547   0.856  -4.518  0.00  0.00     0.165 C 
ATOM      2  H   LIG d   1       7.860   1.608  -4.134  0.00  0.00     0.080 H 
ATOM      3  H   LIG d   1       9.233   0.551  -3.727  0.00  0.00     0.080 H 
ENDROOT
BRANCH   1   4
ATOM      4  O   LIG d   1       7.807  -0.280  -4.969  0.00  0.00    -0.482 OA
BRANCH   4   5
ATOM      5  C   LIG d   1       6.702  -0.618  -4.257  0.00  0.00     0.132 A 
ATOM      6  C   LIG d   1       6.068  -1.850  -4.476  0.00  0.00     0.062 A 
ATOM      7  C   LIG d   1       4.923  -2.193  -3.733  0.00  0.00     0.143 A 
ATOM      8  C   LIG d   1       6.577  -2.795  -5.471  0.00  0.00    -0.029 A 
ATOM      9  C   LIG d   1       4.433  -1.304  -2.787  0.00  0.00    -0.015 A 
ATOM     10  O   LIG d   1       4.314  -3.379  -3.945  0.00  0.00    -0.422 OA
ATOM     11  C   LIG d   1       5.066  -0.094  -2.580  0.00  0.00    -0.043 A 
ATOM     12  H   LIG d   1       3.555  -1.559  -2.212  0.00  0.00     0.066 H 
ATOM     13  C   LIG d   1       6.189   0.253  -3.311  0.00  0.00    -0.016 A 
ATOM     14  H   LIG d   1       6.669   1.204  -3.140  0.00  0.00     0.066 H 
ATOM     15  C   LIG d   1       4.776  -4.249  -4.857  0.00  0.00     0.338 A 
ATOM     16  C   LIG d   1       5.918  -3.971  -5.636  0.00  0.00     0.027 A 
ATOM     17  O   LIG d   1       4.194  -5.308  -5.013  0.00  0.00    -0.245 OA
ATOM     18  H   LIG d   1       6.266  -4.690  -6.363  0.00  0.00     0.069 H 
BRANCH  11  19
ATOM     19  C   LIG d   1       4.523   0.863  -1.549  0.00  0.00    -0.040 C 
ATOM     20  H   LIG d   1       4.956   0.631  -0.575  0.00  0.00     0.028 H 
ATOM     21  H   LIG d   1       4.783   1.883  -1.828  0.00  0.00     0.028 H 
ATOM     22  H   LIG d   1       3.439   0.764  -1.497  0.00  0.00     0.028 H 
ENDBRANCH  11  19
BRANCH   8  23
ATOM     23  C   LIG d   1       7.799  -2.471  -6.292  0.00  0.00    -0.039 C 
ATOM     24  H   LIG d   1       8.552  -2.007  -5.654  0.00  0.00     0.028 H 
ATOM     25  H   LIG d   1       8.202  -3.388  -6.721  0.00  0.00     0.028 H 
ATOM     26  H   LIG d   1       7.527  -1.783  -7.092  0.00  0.00     0.028 H 
ENDBRANCH   8  23
ENDBRANCH   4   5
ENDBRANCH   1   4
BRANCH   1  27
ATOM     27  C   LIG d   1       9.331   1.432  -5.669  0.00  0.00     0.253 C 
ATOM     28  O   LIG d   1       9.435   0.810  -6.704  0.00  0.00    -0.272 OA
ATOM     29  N   LIG d   1       9.918   2.639  -5.546  0.00  0.00    -0.299 N 
ATOM     30  C   LIG d   1      10.685   3.216  -6.659  0.00  0.00     0.015 C 
ATOM     31  C   LIG d   1       9.806   3.403  -4.296  0.00  0.00     0.015 C 
ATOM     32  C   LIG d   1      10.137   4.620  -6.957  0.00  0.00    -0.026 C 
ATOM     33  H   LIG d   1      11.737   3.283  -6.381  0.00  0.00     0.046 H 
ATOM     34  H   LIG d   1      10.579   2.585  -7.542  0.00  0.00     0.046 H 
ATOM     35  C   LIG d   1      10.167   5.455  -5.675  0.00  0.00     0.038 C 
ATOM     36  H   LIG d   1       9.111   4.543  -7.317  0.00  0.00     0.029 H 
ATOM     37  H   LIG d   1      10.755   5.097  -7.716  0.00  0.00     0.029 H 
ATOM     38  C   LIG d   1       9.272   4.802  -4.618  0.00  0.00    -0.026 C 
ATOM     39  H   LIG d   1      11.189   5.510  -5.301  0.00  0.00     0.040 H 
ATOM     40  H   LIG d   1       8.255   4.724  -5.001  0.00  0.00     0.029 H 
ATOM     41  H   LIG d   1       9.275   5.410  -3.713  0.00  0.00     0.029 H 
ATOM     42  H   LIG d   1       9.118   2.896  -3.618  0.00  0.00     0.046 H 
ATOM     43  H   LIG d   1      10.788   3.485  -3.830  0.00  0.00     0.046 H 
BRANCH  35  44
ATOM     44  C   LIG d   1       9.663   6.844  -5.969  0.00  0.00     0.214 C 
ATOM     45  O   LIG d   1       9.871   7.348  -7.053  0.00  0.00    -0.276 OA
ATOM     46  N   LIG d   1       8.981   7.527  -5.028  0.00  0.00    -0.329 N 
ATOM     47  H   LIG d   1       8.815   7.124  -4.162  0.00  0.00     0.145 HD
ATOM     48  H   LIG d   1       8.656   8.421  -5.218  0.00  0.00     0.145 HD
ENDBRANCH  35  44
ENDBRANCH   1  27
TORSDOF 6
ENDMDL
MODEL 8
REMARK VINA RESULT:      -5.6      4.488      7.527
REMARK  6 active torsions:
REMARK  status: ('A' for Active; 'I' for Inactive)
REMARK    1  A    between atoms: C_1  and  C_2 
REMARK    2  A    between atoms: C_6  and  C_11 
REMARK    3  A    between atoms: C_12  and  O_14 
REMARK    4  A    between atoms: O_14  and  C_15 
REMARK    5  A    between atoms: C_15  and  C_16 
REMARK       I    between atoms: C_16  and  N_18 
REMARK    6  A    between atoms: C_21  and  C_24 
REMARK       I    between atoms: C_24  and  N_26 
ROOT
ATOM      1  C   LIG d   1       4.983  -5.052  -5.951  0.00  0.00     0.165 C 
ATOM      2  H   LIG d   1       4.352  -5.001  -5.065  0.00  0.00     0.080 H 
ATOM      3  H   LIG d   1       4.440  -5.549  -6.756  0.00  0.00     0.080 H 
ENDROOT
BRANCH   1   4
ATOM      4  O   LIG d   1       5.336  -3.730  -6.361  0.00  0.00    -0.482 OA
BRANCH   4   5
ATOM      5  C   LIG d   1       4.812  -2.702  -5.646  0.00  0.00     0.132 A 
ATOM      6  C   LIG d   1       4.343  -1.552  -6.299  0.00  0.00     0.062 A 
ATOM      7  C   LIG d   1       3.802  -0.491  -5.550  0.00  0.00     0.143 A 
ATOM      8  C   LIG d   1       4.405  -1.432  -7.756  0.00  0.00    -0.029 A 
ATOM      9  C   LIG d   1       3.737  -0.595  -4.167  0.00  0.00    -0.015 A 
ATOM     10  O   LIG d   1       3.349   0.614  -6.179  0.00  0.00    -0.422 OA
ATOM     11  C   LIG d   1       4.203  -1.732  -3.536  0.00  0.00    -0.043 A 
ATOM     12  H   LIG d   1       3.323   0.214  -3.585  0.00  0.00     0.066 H 
ATOM     13  C   LIG d   1       4.743  -2.778  -4.266  0.00  0.00    -0.016 A 
ATOM     14  H   LIG d   1       5.105  -3.657  -3.757  0.00  0.00     0.066 H 
ATOM     15  C   LIG d   1       3.404   0.730  -7.515  0.00  0.00     0.338 A 
ATOM     16  C   LIG d   1       3.934  -0.294  -8.327  0.00  0.00     0.027 A 
ATOM     17  O   LIG d   1       2.984   1.746  -8.040  0.00  0.00    -0.245 OA
ATOM     18  H   LIG d   1       3.966  -0.173  -9.400  0.00  0.00     0.069 H 
BRANCH  11  19
ATOM     19  C   LIG d   1       4.128  -1.833  -2.033  0.00  0.00    -0.040 C 
ATOM     20  H   LIG d   1       3.610  -0.959  -1.636  0.00  0.00     0.028 H 
ATOM     21  H   LIG d   1       3.582  -2.734  -1.756  0.00  0.00     0.028 H 
ATOM     22  H   LIG d   1       5.136  -1.876  -1.622  0.00  0.00     0.028 H 
ENDBRANCH  11  19
BRANCH   8  23
ATOM     23  C   LIG d   1       4.978  -2.542  -8.600  0.00  0.00    -0.039 C 
ATOM     24  H   LIG d   1       5.933  -2.861  -8.181  0.00  0.00     0.028 H 
ATOM     25  H   LIG d   1       4.286  -3.385  -8.609  0.00  0.00     0.028 H 
ATOM     26  H   LIG d   1       5.129  -2.184  -9.617  0.00  0.00     0.028 H 
ENDBRANCH   8  23
ENDBRANCH   4   5
ENDBRANCH   1   4
BRANCH   1  27
ATOM     27  C   LIG d   1       6.233  -5.830  -5.634  0.00  0.00     0.253 C 
ATOM     28  O   LIG d   1       7.280  -5.247  -5.448  0.00  0.00    -0.272 OA
ATOM     29  N   LIG d   1       6.189  -7.175  -5.557  0.00  0.00    -0.299 N 
ATOM     30  C   LIG d   1       7.400  -7.948  -5.248  0.00  0.00     0.015 C 
ATOM     31  C   LIG d   1       4.930  -7.897  -5.786  0.00  0.00     0.015 C 
ATOM     32  C   LIG d   1       7.104  -8.864  -4.051  0.00  0.00    -0.026 C 
ATOM     33  H   LIG d   1       7.679  -8.551  -6.113  0.00  0.00     0.046 H 
ATOM     34  H   LIG d   1       8.214  -7.268  -4.998  0.00  0.00     0.046 H 
ATOM     35  C   LIG d   1       5.874  -9.721  -4.364  0.00  0.00     0.038 C 
ATOM     36  H   LIG d   1       6.909  -8.258  -3.166  0.00  0.00     0.029 H 
ATOM     37  H   LIG d   1       7.961  -9.511  -3.869  0.00  0.00     0.029 H 
ATOM     38  C   LIG d   1       4.662  -8.814  -4.589  0.00  0.00    -0.026 C 
ATOM     39  H   LIG d   1       6.060 -10.308  -5.263  0.00  0.00     0.040 H 
ATOM     40  H   LIG d   1       4.491  -8.208  -3.698  0.00  0.00     0.029 H 
ATOM     41  H   LIG d   1       3.782  -9.426  -4.787  0.00  0.00     0.029 H 
ATOM     42  H   LIG d   1       4.112  -7.182  -5.889  0.00  0.00     0.046 H 
ATOM     43  H   LIG d   1       5.012  -8.495  -6.693  0.00  0.00     0.046 H 
BRANCH  35  44
ATOM     44  C   LIG d   1       5.601 -10.647  -3.207  0.00  0.00     0.214 C 
ATOM     45  O   LIG d   1       6.523 -11.122  -2.579  0.00  0.00    -0.276 OA
ATOM     46  N   LIG d   1       4.331 -10.946  -2.870  0.00  0.00    -0.329 N 
ATOM     47  H   LIG d   1       3.593 -10.565  -3.371  0.00  0.00     0.145 HD
ATOM     48  H   LIG d   1       4.154 -11.542  -2.125  0.00  0.00     0.145 HD
ENDBRANCH  35  44
ENDBRANCH   1  27
TORSDOF 6
ENDMDL
MODEL 9
REMARK VINA RESULT:      -5.5      9.331     11.404
REMARK  6 active torsions:
REMARK  status: ('A' for Active; 'I' for Inactive)
REMARK    1  A    between atoms: C_1  and  C_2 
REMARK    2  A    between atoms: C_6  and  C_11 
REMARK    3  A    between atoms: C_12  and  O_14 
REMARK    4  A    between atoms: O_14  and  C_15 
REMARK    5  A    between atoms: C_15  and  C_16 
REMARK       I    between atoms: C_16  and  N_18 
REMARK    6  A    between atoms: C_21  and  C_24 
REMARK       I    between atoms: C_24  and  N_26 
ROOT
ATOM      1  C   LIG d   1       9.203   7.246  -2.052  0.00  0.00     0.165 C 
ATOM      2  H   LIG d   1       8.439   6.720  -1.481  0.00  0.00     0.080 H 
ATOM      3  H   LIG d   1       8.756   8.104  -2.554  0.00  0.00     0.080 H 
ENDROOT
BRANCH   1   4
ATOM      4  O   LIG d   1      10.233   7.694  -1.169  0.00  0.00    -0.482 OA
BRANCH   4   5
ATOM      5  C   LIG d   1      10.300   9.028  -0.925  0.00  0.00     0.132 A 
ATOM      6  C   LIG d   1      10.869   9.502   0.266  0.00  0.00     0.062 A 
ATOM      7  C   LIG d   1      10.934  10.886   0.510  0.00  0.00     0.143 A 
ATOM      8  C   LIG d   1      11.401   8.578   1.269  0.00  0.00    -0.029 A 
ATOM      9  C   LIG d   1      10.433  11.769  -0.435  0.00  0.00    -0.015 A 
ATOM     10  O   LIG d   1      11.483  11.341   1.657  0.00  0.00    -0.422 OA
ATOM     11  C   LIG d   1       9.875  11.291  -1.603  0.00  0.00    -0.043 A 
ATOM     12  H   LIG d   1      10.479  12.833  -0.255  0.00  0.00     0.066 H 
ATOM     13  C   LIG d   1       9.802   9.930  -1.849  0.00  0.00    -0.016 A 
ATOM     14  H   LIG d   1       9.359   9.572  -2.766  0.00  0.00     0.066 H 
ATOM     15  C   LIG d   1      11.972  10.499   2.581  0.00  0.00     0.338 A 
ATOM     16  C   LIG d   1      11.939   9.101   2.401  0.00  0.00     0.027 A 
ATOM     17  O   LIG d   1      12.458  10.955   3.601  0.00  0.00    -0.245 OA
ATOM     18  H   LIG d   1      12.340   8.447   3.162  0.00  0.00     0.069 H 
BRANCH  11  19
ATOM     19  C   LIG d   1       9.334  12.262  -2.622  0.00  0.00    -0.040 C 
ATOM     20  H   LIG d   1       8.267  12.408  -2.453  0.00  0.00     0.028 H 
ATOM     21  H   LIG d   1       9.851  13.216  -2.526  0.00  0.00     0.028 H 
ATOM     22  H   LIG d   1       9.493  11.862  -3.624  0.00  0.00     0.028 H 
ENDBRANCH  11  19
BRANCH   8  23
ATOM     23  C   LIG d   1      11.352   7.088   1.051  0.00  0.00    -0.039 C 
ATOM     24  H   LIG d   1      11.351   6.579   2.016  0.00  0.00     0.028 H 
ATOM     25  H   LIG d   1      10.445   6.830   0.505  0.00  0.00     0.028 H 
ATOM     26  H   LIG d   1      12.223   6.775   0.477  0.00  0.00     0.028 H 
ENDBRANCH   8  23
ENDBRANCH   4   5
ENDBRANCH   1   4
BRANCH   1  27
ATOM     27  C   LIG d   1       9.792   6.314  -3.079  0.00  0.00     0.253 C 
ATOM     28  O   LIG d   1       9.924   5.136  -2.826  0.00  0.00    -0.272 OA
ATOM     29  N   LIG d   1      10.173   6.792  -4.281  0.00  0.00    -0.299 N 
ATOM     30  C   LIG d   1      10.749   5.897  -5.294  0.00  0.00     0.015 C 
ATOM     31  C   LIG d   1      10.026   8.218  -4.601  0.00  0.00     0.015 C 
ATOM     32  C   LIG d   1       9.951   6.055  -6.597  0.00  0.00    -0.026 C 
ATOM     33  H   LIG d   1      11.792   6.163  -5.466  0.00  0.00     0.046 H 
ATOM     34  H   LIG d   1      10.687   4.865  -4.948  0.00  0.00     0.046 H 
ATOM     35  C   LIG d   1       9.933   7.531  -7.001  0.00  0.00     0.038 C 
ATOM     36  H   LIG d   1       8.930   5.707  -6.445  0.00  0.00     0.029 H 
ATOM     37  H   LIG d   1      10.423   5.468  -7.385  0.00  0.00     0.029 H 
ATOM     38  C   LIG d   1       9.242   8.352  -5.910  0.00  0.00    -0.026 C 
ATOM     39  H   LIG d   1      10.956   7.885  -7.129  0.00  0.00     0.040 H 
ATOM     40  H   LIG d   1       8.226   7.981  -5.764  0.00  0.00     0.029 H 
ATOM     41  H   LIG d   1       9.208   9.399  -6.209  0.00  0.00     0.029 H 
ATOM     42  H   LIG d   1       9.485   8.719  -3.797  0.00  0.00     0.046 H 
ATOM     43  H   LIG d   1      11.011   8.669  -4.718  0.00  0.00     0.046 H 
BRANCH  35  44
ATOM     44  C   LIG d   1       9.182   7.687  -8.298  0.00  0.00     0.214 C 
ATOM     45  O   LIG d   1       9.143   6.770  -9.091  0.00  0.00    -0.276 OA
ATOM     46  N   LIG d   1       8.553   8.846  -8.577  0.00  0.00    -0.329 N 
ATOM     47  H   LIG d   1       8.584   9.580  -7.943  0.00  0.00     0.145 HD
ATOM     48  H   LIG d   1       8.069   8.947  -9.411  0.00  0.00     0.145 HD
ENDBRANCH  35  44
ENDBRANCH   1  27
TORSDOF 6
ENDMDL
MODEL 10
REMARK VINA RESULT:      -5.4      8.569     11.910
REMARK  6 active torsions:
REMARK  status: ('A' for Active; 'I' for Inactive)
REMARK    1  A    between atoms: C_1  and  C_2 
REMARK    2  A    between atoms: C_6  and  C_11 
REMARK    3  A    between atoms: C_12  and  O_14 
REMARK    4  A    between atoms: O_14  and  C_15 
REMARK    5  A    between atoms: C_15  and  C_16 
REMARK       I    between atoms: C_16  and  N_18 
REMARK    6  A    between atoms: C_21  and  C_24 
REMARK       I    between atoms: C_24  and  N_26 
ROOT
ATOM      1  C   LIG d   1       9.346   6.498  -2.703  0.00  0.00     0.165 C 
ATOM      2  H   LIG d   1       8.350   6.806  -2.389  0.00  0.00     0.080 H 
ATOM      3  H   LIG d   1       9.350   5.425  -2.900  0.00  0.00     0.080 H 
ENDROOT
BRANCH   1   4
ATOM      4  O   LIG d   1       9.710   7.201  -3.892  0.00  0.00    -0.482 OA
BRANCH   4   5
ATOM      5  C   LIG d   1       9.754   6.484  -5.044  0.00  0.00     0.132 A 
ATOM      6  C   LIG d   1       9.749   7.138  -6.286  0.00  0.00     0.062 A 
ATOM      7  C   LIG d   1       9.794   6.387  -7.474  0.00  0.00     0.143 A 
ATOM      8  C   LIG d   1       9.697   8.598  -6.370  0.00  0.00    -0.029 A 
ATOM      9  C   LIG d   1       9.845   5.002  -7.405  0.00  0.00    -0.015 A 
ATOM     10  O   LIG d   1       9.790   7.017  -8.669  0.00  0.00    -0.422 OA
ATOM     11  C   LIG d   1       9.849   4.370  -6.178  0.00  0.00    -0.043 A 
ATOM     12  H   LIG d   1       9.880   4.418  -8.312  0.00  0.00     0.066 H 
ATOM     13  C   LIG d   1       9.798   5.102  -5.003  0.00  0.00    -0.016 A 
ATOM     14  H   LIG d   1       9.798   4.592  -4.052  0.00  0.00     0.066 H 
ATOM     15  C   LIG d   1       9.742   8.356  -8.752  0.00  0.00     0.338 A 
ATOM     16  C   LIG d   1       9.695   9.170  -7.602  0.00  0.00     0.027 A 
ATOM     17  O   LIG d   1       9.741   8.881  -9.851  0.00  0.00    -0.245 OA
ATOM     18  H   LIG d   1       9.656  10.245  -7.700  0.00  0.00     0.069 H 
BRANCH  11  19
ATOM     19  C   LIG d   1       9.904   2.864  -6.115  0.00  0.00    -0.040 C 
ATOM     20  H   LIG d   1       8.950   2.452  -6.447  0.00  0.00     0.028 H 
ATOM     21  H   LIG d   1      10.700   2.502  -6.765  0.00  0.00     0.028 H 
ATOM     22  H   LIG d   1      10.099   2.551  -5.090  0.00  0.00     0.028 H 
ENDBRANCH  11  19
BRANCH   8  23
ATOM     23  C   LIG d   1       9.645   9.444  -5.124  0.00  0.00    -0.039 C 
ATOM     24  H   LIG d   1       9.084  10.356  -5.327  0.00  0.00     0.028 H 
ATOM     25  H   LIG d   1       9.154   8.886  -4.327  0.00  0.00     0.028 H 
ATOM     26  H   LIG d   1      10.658   9.701  -4.817  0.00  0.00     0.028 H 
ENDBRANCH   8  23
ENDBRANCH   4   5
ENDBRANCH   1   4
BRANCH   1  27
ATOM     27  C   LIG d   1      10.337   6.811  -1.612  0.00  0.00     0.253 C 
ATOM     28  O   LIG d   1      11.371   6.183  -1.532  0.00  0.00    -0.272 OA
ATOM     29  N   LIG d   1      10.073   7.791  -0.725  0.00  0.00    -0.299 N 
ATOM     30  C   LIG d   1      11.029   8.110   0.344  0.00  0.00     0.015 C 
ATOM     31  C   LIG d   1       8.822   8.558  -0.805  0.00  0.00     0.015 C 
ATOM     32  C   LIG d   1      11.346   9.613   0.286  0.00  0.00    -0.026 C 
ATOM     33  H   LIG d   1      10.592   7.864   1.312  0.00  0.00     0.046 H 
ATOM     34  H   LIG d   1      11.945   7.536   0.199  0.00  0.00     0.046 H 
ATOM     35  C   LIG d   1      10.039  10.406   0.355  0.00  0.00     0.038 C 
ATOM     36  H   LIG d   1      11.862   9.842  -0.646  0.00  0.00     0.029 H 
ATOM     37  H   LIG d   1      11.980   9.882   1.130  0.00  0.00     0.029 H 
ATOM     38  C   LIG d   1       9.160  10.051  -0.847  0.00  0.00    -0.026 C 
ATOM     39  H   LIG d   1       9.511  10.157   1.276  0.00  0.00     0.040 H 
ATOM     40  H   LIG d   1       9.698  10.277  -1.769  0.00  0.00     0.029 H 
ATOM     41  H   LIG d   1       8.240  10.634  -0.810  0.00  0.00     0.029 H 
ATOM     42  H   LIG d   1       8.281   8.280  -1.710  0.00  0.00     0.046 H 
ATOM     43  H   LIG d   1       8.209   8.347   0.070  0.00  0.00     0.046 H 
BRANCH  35  44
ATOM     44  C   LIG d   1      10.345  11.881   0.335  0.00  0.00     0.214 C 
ATOM     45  O   LIG d   1      10.867  12.406   1.296  0.00  0.00    -0.276 OA
ATOM     46  N   LIG d   1      10.041  12.617  -0.752  0.00  0.00    -0.329 N 
ATOM     47  H   LIG d   1       9.624  12.198  -1.521  0.00  0.00     0.145 HD
ATOM     48  H   LIG d   1      10.239  13.567  -0.766  0.00  0.00     0.145 HD
ENDBRANCH  35  44
ENDBRANCH   1  27
TORSDOF 6
ENDMDL
