MODEL 1
REMARK VINA RESULT:      -7.4      0.000      0.000
REMARK  5 active torsions:
REMARK  status: ('A' for Active; 'I' for Inactive)
REMARK    1  A    between atoms: C_1  and  C_2 
REMARK    2  A    between atoms: C_7  and  N_8 
REMARK       I    between atoms: N_8  and  C_9 
REMARK    3  A    between atoms: C_9  and  C_11 
REMARK    4  A    between atoms: C_11  and  C_12 
REMARK    5  A    between atoms: C_11  and  C_16 
ROOT
ATOM      1  C   LIG d   1       3.797  -1.373  -7.773  0.00  0.00    -0.026 A 
ATOM      2  C   LIG d   1       3.128  -1.366  -8.982  0.00  0.00    -0.022 A 
ATOM      3  C   LIG d   1       2.560  -0.194  -9.452  0.00  0.00     0.124 A 
ATOM      4  C   LIG d   1       2.661   0.972  -8.713  0.00  0.00    -0.025 A 
ATOM      5  C   LIG d   1       3.329   0.969  -7.504  0.00  0.00    -0.037 A 
ATOM      6  C   LIG d   1       3.893  -0.206  -7.028  0.00  0.00     0.036 A 
ATOM      7  F   LIG d   1       1.907  -0.188 -10.635  0.00  0.00    -0.205 F 
ATOM      8  H   LIG d   1       3.048  -2.274  -9.560  0.00  0.00     0.065 H 
ATOM      9  H   LIG d   1       2.218   1.886  -9.082  0.00  0.00     0.065 H 
ATOM     10  H   LIG d   1       3.407   1.880  -6.928  0.00  0.00     0.064 H 
ENDROOT
BRANCH   6  11
ATOM     11  N   LIG d   1       4.565  -0.213  -5.799  0.00  0.00    -0.284 N 
ATOM     12  C   LIG d   1       3.867  -0.130  -4.648  0.00  0.00     0.252 C 
ATOM     13  O   LIG d   1       2.654  -0.132  -4.673  0.00  0.00    -0.273 OA
ATOM     14  H   LIG d   1       5.533  -0.278  -5.774  0.00  0.00     0.155 HD
BRANCH  12  15
ATOM     15  C   LIG d   1       4.594  -0.035  -3.331  0.00  0.00     0.289 C 
ATOM     16 BR   LIG d   1       6.447   0.541  -3.645  0.00  0.00    -0.056 Br
BRANCH  15  17
ATOM     17  C   LIG d   1       3.889   0.982  -2.432  0.00  0.00     0.422 C 
ATOM     18  F   LIG d   1       4.654   1.197  -1.281  0.00  0.00    -0.168 F 
ATOM     19  F   LIG d   1       3.739   2.190  -3.124  0.00  0.00    -0.168 F 
ATOM     20  F   LIG d   1       2.629   0.492  -2.071  0.00  0.00    -0.168 F 
ENDBRANCH  15  17
BRANCH  15  21
ATOM     21  C   LIG d   1       4.594  -1.405  -2.650  0.00  0.00     0.422 C 
ATOM     22  F   LIG d   1       4.565  -1.236  -1.262  0.00  0.00    -0.168 F 
ATOM     23  F   LIG d   1       3.467  -2.128  -3.056  0.00  0.00    -0.168 F 
ATOM     24  F   LIG d   1       5.751  -2.104  -3.011  0.00  0.00    -0.168 F 
ENDBRANCH  15  21
ENDBRANCH  12  15
ENDBRANCH   6  11
BRANCH   1  25
ATOM     25  C   LIG d   1       4.414  -2.648  -7.261  0.00  0.00    -0.038 C 
ATOM     26  H   LIG d   1       3.867  -2.991  -6.383  0.00  0.00     0.028 H 
ATOM     27  H   LIG d   1       4.369  -3.411  -8.038  0.00  0.00     0.028 H 
ATOM     28  H   LIG d   1       5.455  -2.466  -6.992  0.00  0.00     0.028 H 
ENDBRANCH   1  25
TORSDOF 5
ENDMDL
MODEL 2
REMARK VINA RESULT:      -7.0      1.905      2.666
REMARK  5 active torsions:
REMARK  status: ('A' for Active; 'I' for Inactive)
REMARK    1  A    between atoms: C_1  and  C_2 
REMARK    2  A    between atoms: C_7  and  N_8 
REMARK       I    between atoms: N_8  and  C_9 
REMARK    3  A    between atoms: C_9  and  C_11 
REMARK    4  A    between atoms: C_11  and  C_12 
REMARK    5  A    between atoms: C_11  and  C_16 
ROOT
ATOM      1  C   LIG d   1       5.236   0.601  -7.993  0.00  0.00    -0.026 A 
ATOM      2  C   LIG d   1       4.997   1.489  -9.025  0.00  0.00    -0.022 A 
ATOM      3  C   LIG d   1       3.696   1.813  -9.372  0.00  0.00     0.124 A 
ATOM      4  C   LIG d   1       2.634   1.248  -8.689  0.00  0.00    -0.025 A 
ATOM      5  C   LIG d   1       2.869   0.358  -7.658  0.00  0.00    -0.037 A 
ATOM      6  C   LIG d   1       4.171   0.028  -7.312  0.00  0.00     0.036 A 
ATOM      7  F   LIG d   1       3.464   2.683 -10.380  0.00  0.00    -0.205 F 
ATOM      8  H   LIG d   1       5.825   1.932  -9.558  0.00  0.00     0.065 H 
ATOM      9  H   LIG d   1       1.620   1.502  -8.962  0.00  0.00     0.065 H 
ATOM     10  H   LIG d   1       2.039  -0.082  -7.125  0.00  0.00     0.064 H 
ENDROOT
BRANCH   6  11
ATOM     11  N   LIG d   1       4.412  -0.878  -6.271  0.00  0.00    -0.284 N 
ATOM     12  C   LIG d   1       4.370  -0.460  -4.990  0.00  0.00     0.252 C 
ATOM     13  O   LIG d   1       4.044   0.681  -4.735  0.00  0.00    -0.273 OA
ATOM     14  H   LIG d   1       4.609  -1.807  -6.471  0.00  0.00     0.155 HD
BRANCH  12  15
ATOM     15  C   LIG d   1       4.728  -1.409  -3.875  0.00  0.00     0.289 C 
ATOM     16 BR   LIG d   1       4.907  -3.228  -4.597  0.00  0.00    -0.056 Br
BRANCH  15  17
ATOM     17  C   LIG d   1       6.053  -0.978  -3.244  0.00  0.00     0.422 C 
ATOM     18  F   LIG d   1       6.937  -0.570  -4.249  0.00  0.00    -0.168 F 
ATOM     19  F   LIG d   1       5.825   0.086  -2.364  0.00  0.00    -0.168 F 
ATOM     20  F   LIG d   1       6.607  -2.053  -2.543  0.00  0.00    -0.168 F 
ENDBRANCH  15  17
BRANCH  15  21
ATOM     21  C   LIG d   1       3.626  -1.388  -2.815  0.00  0.00     0.422 C 
ATOM     22  F   LIG d   1       2.386  -1.200  -3.434  0.00  0.00    -0.168 F 
ATOM     23  F   LIG d   1       3.622  -2.604  -2.122  0.00  0.00    -0.168 F 
ATOM     24  F   LIG d   1       3.863  -0.341  -1.917  0.00  0.00    -0.168 F 
ENDBRANCH  15  21
ENDBRANCH  12  15
ENDBRANCH   6  11
BRANCH   1  25
ATOM     25  C   LIG d   1       6.651   0.248  -7.615  0.00  0.00    -0.038 C 
ATOM     26  H   LIG d   1       6.669  -0.152  -6.601  0.00  0.00     0.028 H 
ATOM     27  H   LIG d   1       7.036  -0.501  -8.308  0.00  0.00     0.028 H 
ATOM     28  H   LIG d   1       7.274   1.142  -7.664  0.00  0.00     0.028 H 
ENDBRANCH   1  25
TORSDOF 5
ENDMDL
MODEL 3
REMARK VINA RESULT:      -6.8      2.540      6.516
REMARK  5 active torsions:
REMARK  status: ('A' for Active; 'I' for Inactive)
REMARK    1  A    between atoms: C_1  and  C_2 
REMARK    2  A    between atoms: C_7  and  N_8 
REMARK       I    between atoms: N_8  and  C_9 
REMARK    3  A    between atoms: C_9  and  C_11 
REMARK    4  A    between atoms: C_11  and  C_12 
REMARK    5  A    between atoms: C_11  and  C_16 
ROOT
ATOM      1  C   LIG d   1       3.298  -0.149  -4.559  0.00  0.00    -0.026 A 
ATOM      2  C   LIG d   1       3.055  -0.908  -3.429  0.00  0.00    -0.022 A 
ATOM      3  C   LIG d   1       3.837  -2.019  -3.161  0.00  0.00     0.124 A 
ATOM      4  C   LIG d   1       4.861  -2.372  -4.023  0.00  0.00    -0.025 A 
ATOM      5  C   LIG d   1       5.106  -1.616  -5.153  0.00  0.00    -0.037 A 
ATOM      6  C   LIG d   1       4.320  -0.505  -5.427  0.00  0.00     0.036 A 
ATOM      7  F   LIG d   1       3.599  -2.759  -2.056  0.00  0.00    -0.205 F 
ATOM      8  H   LIG d   1       2.257  -0.633  -2.756  0.00  0.00     0.065 H 
ATOM      9  H   LIG d   1       5.470  -3.239  -3.811  0.00  0.00     0.065 H 
ATOM     10  H   LIG d   1       5.906  -1.892  -5.825  0.00  0.00     0.064 H 
ENDROOT
BRANCH   6  11
ATOM     11  N   LIG d   1       4.562   0.259  -6.575  0.00  0.00    -0.284 N 
ATOM     12  C   LIG d   1       3.985  -0.081  -7.745  0.00  0.00     0.252 C 
ATOM     13  O   LIG d   1       3.193  -0.999  -7.787  0.00  0.00    -0.273 OA
ATOM     14  H   LIG d   1       5.146   1.033  -6.530  0.00  0.00     0.155 HD
BRANCH  12  15
ATOM     15  C   LIG d   1       4.325   0.678  -9.002  0.00  0.00     0.289 C 
ATOM     16 BR   LIG d   1       6.030   1.624  -8.755  0.00  0.00    -0.056 Br
BRANCH  15  17
ATOM     17  C   LIG d   1       4.449  -0.300 -10.171  0.00  0.00     0.422 C 
ATOM     18  F   LIG d   1       5.091  -1.465  -9.738  0.00  0.00    -0.168 F 
ATOM     19  F   LIG d   1       3.173  -0.622 -10.648  0.00  0.00    -0.168 F 
ATOM     20  F   LIG d   1       5.195   0.290 -11.197  0.00  0.00    -0.168 F 
ENDBRANCH  15  17
BRANCH  15  21
ATOM     21  C   LIG d   1       3.218   1.692  -9.299  0.00  0.00     0.422 C 
ATOM     22  F   LIG d   1       1.986   1.033  -9.363  0.00  0.00    -0.168 F 
ATOM     23  F   LIG d   1       3.181   2.653  -8.283  0.00  0.00    -0.168 F 
ATOM     24  F   LIG d   1       3.476   2.319 -10.523  0.00  0.00    -0.168 F 
ENDBRANCH  15  21
ENDBRANCH  12  15
ENDBRANCH   6  11
BRANCH   1  25
ATOM     25  C   LIG d   1       2.447   1.060  -4.851  0.00  0.00    -0.038 C 
ATOM     26  H   LIG d   1       3.036   1.797  -5.398  0.00  0.00     0.028 H 
ATOM     27  H   LIG d   1       1.588   0.763  -5.452  0.00  0.00     0.028 H 
ATOM     28  H   LIG d   1       2.101   1.496  -3.913  0.00  0.00     0.028 H 
ENDBRANCH   1  25
TORSDOF 5
ENDMDL
MODEL 4
REMARK VINA RESULT:      -6.7      1.399      2.194
REMARK  5 active torsions:
REMARK  status: ('A' for Active; 'I' for Inactive)
REMARK    1  A    between atoms: C_1  and  C_2 
REMARK    2  A    between atoms: C_7  and  N_8 
REMARK       I    between atoms: N_8  and  C_9 
REMARK    3  A    between atoms: C_9  and  C_11 
REMARK    4  A    between atoms: C_11  and  C_12 
REMARK    5  A    between atoms: C_11  and  C_16 
ROOT
ATOM      1  C   LIG d   1       3.361   0.027  -8.239  0.00  0.00    -0.026 A 
ATOM      2  C   LIG d   1       3.521  -0.172  -9.598  0.00  0.00    -0.022 A 
ATOM      3  C   LIG d   1       4.029  -1.371 -10.067  0.00  0.00     0.124 A 
ATOM      4  C   LIG d   1       4.378  -2.373  -9.178  0.00  0.00    -0.025 A 
ATOM      5  C   LIG d   1       4.221  -2.177  -7.819  0.00  0.00    -0.037 A 
ATOM      6  C   LIG d   1       3.718  -0.973  -7.346  0.00  0.00     0.036 A 
ATOM      7  F   LIG d   1       4.183  -1.564 -11.396  0.00  0.00    -0.205 F 
ATOM      8  H   LIG d   1       3.248   0.608 -10.293  0.00  0.00     0.065 H 
ATOM      9  H   LIG d   1       4.774  -3.308  -9.546  0.00  0.00     0.065 H 
ATOM     10  H   LIG d   1       4.494  -2.960  -7.126  0.00  0.00     0.064 H 
ENDROOT
BRANCH   6  11
ATOM     11  N   LIG d   1       3.564  -0.771  -5.969  0.00  0.00    -0.284 N 
ATOM     12  C   LIG d   1       4.614  -0.369  -5.225  0.00  0.00     0.252 C 
ATOM     13  O   LIG d   1       5.670  -0.104  -5.760  0.00  0.00    -0.273 OA
ATOM     14  H   LIG d   1       2.701  -0.920  -5.549  0.00  0.00     0.155 HD
BRANCH  12  15
ATOM     15  C   LIG d   1       4.476  -0.249  -3.729  0.00  0.00     0.289 C 
ATOM     16 BR   LIG d   1       5.846   0.982  -3.042  0.00  0.00    -0.056 Br
BRANCH  15  17
ATOM     17  C   LIG d   1       3.086   0.293  -3.388  0.00  0.00     0.422 C 
ATOM     18  F   LIG d   1       2.170  -0.764  -3.351  0.00  0.00    -0.168 F 
ATOM     19  F   LIG d   1       3.125   0.919  -2.137  0.00  0.00    -0.168 F 
ATOM     20  F   LIG d   1       2.694   1.217  -4.361  0.00  0.00    -0.168 F 
ENDBRANCH  15  17
BRANCH  15  21
ATOM     21  C   LIG d   1       4.660  -1.625  -3.088  0.00  0.00     0.422 C 
ATOM     22  F   LIG d   1       4.175  -1.599  -1.777  0.00  0.00    -0.168 F 
ATOM     23  F   LIG d   1       3.954  -2.582  -3.827  0.00  0.00    -0.168 F 
ATOM     24  F   LIG d   1       6.019  -1.956  -3.077  0.00  0.00    -0.168 F 
ENDBRANCH  15  21
ENDBRANCH  12  15
ENDBRANCH   6  11
BRANCH   1  25
ATOM     25  C   LIG d   1       2.809   1.332  -7.729  0.00  0.00    -0.038 C 
ATOM     26  H   LIG d   1       1.729   1.248  -7.606  0.00  0.00     0.028 H 
ATOM     27  H   LIG d   1       3.266   1.569  -6.768  0.00  0.00     0.028 H 
ATOM     28  H   LIG d   1       3.033   2.126  -8.442  0.00  0.00     0.028 H 
ENDBRANCH   1  25
TORSDOF 5
ENDMDL
MODEL 5
REMARK VINA RESULT:      -6.7      1.622      3.033
REMARK  5 active torsions:
REMARK  status: ('A' for Active; 'I' for Inactive)
REMARK    1  A    between atoms: C_1  and  C_2 
REMARK    2  A    between atoms: C_7  and  N_8 
REMARK       I    between atoms: N_8  and  C_9 
REMARK    3  A    between atoms: C_9  and  C_11 
REMARK    4  A    between atoms: C_11  and  C_12 
REMARK    5  A    between atoms: C_11  and  C_16 
ROOT
ATOM      1  C   LIG d   1       3.403   0.512  -7.944  0.00  0.00    -0.026 A 
ATOM      2  C   LIG d   1       3.671   0.480  -9.299  0.00  0.00    -0.022 A 
ATOM      3  C   LIG d   1       4.329  -0.607  -9.849  0.00  0.00     0.124 A 
ATOM      4  C   LIG d   1       4.720  -1.662  -9.045  0.00  0.00    -0.025 A 
ATOM      5  C   LIG d   1       4.455  -1.634  -7.689  0.00  0.00    -0.037 A 
ATOM      6  C   LIG d   1       3.801  -0.543  -7.134  0.00  0.00     0.036 A 
ATOM      7  F   LIG d   1       4.589  -0.636 -11.175  0.00  0.00    -0.205 F 
ATOM      8  H   LIG d   1       3.365   1.302  -9.929  0.00  0.00     0.065 H 
ATOM      9  H   LIG d   1       5.233  -2.509  -9.477  0.00  0.00     0.065 H 
ATOM     10  H   LIG d   1       4.761  -2.459  -7.062  0.00  0.00     0.064 H 
ENDROOT
BRANCH   6  11
ATOM     11  N   LIG d   1       3.536  -0.509  -5.759  0.00  0.00    -0.284 N 
ATOM     12  C   LIG d   1       4.512  -0.170  -4.893  0.00  0.00     0.252 C 
ATOM     13  O   LIG d   1       5.595   0.185  -5.309  0.00  0.00    -0.273 OA
ATOM     14  H   LIG d   1       2.651  -0.730  -5.429  0.00  0.00     0.155 HD
BRANCH  12  15
ATOM     15  C   LIG d   1       4.258  -0.232  -3.409  0.00  0.00     0.289 C 
ATOM     16 BR   LIG d   1       2.382  -0.720  -3.086  0.00  0.00    -0.056 Br
BRANCH  15  17
ATOM     17  C   LIG d   1       5.174  -1.282  -2.778  0.00  0.00     0.422 C 
ATOM     18  F   LIG d   1       5.232  -2.408  -3.606  0.00  0.00    -0.168 F 
ATOM     19  F   LIG d   1       6.459  -0.749  -2.627  0.00  0.00    -0.168 F 
ATOM     20  F   LIG d   1       4.670  -1.649  -1.526  0.00  0.00    -0.168 F 
ENDBRANCH  15  17
BRANCH  15  21
ATOM     21  C   LIG d   1       4.543   1.136  -2.786  0.00  0.00     0.422 C 
ATOM     22  F   LIG d   1       4.467   1.039  -1.393  0.00  0.00    -0.168 F 
ATOM     23  F   LIG d   1       5.826   1.558  -3.154  0.00  0.00    -0.168 F 
ATOM     24  F   LIG d   1       3.600   2.062  -3.243  0.00  0.00    -0.168 F 
ENDBRANCH  15  21
ENDBRANCH  12  15
ENDBRANCH   6  11
BRANCH   1  25
ATOM     25  C   LIG d   1       2.687   1.694  -7.345  0.00  0.00    -0.038 C 
ATOM     26  H   LIG d   1       3.244   2.606  -7.562  0.00  0.00     0.028 H 
ATOM     27  H   LIG d   1       1.687   1.769  -7.773  0.00  0.00     0.028 H 
ATOM     28  H   LIG d   1       2.611   1.564  -6.265  0.00  0.00     0.028 H 
ENDBRANCH   1  25
TORSDOF 5
ENDMDL
MODEL 6
REMARK VINA RESULT:      -6.5      1.963      3.012
REMARK  5 active torsions:
REMARK  status: ('A' for Active; 'I' for Inactive)
REMARK    1  A    between atoms: C_1  and  C_2 
REMARK    2  A    between atoms: C_7  and  N_8 
REMARK       I    between atoms: N_8  and  C_9 
REMARK    3  A    between atoms: C_9  and  C_11 
REMARK    4  A    between atoms: C_11  and  C_12 
REMARK    5  A    between atoms: C_11  and  C_16 
ROOT
ATOM      1  C   LIG d   1       3.890  -0.985  -8.039  0.00  0.00    -0.026 A 
ATOM      2  C   LIG d   1       4.338  -1.168  -9.333  0.00  0.00    -0.022 A 
ATOM      3  C   LIG d   1       5.437  -1.973  -9.578  0.00  0.00     0.124 A 
ATOM      4  C   LIG d   1       6.089  -2.597  -8.529  0.00  0.00    -0.025 A 
ATOM      5  C   LIG d   1       5.644  -2.417  -7.233  0.00  0.00    -0.037 A 
ATOM      6  C   LIG d   1       4.546  -1.605  -6.985  0.00  0.00     0.036 A 
ATOM      7  F   LIG d   1       5.874  -2.151 -10.845  0.00  0.00    -0.205 F 
ATOM      8  H   LIG d   1       3.830  -0.682 -10.154  0.00  0.00     0.065 H 
ATOM      9  H   LIG d   1       6.946  -3.226  -8.723  0.00  0.00     0.065 H 
ATOM     10  H   LIG d   1       6.153  -2.904  -6.415  0.00  0.00     0.064 H 
ENDROOT
BRANCH   6  11
ATOM     11  N   LIG d   1       4.098  -1.415  -5.672  0.00  0.00    -0.284 N 
ATOM     12  C   LIG d   1       4.708  -0.516  -4.874  0.00  0.00     0.252 C 
ATOM     13  O   LIG d   1       5.592   0.186  -5.317  0.00  0.00    -0.273 OA
ATOM     14  H   LIG d   1       3.348  -1.931  -5.335  0.00  0.00     0.155 HD
BRANCH  12  15
ATOM     15  C   LIG d   1       4.293  -0.384  -3.431  0.00  0.00     0.289 C 
ATOM     16 BR   LIG d   1       4.079  -2.173  -2.645  0.00  0.00    -0.056 Br
BRANCH  15  17
ATOM     17  C   LIG d   1       5.366   0.387  -2.660  0.00  0.00     0.422 C 
ATOM     18  F   LIG d   1       5.456   1.689  -3.163  0.00  0.00    -0.168 F 
ATOM     19  F   LIG d   1       5.022   0.435  -1.304  0.00  0.00    -0.168 F 
ATOM     20  F   LIG d   1       6.599  -0.257  -2.807  0.00  0.00    -0.168 F 
ENDBRANCH  15  17
BRANCH  15  21
ATOM     21  C   LIG d   1       2.964   0.370  -3.351  0.00  0.00     0.422 C 
ATOM     22  F   LIG d   1       2.928   1.127  -2.176  0.00  0.00    -0.168 F 
ATOM     23  F   LIG d   1       2.842   1.218  -4.457  0.00  0.00    -0.168 F 
ATOM     24  F   LIG d   1       1.907  -0.548  -3.348  0.00  0.00    -0.168 F 
ENDBRANCH  15  21
ENDBRANCH  12  15
ENDBRANCH   6  11
BRANCH   1  25
ATOM     25  C   LIG d   1       2.694  -0.108  -7.772  0.00  0.00    -0.038 C 
ATOM     26  H   LIG d   1       2.889   0.518  -6.901  0.00  0.00     0.028 H 
ATOM     27  H   LIG d   1       2.508   0.525  -8.640  0.00  0.00     0.028 H 
ATOM     28  H   LIG d   1       1.821  -0.732  -7.583  0.00  0.00     0.028 H 
ENDBRANCH   1  25
TORSDOF 5
ENDMDL
MODEL 7
REMARK VINA RESULT:      -6.5      3.044      6.139
REMARK  5 active torsions:
REMARK  status: ('A' for Active; 'I' for Inactive)
REMARK    1  A    between atoms: C_1  and  C_2 
REMARK    2  A    between atoms: C_7  and  N_8 
REMARK       I    between atoms: N_8  and  C_9 
REMARK    3  A    between atoms: C_9  and  C_11 
REMARK    4  A    between atoms: C_11  and  C_12 
REMARK    5  A    between atoms: C_11  and  C_16 
ROOT
ATOM      1  C   LIG d   1       3.185  -0.184  -4.571  0.00  0.00    -0.026 A 
ATOM      2  C   LIG d   1       2.999  -0.883  -3.394  0.00  0.00    -0.022 A 
ATOM      3  C   LIG d   1       3.811  -1.965  -3.096  0.00  0.00     0.124 A 
ATOM      4  C   LIG d   1       4.809  -2.347  -3.975  0.00  0.00    -0.025 A 
ATOM      5  C   LIG d   1       4.997  -1.651  -5.153  0.00  0.00    -0.037 A 
ATOM      6  C   LIG d   1       4.181  -0.571  -5.457  0.00  0.00     0.036 A 
ATOM      7  F   LIG d   1       3.628  -2.647  -1.943  0.00  0.00    -0.205 F 
ATOM      8  H   LIG d   1       2.222  -0.586  -2.706  0.00  0.00     0.065 H 
ATOM      9  H   LIG d   1       5.441  -3.192  -3.740  0.00  0.00     0.065 H 
ATOM     10  H   LIG d   1       5.776  -1.951  -5.839  0.00  0.00     0.064 H 
ENDROOT
BRANCH   6  11
ATOM     11  N   LIG d   1       4.366   0.133  -6.653  0.00  0.00    -0.284 N 
ATOM     12  C   LIG d   1       3.949  -0.400  -7.820  0.00  0.00     0.252 C 
ATOM     13  O   LIG d   1       3.341  -1.449  -7.824  0.00  0.00    -0.273 OA
ATOM     14  H   LIG d   1       4.794   1.004  -6.644  0.00  0.00     0.155 HD
BRANCH  12  15
ATOM     15  C   LIG d   1       4.238   0.309  -9.118  0.00  0.00     0.289 C 
ATOM     16 BR   LIG d   1       4.048  -0.955 -10.611  0.00  0.00    -0.056 Br
BRANCH  15  17
ATOM     17  C   LIG d   1       3.252   1.464  -9.299  0.00  0.00     0.422 C 
ATOM     18  F   LIG d   1       3.291   2.292  -8.172  0.00  0.00    -0.168 F 
ATOM     19  F   LIG d   1       3.603   2.204 -10.434  0.00  0.00    -0.168 F 
ATOM     20  F   LIG d   1       1.959   0.953  -9.457  0.00  0.00    -0.168 F 
ENDBRANCH  15  17
BRANCH  15  21
ATOM     21  C   LIG d   1       5.667   0.856  -9.093  0.00  0.00     0.422 C 
ATOM     22  F   LIG d   1       5.658   2.161  -8.589  0.00  0.00    -0.168 F 
ATOM     23  F   LIG d   1       6.462   0.046  -8.275  0.00  0.00    -0.168 F 
ATOM     24  F   LIG d   1       6.187   0.861 -10.392  0.00  0.00    -0.168 F 
ENDBRANCH  15  21
ENDBRANCH  12  15
ENDBRANCH   6  11
BRANCH   1  25
ATOM     25  C   LIG d   1       2.302   0.993  -4.896  0.00  0.00    -0.038 C 
ATOM     26  H   LIG d   1       2.180   1.070  -5.976  0.00  0.00     0.028 H 
ATOM     27  H   LIG d   1       1.326   0.855  -4.429  0.00  0.00     0.028 H 
ATOM     28  H   LIG d   1       2.759   1.907  -4.516  0.00  0.00     0.028 H 
ENDBRANCH   1  25
TORSDOF 5
ENDMDL
MODEL 8
REMARK VINA RESULT:      -6.5      3.663      5.049
REMARK  5 active torsions:
REMARK  status: ('A' for Active; 'I' for Inactive)
REMARK    1  A    between atoms: C_1  and  C_2 
REMARK    2  A    between atoms: C_7  and  N_8 
REMARK       I    between atoms: N_8  and  C_9 
REMARK    3  A    between atoms: C_9  and  C_11 
REMARK    4  A    between atoms: C_11  and  C_12 
REMARK    5  A    between atoms: C_11  and  C_16 
ROOT
ATOM      1  C   LIG d   1       8.476   0.960  -5.107  0.00  0.00    -0.026 A 
ATOM      2  C   LIG d   1       9.772   0.768  -5.545  0.00  0.00    -0.022 A 
ATOM      3  C   LIG d   1      10.103  -0.378  -6.249  0.00  0.00     0.124 A 
ATOM      4  C   LIG d   1       9.137  -1.333  -6.514  0.00  0.00    -0.025 A 
ATOM      5  C   LIG d   1       7.840  -1.146  -6.076  0.00  0.00    -0.037 A 
ATOM      6  C   LIG d   1       7.508  -0.000  -5.366  0.00  0.00     0.036 A 
ATOM      7  F   LIG d   1      11.371  -0.564  -6.677  0.00  0.00    -0.205 F 
ATOM      8  H   LIG d   1      10.527   1.512  -5.340  0.00  0.00     0.065 H 
ATOM      9  H   LIG d   1       9.398  -2.227  -7.063  0.00  0.00     0.065 H 
ATOM     10  H   LIG d   1       7.087  -1.892  -6.284  0.00  0.00     0.064 H 
ENDROOT
BRANCH   6  11
ATOM     11  N   LIG d   1       6.195   0.189  -4.917  0.00  0.00    -0.284 N 
ATOM     12  C   LIG d   1       5.807  -0.325  -3.732  0.00  0.00     0.252 C 
ATOM     13  O   LIG d   1       6.616  -0.880  -3.018  0.00  0.00    -0.273 OA
ATOM     14  H   LIG d   1       5.563   0.689  -5.457  0.00  0.00     0.155 HD
BRANCH  12  15
ATOM     15  C   LIG d   1       4.370  -0.209  -3.294  0.00  0.00     0.289 C 
ATOM     16 BR   LIG d   1       3.230   0.105  -4.865  0.00  0.00    -0.056 Br
BRANCH  15  17
ATOM     17  C   LIG d   1       3.941  -1.506  -2.605  0.00  0.00     0.422 C 
ATOM     18  F   LIG d   1       4.514  -1.567  -1.330  0.00  0.00    -0.168 F 
ATOM     19  F   LIG d   1       2.547  -1.534  -2.490  0.00  0.00    -0.168 F 
ATOM     20  F   LIG d   1       4.370  -2.601  -3.362  0.00  0.00    -0.168 F 
ENDBRANCH  15  17
BRANCH  15  21
ATOM     21  C   LIG d   1       4.227   0.960  -2.319  0.00  0.00     0.422 C 
ATOM     22  F   LIG d   1       4.909   2.073  -2.821  0.00  0.00    -0.168 F 
ATOM     23  F   LIG d   1       2.872   1.275  -2.163  0.00  0.00    -0.168 F 
ATOM     24  F   LIG d   1       4.767   0.601  -1.079  0.00  0.00    -0.168 F 
ENDBRANCH  15  21
ENDBRANCH  12  15
ENDBRANCH   6  11
BRANCH   1  25
ATOM     25  C   LIG d   1       8.116   2.206  -4.342  0.00  0.00    -0.038 C 
ATOM     26  H   LIG d   1       8.708   3.044  -4.711  0.00  0.00     0.028 H 
ATOM     27  H   LIG d   1       7.056   2.423  -4.478  0.00  0.00     0.028 H 
ATOM     28  H   LIG d   1       8.322   2.055  -3.282  0.00  0.00     0.028 H 
ENDBRANCH   1  25
TORSDOF 5
ENDMDL
MODEL 9
REMARK VINA RESULT:      -6.4      1.739      2.488
REMARK  5 active torsions:
REMARK  status: ('A' for Active; 'I' for Inactive)
REMARK    1  A    between atoms: C_1  and  C_2 
REMARK    2  A    between atoms: C_7  and  N_8 
REMARK       I    between atoms: N_8  and  C_9 
REMARK    3  A    between atoms: C_9  and  C_11 
REMARK    4  A    between atoms: C_11  and  C_12 
REMARK    5  A    between atoms: C_11  and  C_16 
ROOT
ATOM      1  C   LIG d   1       4.803   0.175  -8.228  0.00  0.00    -0.026 A 
ATOM      2  C   LIG d   1       4.435   0.003  -9.549  0.00  0.00    -0.022 A 
ATOM      3  C   LIG d   1       3.111  -0.239  -9.873  0.00  0.00     0.124 A 
ATOM      4  C   LIG d   1       2.154  -0.308  -8.876  0.00  0.00    -0.025 A 
ATOM      5  C   LIG d   1       2.518  -0.138  -7.554  0.00  0.00    -0.037 A 
ATOM      6  C   LIG d   1       3.846   0.099  -7.227  0.00  0.00     0.036 A 
ATOM      7  F   LIG d   1       2.753  -0.406 -11.165  0.00  0.00    -0.205 F 
ATOM      8  H   LIG d   1       5.181   0.058 -10.328  0.00  0.00     0.065 H 
ATOM      9  H   LIG d   1       1.121  -0.497  -9.131  0.00  0.00     0.065 H 
ATOM     10  H   LIG d   1       1.770  -0.192  -6.777  0.00  0.00     0.064 H 
ENDROOT
BRANCH   6  11
ATOM     11  N   LIG d   1       4.218   0.266  -5.887  0.00  0.00    -0.284 N 
ATOM     12  C   LIG d   1       4.433  -0.813  -5.107  0.00  0.00     0.252 C 
ATOM     13  O   LIG d   1       4.385  -1.927  -5.586  0.00  0.00    -0.273 OA
ATOM     14  H   LIG d   1       4.320   1.158  -5.518  0.00  0.00     0.155 HD
BRANCH  12  15
ATOM     15  C   LIG d   1       4.734  -0.636  -3.641  0.00  0.00     0.289 C 
ATOM     16 BR   LIG d   1       4.147   1.149  -3.063  0.00  0.00    -0.056 Br
BRANCH  15  17
ATOM     17  C   LIG d   1       3.991  -1.703  -2.835  0.00  0.00     0.422 C 
ATOM     18  F   LIG d   1       4.352  -2.972  -3.298  0.00  0.00    -0.168 F 
ATOM     19  F   LIG d   1       4.331  -1.586  -1.483  0.00  0.00    -0.168 F 
ATOM     20  F   LIG d   1       2.612  -1.525  -2.988  0.00  0.00    -0.168 F 
ENDBRANCH  15  17
BRANCH  15  21
ATOM     21  C   LIG d   1       6.240  -0.776  -3.409  0.00  0.00     0.422 C 
ATOM     22  F   LIG d   1       6.909  -0.709  -4.635  0.00  0.00    -0.168 F 
ATOM     23  F   LIG d   1       6.683   0.259  -2.578  0.00  0.00    -0.168 F 
ATOM     24  F   LIG d   1       6.504  -2.008  -2.800  0.00  0.00    -0.168 F 
ENDBRANCH  15  21
ENDBRANCH  12  15
ENDBRANCH   6  11
BRANCH   1  25
ATOM     25  C   LIG d   1       6.244   0.437  -7.875  0.00  0.00    -0.038 C 
ATOM     26  H   LIG d   1       6.838   0.496  -8.788  0.00  0.00     0.028 H 
ATOM     27  H   LIG d   1       6.320   1.380  -7.332  0.00  0.00     0.028 H 
ATOM     28  H   LIG d   1       6.619  -0.373  -7.250  0.00  0.00     0.028 H 
ENDBRANCH   1  25
TORSDOF 5
ENDMDL
