MODEL 1
REMARK VINA RESULT:      -5.0      0.000      0.000
REMARK  4 active torsions:
REMARK  status: ('A' for Active; 'I' for Inactive)
REMARK    1  A    between atoms: C_1  and  C_2 
REMARK    2  A    between atoms: C_2  and  O_3 
REMARK    3  A    between atoms: O_3  and  C_4 
REMARK    4  A    between atoms: C_4  and  C_6 
ROOT
ATOM      1  C   LIG d   1       4.747  -0.453  -2.603  0.00  0.00     0.087 C 
ATOM      2  H   LIG d   1       4.706  -0.498  -1.515  0.00  0.00     0.046 H 
ATOM      3  C   LIG d   1       5.665   0.661  -3.012  0.00  0.00    -0.017 C 
ATOM      4  C   LIG d   1       6.881   0.422  -3.480  0.00  0.00     0.197 C 
ATOM      5  O   LIG d   1       7.376  -0.816  -3.657  0.00  0.00    -0.454 OA
ATOM      6  C   LIG d   1       6.743  -1.953  -3.062  0.00  0.00     0.206 C 
ATOM      7  H   LIG d   1       7.107  -2.152  -2.055  0.00  0.00     0.106 H 
ATOM      8  C   LIG d   1       5.209  -1.789  -3.133  0.00  0.00     0.040 C 
ATOM      9  H   LIG d   1       4.727  -2.594  -2.578  0.00  0.00     0.037 H 
ATOM     10  C   LIG d   1       4.955  -1.960  -4.645  0.00  0.00    -0.020 C 
ATOM     11  C   LIG d   1       5.993  -3.051  -5.005  0.00  0.00     0.052 C 
ATOM     12  O   LIG d   1       6.995  -3.051  -3.977  0.00  0.00    -0.341 OA
ATOM     13  C   LIG d   1       7.711   1.540  -3.812  0.00  0.00     0.137 C 
ATOM     14  N   LIG d   1       8.370   2.426  -4.077  0.00  0.00    -0.188 NA
ATOM     15  H   LIG d   1       5.327   1.682  -2.923  0.00  0.00     0.062 H 
ATOM     16  H   LIG d   1       3.940  -2.308  -4.834  0.00  0.00     0.029 H 
ATOM     17  H   LIG d   1       5.157  -1.034  -5.183  0.00  0.00     0.029 H 
ATOM     18  H   LIG d   1       5.506  -4.026  -5.044  0.00  0.00     0.056 H 
ATOM     19  H   LIG d   1       6.448  -2.824  -5.968  0.00  0.00     0.056 H 
ENDROOT
BRANCH   1  20
ATOM     20  C   LIG d   1       3.365  -0.169  -3.133  0.00  0.00     0.315 C 
ATOM     21  O   LIG d   1       2.427  -0.835  -2.765  0.00  0.00    -0.250 OA
BRANCH  20  22
ATOM     22  O   LIG d   1       3.177   0.826  -4.014  0.00  0.00    -0.465 OA
BRANCH  22  23
ATOM     23  C   LIG d   1       2.153   0.639  -4.994  0.00  0.00     0.090 C 
ATOM     24  H   LIG d   1       1.574   1.557  -5.094  0.00  0.00     0.069 H 
ATOM     25  H   LIG d   1       1.496  -0.172  -4.683  0.00  0.00     0.069 H 
BRANCH  23  26
ATOM     26  C   LIG d   1       2.793   0.290  -6.340  0.00  0.00    -0.031 C 
ATOM     27  H   LIG d   1       2.866   1.189  -6.951  0.00  0.00     0.026 H 
ATOM     28  H   LIG d   1       3.789  -0.119  -6.173  0.00  0.00     0.026 H 
ATOM     29  H   LIG d   1       2.177  -0.449  -6.853  0.00  0.00     0.026 H 
ENDBRANCH  23  26
ENDBRANCH  22  23
ENDBRANCH  20  22
ENDBRANCH   1  20
TORSDOF 4
ENDMDL
MODEL 2
REMARK VINA RESULT:      -4.8      2.128      4.632
REMARK  4 active torsions:
REMARK  status: ('A' for Active; 'I' for Inactive)
REMARK    1  A    between atoms: C_1  and  C_2 
REMARK    2  A    between atoms: C_2  and  O_3 
REMARK    3  A    between atoms: O_3  and  C_4 
REMARK    4  A    between atoms: C_4  and  C_6 
ROOT
ATOM      1  C   LIG d   1       5.165  -1.769  -4.030  0.00  0.00     0.087 C 
ATOM      2  H   LIG d   1       4.799  -2.786  -3.890  0.00  0.00     0.046 H 
ATOM      3  C   LIG d   1       4.651  -1.240  -5.336  0.00  0.00    -0.017 C 
ATOM      4  C   LIG d   1       3.667  -0.355  -5.388  0.00  0.00     0.197 C 
ATOM      5  O   LIG d   1       3.078   0.162  -4.295  0.00  0.00    -0.454 OA
ATOM      6  C   LIG d   1       3.259  -0.439  -3.009  0.00  0.00     0.206 C 
ATOM      7  H   LIG d   1       2.527  -1.220  -2.808  0.00  0.00     0.106 H 
ATOM      8  C   LIG d   1       4.719  -0.922  -2.863  0.00  0.00     0.040 C 
ATOM      9  H   LIG d   1       4.830  -1.483  -1.935  0.00  0.00     0.037 H 
ATOM     10  C   LIG d   1       5.474   0.419  -2.766  0.00  0.00    -0.020 C 
ATOM     11  C   LIG d   1       4.477   1.270  -1.942  0.00  0.00     0.052 C 
ATOM     12  O   LIG d   1       3.184   0.658  -2.062  0.00  0.00    -0.341 OA
ATOM     13  C   LIG d   1       3.206   0.072  -6.674  0.00  0.00     0.137 C 
ATOM     14  N   LIG d   1       2.840   0.412  -7.694  0.00  0.00    -0.188 NA
ATOM     15  H   LIG d   1       5.093  -1.590  -6.257  0.00  0.00     0.062 H 
ATOM     16  H   LIG d   1       6.418   0.299  -2.236  0.00  0.00     0.029 H 
ATOM     17  H   LIG d   1       5.634   0.851  -3.755  0.00  0.00     0.029 H 
ATOM     18  H   LIG d   1       4.781   1.284  -0.895  0.00  0.00     0.056 H 
ATOM     19  H   LIG d   1       4.447   2.286  -2.333  0.00  0.00     0.056 H 
ENDROOT
BRANCH   1  20
ATOM     20  C   LIG d   1       6.671  -1.792  -4.069  0.00  0.00     0.315 C 
ATOM     21  O   LIG d   1       7.295  -2.206  -3.122  0.00  0.00    -0.250 OA
BRANCH  20  22
ATOM     22  O   LIG d   1       7.320  -1.352  -5.159  0.00  0.00    -0.465 OA
BRANCH  22  23
ATOM     23  C   LIG d   1       8.326  -0.357  -4.957  0.00  0.00     0.090 C 
ATOM     24  H   LIG d   1       9.253  -0.675  -5.435  0.00  0.00     0.069 H 
ATOM     25  H   LIG d   1       8.496  -0.224  -3.889  0.00  0.00     0.069 H 
BRANCH  23  26
ATOM     26  C   LIG d   1       7.864   0.967  -5.569  0.00  0.00    -0.031 C 
ATOM     27  H   LIG d   1       7.545   0.800  -6.598  0.00  0.00     0.026 H 
ATOM     28  H   LIG d   1       7.031   1.365  -4.989  0.00  0.00     0.026 H 
ATOM     29  H   LIG d   1       8.689   1.680  -5.556  0.00  0.00     0.026 H 
ENDBRANCH  23  26
ENDBRANCH  22  23
ENDBRANCH  20  22
ENDBRANCH   1  20
TORSDOF 4
ENDMDL
MODEL 3
REMARK VINA RESULT:      -4.8      1.796      2.548
REMARK  4 active torsions:
REMARK  status: ('A' for Active; 'I' for Inactive)
REMARK    1  A    between atoms: C_1  and  C_2 
REMARK    2  A    between atoms: C_2  and  O_3 
REMARK    3  A    between atoms: O_3  and  C_4 
REMARK    4  A    between atoms: C_4  and  C_6 
ROOT
ATOM      1  C   LIG d   1       5.998  -1.799  -3.774  0.00  0.00     0.087 C 
ATOM      2  H   LIG d   1       6.628  -2.659  -3.551  0.00  0.00     0.046 H 
ATOM      3  C   LIG d   1       6.728  -0.546  -3.390  0.00  0.00    -0.017 C 
ATOM      4  C   LIG d   1       7.268   0.249  -4.302  0.00  0.00     0.197 C 
ATOM      5  O   LIG d   1       7.181   0.025  -5.625  0.00  0.00    -0.454 OA
ATOM      6  C   LIG d   1       6.769  -1.249  -6.129  0.00  0.00     0.206 C 
ATOM      7  H   LIG d   1       7.604  -1.937  -6.255  0.00  0.00     0.106 H 
ATOM      8  C   LIG d   1       5.641  -1.818  -5.240  0.00  0.00     0.040 C 
ATOM      9  H   LIG d   1       5.407  -2.837  -5.550  0.00  0.00     0.037 H 
ATOM     10  C   LIG d   1       4.473  -0.874  -5.591  0.00  0.00    -0.020 C 
ATOM     11  C   LIG d   1       4.713  -0.643  -7.103  0.00  0.00     0.052 C 
ATOM     12  O   LIG d   1       6.086  -0.962  -7.377  0.00  0.00    -0.341 OA
ATOM     13  C   LIG d   1       7.983   1.407  -3.855  0.00  0.00     0.137 C 
ATOM     14  N   LIG d   1       8.549   2.325  -3.500  0.00  0.00    -0.188 NA
ATOM     15  H   LIG d   1       6.817  -0.286  -2.346  0.00  0.00     0.062 H 
ATOM     16  H   LIG d   1       3.512  -1.359  -5.416  0.00  0.00     0.029 H 
ATOM     17  H   LIG d   1       4.544   0.061  -5.035  0.00  0.00     0.029 H 
ATOM     18  H   LIG d   1       4.061  -1.296  -7.685  0.00  0.00     0.056 H 
ATOM     19  H   LIG d   1       4.515   0.398  -7.353  0.00  0.00     0.056 H 
ENDROOT
BRANCH   1  20
ATOM     20  C   LIG d   1       4.732  -1.896  -2.962  0.00  0.00     0.315 C 
ATOM     21  O   LIG d   1       4.012  -2.859  -3.076  0.00  0.00    -0.250 OA
BRANCH  20  22
ATOM     22  O   LIG d   1       4.404  -0.910  -2.111  0.00  0.00    -0.465 OA
BRANCH  22  23
ATOM     23  C   LIG d   1       3.297  -0.082  -2.474  0.00  0.00     0.090 C 
ATOM     24  H   LIG d   1       2.484  -0.230  -1.762  0.00  0.00     0.069 H 
ATOM     25  H   LIG d   1       2.956  -0.348  -3.474  0.00  0.00     0.069 H 
BRANCH  23  26
ATOM     26  C   LIG d   1       3.730   1.385  -2.456  0.00  0.00    -0.031 C 
ATOM     27  H   LIG d   1       3.359   1.862  -1.549  0.00  0.00     0.026 H 
ATOM     28  H   LIG d   1       4.818   1.444  -2.480  0.00  0.00     0.026 H 
ATOM     29  H   LIG d   1       3.319   1.895  -3.328  0.00  0.00     0.026 H 
ENDBRANCH  23  26
ENDBRANCH  22  23
ENDBRANCH  20  22
ENDBRANCH   1  20
TORSDOF 4
ENDMDL
MODEL 4
REMARK VINA RESULT:      -4.7      3.182      4.431
REMARK  4 active torsions:
REMARK  status: ('A' for Active; 'I' for Inactive)
REMARK    1  A    between atoms: C_1  and  C_2 
REMARK    2  A    between atoms: C_2  and  O_3 
REMARK    3  A    between atoms: O_3  and  C_4 
REMARK    4  A    between atoms: C_4  and  C_6 
ROOT
ATOM      1  C   LIG d   1       2.917  -0.113  -7.043  0.00  0.00     0.087 C 
ATOM      2  H   LIG d   1       2.058  -0.759  -7.220  0.00  0.00     0.046 H 
ATOM      3  C   LIG d   1       2.833   0.441  -5.651  0.00  0.00    -0.017 C 
ATOM      4  C   LIG d   1       3.607  -0.010  -4.676  0.00  0.00     0.197 C 
ATOM      5  O   LIG d   1       4.541  -0.961  -4.853  0.00  0.00    -0.454 OA
ATOM      6  C   LIG d   1       4.552  -1.772  -6.031  0.00  0.00     0.206 C 
ATOM      7  H   LIG d   1       3.931  -2.661  -5.930  0.00  0.00     0.106 H 
ATOM      8  C   LIG d   1       4.182  -0.908  -7.257  0.00  0.00     0.040 C 
ATOM      9  H   LIG d   1       4.074  -1.544  -8.137  0.00  0.00     0.037 H 
ATOM     10  C   LIG d   1       5.438  -0.022  -7.394  0.00  0.00    -0.020 C 
ATOM     11  C   LIG d   1       6.556  -1.021  -7.011  0.00  0.00     0.052 C 
ATOM     12  O   LIG d   1       5.949  -2.087  -6.265  0.00  0.00    -0.341 OA
ATOM     13  C   LIG d   1       3.439   0.543  -3.366  0.00  0.00     0.137 C 
ATOM     14  N   LIG d   1       3.307   0.981  -2.326  0.00  0.00    -0.188 NA
ATOM     15  H   LIG d   1       2.123   1.227  -5.439  0.00  0.00     0.062 H 
ATOM     16  H   LIG d   1       5.560   0.328  -8.419  0.00  0.00     0.029 H 
ATOM     17  H   LIG d   1       5.404   0.815  -6.697  0.00  0.00     0.029 H 
ATOM     18  H   LIG d   1       7.020  -1.421  -7.913  0.00  0.00     0.056 H 
ATOM     19  H   LIG d   1       7.306  -0.519  -6.400  0.00  0.00     0.056 H 
ENDROOT
BRANCH   1  20
ATOM     20  C   LIG d   1       2.884   1.028  -8.027  0.00  0.00     0.315 C 
ATOM     21  O   LIG d   1       2.948   2.168  -7.635  0.00  0.00    -0.250 OA
BRANCH  20  22
ATOM     22  O   LIG d   1       2.785   0.775  -9.342  0.00  0.00    -0.465 OA
BRANCH  22  23
ATOM     23  C   LIG d   1       3.596   1.562 -10.217  0.00  0.00     0.090 C 
ATOM     24  H   LIG d   1       4.406   2.019  -9.649  0.00  0.00     0.069 H 
ATOM     25  H   LIG d   1       2.987   2.342 -10.673  0.00  0.00     0.069 H 
BRANCH  23  26
ATOM     26  C   LIG d   1       4.181   0.668 -11.312  0.00  0.00    -0.031 C 
ATOM     27  H   LIG d   1       3.433  -0.061 -11.624  0.00  0.00     0.026 H 
ATOM     28  H   LIG d   1       4.471   1.280 -12.165  0.00  0.00     0.026 H 
ATOM     29  H   LIG d   1       5.056   0.146 -10.925  0.00  0.00     0.026 H 
ENDBRANCH  23  26
ENDBRANCH  22  23
ENDBRANCH  20  22
ENDBRANCH   1  20
TORSDOF 4
ENDMDL
MODEL 5
REMARK VINA RESULT:      -4.7      2.582      5.007
REMARK  4 active torsions:
REMARK  status: ('A' for Active; 'I' for Inactive)
REMARK    1  A    between atoms: C_1  and  C_2 
REMARK    2  A    between atoms: C_2  and  O_3 
REMARK    3  A    between atoms: O_3  and  C_4 
REMARK    4  A    between atoms: C_4  and  C_6 
ROOT
ATOM      1  C   LIG d   1       7.104   0.027  -4.177  0.00  0.00     0.087 C 
ATOM      2  H   LIG d   1       7.877  -0.733  -4.072  0.00  0.00     0.046 H 
ATOM      3  C   LIG d   1       6.296  -0.264  -5.407  0.00  0.00    -0.017 C 
ATOM      4  C   LIG d   1       5.076  -0.775  -5.331  0.00  0.00     0.197 C 
ATOM      5  O   LIG d   1       4.455  -1.038  -4.167  0.00  0.00    -0.454 OA
ATOM      6  C   LIG d   1       5.184  -1.079  -2.937  0.00  0.00     0.206 C 
ATOM      7  H   LIG d   1       5.595  -2.066  -2.729  0.00  0.00     0.106 H 
ATOM      8  C   LIG d   1       6.252   0.037  -2.931  0.00  0.00     0.040 C 
ATOM      9  H   LIG d   1       6.885  -0.064  -2.049  0.00  0.00     0.037 H 
ATOM     10  C   LIG d   1       5.372   1.298  -2.810  0.00  0.00    -0.020 C 
ATOM     11  C   LIG d   1       4.254   0.798  -1.864  0.00  0.00     0.052 C 
ATOM     12  O   LIG d   1       4.245  -0.636  -1.923  0.00  0.00    -0.341 OA
ATOM     13  C   LIG d   1       4.383  -1.062  -6.551  0.00  0.00     0.137 C 
ATOM     14  N   LIG d   1       3.833  -1.289  -7.518  0.00  0.00    -0.188 NA
ATOM     15  H   LIG d   1       6.719  -0.054  -6.378  0.00  0.00     0.062 H 
ATOM     16  H   LIG d   1       5.927   2.121  -2.360  0.00  0.00     0.029 H 
ATOM     17  H   LIG d   1       4.965   1.586  -3.780  0.00  0.00     0.029 H 
ATOM     18  H   LIG d   1       4.461   1.123  -0.843  0.00  0.00     0.056 H 
ATOM     19  H   LIG d   1       3.292   1.191  -2.189  0.00  0.00     0.056 H 
ENDROOT
BRANCH   1  20
ATOM     20  C   LIG d   1       7.761   1.375  -4.330  0.00  0.00     0.315 C 
ATOM     21  O   LIG d   1       7.651   1.987  -5.365  0.00  0.00    -0.250 OA
BRANCH  20  22
ATOM     22  O   LIG d   1       8.468   1.895  -3.315  0.00  0.00    -0.465 OA
BRANCH  22  23
ATOM     23  C   LIG d   1       9.722   2.500  -3.641  0.00  0.00     0.090 C 
ATOM     24  H   LIG d   1       9.821   2.569  -4.724  0.00  0.00     0.069 H 
ATOM     25  H   LIG d   1      10.533   1.892  -3.241  0.00  0.00     0.069 H 
BRANCH  23  26
ATOM     26  C   LIG d   1       9.786   3.901  -3.031  0.00  0.00    -0.031 C 
ATOM     27  H   LIG d   1       9.450   3.862  -1.994  0.00  0.00     0.026 H 
ATOM     28  H   LIG d   1      10.812   4.267  -3.067  0.00  0.00     0.026 H 
ATOM     29  H   LIG d   1       9.140   4.573  -3.597  0.00  0.00     0.026 H 
ENDBRANCH  23  26
ENDBRANCH  22  23
ENDBRANCH  20  22
ENDBRANCH   1  20
TORSDOF 4
ENDMDL
MODEL 6
REMARK VINA RESULT:      -4.6      2.509      4.433
REMARK  4 active torsions:
REMARK  status: ('A' for Active; 'I' for Inactive)
REMARK    1  A    between atoms: C_1  and  C_2 
REMARK    2  A    between atoms: C_2  and  O_3 
REMARK    3  A    between atoms: O_3  and  C_4 
REMARK    4  A    between atoms: C_4  and  C_6 
ROOT
ATOM      1  C   LIG d   1       6.302  -0.707  -3.201  0.00  0.00     0.087 C 
ATOM      2  H   LIG d   1       6.911  -0.853  -2.310  0.00  0.00     0.046 H 
ATOM      3  C   LIG d   1       6.543  -1.843  -4.151  0.00  0.00    -0.017 C 
ATOM      4  C   LIG d   1       5.654  -2.811  -4.315  0.00  0.00     0.197 C 
ATOM      5  O   LIG d   1       4.467  -2.841  -3.684  0.00  0.00    -0.454 OA
ATOM      6  C   LIG d   1       4.211  -1.996  -2.558  0.00  0.00     0.206 C 
ATOM      7  H   LIG d   1       4.514  -2.454  -1.617  0.00  0.00     0.106 H 
ATOM      8  C   LIG d   1       4.851  -0.610  -2.794  0.00  0.00     0.040 C 
ATOM      9  H   LIG d   1       4.760  -0.005  -1.891  0.00  0.00     0.037 H 
ATOM     10  C   LIG d   1       3.947  -0.043  -3.907  0.00  0.00    -0.020 C 
ATOM     11  C   LIG d   1       2.563  -0.592  -3.481  0.00  0.00     0.052 C 
ATOM     12  O   LIG d   1       2.789  -1.711  -2.611  0.00  0.00    -0.341 OA
ATOM     13  C   LIG d   1       5.974  -3.881  -5.211  0.00  0.00     0.137 C 
ATOM     14  N   LIG d   1       6.228  -4.730  -5.922  0.00  0.00    -0.188 NA
ATOM     15  H   LIG d   1       7.464  -1.873  -4.713  0.00  0.00     0.062 H 
ATOM     16  H   LIG d   1       3.955   1.046  -3.901  0.00  0.00     0.029 H 
ATOM     17  H   LIG d   1       4.238  -0.430  -4.884  0.00  0.00     0.029 H 
ATOM     18  H   LIG d   1       2.006   0.181  -2.950  0.00  0.00     0.056 H 
ATOM     19  H   LIG d   1       2.006  -0.912  -4.361  0.00  0.00     0.056 H 
ENDROOT
BRANCH   1  20
ATOM     20  C   LIG d   1       6.709   0.583  -3.866  0.00  0.00     0.315 C 
ATOM     21  O   LIG d   1       6.855   1.584  -3.207  0.00  0.00    -0.250 OA
BRANCH  20  22
ATOM     22  O   LIG d   1       6.909   0.618  -5.194  0.00  0.00    -0.465 OA
BRANCH  22  23
ATOM     23  C   LIG d   1       8.061   1.326  -5.657  0.00  0.00     0.090 C 
ATOM     24  H   LIG d   1       8.449   1.953  -4.855  0.00  0.00     0.069 H 
ATOM     25  H   LIG d   1       7.786   1.951  -6.505  0.00  0.00     0.069 H 
BRANCH  23  26
ATOM     26  C   LIG d   1       9.135   0.325  -6.089  0.00  0.00    -0.031 C 
ATOM     27  H   LIG d   1       9.168   0.275  -7.177  0.00  0.00     0.026 H 
ATOM     28  H   LIG d   1      10.105   0.647  -5.709  0.00  0.00     0.026 H 
ATOM     29  H   LIG d   1       8.895  -0.660  -5.687  0.00  0.00     0.026 H 
ENDBRANCH  23  26
ENDBRANCH  22  23
ENDBRANCH  20  22
ENDBRANCH   1  20
TORSDOF 4
ENDMDL
MODEL 7
REMARK VINA RESULT:      -4.6      3.186      4.587
REMARK  4 active torsions:
REMARK  status: ('A' for Active; 'I' for Inactive)
REMARK    1  A    between atoms: C_1  and  C_2 
REMARK    2  A    between atoms: C_2  and  O_3 
REMARK    3  A    between atoms: O_3  and  C_4 
REMARK    4  A    between atoms: C_4  and  C_6 
ROOT
ATOM      1  C   LIG d   1       5.270  -1.242  -5.797  0.00  0.00     0.087 C 
ATOM      2  H   LIG d   1       6.346  -1.081  -5.857  0.00  0.00     0.046 H 
ATOM      3  C   LIG d   1       4.982  -2.702  -5.983  0.00  0.00    -0.017 C 
ATOM      4  C   LIG d   1       4.647  -3.479  -4.964  0.00  0.00     0.197 C 
ATOM      5  O   LIG d   1       4.503  -3.028  -3.706  0.00  0.00    -0.454 OA
ATOM      6  C   LIG d   1       5.007  -1.745  -3.323  0.00  0.00     0.206 C 
ATOM      7  H   LIG d   1       6.044  -1.786  -2.994  0.00  0.00     0.106 H 
ATOM      8  C   LIG d   1       4.771  -0.734  -4.466  0.00  0.00     0.040 C 
ATOM      9  H   LIG d   1       5.257   0.213  -4.226  0.00  0.00     0.037 H 
ATOM     10  C   LIG d   1       3.238  -0.571  -4.417  0.00  0.00    -0.020 C 
ATOM     11  C   LIG d   1       2.975  -0.635  -2.893  0.00  0.00     0.052 C 
ATOM     12  O   LIG d   1       4.107  -1.277  -2.285  0.00  0.00    -0.341 OA
ATOM     13  C   LIG d   1       4.425  -4.871  -5.217  0.00  0.00     0.137 C 
ATOM     14  N   LIG d   1       4.249  -5.975  -5.417  0.00  0.00    -0.188 NA
ATOM     15  H   LIG d   1       5.051  -3.131  -6.972  0.00  0.00     0.062 H 
ATOM     16  H   LIG d   1       2.933   0.392  -4.827  0.00  0.00     0.029 H 
ATOM     17  H   LIG d   1       2.740  -1.391  -4.935  0.00  0.00     0.029 H 
ATOM     18  H   LIG d   1       2.867   0.374  -2.493  0.00  0.00     0.056 H 
ATOM     19  H   LIG d   1       2.071  -1.210  -2.698  0.00  0.00     0.056 H 
ENDROOT
BRANCH   1  20
ATOM     20  C   LIG d   1       4.597  -0.465  -6.900  0.00  0.00     0.315 C 
ATOM     21  O   LIG d   1       4.944   0.666  -7.142  0.00  0.00    -0.250 OA
BRANCH  20  22
ATOM     22  O   LIG d   1       3.611  -1.032  -7.613  0.00  0.00    -0.465 OA
BRANCH  22  23
ATOM     23  C   LIG d   1       2.567  -0.172  -8.074  0.00  0.00     0.090 C 
ATOM     24  H   LIG d   1       2.977   0.814  -8.290  0.00  0.00     0.069 H 
ATOM     25  H   LIG d   1       1.801  -0.085  -7.304  0.00  0.00     0.069 H 
BRANCH  23  26
ATOM     26  C   LIG d   1       1.948  -0.757  -9.345  0.00  0.00    -0.031 C 
ATOM     27  H   LIG d   1       0.920  -1.059  -9.142  0.00  0.00     0.026 H 
ATOM     28  H   LIG d   1       1.957  -0.005 -10.134  0.00  0.00     0.026 H 
ATOM     29  H   LIG d   1       2.526  -1.625  -9.664  0.00  0.00     0.026 H 
ENDBRANCH  23  26
ENDBRANCH  22  23
ENDBRANCH  20  22
ENDBRANCH   1  20
TORSDOF 4
ENDMDL
MODEL 8
REMARK VINA RESULT:      -4.4      2.850      4.528
REMARK  4 active torsions:
REMARK  status: ('A' for Active; 'I' for Inactive)
REMARK    1  A    between atoms: C_1  and  C_2 
REMARK    2  A    between atoms: C_2  and  O_3 
REMARK    3  A    between atoms: O_3  and  C_4 
REMARK    4  A    between atoms: C_4  and  C_6 
ROOT
ATOM      1  C   LIG d   1       3.704  -0.584  -6.052  0.00  0.00     0.087 C 
ATOM      2  H   LIG d   1       3.494  -1.639  -5.882  0.00  0.00     0.046 H 
ATOM      3  C   LIG d   1       5.190  -0.380  -6.085  0.00  0.00    -0.017 C 
ATOM      4  C   LIG d   1       5.837  -0.175  -7.223  0.00  0.00     0.197 C 
ATOM      5  O   LIG d   1       5.227  -0.097  -8.418  0.00  0.00    -0.454 OA
ATOM      6  C   LIG d   1       3.878  -0.541  -8.585  0.00  0.00     0.206 C 
ATOM      7  H   LIG d   1       3.815  -1.601  -8.829  0.00  0.00     0.106 H 
ATOM      8  C   LIG d   1       3.047  -0.154  -7.342  0.00  0.00     0.040 C 
ATOM      9  H   LIG d   1       2.051  -0.592  -7.413  0.00  0.00     0.037 H 
ATOM     10  C   LIG d   1       2.965   1.379  -7.497  0.00  0.00    -0.020 C 
ATOM     11  C   LIG d   1       2.834   1.521  -9.033  0.00  0.00     0.052 C 
ATOM     12  O   LIG d   1       3.323   0.308  -9.623  0.00  0.00    -0.341 OA
ATOM     13  C   LIG d   1       7.261  -0.028  -7.175  0.00  0.00     0.137 C 
ATOM     14  N   LIG d   1       8.390   0.088  -7.139  0.00  0.00    -0.188 NA
ATOM     15  H   LIG d   1       5.746  -0.404  -5.160  0.00  0.00     0.062 H 
ATOM     16  H   LIG d   1       2.086   1.777  -6.990  0.00  0.00     0.029 H 
ATOM     17  H   LIG d   1       3.875   1.858  -7.134  0.00  0.00     0.029 H 
ATOM     18  H   LIG d   1       1.788   1.667  -9.303  0.00  0.00     0.056 H 
ATOM     19  H   LIG d   1       3.427   2.368  -9.377  0.00  0.00     0.056 H 
ENDROOT
BRANCH   1  20
ATOM     20  C   LIG d   1       3.124   0.220  -4.917  0.00  0.00     0.315 C 
ATOM     21  O   LIG d   1       1.943   0.162  -4.676  0.00  0.00    -0.250 OA
BRANCH  20  22
ATOM     22  O   LIG d   1       3.924   1.001  -4.173  0.00  0.00    -0.465 OA
BRANCH  22  23
ATOM     23  C   LIG d   1       3.493   1.287  -2.840  0.00  0.00     0.090 C 
ATOM     24  H   LIG d   1       2.570   0.746  -2.633  0.00  0.00     0.069 H 
ATOM     25  H   LIG d   1       3.316   2.357  -2.738  0.00  0.00     0.069 H 
BRANCH  23  26
ATOM     26  C   LIG d   1       4.574   0.851  -1.850  0.00  0.00    -0.031 C 
ATOM     27  H   LIG d   1       4.242   1.065  -0.833  0.00  0.00     0.026 H 
ATOM     28  H   LIG d   1       4.756  -0.218  -1.956  0.00  0.00     0.026 H 
ATOM     29  H   LIG d   1       5.494   1.399  -2.053  0.00  0.00     0.026 H 
ENDBRANCH  23  26
ENDBRANCH  22  23
ENDBRANCH  20  22
ENDBRANCH   1  20
TORSDOF 4
ENDMDL
MODEL 9
REMARK VINA RESULT:      -4.4      4.358      6.619
REMARK  4 active torsions:
REMARK  status: ('A' for Active; 'I' for Inactive)
REMARK    1  A    between atoms: C_1  and  C_2 
REMARK    2  A    between atoms: C_2  and  O_3 
REMARK    3  A    between atoms: O_3  and  C_4 
REMARK    4  A    between atoms: C_4  and  C_6 
ROOT
ATOM      1  C   LIG d   1       2.783  -0.097  -7.532  0.00  0.00     0.087 C 
ATOM      2  H   LIG d   1       1.781   0.031  -7.124  0.00  0.00     0.046 H 
ATOM      3  C   LIG d   1       2.751  -1.166  -8.584  0.00  0.00    -0.017 C 
ATOM      4  C   LIG d   1       2.810  -0.872  -9.874  0.00  0.00     0.197 C 
ATOM      5  O   LIG d   1       2.936   0.383 -10.343  0.00  0.00    -0.454 OA
ATOM      6  C   LIG d   1       2.702   1.511  -9.495  0.00  0.00     0.206 C 
ATOM      7  H   LIG d   1       1.656   1.816  -9.488  0.00  0.00     0.106 H 
ATOM      8  C   LIG d   1       3.261   1.224  -8.084  0.00  0.00     0.040 C 
ATOM      9  H   LIG d   1       2.982   2.031  -7.406  0.00  0.00     0.037 H 
ATOM     10  C   LIG d   1       4.781   1.255  -8.348  0.00  0.00    -0.020 C 
ATOM     11  C   LIG d   1       4.883   2.391  -9.395  0.00  0.00     0.052 C 
ATOM     12  O   LIG d   1       3.586   2.549  -9.990  0.00  0.00    -0.341 OA
ATOM     13  C   LIG d   1       2.734  -1.945 -10.819  0.00  0.00     0.137 C 
ATOM     14  N   LIG d   1       2.675  -2.796 -11.568  0.00  0.00    -0.188 NA
ATOM     15  H   LIG d   1       2.677  -2.200  -8.283  0.00  0.00     0.062 H 
ATOM     16  H   LIG d   1       5.330   1.508  -7.441  0.00  0.00     0.029 H 
ATOM     17  H   LIG d   1       5.126   0.308  -8.762  0.00  0.00     0.029 H 
ATOM     18  H   LIG d   1       5.179   3.319  -8.906  0.00  0.00     0.056 H 
ATOM     19  H   LIG d   1       5.613   2.124 -10.158  0.00  0.00     0.056 H 
ENDROOT
BRANCH   1  20
ATOM     20  C   LIG d   1       3.711  -0.528  -6.424  0.00  0.00     0.315 C 
ATOM     21  O   LIG d   1       4.371  -1.531  -6.544  0.00  0.00    -0.250 OA
BRANCH  20  22
ATOM     22  O   LIG d   1       3.803   0.206  -5.304  0.00  0.00    -0.465 OA
BRANCH  22  23
ATOM     23  C   LIG d   1       2.621   0.326  -4.509  0.00  0.00     0.090 C 
ATOM     24  H   LIG d   1       1.746   0.118  -5.124  0.00  0.00     0.069 H 
ATOM     25  H   LIG d   1       2.552   1.338  -4.111  0.00  0.00     0.069 H 
BRANCH  23  26
ATOM     26  C   LIG d   1       2.681  -0.674  -3.352  0.00  0.00    -0.031 C 
ATOM     27  H   LIG d   1       2.192  -0.246  -2.477  0.00  0.00     0.026 H 
ATOM     28  H   LIG d   1       2.173  -1.594  -3.640  0.00  0.00     0.026 H 
ATOM     29  H   LIG d   1       3.723  -0.893  -3.116  0.00  0.00     0.026 H 
ENDBRANCH  23  26
ENDBRANCH  22  23
ENDBRANCH  20  22
ENDBRANCH   1  20
TORSDOF 4
ENDMDL
