MODEL 1
REMARK VINA RESULT:      -7.0      0.000      0.000
REMARK  8 active torsions:
REMARK  status: ('A' for Active; 'I' for Inactive)
REMARK    1  A    between atoms: C_1  and  N_2 
REMARK    2  A    between atoms: N_2  and  C_3 
REMARK    3  A    between atoms: N_2  and  C_4 
REMARK    4  A    between atoms: C_7  and  C_10 
REMARK    5  A    between atoms: N_14  and  C_15 
REMARK    6  A    between atoms: C_25  and  N_27 
REMARK    7  A    between atoms: N_27  and  C_28 
REMARK    8  A    between atoms: N_30  and  C_31 
ROOT
ATOM      1  C   LIG d   1      10.728   5.399  -3.158  0.00  0.00     0.108 C 
ATOM      2  H   LIG d   1      11.538   5.710  -3.818  0.00  0.00     0.060 H 
ATOM      3  C   LIG d   1      11.198   4.266  -2.219  0.00  0.00     0.073 C 
ATOM      4  O   LIG d   1      10.842   3.049  -2.906  0.00  0.00    -0.370 OA
ATOM      5  C   LIG d   1       9.547   3.288  -3.499  0.00  0.00     0.107 C 
ATOM      6  H   LIG d   1       8.714   3.072  -2.830  0.00  0.00     0.064 H 
ATOM      7  C   LIG d   1       9.585   4.762  -3.970  0.00  0.00     0.111 C 
ATOM      8  H   LIG d   1       8.638   5.260  -3.762  0.00  0.00     0.065 H 
ATOM      9  O   LIG d   1       9.887   4.779  -5.361  0.00  0.00    -0.370 OA
ATOM     10  C   LIG d   1      10.116   3.453  -5.844  0.00  0.00     0.069 C 
ATOM     11  C   LIG d   1       9.481   2.490  -4.823  0.00  0.00     0.074 C 
ATOM     12  H   LIG d   1      10.059   1.570  -4.747  0.00  0.00     0.055 H 
ATOM     13  H   LIG d   1      12.276   4.317  -2.072  0.00  0.00     0.058 H 
ATOM     14  H   LIG d   1      10.681   4.327  -1.262  0.00  0.00     0.058 H 
ATOM     15  H   LIG d   1      11.186   3.263  -5.920  0.00  0.00     0.058 H 
ATOM     16  H   LIG d   1       9.645   3.325  -6.820  0.00  0.00     0.058 H 
ENDROOT
BRANCH   1  17
ATOM     17  N   LIG d   1      10.234   6.540  -2.383  0.00  0.00    -0.217 N 
ATOM     18  C   LIG d   1      10.064   7.816  -2.810  0.00  0.00     0.182 A 
ATOM     19  N   LIG d   1       9.601   8.507  -1.790  0.00  0.00    -0.108 NA
ATOM     20  N   LIG d   1       9.471   7.752  -0.758  0.00  0.00    -0.023 NA
ATOM     21  N   LIG d   1       9.829   6.546  -1.036  0.00  0.00    -0.043 NA
BRANCH  18  22
ATOM     22  C   LIG d   1      10.345   8.333  -4.167  0.00  0.00     0.021 A 
ATOM     23  C   LIG d   1       9.366   8.259  -5.160  0.00  0.00    -0.049 A 
ATOM     24  C   LIG d   1       9.630   8.742  -6.423  0.00  0.00    -0.040 A 
ATOM     25  H   LIG d   1       8.402   7.826  -4.937  0.00  0.00     0.062 H 
ATOM     26  C   LIG d   1      10.871   9.301  -6.710  0.00  0.00     0.029 A 
ATOM     27  H   LIG d   1       8.873   8.685  -7.191  0.00  0.00     0.064 H 
ATOM     28  C   LIG d   1      11.849   9.375  -5.723  0.00  0.00    -0.040 A 
ATOM     29  C   LIG d   1      11.588   8.899  -4.457  0.00  0.00    -0.049 A 
ATOM     30  H   LIG d   1      12.811   9.809  -5.949  0.00  0.00     0.064 H 
ATOM     31  H   LIG d   1      12.346   8.960  -3.689  0.00  0.00     0.062 H 
BRANCH  26  32
ATOM     32  N   LIG d   1      11.136   9.788  -7.989  0.00  0.00    -0.336 N 
BRANCH  32  33
ATOM     33  C   LIG d   1      10.971   8.914  -9.154  0.00  0.00     0.000 C 
ATOM     34  H   LIG d   1      11.208   7.888  -8.874  0.00  0.00     0.043 H 
ATOM     35  H   LIG d   1       9.939   8.967  -9.504  0.00  0.00     0.043 H 
ATOM     36  H   LIG d   1      11.641   9.237  -9.949  0.00  0.00     0.043 H 
ENDBRANCH  32  33
BRANCH  32  37
ATOM     37  C   LIG d   1      11.579  11.172  -8.169  0.00  0.00     0.000 C 
ATOM     38  H   LIG d   1      12.658  11.191  -8.321  0.00  0.00     0.043 H 
ATOM     39  H   LIG d   1      11.082  11.604  -9.038  0.00  0.00     0.043 H 
ATOM     40  H   LIG d   1      11.327  11.752  -7.282  0.00  0.00     0.043 H 
ENDBRANCH  32  37
ENDBRANCH  26  32
ENDBRANCH  18  22
ENDBRANCH   1  17
BRANCH  11  41
ATOM     41  N   LIG d   1       8.090   2.199  -5.182  0.00  0.00    -0.319 N 
ATOM     42  H   LIG d   1       7.593   2.819  -5.737  0.00  0.00     0.148 HD
BRANCH  41  43
ATOM     43  C   LIG d   1       7.503   1.070  -4.739  0.00  0.00     0.131 C 
ATOM     44  S   LIG d   1       8.240  -0.449  -5.028  0.00  0.00    -0.019 SA
ATOM     45  N   LIG d   1       6.335   1.135  -4.071  0.00  0.00    -0.324 N 
ATOM     46  H   LIG d   1       5.917   1.996  -3.907  0.00  0.00     0.148 HD
BRANCH  45  47
ATOM     47  C   LIG d   1       5.696  -0.092  -3.589  0.00  0.00     0.022 C 
ATOM     48  C   LIG d   1       5.063   0.165  -2.220  0.00  0.00    -0.035 C 
ATOM     49  C   LIG d   1       4.397  -1.117  -1.718  0.00  0.00    -0.051 C 
ATOM     50  H   LIG d   1       5.835   0.474  -1.515  0.00  0.00     0.028 H 
ATOM     51  H   LIG d   1       4.316   0.952  -2.308  0.00  0.00     0.028 H 
ATOM     52  C   LIG d   1       3.314  -1.551  -2.707  0.00  0.00    -0.053 C 
ATOM     53  H   LIG d   1       5.145  -1.905  -1.630  0.00  0.00     0.027 H 
ATOM     54  H   LIG d   1       3.947  -0.934  -0.742  0.00  0.00     0.027 H 
ATOM     55  C   LIG d   1       3.947  -1.809  -4.076  0.00  0.00    -0.051 C 
ATOM     56  H   LIG d   1       2.566  -0.763  -2.795  0.00  0.00     0.026 H 
ATOM     57  H   LIG d   1       2.839  -2.465  -2.349  0.00  0.00     0.026 H 
ATOM     58  C   LIG d   1       4.613  -0.526  -4.578  0.00  0.00    -0.035 C 
ATOM     59  H   LIG d   1       3.175  -2.117  -4.781  0.00  0.00     0.027 H 
ATOM     60  H   LIG d   1       4.695  -2.596  -3.988  0.00  0.00     0.027 H 
ATOM     61  H   LIG d   1       5.064  -0.709  -5.554  0.00  0.00     0.028 H 
ATOM     62  H   LIG d   1       3.865   0.262  -4.667  0.00  0.00     0.028 H 
ATOM     63  H   LIG d   1       6.444  -0.880  -3.501  0.00  0.00     0.050 H 
ENDBRANCH  45  47
ENDBRANCH  41  43
ENDBRANCH  11  41
TORSDOF 8
ENDMDL
MODEL 2
REMARK VINA RESULT:      -6.9      8.349     11.537
REMARK  8 active torsions:
REMARK  status: ('A' for Active; 'I' for Inactive)
REMARK    1  A    between atoms: C_1  and  N_2 
REMARK    2  A    between atoms: N_2  and  C_3 
REMARK    3  A    between atoms: N_2  and  C_4 
REMARK    4  A    between atoms: C_7  and  C_10 
REMARK    5  A    between atoms: N_14  and  C_15 
REMARK    6  A    between atoms: C_25  and  N_27 
REMARK    7  A    between atoms: N_27  and  C_28 
REMARK    8  A    between atoms: N_30  and  C_31 
ROOT
ATOM      1  C   LIG d   1       4.876  -2.145  -9.954  0.00  0.00     0.108 C 
ATOM      2  H   LIG d   1       4.469  -2.753 -10.762  0.00  0.00     0.060 H 
ATOM      3  C   LIG d   1       6.373  -2.460  -9.740  0.00  0.00     0.073 C 
ATOM      4  O   LIG d   1       6.393  -3.479  -8.720  0.00  0.00    -0.370 OA
ATOM      5  C   LIG d   1       5.374  -3.109  -7.765  0.00  0.00     0.107 C 
ATOM      6  H   LIG d   1       5.728  -2.427  -6.992  0.00  0.00     0.064 H 
ATOM      7  C   LIG d   1       4.219  -2.523  -8.613  0.00  0.00     0.111 C 
ATOM      8  H   LIG d   1       3.791  -1.644  -8.130  0.00  0.00     0.065 H 
ATOM      9  O   LIG d   1       3.243  -3.541  -8.801  0.00  0.00    -0.370 OA
ATOM     10  C   LIG d   1       3.673  -4.770  -8.209  0.00  0.00     0.069 C 
ATOM     11  C   LIG d   1       4.772  -4.413  -7.190  0.00  0.00     0.074 C 
ATOM     12  H   LIG d   1       5.526  -5.197  -7.144  0.00  0.00     0.055 H 
ATOM     13  H   LIG d   1       6.817  -2.835 -10.661  0.00  0.00     0.058 H 
ATOM     14  H   LIG d   1       6.902  -1.570  -9.398  0.00  0.00     0.058 H 
ATOM     15  H   LIG d   1       4.076  -5.431  -8.975  0.00  0.00     0.058 H 
ATOM     16  H   LIG d   1       2.836  -5.252  -7.701  0.00  0.00     0.058 H 
ENDROOT
BRANCH   1  17
ATOM     17  N   LIG d   1       4.683  -0.721 -10.238  0.00  0.00    -0.217 N 
ATOM     18  C   LIG d   1       3.790  -0.164 -11.094  0.00  0.00     0.182 A 
ATOM     19  N   LIG d   1       3.960   1.140 -11.036  0.00  0.00    -0.108 NA
ATOM     20  N   LIG d   1       4.895   1.434 -10.205  0.00  0.00    -0.023 NA
ATOM     21  N   LIG d   1       5.379   0.364  -9.676  0.00  0.00    -0.043 NA
BRANCH  18  22
ATOM     22  C   LIG d   1       2.810  -0.887 -11.934  0.00  0.00     0.021 A 
ATOM     23  C   LIG d   1       3.193  -1.391 -13.178  0.00  0.00    -0.049 A 
ATOM     24  C   LIG d   1       2.280  -2.065 -13.959  0.00  0.00    -0.040 A 
ATOM     25  H   LIG d   1       4.206  -1.255 -13.528  0.00  0.00     0.062 H 
ATOM     26  C   LIG d   1       0.975  -2.241 -13.509  0.00  0.00     0.029 A 
ATOM     27  H   LIG d   1       2.576  -2.455 -14.920  0.00  0.00     0.064 H 
ATOM     28  C   LIG d   1       0.590  -1.739 -12.270  0.00  0.00    -0.040 A 
ATOM     29  C   LIG d   1       1.502  -1.070 -11.482  0.00  0.00    -0.049 A 
ATOM     30  H   LIG d   1      -0.423  -1.877 -11.922  0.00  0.00     0.064 H 
ATOM     31  H   LIG d   1       1.204  -0.683 -10.519  0.00  0.00     0.062 H 
BRANCH  26  32
ATOM     32  N   LIG d   1       0.052  -2.923 -14.300  0.00  0.00    -0.336 N 
BRANCH  32  33
ATOM     33  C   LIG d   1      -1.311  -3.144 -13.809  0.00  0.00     0.000 C 
ATOM     34  H   LIG d   1      -1.691  -4.084 -14.208  0.00  0.00     0.043 H 
ATOM     35  H   LIG d   1      -1.301  -3.188 -12.720  0.00  0.00     0.043 H 
ATOM     36  H   LIG d   1      -1.951  -2.325 -14.134  0.00  0.00     0.043 H 
ENDBRANCH  32  33
BRANCH  32  37
ATOM     37  C   LIG d   1       0.444  -3.418 -15.622  0.00  0.00     0.000 C 
ATOM     38  H   LIG d   1      -0.231  -3.015 -16.376  0.00  0.00     0.043 H 
ATOM     39  H   LIG d   1       1.464  -3.100 -15.842  0.00  0.00     0.043 H 
ATOM     40  H   LIG d   1       0.393  -4.506 -15.632  0.00  0.00     0.043 H 
ENDBRANCH  32  37
ENDBRANCH  26  32
ENDBRANCH  18  22
ENDBRANCH   1  17
BRANCH  11  41
ATOM     41  N   LIG d   1       4.192  -4.174  -5.866  0.00  0.00    -0.319 N 
ATOM     42  H   LIG d   1       3.498  -4.761  -5.528  0.00  0.00     0.148 HD
BRANCH  41  43
ATOM     43  C   LIG d   1       4.622  -3.138  -5.120  0.00  0.00     0.131 C 
ATOM     44  S   LIG d   1       6.264  -3.050  -4.641  0.00  0.00    -0.019 SA
ATOM     45  N   LIG d   1       3.759  -2.171  -4.748  0.00  0.00    -0.324 N 
ATOM     46  H   LIG d   1       2.829  -2.221  -5.020  0.00  0.00     0.148 HD
BRANCH  45  47
ATOM     47  C   LIG d   1       4.226  -1.044  -3.937  0.00  0.00     0.022 C 
ATOM     48  C   LIG d   1       3.428   0.210  -4.297  0.00  0.00    -0.035 C 
ATOM     49  C   LIG d   1       3.917   1.386  -3.450  0.00  0.00    -0.051 C 
ATOM     50  H   LIG d   1       3.569   0.440  -5.354  0.00  0.00     0.028 H 
ATOM     51  H   LIG d   1       2.371   0.036  -4.102  0.00  0.00     0.028 H 
ATOM     52  C   LIG d   1       3.719   1.065  -1.968  0.00  0.00    -0.053 C 
ATOM     53  H   LIG d   1       4.975   1.560  -3.646  0.00  0.00     0.027 H 
ATOM     54  H   LIG d   1       3.348   2.280  -3.707  0.00  0.00     0.027 H 
ATOM     55  C   LIG d   1       4.518  -0.190  -1.607  0.00  0.00    -0.051 C 
ATOM     56  H   LIG d   1       2.661   0.890  -1.771  0.00  0.00     0.026 H 
ATOM     57  H   LIG d   1       4.067   1.903  -1.364  0.00  0.00     0.026 H 
ATOM     58  C   LIG d   1       4.029  -1.366  -2.455  0.00  0.00    -0.035 C 
ATOM     59  H   LIG d   1       4.376  -0.419  -0.551  0.00  0.00     0.027 H 
ATOM     60  H   LIG d   1       5.576  -0.016  -1.803  0.00  0.00     0.027 H 
ATOM     61  H   LIG d   1       4.597  -2.260  -2.198  0.00  0.00     0.028 H 
ATOM     62  H   LIG d   1       2.971  -1.541  -2.258  0.00  0.00     0.028 H 
ATOM     63  H   LIG d   1       5.285  -0.870  -4.132  0.00  0.00     0.050 H 
ENDBRANCH  45  47
ENDBRANCH  41  43
ENDBRANCH  11  41
TORSDOF 8
ENDMDL
MODEL 3
REMARK VINA RESULT:      -6.8      7.348     10.228
REMARK  8 active torsions:
REMARK  status: ('A' for Active; 'I' for Inactive)
REMARK    1  A    between atoms: C_1  and  N_2 
REMARK    2  A    between atoms: N_2  and  C_3 
REMARK    3  A    between atoms: N_2  and  C_4 
REMARK    4  A    between atoms: C_7  and  C_10 
REMARK    5  A    between atoms: N_14  and  C_15 
REMARK    6  A    between atoms: C_25  and  N_27 
REMARK    7  A    between atoms: N_27  and  C_28 
REMARK    8  A    between atoms: N_30  and  C_31 
ROOT
ATOM      1  C   LIG d   1       6.273  -0.470  -9.715  0.00  0.00     0.108 C 
ATOM      2  H   LIG d   1       6.145  -0.885 -10.715  0.00  0.00     0.060 H 
ATOM      3  C   LIG d   1       7.773  -0.326  -9.375  0.00  0.00     0.073 C 
ATOM      4  O   LIG d   1       8.116  -1.552  -8.698  0.00  0.00    -0.370 OA
ATOM      5  C   LIG d   1       6.995  -1.864  -7.843  0.00  0.00     0.107 C 
ATOM      6  H   LIG d   1       7.048  -1.388  -6.863  0.00  0.00     0.064 H 
ATOM      7  C   LIG d   1       5.742  -1.451  -8.653  0.00  0.00     0.111 C 
ATOM      8  H   LIG d   1       5.007  -0.966  -8.010  0.00  0.00     0.065 H 
ATOM      9  O   LIG d   1       5.205  -2.617  -9.270  0.00  0.00    -0.370 OA
ATOM     10  C   LIG d   1       6.024  -3.756  -8.994  0.00  0.00     0.069 C 
ATOM     11  C   LIG d   1       6.879  -3.404  -7.762  0.00  0.00     0.074 C 
ATOM     12  H   LIG d   1       7.862  -3.868  -7.827  0.00  0.00     0.055 H 
ATOM     13  H   LIG d   1       8.360  -0.218 -10.287  0.00  0.00     0.058 H 
ATOM     14  H   LIG d   1       7.932   0.529  -8.718  0.00  0.00     0.058 H 
ATOM     15  H   LIG d   1       6.669  -3.967  -9.847  0.00  0.00     0.058 H 
ATOM     16  H   LIG d   1       5.397  -4.622  -8.778  0.00  0.00     0.058 H 
ENDROOT
BRANCH   1  17
ATOM     17  N   LIG d   1       5.592   0.823  -9.607  0.00  0.00    -0.217 N 
ATOM     18  C   LIG d   1       4.311   1.111  -9.949  0.00  0.00     0.182 A 
ATOM     19  N   LIG d   1       4.119   2.387  -9.685  0.00  0.00    -0.108 NA
ATOM     20  N   LIG d   1       5.189   2.912  -9.204  0.00  0.00    -0.023 NA
ATOM     21  N   LIG d   1       6.124   2.030  -9.121  0.00  0.00    -0.043 NA
BRANCH  18  22
ATOM     22  C   LIG d   1       3.319   0.170 -10.511  0.00  0.00     0.021 A 
ATOM     23  C   LIG d   1       2.222  -0.229  -9.744  0.00  0.00    -0.049 A 
ATOM     24  C   LIG d   1       1.298  -1.106 -10.270  0.00  0.00    -0.040 A 
ATOM     25  H   LIG d   1       2.097   0.150  -8.741  0.00  0.00     0.062 H 
ATOM     26  C   LIG d   1       1.457  -1.593 -11.563  0.00  0.00     0.029 A 
ATOM     27  H   LIG d   1       0.450  -1.414  -9.677  0.00  0.00     0.064 H 
ATOM     28  C   LIG d   1       2.549  -1.197 -12.329  0.00  0.00    -0.040 A 
ATOM     29  C   LIG d   1       3.473  -0.317 -11.810  0.00  0.00    -0.049 A 
ATOM     30  H   LIG d   1       2.671  -1.577 -13.332  0.00  0.00     0.064 H 
ATOM     31  H   LIG d   1       4.319  -0.007 -12.406  0.00  0.00     0.062 H 
BRANCH  26  32
ATOM     32  N   LIG d   1       0.521  -2.480 -12.093  0.00  0.00    -0.336 N 
BRANCH  32  33
ATOM     33  C   LIG d   1      -0.331  -2.064 -13.210  0.00  0.00     0.000 C 
ATOM     34  H   LIG d   1      -0.546  -1.000 -13.125  0.00  0.00     0.043 H 
ATOM     35  H   LIG d   1       0.184  -2.258 -14.151  0.00  0.00     0.043 H 
ATOM     36  H   LIG d   1      -1.264  -2.626 -13.184  0.00  0.00     0.043 H 
ENDBRANCH  32  33
BRANCH  32  37
ATOM     37  C   LIG d   1       0.389  -3.827 -11.532  0.00  0.00     0.000 C 
ATOM     38  H   LIG d   1       0.922  -3.880 -10.583  0.00  0.00     0.043 H 
ATOM     39  H   LIG d   1      -0.665  -4.052 -11.370  0.00  0.00     0.043 H 
ATOM     40  H   LIG d   1       0.812  -4.552 -12.227  0.00  0.00     0.043 H 
ENDBRANCH  32  37
ENDBRANCH  26  32
ENDBRANCH  18  22
ENDBRANCH   1  17
BRANCH  11  41
ATOM     41  N   LIG d   1       6.198  -3.807  -6.528  0.00  0.00    -0.319 N 
ATOM     42  H   LIG d   1       5.647  -4.604  -6.517  0.00  0.00     0.148 HD
BRANCH  41  43
ATOM     43  C   LIG d   1       6.337  -3.067  -5.410  0.00  0.00     0.131 C 
ATOM     44  S   LIG d   1       7.791  -3.143  -4.508  0.00  0.00    -0.019 SA
ATOM     45  N   LIG d   1       5.332  -2.269  -5.001  0.00  0.00    -0.324 N 
ATOM     46  H   LIG d   1       4.508  -2.225  -5.512  0.00  0.00     0.148 HD
BRANCH  45  47
ATOM     47  C   LIG d   1       5.483  -1.465  -3.785  0.00  0.00     0.022 C 
ATOM     48  C   LIG d   1       5.560   0.017  -4.159  0.00  0.00    -0.035 C 
ATOM     49  C   LIG d   1       5.718   0.856  -2.890  0.00  0.00    -0.051 C 
ATOM     50  H   LIG d   1       6.417   0.182  -4.814  0.00  0.00     0.028 H 
ATOM     51  H   LIG d   1       4.647   0.309  -4.676  0.00  0.00     0.028 H 
ATOM     52  C   LIG d   1       4.517   0.623  -1.972  0.00  0.00    -0.053 C 
ATOM     53  H   LIG d   1       6.632   0.563  -2.372  0.00  0.00     0.027 H 
ATOM     54  H   LIG d   1       5.774   1.911  -3.157  0.00  0.00     0.027 H 
ATOM     55  C   LIG d   1       4.440  -0.858  -1.597  0.00  0.00    -0.051 C 
ATOM     56  H   LIG d   1       3.603   0.916  -2.489  0.00  0.00     0.026 H 
ATOM     57  H   LIG d   1       4.629   1.222  -1.067  0.00  0.00     0.026 H 
ATOM     58  C   LIG d   1       4.281  -1.697  -2.867  0.00  0.00    -0.035 C 
ATOM     59  H   LIG d   1       3.583  -1.024  -0.944  0.00  0.00     0.027 H 
ATOM     60  H   LIG d   1       5.353  -1.150  -1.080  0.00  0.00     0.027 H 
ATOM     61  H   LIG d   1       4.226  -2.753  -2.601  0.00  0.00     0.028 H 
ATOM     62  H   LIG d   1       3.367  -1.406  -3.384  0.00  0.00     0.028 H 
ATOM     63  H   LIG d   1       6.397  -1.757  -3.268  0.00  0.00     0.050 H 
ENDBRANCH  45  47
ENDBRANCH  41  43
ENDBRANCH  11  41
TORSDOF 8
ENDMDL
MODEL 4
REMARK VINA RESULT:      -6.5      3.234      4.442
REMARK  8 active torsions:
REMARK  status: ('A' for Active; 'I' for Inactive)
REMARK    1  A    between atoms: C_1  and  N_2 
REMARK    2  A    between atoms: N_2  and  C_3 
REMARK    3  A    between atoms: N_2  and  C_4 
REMARK    4  A    between atoms: C_7  and  C_10 
REMARK    5  A    between atoms: N_14  and  C_15 
REMARK    6  A    between atoms: C_25  and  N_27 
REMARK    7  A    between atoms: N_27  and  C_28 
REMARK    8  A    between atoms: N_30  and  C_31 
ROOT
ATOM      1  C   LIG d   1      12.277   4.290  -3.910  0.00  0.00     0.108 C 
ATOM      2  H   LIG d   1      11.767   5.253  -3.919  0.00  0.00     0.060 H 
ATOM      3  C   LIG d   1      12.728   3.903  -5.336  0.00  0.00     0.073 C 
ATOM      4  O   LIG d   1      11.647   3.104  -5.860  0.00  0.00    -0.370 OA
ATOM      5  C   LIG d   1      11.200   2.271  -4.768  0.00  0.00     0.107 C 
ATOM      6  H   LIG d   1      11.754   1.337  -4.676  0.00  0.00     0.064 H 
ATOM      7  C   LIG d   1      11.303   3.166  -3.509  0.00  0.00     0.111 C 
ATOM      8  H   LIG d   1      11.691   2.601  -2.662  0.00  0.00     0.065 H 
ATOM      9  O   LIG d   1      10.011   3.697  -3.232  0.00  0.00    -0.370 OA
ATOM     10  C   LIG d   1       9.072   3.287  -4.229  0.00  0.00     0.069 C 
ATOM     11  C   LIG d   1       9.677   2.057  -4.933  0.00  0.00     0.074 C 
ATOM     12  H   LIG d   1       9.402   2.040  -5.986  0.00  0.00     0.055 H 
ATOM     13  H   LIG d   1      12.870   4.795  -5.945  0.00  0.00     0.058 H 
ATOM     14  H   LIG d   1      13.648   3.319  -5.298  0.00  0.00     0.058 H 
ATOM     15  H   LIG d   1       8.919   4.090  -4.949  0.00  0.00     0.058 H 
ATOM     16  H   LIG d   1       8.124   3.020  -3.761  0.00  0.00     0.058 H 
ENDROOT
BRANCH   1  17
ATOM     17  N   LIG d   1      13.423   4.326  -2.998  0.00  0.00    -0.217 N 
ATOM     18  C   LIG d   1      13.623   5.175  -1.959  0.00  0.00     0.182 A 
ATOM     19  N   LIG d   1      14.778   4.852  -1.414  0.00  0.00    -0.108 NA
ATOM     20  N   LIG d   1      15.309   3.864  -2.040  0.00  0.00    -0.023 NA
ATOM     21  N   LIG d   1      14.550   3.484  -3.008  0.00  0.00    -0.043 NA
BRANCH  18  22
ATOM     22  C   LIG d   1      12.716   6.258  -1.522  0.00  0.00     0.021 A 
ATOM     23  C   LIG d   1      12.893   7.556  -2.004  0.00  0.00    -0.049 A 
ATOM     24  C   LIG d   1      12.046   8.563  -1.596  0.00  0.00    -0.040 A 
ATOM     25  H   LIG d   1      13.693   7.770  -2.698  0.00  0.00     0.062 H 
ATOM     26  C   LIG d   1      11.016   8.288  -0.703  0.00  0.00     0.029 A 
ATOM     27  H   LIG d   1      12.184   9.567  -1.969  0.00  0.00     0.064 H 
ATOM     28  C   LIG d   1      10.837   6.995  -0.220  0.00  0.00    -0.040 A 
ATOM     29  C   LIG d   1      11.678   5.983  -0.630  0.00  0.00    -0.049 A 
ATOM     30  H   LIG d   1      10.037   6.784   0.473  0.00  0.00     0.064 H 
ATOM     31  H   LIG d   1      11.536   4.979  -0.258  0.00  0.00     0.062 H 
BRANCH  26  32
ATOM     32  N   LIG d   1      10.161   9.309  -0.291  0.00  0.00    -0.336 N 
BRANCH  32  33
ATOM     33  C   LIG d   1      10.630  10.316   0.663  0.00  0.00     0.000 C 
ATOM     34  H   LIG d   1      11.604  10.022   1.052  0.00  0.00     0.043 H 
ATOM     35  H   LIG d   1      10.715  11.280   0.160  0.00  0.00     0.043 H 
ATOM     36  H   LIG d   1       9.920  10.397   1.485  0.00  0.00     0.043 H 
ENDBRANCH  32  33
BRANCH  32  37
ATOM     37  C   LIG d   1       8.793   9.373  -0.812  0.00  0.00     0.000 C 
ATOM     38  H   LIG d   1       8.175   8.633  -0.304  0.00  0.00     0.043 H 
ATOM     39  H   LIG d   1       8.384  10.369  -0.638  0.00  0.00     0.043 H 
ATOM     40  H   LIG d   1       8.802   9.166  -1.882  0.00  0.00     0.043 H 
ENDBRANCH  32  37
ENDBRANCH  26  32
ENDBRANCH  18  22
ENDBRANCH   1  17
BRANCH  11  41
ATOM     41  N   LIG d   1       9.254   0.821  -4.268  0.00  0.00    -0.319 N 
ATOM     42  H   LIG d   1       9.890   0.310  -3.744  0.00  0.00     0.148 HD
BRANCH  41  43
ATOM     43  C   LIG d   1       7.981   0.396  -4.386  0.00  0.00     0.131 C 
ATOM     44  S   LIG d   1       7.252   0.290  -5.931  0.00  0.00    -0.019 SA
ATOM     45  N   LIG d   1       7.280   0.056  -3.286  0.00  0.00    -0.324 N 
ATOM     46  H   LIG d   1       7.693   0.116  -2.409  0.00  0.00     0.148 HD
BRANCH  45  47
ATOM     47  C   LIG d   1       5.896  -0.407  -3.413  0.00  0.00     0.022 C 
ATOM     48  C   LIG d   1       5.852  -1.930  -3.280  0.00  0.00    -0.035 C 
ATOM     49  C   LIG d   1       4.406  -2.413  -3.413  0.00  0.00    -0.051 C 
ATOM     50  H   LIG d   1       6.459  -2.382  -4.065  0.00  0.00     0.028 H 
ATOM     51  H   LIG d   1       6.243  -2.221  -2.306  0.00  0.00     0.028 H 
ATOM     52  C   LIG d   1       3.554  -1.780  -2.312  0.00  0.00    -0.053 C 
ATOM     53  H   LIG d   1       4.014  -2.122  -4.388  0.00  0.00     0.027 H 
ATOM     54  H   LIG d   1       4.376  -3.498  -3.319  0.00  0.00     0.027 H 
ATOM     55  C   LIG d   1       3.597  -0.256  -2.446  0.00  0.00    -0.051 C 
ATOM     56  H   LIG d   1       3.945  -2.070  -1.337  0.00  0.00     0.026 H 
ATOM     57  H   LIG d   1       2.523  -2.124  -2.407  0.00  0.00     0.026 H 
ATOM     58  C   LIG d   1       5.043   0.226  -2.312  0.00  0.00    -0.035 C 
ATOM     59  H   LIG d   1       2.990   0.195  -1.660  0.00  0.00     0.027 H 
ATOM     60  H   LIG d   1       3.205   0.034  -3.420  0.00  0.00     0.027 H 
ATOM     61  H   LIG d   1       5.074   1.312  -2.407  0.00  0.00     0.028 H 
ATOM     62  H   LIG d   1       5.434  -0.064  -1.337  0.00  0.00     0.028 H 
ATOM     63  H   LIG d   1       5.503  -0.116  -4.388  0.00  0.00     0.050 H 
ENDBRANCH  45  47
ENDBRANCH  41  43
ENDBRANCH  11  41
TORSDOF 8
ENDMDL
MODEL 5
REMARK VINA RESULT:      -6.5      8.048     11.823
REMARK  8 active torsions:
REMARK  status: ('A' for Active; 'I' for Inactive)
REMARK    1  A    between atoms: C_1  and  N_2 
REMARK    2  A    between atoms: N_2  and  C_3 
REMARK    3  A    between atoms: N_2  and  C_4 
REMARK    4  A    between atoms: C_7  and  C_10 
REMARK    5  A    between atoms: N_14  and  C_15 
REMARK    6  A    between atoms: C_25  and  N_27 
REMARK    7  A    between atoms: N_27  and  C_28 
REMARK    8  A    between atoms: N_30  and  C_31 
ROOT
ATOM      1  C   LIG d   1       2.964  -4.775 -10.924  0.00  0.00     0.108 C 
ATOM      2  H   LIG d   1       3.223  -5.770 -11.286  0.00  0.00     0.060 H 
ATOM      3  C   LIG d   1       4.145  -3.799 -11.129  0.00  0.00     0.073 C 
ATOM      4  O   LIG d   1       4.879  -3.845  -9.889  0.00  0.00    -0.370 OA
ATOM      5  C   LIG d   1       3.889  -3.899  -8.839  0.00  0.00     0.107 C 
ATOM      6  H   LIG d   1       3.541  -2.917  -8.517  0.00  0.00     0.064 H 
ATOM      7  C   LIG d   1       2.755  -4.793  -9.398  0.00  0.00     0.111 C 
ATOM      8  H   LIG d   1       1.778  -4.389  -9.136  0.00  0.00     0.065 H 
ATOM      9  O   LIG d   1       2.930  -6.109  -8.883  0.00  0.00    -0.370 OA
ATOM     10  C   LIG d   1       4.113  -6.185  -8.083  0.00  0.00     0.069 C 
ATOM     11  C   LIG d   1       4.474  -4.742  -7.682  0.00  0.00     0.074 C 
ATOM     12  H   LIG d   1       5.555  -4.616  -7.623  0.00  0.00     0.055 H 
ATOM     13  H   LIG d   1       4.773  -4.132 -11.955  0.00  0.00     0.058 H 
ATOM     14  H   LIG d   1       3.775  -2.791 -11.315  0.00  0.00     0.058 H 
ATOM     15  H   LIG d   1       4.925  -6.626  -8.660  0.00  0.00     0.058 H 
ATOM     16  H   LIG d   1       3.921  -6.783  -7.191  0.00  0.00     0.058 H 
ENDROOT
BRANCH   1  17
ATOM     17  N   LIG d   1       1.763  -4.281 -11.601  0.00  0.00    -0.217 N 
ATOM     18  C   LIG d   1       1.309  -3.003 -11.650  0.00  0.00     0.182 A 
ATOM     19  N   LIG d   1       0.203  -3.013 -12.363  0.00  0.00    -0.108 NA
ATOM     20  N   LIG d   1      -0.065  -4.204 -12.761  0.00  0.00    -0.023 NA
ATOM     21  N   LIG d   1       0.833  -5.029 -12.346  0.00  0.00    -0.043 NA
BRANCH  18  22
ATOM     22  C   LIG d   1       1.940  -1.823 -11.020  0.00  0.00     0.021 A 
ATOM     23  C   LIG d   1       2.831  -1.034 -11.751  0.00  0.00    -0.049 A 
ATOM     24  C   LIG d   1       3.418   0.066 -11.163  0.00  0.00    -0.040 A 
ATOM     25  H   LIG d   1       3.059  -1.284 -12.776  0.00  0.00     0.062 H 
ATOM     26  C   LIG d   1       3.124   0.389  -9.842  0.00  0.00     0.029 A 
ATOM     27  H   LIG d   1       4.106   0.676 -11.728  0.00  0.00     0.064 H 
ATOM     28  C   LIG d   1       2.237  -0.396  -9.112  0.00  0.00    -0.040 A 
ATOM     29  C   LIG d   1       1.643  -1.493  -9.697  0.00  0.00    -0.049 A 
ATOM     30  H   LIG d   1       2.010  -0.143  -8.087  0.00  0.00     0.064 H 
ATOM     31  H   LIG d   1       0.952  -2.100  -9.131  0.00  0.00     0.062 H 
BRANCH  26  32
ATOM     32  N   LIG d   1       3.718   1.502  -9.249  0.00  0.00    -0.336 N 
BRANCH  32  33
ATOM     33  C   LIG d   1       2.897   2.463  -8.509  0.00  0.00     0.000 C 
ATOM     34  H   LIG d   1       3.070   3.465  -8.900  0.00  0.00     0.043 H 
ATOM     35  H   LIG d   1       1.844   2.205  -8.624  0.00  0.00     0.043 H 
ATOM     36  H   LIG d   1       3.165   2.434  -7.453  0.00  0.00     0.043 H 
ENDBRANCH  32  33
BRANCH  32  37
ATOM     37  C   LIG d   1       5.163   1.710  -9.367  0.00  0.00     0.000 C 
ATOM     38  H   LIG d   1       5.517   1.285 -10.306  0.00  0.00     0.043 H 
ATOM     39  H   LIG d   1       5.380   2.779  -9.348  0.00  0.00     0.043 H 
ATOM     40  H   LIG d   1       5.669   1.223  -8.534  0.00  0.00     0.043 H 
ENDBRANCH  32  37
ENDBRANCH  26  32
ENDBRANCH  18  22
ENDBRANCH   1  17
BRANCH  11  41
ATOM     41  N   LIG d   1       3.841  -4.385  -6.410  0.00  0.00    -0.319 N 
ATOM     42  H   LIG d   1       2.942  -4.691  -6.213  0.00  0.00     0.148 HD
BRANCH  41  43
ATOM     43  C   LIG d   1       4.507  -3.630  -5.515  0.00  0.00     0.131 C 
ATOM     44  S   LIG d   1       6.174  -3.905  -5.234  0.00  0.00    -0.019 SA
ATOM     45  N   LIG d   1       3.862  -2.658  -4.840  0.00  0.00    -0.324 N 
ATOM     46  H   LIG d   1       2.918  -2.501  -5.000  0.00  0.00     0.148 HD
BRANCH  45  47
ATOM     47  C   LIG d   1       4.586  -1.836  -3.867  0.00  0.00     0.022 C 
ATOM     48  C   LIG d   1       4.651  -0.392  -4.366  0.00  0.00    -0.035 C 
ATOM     49  C   LIG d   1       5.408   0.465  -3.349  0.00  0.00    -0.051 C 
ATOM     50  H   LIG d   1       5.170  -0.361  -5.324  0.00  0.00     0.028 H 
ATOM     51  H   LIG d   1       3.641  -0.004  -4.487  0.00  0.00     0.028 H 
ATOM     52  C   LIG d   1       4.681   0.422  -2.004  0.00  0.00    -0.053 C 
ATOM     53  H   LIG d   1       6.420   0.077  -3.227  0.00  0.00     0.027 H 
ATOM     54  H   LIG d   1       5.454   1.494  -3.705  0.00  0.00     0.027 H 
ATOM     55  C   LIG d   1       4.617  -1.023  -1.505  0.00  0.00    -0.051 C 
ATOM     56  H   LIG d   1       3.670   0.810  -2.124  0.00  0.00     0.026 H 
ATOM     57  H   LIG d   1       5.220   1.033  -1.279  0.00  0.00     0.026 H 
ATOM     58  C   LIG d   1       3.859  -1.879  -2.522  0.00  0.00    -0.035 C 
ATOM     59  H   LIG d   1       4.098  -1.053  -0.546  0.00  0.00     0.027 H 
ATOM     60  H   LIG d   1       5.628  -1.411  -1.383  0.00  0.00     0.027 H 
ATOM     61  H   LIG d   1       3.813  -2.909  -2.166  0.00  0.00     0.028 H 
ATOM     62  H   LIG d   1       2.848  -1.492  -2.642  0.00  0.00     0.028 H 
ATOM     63  H   LIG d   1       5.598  -2.225  -3.745  0.00  0.00     0.050 H 
ENDBRANCH  45  47
ENDBRANCH  41  43
ENDBRANCH  11  41
TORSDOF 8
ENDMDL
MODEL 6
REMARK VINA RESULT:      -6.3      1.662      2.197
REMARK  8 active torsions:
REMARK  status: ('A' for Active; 'I' for Inactive)
REMARK    1  A    between atoms: C_1  and  N_2 
REMARK    2  A    between atoms: N_2  and  C_3 
REMARK    3  A    between atoms: N_2  and  C_4 
REMARK    4  A    between atoms: C_7  and  C_10 
REMARK    5  A    between atoms: N_14  and  C_15 
REMARK    6  A    between atoms: C_25  and  N_27 
REMARK    7  A    between atoms: N_27  and  C_28 
REMARK    8  A    between atoms: N_30  and  C_31 
ROOT
ATOM      1  C   LIG d   1       9.856   3.849  -4.884  0.00  0.00     0.108 C 
ATOM      2  H   LIG d   1       9.265   4.320  -5.669  0.00  0.00     0.060 H 
ATOM      3  C   LIG d   1      11.248   3.448  -5.420  0.00  0.00     0.073 C 
ATOM      4  O   LIG d   1      11.096   2.081  -5.854  0.00  0.00    -0.370 OA
ATOM      5  C   LIG d   1      10.259   1.439  -4.868  0.00  0.00     0.107 C 
ATOM      6  H   LIG d   1      10.815   1.036  -4.020  0.00  0.00     0.064 H 
ATOM      7  C   LIG d   1       9.220   2.512  -4.459  0.00  0.00     0.111 C 
ATOM      8  H   LIG d   1       9.044   2.491  -3.384  0.00  0.00     0.065 H 
ATOM      9  O   LIG d   1       8.021   2.272  -5.188  0.00  0.00    -0.370 OA
ATOM     10  C   LIG d   1       8.189   1.175  -6.090  0.00  0.00     0.069 C 
ATOM     11  C   LIG d   1       9.407   0.372  -5.595  0.00  0.00     0.074 C 
ATOM     12  H   LIG d   1       9.957  -0.054  -6.433  0.00  0.00     0.055 H 
ATOM     13  H   LIG d   1      11.529   4.084  -6.259  0.00  0.00     0.058 H 
ATOM     14  H   LIG d   1      11.993   3.514  -4.627  0.00  0.00     0.058 H 
ATOM     15  H   LIG d   1       8.373   1.546  -7.098  0.00  0.00     0.058 H 
ATOM     16  H   LIG d   1       7.299   0.545  -6.082  0.00  0.00     0.058 H 
ENDROOT
BRANCH   1  17
ATOM     17  N   LIG d   1       9.984   4.746  -3.733  0.00  0.00    -0.217 N 
ATOM     18  C   LIG d   1      10.214   6.083  -3.751  0.00  0.00     0.182 A 
ATOM     19  N   LIG d   1      10.254   6.484  -2.497  0.00  0.00    -0.108 NA
ATOM     20  N   LIG d   1      10.066   5.493  -1.702  0.00  0.00    -0.023 NA
ATOM     21  N   LIG d   1       9.889   4.407  -2.371  0.00  0.00    -0.043 NA
BRANCH  18  22
ATOM     22  C   LIG d   1      10.387   6.928  -4.951  0.00  0.00     0.021 A 
ATOM     23  C   LIG d   1      11.662   7.135  -5.483  0.00  0.00    -0.049 A 
ATOM     24  C   LIG d   1      11.820   7.923  -6.602  0.00  0.00    -0.040 A 
ATOM     25  H   LIG d   1      12.522   6.677  -5.018  0.00  0.00     0.062 H 
ATOM     26  C   LIG d   1      10.713   8.513  -7.202  0.00  0.00     0.029 A 
ATOM     27  H   LIG d   1      12.806   8.083  -7.013  0.00  0.00     0.064 H 
ATOM     28  C   LIG d   1       9.442   8.308  -6.674  0.00  0.00    -0.040 A 
ATOM     29  C   LIG d   1       9.276   7.517  -5.558  0.00  0.00    -0.049 A 
ATOM     30  H   LIG d   1       8.583   8.767  -7.141  0.00  0.00     0.064 H 
ATOM     31  H   LIG d   1       8.289   7.356  -5.151  0.00  0.00     0.062 H 
BRANCH  26  32
ATOM     32  N   LIG d   1      10.876   9.310  -8.334  0.00  0.00    -0.336 N 
BRANCH  32  33
ATOM     33  C   LIG d   1      10.736   8.722  -9.669  0.00  0.00     0.000 C 
ATOM     34  H   LIG d   1      10.453   9.498 -10.379  0.00  0.00     0.043 H 
ATOM     35  H   LIG d   1      11.686   8.280  -9.972  0.00  0.00     0.043 H 
ATOM     36  H   LIG d   1       9.967   7.951  -9.648  0.00  0.00     0.043 H 
ENDBRANCH  32  33
BRANCH  32  37
ATOM     37  C   LIG d   1      11.188  10.733  -8.189  0.00  0.00     0.000 C 
ATOM     38  H   LIG d   1      11.901  10.868  -7.376  0.00  0.00     0.043 H 
ATOM     39  H   LIG d   1      11.620  11.108  -9.118  0.00  0.00     0.043 H 
ATOM     40  H   LIG d   1      10.274  11.284  -7.966  0.00  0.00     0.043 H 
ENDBRANCH  32  37
ENDBRANCH  26  32
ENDBRANCH  18  22
ENDBRANCH   1  17
BRANCH  11  41
ATOM     41  N   LIG d   1       8.989  -0.679  -4.663  0.00  0.00    -0.319 N 
ATOM     42  H   LIG d   1       9.632  -1.067  -4.050  0.00  0.00     0.148 HD
BRANCH  41  43
ATOM     43  C   LIG d   1       7.711  -1.106  -4.660  0.00  0.00     0.131 C 
ATOM     44  S   LIG d   1       7.228  -2.370  -5.709  0.00  0.00    -0.019 SA
ATOM     45  N   LIG d   1       6.813  -0.537  -3.832  0.00  0.00    -0.324 N 
ATOM     46  H   LIG d   1       7.086   0.179  -3.237  0.00  0.00     0.148 HD
BRANCH  45  47
ATOM     47  C   LIG d   1       5.423  -1.001  -3.828  0.00  0.00     0.022 C 
ATOM     48  C   LIG d   1       5.066  -1.534  -2.439  0.00  0.00    -0.035 C 
ATOM     49  C   LIG d   1       3.615  -2.019  -2.436  0.00  0.00    -0.051 C 
ATOM     50  H   LIG d   1       5.727  -2.364  -2.187  0.00  0.00     0.028 H 
ATOM     51  H   LIG d   1       5.185  -0.739  -1.704  0.00  0.00     0.028 H 
ATOM     52  C   LIG d   1       2.688  -0.855  -2.789  0.00  0.00    -0.053 C 
ATOM     53  H   LIG d   1       3.496  -2.814  -3.173  0.00  0.00     0.027 H 
ATOM     54  H   LIG d   1       3.362  -2.399  -1.447  0.00  0.00     0.027 H 
ATOM     55  C   LIG d   1       3.044  -0.322  -4.179  0.00  0.00    -0.051 C 
ATOM     56  H   LIG d   1       2.806  -0.059  -2.054  0.00  0.00     0.026 H 
ATOM     57  H   LIG d   1       1.653  -1.200  -2.787  0.00  0.00     0.026 H 
ATOM     58  C   LIG d   1       4.495   0.163  -4.181  0.00  0.00    -0.035 C 
ATOM     59  H   LIG d   1       2.384   0.508  -4.430  0.00  0.00     0.027 H 
ATOM     60  H   LIG d   1       2.925  -1.117  -4.915  0.00  0.00     0.027 H 
ATOM     61  H   LIG d   1       4.750   0.543  -5.171  0.00  0.00     0.028 H 
ATOM     62  H   LIG d   1       4.614   0.959  -3.446  0.00  0.00     0.028 H 
ATOM     63  H   LIG d   1       5.304  -1.796  -4.565  0.00  0.00     0.050 H 
ENDBRANCH  45  47
ENDBRANCH  41  43
ENDBRANCH  11  41
TORSDOF 8
ENDMDL
MODEL 7
REMARK VINA RESULT:      -6.3      3.028      3.633
REMARK  8 active torsions:
REMARK  status: ('A' for Active; 'I' for Inactive)
REMARK    1  A    between atoms: C_1  and  N_2 
REMARK    2  A    between atoms: N_2  and  C_3 
REMARK    3  A    between atoms: N_2  and  C_4 
REMARK    4  A    between atoms: C_7  and  C_10 
REMARK    5  A    between atoms: N_14  and  C_15 
REMARK    6  A    between atoms: C_25  and  N_27 
REMARK    7  A    between atoms: N_27  and  C_28 
REMARK    8  A    between atoms: N_30  and  C_31 
ROOT
ATOM      1  C   LIG d   1      11.407   6.068  -1.644  0.00  0.00     0.108 C 
ATOM      2  H   LIG d   1      11.609   6.969  -2.224  0.00  0.00     0.060 H 
ATOM      3  C   LIG d   1      12.480   4.992  -1.923  0.00  0.00     0.073 C 
ATOM      4  O   LIG d   1      11.930   4.192  -2.989  0.00  0.00    -0.370 OA
ATOM      5  C   LIG d   1      10.523   4.048  -2.698  0.00  0.00     0.107 C 
ATOM      6  H   LIG d   1      10.297   3.207  -2.043  0.00  0.00     0.064 H 
ATOM      7  C   LIG d   1      10.092   5.413  -2.106  0.00  0.00     0.111 C 
ATOM      8  H   LIG d   1       9.412   5.274  -1.266  0.00  0.00     0.065 H 
ATOM      9  O   LIG d   1       9.487   6.178  -3.144  0.00  0.00    -0.370 OA
ATOM     10  C   LIG d   1       9.534   5.471  -4.386  0.00  0.00     0.069 C 
ATOM     11  C   LIG d   1       9.766   3.986  -4.045  0.00  0.00     0.074 C 
ATOM     12  H   LIG d   1      10.378   3.505  -4.808  0.00  0.00     0.055 H 
ATOM     13  H   LIG d   1      13.412   5.459  -2.240  0.00  0.00     0.058 H 
ATOM     14  H   LIG d   1      12.643   4.381  -1.035  0.00  0.00     0.058 H 
ATOM     15  H   LIG d   1      10.354   5.845  -4.997  0.00  0.00     0.058 H 
ATOM     16  H   LIG d   1       8.589   5.588  -4.917  0.00  0.00     0.058 H 
ENDROOT
BRANCH   1  17
ATOM     17  N   LIG d   1      11.349   6.383  -0.214  0.00  0.00    -0.217 N 
ATOM     18  C   LIG d   1      11.030   7.571   0.357  0.00  0.00     0.182 A 
ATOM     19  N   LIG d   1      11.103   7.405   1.660  0.00  0.00    -0.108 NA
ATOM     20  N   LIG d   1      11.445   6.199   1.941  0.00  0.00    -0.023 NA
ATOM     21  N   LIG d   1      11.608   5.515   0.862  0.00  0.00    -0.043 NA
BRANCH  18  22
ATOM     22  C   LIG d   1      10.668   8.817  -0.352  0.00  0.00     0.021 A 
ATOM     23  C   LIG d   1      11.641   9.787  -0.603  0.00  0.00    -0.049 A 
ATOM     24  C   LIG d   1      11.302  10.947  -1.265  0.00  0.00    -0.040 A 
ATOM     25  H   LIG d   1      12.659   9.627  -0.280  0.00  0.00     0.062 H 
ATOM     26  C   LIG d   1       9.992  11.153  -1.682  0.00  0.00     0.029 A 
ATOM     27  H   LIG d   1      12.055  11.696  -1.458  0.00  0.00     0.064 H 
ATOM     28  C   LIG d   1       9.020  10.189  -1.433  0.00  0.00    -0.040 A 
ATOM     29  C   LIG d   1       9.355   9.025  -0.777  0.00  0.00    -0.049 A 
ATOM     30  H   LIG d   1       8.003  10.352  -1.758  0.00  0.00     0.064 H 
ATOM     31  H   LIG d   1       8.601   8.275  -0.587  0.00  0.00     0.062 H 
BRANCH  26  32
ATOM     32  N   LIG d   1       9.651  12.328  -2.351  0.00  0.00    -0.336 N 
BRANCH  32  33
ATOM     33  C   LIG d   1       8.611  12.307  -3.383  0.00  0.00     0.000 C 
ATOM     34  H   LIG d   1       7.827  13.017  -3.123  0.00  0.00     0.043 H 
ATOM     35  H   LIG d   1       9.048  12.582  -4.343  0.00  0.00     0.043 H 
ATOM     36  H   LIG d   1       8.186  11.306  -3.451  0.00  0.00     0.043 H 
ENDBRANCH  32  33
BRANCH  32  37
ATOM     37  C   LIG d   1      10.332  13.582  -2.022  0.00  0.00     0.000 C 
ATOM     38  H   LIG d   1       9.596  14.332  -1.735  0.00  0.00     0.043 H 
ATOM     39  H   LIG d   1      11.023  13.415  -1.195  0.00  0.00     0.043 H 
ATOM     40  H   LIG d   1      10.887  13.932  -2.893  0.00  0.00     0.043 H 
ENDBRANCH  32  37
ENDBRANCH  26  32
ENDBRANCH  18  22
ENDBRANCH   1  17
BRANCH  11  41
ATOM     41  N   LIG d   1       8.489   3.286  -3.889  0.00  0.00    -0.319 N 
ATOM     42  H   LIG d   1       7.725   3.749  -3.512  0.00  0.00     0.148 HD
BRANCH  41  43
ATOM     43  C   LIG d   1       8.377   1.998  -4.269  0.00  0.00     0.131 C 
ATOM     44  S   LIG d   1       9.732   1.174  -4.914  0.00  0.00    -0.019 SA
ATOM     45  N   LIG d   1       7.197   1.358  -4.142  0.00  0.00    -0.324 N 
ATOM     46  H   LIG d   1       6.429   1.825  -3.775  0.00  0.00     0.148 HD
BRANCH  45  47
ATOM     47  C   LIG d   1       7.075  -0.043  -4.554  0.00  0.00     0.022 C 
ATOM     48  C   LIG d   1       6.963  -0.932  -3.315  0.00  0.00    -0.035 C 
ATOM     49  C   LIG d   1       6.835  -2.394  -3.746  0.00  0.00    -0.051 C 
ATOM     50  H   LIG d   1       7.854  -0.811  -2.698  0.00  0.00     0.028 H 
ATOM     51  H   LIG d   1       6.083  -0.645  -2.740  0.00  0.00     0.028 H 
ATOM     52  C   LIG d   1       5.585  -2.564  -4.610  0.00  0.00    -0.053 C 
ATOM     53  H   LIG d   1       7.716  -2.682  -4.322  0.00  0.00     0.027 H 
ATOM     54  H   LIG d   1       6.756  -3.028  -2.863  0.00  0.00     0.027 H 
ATOM     55  C   LIG d   1       5.697  -1.675  -5.850  0.00  0.00    -0.051 C 
ATOM     56  H   LIG d   1       4.704  -2.277  -4.036  0.00  0.00     0.026 H 
ATOM     57  H   LIG d   1       5.493  -3.606  -4.917  0.00  0.00     0.026 H 
ATOM     58  C   LIG d   1       5.824  -0.212  -5.418  0.00  0.00    -0.035 C 
ATOM     59  H   LIG d   1       4.805  -1.795  -6.466  0.00  0.00     0.027 H 
ATOM     60  H   LIG d   1       6.577  -1.962  -6.425  0.00  0.00     0.027 H 
ATOM     61  H   LIG d   1       5.903   0.422  -6.302  0.00  0.00     0.028 H 
ATOM     62  H   LIG d   1       4.943   0.076  -4.844  0.00  0.00     0.028 H 
ATOM     63  H   LIG d   1       7.955  -0.330  -5.130  0.00  0.00     0.050 H 
ENDBRANCH  45  47
ENDBRANCH  41  43
ENDBRANCH  11  41
TORSDOF 8
ENDMDL
MODEL 8
REMARK VINA RESULT:      -6.2      2.343      4.057
REMARK  8 active torsions:
REMARK  status: ('A' for Active; 'I' for Inactive)
REMARK    1  A    between atoms: C_1  and  N_2 
REMARK    2  A    between atoms: N_2  and  C_3 
REMARK    3  A    between atoms: N_2  and  C_4 
REMARK    4  A    between atoms: C_7  and  C_10 
REMARK    5  A    between atoms: N_14  and  C_15 
REMARK    6  A    between atoms: C_25  and  N_27 
REMARK    7  A    between atoms: N_27  and  C_28 
REMARK    8  A    between atoms: N_30  and  C_31 
ROOT
ATOM      1  C   LIG d   1      10.650   5.376  -4.048  0.00  0.00     0.108 C 
ATOM      2  H   LIG d   1      11.709   5.454  -3.801  0.00  0.00     0.060 H 
ATOM      3  C   LIG d   1       9.810   5.164  -2.768  0.00  0.00     0.073 C 
ATOM      4  O   LIG d   1       9.686   3.733  -2.643  0.00  0.00    -0.370 OA
ATOM      5  C   LIG d   1       9.484   3.229  -3.981  0.00  0.00     0.107 C 
ATOM      6  H   LIG d   1       8.439   3.224  -4.292  0.00  0.00     0.064 H 
ATOM      7  C   LIG d   1      10.383   4.110  -4.883  0.00  0.00     0.111 C 
ATOM      8  H   LIG d   1       9.872   4.360  -5.813  0.00  0.00     0.065 H 
ATOM      9  O   LIG d   1      11.595   3.405  -5.129  0.00  0.00    -0.370 OA
ATOM     10  C   LIG d   1      11.610   2.164  -4.420  0.00  0.00     0.069 C 
ATOM     11  C   LIG d   1      10.147   1.835  -4.065  0.00  0.00     0.074 C 
ATOM     12  H   LIG d   1      10.088   1.322  -3.106  0.00  0.00     0.055 H 
ATOM     13  H   LIG d   1      10.327   5.578  -1.903  0.00  0.00     0.058 H 
ATOM     14  H   LIG d   1       8.827   5.623  -2.879  0.00  0.00     0.058 H 
ATOM     15  H   LIG d   1      12.201   2.261  -3.510  0.00  0.00     0.058 H 
ATOM     16  H   LIG d   1      12.026   1.378  -5.053  0.00  0.00     0.058 H 
ENDROOT
BRANCH   1  17
ATOM     17  N   LIG d   1      10.202   6.571  -4.767  0.00  0.00    -0.217 N 
ATOM     18  C   LIG d   1      10.267   7.859  -4.347  0.00  0.00     0.182 A 
ATOM     19  N   LIG d   1       9.756   8.604  -5.305  0.00  0.00    -0.108 NA
ATOM     20  N   LIG d   1       9.378   7.871  -6.290  0.00  0.00    -0.023 NA
ATOM     21  N   LIG d   1       9.618   6.630  -6.045  0.00  0.00    -0.043 NA
BRANCH  18  22
ATOM     22  C   LIG d   1      10.809   8.336  -3.056  0.00  0.00     0.021 A 
ATOM     23  C   LIG d   1      12.189   8.383  -2.853  0.00  0.00    -0.049 A 
ATOM     24  C   LIG d   1      12.692   8.829  -1.650  0.00  0.00    -0.040 A 
ATOM     25  H   LIG d   1      12.862   8.073  -3.638  0.00  0.00     0.062 H 
ATOM     26  C   LIG d   1      11.826   9.230  -0.638  0.00  0.00     0.029 A 
ATOM     27  H   LIG d   1      13.760   8.865  -1.493  0.00  0.00     0.064 H 
ATOM     28  C   LIG d   1      10.450   9.183  -0.838  0.00  0.00    -0.040 A 
ATOM     29  C   LIG d   1       9.942   8.744  -2.041  0.00  0.00    -0.049 A 
ATOM     30  H   LIG d   1       9.779   9.494  -0.051  0.00  0.00     0.064 H 
ATOM     31  H   LIG d   1       8.873   8.711  -2.197  0.00  0.00     0.062 H 
BRANCH  26  32
ATOM     32  N   LIG d   1      12.337   9.679   0.578  0.00  0.00    -0.336 N 
BRANCH  32  33
ATOM     33  C   LIG d   1      11.809   9.146   1.837  0.00  0.00     0.000 C 
ATOM     34  H   LIG d   1      11.651   9.963   2.539  0.00  0.00     0.043 H 
ATOM     35  H   LIG d   1      10.861   8.641   1.647  0.00  0.00     0.043 H 
ATOM     36  H   LIG d   1      12.520   8.436   2.258  0.00  0.00     0.043 H 
ENDBRANCH  32  33
BRANCH  32  37
ATOM     37  C   LIG d   1      13.402  10.685   0.599  0.00  0.00     0.000 C 
ATOM     38  H   LIG d   1      14.131  10.427   1.366  0.00  0.00     0.043 H 
ATOM     39  H   LIG d   1      13.893  10.715  -0.374  0.00  0.00     0.043 H 
ATOM     40  H   LIG d   1      12.973  11.662   0.819  0.00  0.00     0.043 H 
ENDBRANCH  32  37
ENDBRANCH  26  32
ENDBRANCH  18  22
ENDBRANCH   1  17
BRANCH  11  41
ATOM     41  N   LIG d   1       9.528   1.030  -5.122  0.00  0.00    -0.319 N 
ATOM     42  H   LIG d   1      10.036   0.794  -5.913  0.00  0.00     0.148 HD
BRANCH  41  43
ATOM     43  C   LIG d   1       8.250   0.621  -4.993  0.00  0.00     0.131 C 
ATOM     44  S   LIG d   1       7.260   0.454  -6.381  0.00  0.00    -0.019 SA
ATOM     45  N   LIG d   1       7.751   0.343  -3.773  0.00  0.00    -0.324 N 
ATOM     46  H   LIG d   1       8.312   0.437  -2.986  0.00  0.00     0.148 HD
BRANCH  45  47
ATOM     47  C   LIG d   1       6.363  -0.103  -3.633  0.00  0.00     0.022 C 
ATOM     48  C   LIG d   1       6.338  -1.547  -3.129  0.00  0.00    -0.035 C 
ATOM     49  C   LIG d   1       4.888  -2.012  -2.983  0.00  0.00    -0.051 C 
ATOM     50  H   LIG d   1       6.856  -2.190  -3.841  0.00  0.00     0.028 H 
ATOM     51  H   LIG d   1       6.836  -1.603  -2.161  0.00  0.00     0.028 H 
ATOM     52  C   LIG d   1       4.161  -1.111  -1.983  0.00  0.00    -0.053 C 
ATOM     53  H   LIG d   1       4.389  -1.956  -3.951  0.00  0.00     0.027 H 
ATOM     54  H   LIG d   1       4.871  -3.041  -2.624  0.00  0.00     0.027 H 
ATOM     55  C   LIG d   1       4.185   0.333  -2.488  0.00  0.00    -0.051 C 
ATOM     56  H   LIG d   1       4.659  -1.166  -1.015  0.00  0.00     0.026 H 
ATOM     57  H   LIG d   1       3.128  -1.442  -1.879  0.00  0.00     0.026 H 
ATOM     58  C   LIG d   1       5.636   0.798  -2.633  0.00  0.00    -0.035 C 
ATOM     59  H   LIG d   1       3.668   0.976  -1.775  0.00  0.00     0.027 H 
ATOM     60  H   LIG d   1       3.687   0.389  -3.455  0.00  0.00     0.027 H 
ATOM     61  H   LIG d   1       5.653   1.828  -2.992  0.00  0.00     0.028 H 
ATOM     62  H   LIG d   1       6.134   0.744  -1.665  0.00  0.00     0.028 H 
ATOM     63  H   LIG d   1       5.864  -0.047  -4.600  0.00  0.00     0.050 H 
ENDBRANCH  45  47
ENDBRANCH  41  43
ENDBRANCH  11  41
TORSDOF 8
ENDMDL
MODEL 9
REMARK VINA RESULT:      -6.1      2.209      2.792
REMARK  8 active torsions:
REMARK  status: ('A' for Active; 'I' for Inactive)
REMARK    1  A    between atoms: C_1  and  N_2 
REMARK    2  A    between atoms: N_2  and  C_3 
REMARK    3  A    between atoms: N_2  and  C_4 
REMARK    4  A    between atoms: C_7  and  C_10 
REMARK    5  A    between atoms: N_14  and  C_15 
REMARK    6  A    between atoms: C_25  and  N_27 
REMARK    7  A    between atoms: N_27  and  C_28 
REMARK    8  A    between atoms: N_30  and  C_31 
ROOT
ATOM      1  C   LIG d   1      11.573   5.291  -3.269  0.00  0.00     0.108 C 
ATOM      2  H   LIG d   1      11.119   6.087  -3.859  0.00  0.00     0.060 H 
ATOM      3  C   LIG d   1      12.645   4.547  -4.098  0.00  0.00     0.073 C 
ATOM      4  O   LIG d   1      11.943   3.438  -4.695  0.00  0.00    -0.370 OA
ATOM      5  C   LIG d   1      11.042   2.942  -3.682  0.00  0.00     0.107 C 
ATOM      6  H   LIG d   1      11.495   2.207  -3.017  0.00  0.00     0.064 H 
ATOM      7  C   LIG d   1      10.534   4.203  -2.941  0.00  0.00     0.111 C 
ATOM      8  H   LIG d   1      10.483   4.027  -1.867  0.00  0.00     0.065 H 
ATOM      9  O   LIG d   1       9.259   4.550  -3.472  0.00  0.00    -0.370 OA
ATOM     10  C   LIG d   1       8.902   3.671  -4.542  0.00  0.00     0.069 C 
ATOM     11  C   LIG d   1       9.776   2.411  -4.396  0.00  0.00     0.074 C 
ATOM     12  H   LIG d   1      10.029   2.000  -5.372  0.00  0.00     0.055 H 
ATOM     13  H   LIG d   1      13.049   5.201  -4.870  0.00  0.00     0.058 H 
ATOM     14  H   LIG d   1      13.443   4.187  -3.449  0.00  0.00     0.058 H 
ATOM     15  H   LIG d   1       9.099   4.151  -5.500  0.00  0.00     0.058 H 
ATOM     16  H   LIG d   1       7.847   3.404  -4.469  0.00  0.00     0.058 H 
ENDROOT
BRANCH   1  17
ATOM     17  N   LIG d   1      12.156   5.833  -2.039  0.00  0.00    -0.217 N 
ATOM     18  C   LIG d   1      12.068   7.105  -1.576  0.00  0.00     0.182 A 
ATOM     19  N   LIG d   1      12.735   7.149  -0.442  0.00  0.00    -0.108 NA
ATOM     20  N   LIG d   1      13.232   5.997  -0.167  0.00  0.00    -0.023 NA
ATOM     21  N   LIG d   1      12.923   5.144  -1.082  0.00  0.00    -0.043 NA
BRANCH  18  22
ATOM     22  C   LIG d   1      11.356   8.228  -2.222  0.00  0.00     0.021 A 
ATOM     23  C   LIG d   1      11.740   8.660  -3.494  0.00  0.00    -0.049 A 
ATOM     24  C   LIG d   1      11.075   9.706  -4.095  0.00  0.00    -0.040 A 
ATOM     25  H   LIG d   1      12.557   8.173  -4.006  0.00  0.00     0.062 H 
ATOM     26  C   LIG d   1      10.023  10.333  -3.436  0.00  0.00     0.029 A 
ATOM     27  H   LIG d   1      11.373  10.040  -5.077  0.00  0.00     0.064 H 
ATOM     28  C   LIG d   1       9.638   9.905  -2.169  0.00  0.00    -0.040 A 
ATOM     29  C   LIG d   1      10.296   8.855  -1.566  0.00  0.00    -0.049 A 
ATOM     30  H   LIG d   1       8.821  10.393  -1.660  0.00  0.00     0.064 H 
ATOM     31  H   LIG d   1       9.995   8.521  -0.584  0.00  0.00     0.062 H 
BRANCH  26  32
ATOM     32  N   LIG d   1       9.352  11.392  -4.046  0.00  0.00    -0.336 N 
BRANCH  32  33
ATOM     33  C   LIG d   1       8.432  12.223  -3.264  0.00  0.00     0.000 C 
ATOM     34  H   LIG d   1       8.515  11.962  -2.210  0.00  0.00     0.043 H 
ATOM     35  H   LIG d   1       8.689  13.274  -3.400  0.00  0.00     0.043 H 
ATOM     36  H   LIG d   1       7.411  12.051  -3.602  0.00  0.00     0.043 H 
ENDBRANCH  32  33
BRANCH  32  37
ATOM     37  C   LIG d   1       9.565  11.672  -5.468  0.00  0.00     0.000 C 
ATOM     38  H   LIG d   1       8.624  11.559  -6.006  0.00  0.00     0.043 H 
ATOM     39  H   LIG d   1       9.930  12.693  -5.586  0.00  0.00     0.043 H 
ATOM     40  H   LIG d   1      10.300  10.975  -5.869  0.00  0.00     0.043 H 
ENDBRANCH  32  37
ENDBRANCH  26  32
ENDBRANCH  18  22
ENDBRANCH   1  17
BRANCH  11  41
ATOM     41  N   LIG d   1       9.101   1.406  -3.571  0.00  0.00    -0.319 N 
ATOM     42  H   LIG d   1       9.504   1.109  -2.741  0.00  0.00     0.148 HD
BRANCH  41  43
ATOM     43  C   LIG d   1       7.919   0.895  -3.967  0.00  0.00     0.131 C 
ATOM     44  S   LIG d   1       7.663   0.504  -5.614  0.00  0.00    -0.019 SA
ATOM     45  N   LIG d   1       6.936   0.692  -3.067  0.00  0.00    -0.324 N 
ATOM     46  H   LIG d   1       7.081   0.913  -2.133  0.00  0.00     0.148 HD
BRANCH  45  47
ATOM     47  C   LIG d   1       5.651   0.136  -3.497  0.00  0.00     0.022 C 
ATOM     48  C   LIG d   1       5.526  -1.306  -3.000  0.00  0.00    -0.035 C 
ATOM     49  C   LIG d   1       4.184  -1.886  -3.450  0.00  0.00    -0.051 C 
ATOM     50  H   LIG d   1       6.338  -1.905  -3.413  0.00  0.00     0.028 H 
ATOM     51  H   LIG d   1       5.582  -1.321  -1.912  0.00  0.00     0.028 H 
ATOM     52  C   LIG d   1       3.045  -1.046  -2.869  0.00  0.00    -0.053 C 
ATOM     53  H   LIG d   1       4.128  -1.871  -4.538  0.00  0.00     0.027 H 
ATOM     54  H   LIG d   1       4.096  -2.913  -3.095  0.00  0.00     0.027 H 
ATOM     55  C   LIG d   1       3.169   0.396  -3.367  0.00  0.00    -0.051 C 
ATOM     56  H   LIG d   1       3.100  -1.061  -1.781  0.00  0.00     0.026 H 
ATOM     57  H   LIG d   1       2.088  -1.460  -3.189  0.00  0.00     0.026 H 
ATOM     58  C   LIG d   1       4.512   0.975  -2.916  0.00  0.00    -0.035 C 
ATOM     59  H   LIG d   1       2.358   0.994  -2.953  0.00  0.00     0.027 H 
ATOM     60  H   LIG d   1       3.114   0.411  -4.455  0.00  0.00     0.027 H 
ATOM     61  H   LIG d   1       4.601   2.003  -3.271  0.00  0.00     0.028 H 
ATOM     62  H   LIG d   1       4.568   0.962  -1.828  0.00  0.00     0.028 H 
ATOM     63  H   LIG d   1       5.595   0.151  -4.585  0.00  0.00     0.050 H 
ENDBRANCH  45  47
ENDBRANCH  41  43
ENDBRANCH  11  41
TORSDOF 8
ENDMDL
MODEL 10
REMARK VINA RESULT:      -6.1      8.698     14.591
REMARK  8 active torsions:
REMARK  status: ('A' for Active; 'I' for Inactive)
REMARK    1  A    between atoms: C_1  and  N_2 
REMARK    2  A    between atoms: N_2  and  C_3 
REMARK    3  A    between atoms: N_2  and  C_4 
REMARK    4  A    between atoms: C_7  and  C_10 
REMARK    5  A    between atoms: N_14  and  C_15 
REMARK    6  A    between atoms: C_25  and  N_27 
REMARK    7  A    between atoms: N_27  and  C_28 
REMARK    8  A    between atoms: N_30  and  C_31 
ROOT
ATOM      1  C   LIG d   1       1.452  -2.410 -11.998  0.00  0.00     0.108 C 
ATOM      2  H   LIG d   1       1.939  -3.369 -12.170  0.00  0.00     0.060 H 
ATOM      3  C   LIG d   1       2.271  -1.264 -12.633  0.00  0.00     0.073 C 
ATOM      4  O   LIG d   1       3.131  -0.796 -11.574  0.00  0.00    -0.370 OA
ATOM      5  C   LIG d   1       2.330  -0.811 -10.373  0.00  0.00     0.107 C 
ATOM      6  H   LIG d   1       1.757   0.104 -10.219  0.00  0.00     0.064 H 
ATOM      7  C   LIG d   1       1.440  -2.072 -10.496  0.00  0.00     0.111 C 
ATOM      8  H   LIG d   1       0.426  -1.867 -10.152  0.00  0.00     0.065 H 
ATOM      9  O   LIG d   1       2.043  -3.118  -9.742  0.00  0.00    -0.370 OA
ATOM     10  C   LIG d   1       3.285  -2.686  -9.180  0.00  0.00     0.069 C 
ATOM     11  C   LIG d   1       3.265  -1.145  -9.187  0.00  0.00     0.074 C 
ATOM     12  H   LIG d   1       4.263  -0.746  -9.360  0.00  0.00     0.055 H 
ATOM     13  H   LIG d   1       2.865  -1.640 -13.466  0.00  0.00     0.058 H 
ATOM     14  H   LIG d   1       1.610  -0.465 -12.968  0.00  0.00     0.058 H 
ATOM     15  H   LIG d   1       4.115  -3.050  -9.785  0.00  0.00     0.058 H 
ATOM     16  H   LIG d   1       3.380  -3.053  -8.157  0.00  0.00     0.058 H 
ENDROOT
BRANCH   1  17
ATOM     17  N   LIG d   1       0.087  -2.425 -12.532  0.00  0.00    -0.217 N 
ATOM     18  C   LIG d   1      -0.753  -3.487 -12.617  0.00  0.00     0.182 A 
ATOM     19  N   LIG d   1      -1.872  -3.052 -13.157  0.00  0.00    -0.108 NA
ATOM     20  N   LIG d   1      -1.788  -1.796 -13.414  0.00  0.00    -0.023 NA
ATOM     21  N   LIG d   1      -0.636  -1.341 -13.061  0.00  0.00    -0.043 NA
BRANCH  18  22
ATOM     22  C   LIG d   1      -0.465  -4.872 -12.184  0.00  0.00     0.021 A 
ATOM     23  C   LIG d   1      -0.683  -5.249 -10.858  0.00  0.00    -0.049 A 
ATOM     24  C   LIG d   1      -0.415  -6.540 -10.457  0.00  0.00    -0.040 A 
ATOM     25  H   LIG d   1      -1.063  -4.531 -10.147  0.00  0.00     0.062 H 
ATOM     26  C   LIG d   1       0.074  -7.466 -11.372  0.00  0.00     0.029 A 
ATOM     27  H   LIG d   1      -0.584  -6.831  -9.431  0.00  0.00     0.064 H 
ATOM     28  C   LIG d   1       0.292  -7.093 -12.694  0.00  0.00    -0.040 A 
ATOM     29  C   LIG d   1       0.020  -5.805 -13.102  0.00  0.00    -0.049 A 
ATOM     30  H   LIG d   1       0.672  -7.814 -13.403  0.00  0.00     0.064 H 
ATOM     31  H   LIG d   1       0.187  -5.517 -14.129  0.00  0.00     0.062 H 
BRANCH  26  32
ATOM     32  N   LIG d   1       0.345  -8.771 -10.964  0.00  0.00    -0.336 N 
BRANCH  32  33
ATOM     33  C   LIG d   1       1.703  -9.146 -10.562  0.00  0.00     0.000 C 
ATOM     34  H   LIG d   1       2.275  -9.435 -11.443  0.00  0.00     0.043 H 
ATOM     35  H   LIG d   1       2.185  -8.296 -10.079  0.00  0.00     0.043 H 
ATOM     36  H   LIG d   1       1.659  -9.983  -9.867  0.00  0.00     0.043 H 
ENDBRANCH  32  33
BRANCH  32  37
ATOM     37  C   LIG d   1      -0.728  -9.768 -10.937  0.00  0.00     0.000 C 
ATOM     38  H   LIG d   1      -1.288  -9.726 -11.871  0.00  0.00     0.043 H 
ATOM     39  H   LIG d   1      -0.298 -10.763 -10.817  0.00  0.00     0.043 H 
ATOM     40  H   LIG d   1      -1.397  -9.559 -10.103  0.00  0.00     0.043 H 
ENDBRANCH  32  37
ENDBRANCH  26  32
ENDBRANCH  18  22
ENDBRANCH   1  17
BRANCH  11  41
ATOM     41  N   LIG d   1       2.712  -0.630  -7.932  0.00  0.00    -0.319 N 
ATOM     42  H   LIG d   1       1.769  -0.412  -7.870  0.00  0.00     0.148 HD
BRANCH  41  43
ATOM     43  C   LIG d   1       3.515  -0.458  -6.863  0.00  0.00     0.131 C 
ATOM     44  S   LIG d   1       5.199  -0.240  -7.083  0.00  0.00    -0.019 SA
ATOM     45  N   LIG d   1       2.993  -0.459  -5.621  0.00  0.00    -0.324 N 
ATOM     46  H   LIG d   1       2.038  -0.582  -5.496  0.00  0.00     0.148 HD
BRANCH  45  47
ATOM     47  C   LIG d   1       3.865  -0.272  -4.459  0.00  0.00     0.022 C 
ATOM     48  C   LIG d   1       3.290   0.823  -3.559  0.00  0.00    -0.035 C 
ATOM     49  C   LIG d   1       4.202   1.018  -2.346  0.00  0.00    -0.051 C 
ATOM     50  H   LIG d   1       3.225   1.757  -4.118  0.00  0.00     0.028 H 
ATOM     51  H   LIG d   1       2.295   0.531  -3.222  0.00  0.00     0.028 H 
ATOM     52  C   LIG d   1       4.293  -0.292  -1.561  0.00  0.00    -0.053 C 
ATOM     53  H   LIG d   1       5.197   1.309  -2.682  0.00  0.00     0.027 H 
ATOM     54  H   LIG d   1       3.791   1.798  -1.705  0.00  0.00     0.027 H 
ATOM     55  C   LIG d   1       4.869  -1.387  -2.461  0.00  0.00    -0.051 C 
ATOM     56  H   LIG d   1       3.298  -0.584  -1.224  0.00  0.00     0.026 H 
ATOM     57  H   LIG d   1       4.943  -0.153  -0.696  0.00  0.00     0.026 H 
ATOM     58  C   LIG d   1       3.957  -1.582  -3.673  0.00  0.00    -0.035 C 
ATOM     59  H   LIG d   1       4.934  -2.320  -1.901  0.00  0.00     0.027 H 
ATOM     60  H   LIG d   1       5.864  -1.095  -2.797  0.00  0.00     0.027 H 
ATOM     61  H   LIG d   1       4.367  -2.362  -4.315  0.00  0.00     0.028 H 
ATOM     62  H   LIG d   1       2.962  -1.875  -3.337  0.00  0.00     0.028 H 
ATOM     63  H   LIG d   1       4.860   0.019  -4.795  0.00  0.00     0.050 H 
ENDBRANCH  45  47
ENDBRANCH  41  43
ENDBRANCH  11  41
TORSDOF 8
ENDMDL
