MODEL 1
REMARK VINA RESULT:      -7.5      0.000      0.000
REMARK  6 active torsions:
REMARK  status: ('A' for Active; 'I' for Inactive)
REMARK    1  A    between atoms: C_1  and  C_2 
REMARK    2  A    between atoms: C_2  and  C_3 
REMARK    3  A    between atoms: C_2  and  C_4 
REMARK    4  A    between atoms: C_7  and  C_10 
REMARK    5  A    between atoms: N_29  and  C_32 
REMARK    6  A    between atoms: C_32  and  C_33 
ROOT
ATOM      1  C   LIG d   1       6.977  -3.151  -6.115  0.00  0.00     0.092 C 
ATOM      2  H   LIG d   1       6.888  -2.793  -7.140  0.00  0.00     0.062 H 
ATOM      3  C   LIG d   1       8.424  -3.103  -5.678  0.00  0.00     0.046 A 
ATOM      4  C   LIG d   1       9.189  -4.204  -5.510  0.00  0.00    -0.015 A 
ATOM      5  C   LIG d   1      10.501  -3.749  -5.095  0.00  0.00     0.003 A 
ATOM      6  C   LIG d   1      11.683  -4.426  -4.781  0.00  0.00    -0.052 A 
ATOM      7  C   LIG d   1      12.761  -3.657  -4.419  0.00  0.00    -0.061 A 
ATOM      8  C   LIG d   1      12.692  -2.274  -4.361  0.00  0.00    -0.060 A 
ATOM      9  C   LIG d   1      11.535  -1.579  -4.666  0.00  0.00    -0.038 A 
ATOM     10  C   LIG d   1      10.425  -2.334  -5.039  0.00  0.00     0.047 A 
ATOM     11  N   LIG d   1       9.156  -1.981  -5.396  0.00  0.00    -0.356 N 
ATOM     12  H   LIG d   1       8.822  -1.071  -5.443  0.00  0.00     0.166 HD
ATOM     13  C   LIG d   1       8.715  -5.619  -5.728  0.00  0.00     0.002 C 
ATOM     14  C   LIG d   1       7.429  -5.587  -6.565  0.00  0.00     0.107 A 
ATOM     15  H   LIG d   1       7.686  -5.334  -7.594  0.00  0.00     0.060 H 
ATOM     16  N   LIG d   1       6.535  -4.560  -6.033  0.00  0.00    -0.276 N 
ATOM     17  C   LIG d   1       5.358  -4.809  -5.489  0.00  0.00     0.234 A 
ATOM     18  O   LIG d   1       4.733  -3.880  -5.025  0.00  0.00    -0.274 OA
ATOM     19  C   LIG d   1       4.750  -6.171  -5.401  0.00  0.00     0.092 A 
ATOM     20  N   LIG d   1       5.588  -7.184  -6.022  0.00  0.00    -0.287 N 
ATOM     21  C   LIG d   1       6.785  -6.935  -6.548  0.00  0.00     0.237 A 
ATOM     22  O   LIG d   1       7.391  -7.862  -7.042  0.00  0.00    -0.274 OA
ATOM     23  H   LIG d   1      11.745  -5.503  -4.821  0.00  0.00     0.062 H 
ATOM     24  H   LIG d   1      13.691  -4.145  -4.168  0.00  0.00     0.062 H 
ATOM     25  H   LIG d   1      13.573  -1.720  -4.070  0.00  0.00     0.062 H 
ATOM     26  H   LIG d   1      11.495  -0.501  -4.618  0.00  0.00     0.064 H 
ATOM     27  H   LIG d   1       9.483  -6.183  -6.257  0.00  0.00     0.034 H 
ATOM     28  H   LIG d   1       8.514  -6.088  -4.765  0.00  0.00     0.034 H 
ATOM     29  H   LIG d   1       3.781  -6.160  -5.899  0.00  0.00     0.056 H 
ATOM     30  H   LIG d   1       4.606  -6.426  -4.351  0.00  0.00     0.056 H 
ENDROOT
BRANCH   1  31
ATOM     31  C   LIG d   1       6.138  -2.297  -5.200  0.00  0.00    -0.021 A 
ATOM     32  C   LIG d   1       6.339  -2.344  -3.833  0.00  0.00    -0.056 A 
ATOM     33  C   LIG d   1       5.569  -1.561  -2.994  0.00  0.00    -0.058 A 
ATOM     34  H   LIG d   1       7.098  -2.993  -3.422  0.00  0.00     0.062 H 
ATOM     35  C   LIG d   1       4.598  -0.730  -3.521  0.00  0.00    -0.045 A 
ATOM     36  H   LIG d   1       5.726  -1.598  -1.925  0.00  0.00     0.062 H 
ATOM     37  C   LIG d   1       4.398  -0.683  -4.888  0.00  0.00    -0.058 A 
ATOM     38  C   LIG d   1       5.170  -1.462  -5.728  0.00  0.00    -0.056 A 
ATOM     39  H   LIG d   1       3.640  -0.034  -5.300  0.00  0.00     0.062 H 
ATOM     40  H   LIG d   1       5.017  -1.423  -6.796  0.00  0.00     0.062 H 
BRANCH  35  41
ATOM     41  C   LIG d   1       3.758   0.123  -2.606  0.00  0.00    -0.021 C 
ATOM     42  H   LIG d   1       3.001  -0.496  -2.124  0.00  0.00     0.034 H 
BRANCH  41  43
ATOM     43  C   LIG d   1       4.653   0.757  -1.538  0.00  0.00    -0.059 C 
ATOM     44  H   LIG d   1       4.765   1.821  -1.743  0.00  0.00     0.024 H 
ATOM     45  H   LIG d   1       4.197   0.622  -0.557  0.00  0.00     0.024 H 
ATOM     46  H   LIG d   1       5.631   0.278  -1.552  0.00  0.00     0.024 H 
ENDBRANCH  41  43
BRANCH  41  47
ATOM     47  C   LIG d   1       3.076   1.224  -3.418  0.00  0.00    -0.059 C 
ATOM     48  H   LIG d   1       3.769   1.607  -4.167  0.00  0.00     0.024 H 
ATOM     49  H   LIG d   1       2.195   0.817  -3.915  0.00  0.00     0.024 H 
ATOM     50  H   LIG d   1       2.777   2.035  -2.753  0.00  0.00     0.024 H 
ENDBRANCH  41  47
ENDBRANCH  35  41
ENDBRANCH   1  31
BRANCH  20  51
ATOM     51  C   LIG d   1       5.084  -8.560  -6.072  0.00  0.00     0.040 C 
ATOM     52  H   LIG d   1       4.027  -8.551  -6.338  0.00  0.00     0.051 H 
ATOM     53  H   LIG d   1       5.642  -9.124  -6.818  0.00  0.00     0.051 H 
BRANCH  51  54
ATOM     54  C   LIG d   1       5.255  -9.207  -4.720  0.00  0.00    -0.030 A 
ATOM     55  C   LIG d   1       4.169  -9.777  -4.085  0.00  0.00    -0.054 A 
ATOM     56  C   LIG d   1       4.324 -10.370  -2.847  0.00  0.00    -0.026 A 
ATOM     57  H   LIG d   1       3.196  -9.758  -4.556  0.00  0.00     0.062 H 
ATOM     58  C   LIG d   1       5.570 -10.392  -2.243  0.00  0.00     0.123 A 
ATOM     59  H   LIG d   1       3.476 -10.816  -2.350  0.00  0.00     0.065 H 
ATOM     60  C   LIG d   1       6.658  -9.821  -2.880  0.00  0.00    -0.026 A 
ATOM     61  F   LIG d   1       5.724 -10.972  -1.032  0.00  0.00    -0.205 F 
ATOM     62  C   LIG d   1       6.501  -9.233  -4.121  0.00  0.00    -0.054 A 
ATOM     63  H   LIG d   1       7.631  -9.838  -2.410  0.00  0.00     0.065 H 
ATOM     64  H   LIG d   1       7.350  -8.791  -4.621  0.00  0.00     0.062 H 
ENDBRANCH  51  54
ENDBRANCH  20  51
TORSDOF 6
ENDMDL
MODEL 2
REMARK VINA RESULT:      -7.1      2.871      5.246
REMARK  6 active torsions:
REMARK  status: ('A' for Active; 'I' for Inactive)
REMARK    1  A    between atoms: C_1  and  C_2 
REMARK    2  A    between atoms: C_2  and  C_3 
REMARK    3  A    between atoms: C_2  and  C_4 
REMARK    4  A    between atoms: C_7  and  C_10 
REMARK    5  A    between atoms: N_29  and  C_32 
REMARK    6  A    between atoms: C_32  and  C_33 
ROOT
ATOM      1  C   LIG d   1       6.422  -1.894  -6.974  0.00  0.00     0.092 C 
ATOM      2  H   LIG d   1       7.312  -1.325  -7.243  0.00  0.00     0.062 H 
ATOM      3  C   LIG d   1       5.825  -1.340  -5.700  0.00  0.00     0.046 A 
ATOM      4  C   LIG d   1       5.880  -1.980  -4.512  0.00  0.00    -0.015 A 
ATOM      5  C   LIG d   1       5.207  -1.136  -3.545  0.00  0.00     0.003 A 
ATOM      6  C   LIG d   1       4.956  -1.276  -2.177  0.00  0.00    -0.052 A 
ATOM      7  C   LIG d   1       4.274  -0.255  -1.563  0.00  0.00    -0.061 A 
ATOM      8  C   LIG d   1       3.847   0.866  -2.257  0.00  0.00    -0.060 A 
ATOM      9  C   LIG d   1       4.079   1.029  -3.612  0.00  0.00    -0.038 A 
ATOM     10  C   LIG d   1       4.772   0.009  -4.260  0.00  0.00     0.047 A 
ATOM     11  N   LIG d   1       5.162  -0.151  -5.559  0.00  0.00    -0.356 N 
ATOM     12  H   LIG d   1       4.995   0.483  -6.274  0.00  0.00     0.166 HD
ATOM     13  C   LIG d   1       6.533  -3.321  -4.289  0.00  0.00     0.002 C 
ATOM     14  C   LIG d   1       7.471  -3.616  -5.466  0.00  0.00     0.107 A 
ATOM     15  H   LIG d   1       8.354  -2.982  -5.381  0.00  0.00     0.060 H 
ATOM     16  N   LIG d   1       6.784  -3.305  -6.719  0.00  0.00    -0.276 N 
ATOM     17  C   LIG d   1       6.470  -4.201  -7.636  0.00  0.00     0.234 A 
ATOM     18  O   LIG d   1       5.843  -3.833  -8.606  0.00  0.00    -0.274 OA
ATOM     19  C   LIG d   1       6.831  -5.648  -7.549  0.00  0.00     0.092 A 
ATOM     20  N   LIG d   1       7.606  -5.947  -6.356  0.00  0.00    -0.287 N 
ATOM     21  C   LIG d   1       7.901  -5.047  -5.420  0.00  0.00     0.237 A 
ATOM     22  O   LIG d   1       8.558  -5.413  -4.468  0.00  0.00    -0.274 OA
ATOM     23  H   LIG d   1       5.285  -2.146  -1.628  0.00  0.00     0.062 H 
ATOM     24  H   LIG d   1       4.062  -0.328  -0.507  0.00  0.00     0.062 H 
ATOM     25  H   LIG d   1       3.314   1.638  -1.722  0.00  0.00     0.062 H 
ATOM     26  H   LIG d   1       3.741   1.907  -4.141  0.00  0.00     0.064 H 
ATOM     27  H   LIG d   1       7.104  -3.298  -3.361  0.00  0.00     0.034 H 
ATOM     28  H   LIG d   1       5.766  -4.094  -4.229  0.00  0.00     0.034 H 
ATOM     29  H   LIG d   1       7.416  -5.921  -8.428  0.00  0.00     0.056 H 
ATOM     30  H   LIG d   1       5.916  -6.240  -7.534  0.00  0.00     0.056 H 
ENDROOT
BRANCH   1  31
ATOM     31  C   LIG d   1       5.411  -1.818  -8.089  0.00  0.00    -0.021 A 
ATOM     32  C   LIG d   1       4.101  -2.197  -7.861  0.00  0.00    -0.056 A 
ATOM     33  C   LIG d   1       3.174  -2.129  -8.883  0.00  0.00    -0.058 A 
ATOM     34  H   LIG d   1       3.804  -2.548  -6.883  0.00  0.00     0.062 H 
ATOM     35  C   LIG d   1       3.555  -1.679 -10.133  0.00  0.00    -0.045 A 
ATOM     36  H   LIG d   1       2.150  -2.425  -8.705  0.00  0.00     0.062 H 
ATOM     37  C   LIG d   1       4.865  -1.300 -10.362  0.00  0.00    -0.058 A 
ATOM     38  C   LIG d   1       5.791  -1.365  -9.338  0.00  0.00    -0.056 A 
ATOM     39  H   LIG d   1       5.163  -0.950 -11.338  0.00  0.00     0.062 H 
ATOM     40  H   LIG d   1       6.814  -1.065  -9.515  0.00  0.00     0.062 H 
BRANCH  35  41
ATOM     41  C   LIG d   1       2.544  -1.605 -11.248  0.00  0.00    -0.021 C 
ATOM     42  H   LIG d   1       2.261  -2.613 -11.551  0.00  0.00     0.034 H 
BRANCH  41  43
ATOM     43  C   LIG d   1       1.303  -0.854 -10.760  0.00  0.00    -0.059 C 
ATOM     44  H   LIG d   1       1.224   0.098 -11.286  0.00  0.00     0.024 H 
ATOM     45  H   LIG d   1       0.414  -1.453 -10.959  0.00  0.00     0.024 H 
ATOM     46  H   LIG d   1       1.386  -0.672  -9.689  0.00  0.00     0.024 H 
ENDBRANCH  41  43
BRANCH  41  47
ATOM     47  C   LIG d   1       3.152  -0.865 -12.440  0.00  0.00    -0.059 C 
ATOM     48  H   LIG d   1       2.714  -1.243 -13.365  0.00  0.00     0.024 H 
ATOM     49  H   LIG d   1       2.945   0.201 -12.350  0.00  0.00     0.024 H 
ATOM     50  H   LIG d   1       4.230  -1.027 -12.458  0.00  0.00     0.024 H 
ENDBRANCH  41  47
ENDBRANCH  35  41
ENDBRANCH   1  31
BRANCH  20  51
ATOM     51  C   LIG d   1       8.091  -7.317  -6.173  0.00  0.00     0.040 C 
ATOM     52  H   LIG d   1       8.227  -7.788  -7.147  0.00  0.00     0.051 H 
ATOM     53  H   LIG d   1       9.042  -7.299  -5.642  0.00  0.00     0.051 H 
BRANCH  51  54
ATOM     54  C   LIG d   1       7.084  -8.104  -5.373  0.00  0.00    -0.030 A 
ATOM     55  C   LIG d   1       7.492  -8.833  -4.273  0.00  0.00    -0.054 A 
ATOM     56  C   LIG d   1       6.570  -9.554  -3.539  0.00  0.00    -0.026 A 
ATOM     57  H   LIG d   1       8.534  -8.840  -3.986  0.00  0.00     0.062 H 
ATOM     58  C   LIG d   1       5.234  -9.545  -3.907  0.00  0.00     0.123 A 
ATOM     59  H   LIG d   1       6.888 -10.123  -2.679  0.00  0.00     0.065 H 
ATOM     60  C   LIG d   1       4.826  -8.814  -5.009  0.00  0.00    -0.026 A 
ATOM     61  F   LIG d   1       4.332 -10.249  -3.190  0.00  0.00    -0.205 F 
ATOM     62  C   LIG d   1       5.751  -8.090  -5.739  0.00  0.00    -0.054 A 
ATOM     63  H   LIG d   1       3.785  -8.806  -5.298  0.00  0.00     0.065 H 
ATOM     64  H   LIG d   1       5.432  -7.516  -6.596  0.00  0.00     0.062 H 
ENDBRANCH  51  54
ENDBRANCH  20  51
TORSDOF 6
ENDMDL
MODEL 3
REMARK VINA RESULT:      -7.1      5.035      7.391
REMARK  6 active torsions:
REMARK  status: ('A' for Active; 'I' for Inactive)
REMARK    1  A    between atoms: C_1  and  C_2 
REMARK    2  A    between atoms: C_2  and  C_3 
REMARK    3  A    between atoms: C_2  and  C_4 
REMARK    4  A    between atoms: C_7  and  C_10 
REMARK    5  A    between atoms: N_29  and  C_32 
REMARK    6  A    between atoms: C_32  and  C_33 
ROOT
ATOM      1  C   LIG d   1      10.163   2.147  -5.331  0.00  0.00     0.092 C 
ATOM      2  H   LIG d   1       9.884   2.439  -6.343  0.00  0.00     0.062 H 
ATOM      3  C   LIG d   1      11.572   1.600  -5.324  0.00  0.00     0.046 A 
ATOM      4  C   LIG d   1      11.863   0.291  -5.156  0.00  0.00    -0.015 A 
ATOM      5  C   LIG d   1      13.306   0.168  -5.215  0.00  0.00     0.003 A 
ATOM      6  C   LIG d   1      14.168  -0.927  -5.106  0.00  0.00    -0.052 A 
ATOM      7  C   LIG d   1      15.513  -0.671  -5.214  0.00  0.00    -0.061 A 
ATOM      8  C   LIG d   1      16.004   0.608  -5.418  0.00  0.00    -0.060 A 
ATOM      9  C   LIG d   1      15.174   1.710  -5.527  0.00  0.00    -0.038 A 
ATOM     10  C   LIG d   1      13.804   1.479  -5.424  0.00  0.00     0.047 A 
ATOM     11  N   LIG d   1      12.728   2.317  -5.483  0.00  0.00    -0.356 N 
ATOM     12  H   LIG d   1      12.774   3.277  -5.619  0.00  0.00     0.166 HD
ATOM     13  C   LIG d   1      10.839  -0.795  -4.948  0.00  0.00     0.002 C 
ATOM     14  C   LIG d   1       9.466  -0.272  -5.391  0.00  0.00     0.107 A 
ATOM     15  H   LIG d   1       9.443  -0.223  -6.480  0.00  0.00     0.060 H 
ATOM     16  N   LIG d   1       9.267   1.072  -4.852  0.00  0.00    -0.276 N 
ATOM     17  C   LIG d   1       8.338   1.388  -3.969  0.00  0.00     0.234 A 
ATOM     18  O   LIG d   1       8.311   2.524  -3.546  0.00  0.00    -0.274 OA
ATOM     19  C   LIG d   1       7.320   0.427  -3.447  0.00  0.00     0.092 A 
ATOM     20  N   LIG d   1       7.446  -0.887  -4.057  0.00  0.00    -0.287 N 
ATOM     21  C   LIG d   1       8.398  -1.210  -4.929  0.00  0.00     0.237 A 
ATOM     22  O   LIG d   1       8.400  -2.338  -5.374  0.00  0.00    -0.274 OA
ATOM     23  H   LIG d   1      13.794  -1.928  -4.946  0.00  0.00     0.062 H 
ATOM     24  H   LIG d   1      16.210  -1.493  -5.135  0.00  0.00     0.062 H 
ATOM     25  H   LIG d   1      17.073   0.750  -5.494  0.00  0.00     0.062 H 
ATOM     26  H   LIG d   1      15.570   2.702  -5.686  0.00  0.00     0.064 H 
ATOM     27  H   LIG d   1      11.108  -1.668  -5.544  0.00  0.00     0.034 H 
ATOM     28  H   LIG d   1      10.804  -1.067  -3.893  0.00  0.00     0.034 H 
ATOM     29  H   LIG d   1       6.324   0.819  -3.653  0.00  0.00     0.056 H 
ATOM     30  H   LIG d   1       7.446   0.329  -2.369  0.00  0.00     0.056 H 
ENDROOT
BRANCH   1  31
ATOM     31  C   LIG d   1      10.071   3.338  -4.411  0.00  0.00    -0.021 A 
ATOM     32  C   LIG d   1      10.617   3.274  -3.142  0.00  0.00    -0.056 A 
ATOM     33  C   LIG d   1      10.533   4.366  -2.299  0.00  0.00    -0.058 A 
ATOM     34  H   LIG d   1      11.107   2.371  -2.811  0.00  0.00     0.062 H 
ATOM     35  C   LIG d   1       9.905   5.521  -2.724  0.00  0.00    -0.045 A 
ATOM     36  H   LIG d   1      10.959   4.316  -1.307  0.00  0.00     0.062 H 
ATOM     37  C   LIG d   1       9.360   5.585  -3.993  0.00  0.00    -0.058 A 
ATOM     38  C   LIG d   1       9.448   4.495  -4.838  0.00  0.00    -0.056 A 
ATOM     39  H   LIG d   1       8.870   6.488  -4.325  0.00  0.00     0.062 H 
ATOM     40  H   LIG d   1       9.026   4.546  -5.831  0.00  0.00     0.062 H 
BRANCH  35  41
ATOM     41  C   LIG d   1       9.813   6.711  -1.804  0.00  0.00    -0.021 C 
ATOM     42  H   LIG d   1       8.767   6.911  -1.570  0.00  0.00     0.034 H 
BRANCH  41  43
ATOM     43  C   LIG d   1      10.577   6.415  -0.512  0.00  0.00    -0.059 C 
ATOM     44  H   LIG d   1      11.642   6.587  -0.672  0.00  0.00     0.024 H 
ATOM     45  H   LIG d   1      10.219   7.073   0.280  0.00  0.00     0.024 H 
ATOM     46  H   LIG d   1      10.415   5.378  -0.223  0.00  0.00     0.024 H 
ENDBRANCH  41  43
BRANCH  41  47
ATOM     47  C   LIG d   1      10.424   7.934  -2.489  0.00  0.00    -0.059 C 
ATOM     48  H   LIG d   1       9.864   8.826  -2.209  0.00  0.00     0.024 H 
ATOM     49  H   LIG d   1      11.463   8.045  -2.177  0.00  0.00     0.024 H 
ATOM     50  H   LIG d   1      10.382   7.805  -3.571  0.00  0.00     0.024 H 
ENDBRANCH  41  47
ENDBRANCH  35  41
ENDBRANCH   1  31
BRANCH  20  51
ATOM     51  C   LIG d   1       6.466  -1.914  -3.692  0.00  0.00     0.040 C 
ATOM     52  H   LIG d   1       6.617  -2.797  -4.313  0.00  0.00     0.051 H 
ATOM     53  H   LIG d   1       6.593  -2.180  -2.644  0.00  0.00     0.051 H 
BRANCH  51  54
ATOM     54  C   LIG d   1       5.073  -1.380  -3.911  0.00  0.00    -0.030 A 
ATOM     55  C   LIG d   1       4.730  -0.825  -5.129  0.00  0.00    -0.054 A 
ATOM     56  C   LIG d   1       3.453  -0.335  -5.330  0.00  0.00    -0.026 A 
ATOM     57  H   LIG d   1       5.460  -0.772  -5.924  0.00  0.00     0.062 H 
ATOM     58  C   LIG d   1       2.518  -0.401  -4.311  0.00  0.00     0.123 A 
ATOM     59  H   LIG d   1       3.184   0.098  -6.282  0.00  0.00     0.065 H 
ATOM     60  C   LIG d   1       2.863  -0.958  -3.092  0.00  0.00    -0.026 A 
ATOM     61  F   LIG d   1       1.270   0.076  -4.507  0.00  0.00    -0.205 F 
ATOM     62  C   LIG d   1       4.139  -1.451  -2.894  0.00  0.00    -0.054 A 
ATOM     63  H   LIG d   1       2.135  -1.011  -2.296  0.00  0.00     0.065 H 
ATOM     64  H   LIG d   1       4.408  -1.890  -1.945  0.00  0.00     0.062 H 
ENDBRANCH  51  54
ENDBRANCH  20  51
TORSDOF 6
ENDMDL
MODEL 4
REMARK VINA RESULT:      -7.1      4.211      9.201
REMARK  6 active torsions:
REMARK  status: ('A' for Active; 'I' for Inactive)
REMARK    1  A    between atoms: C_1  and  C_2 
REMARK    2  A    between atoms: C_2  and  C_3 
REMARK    3  A    between atoms: C_2  and  C_4 
REMARK    4  A    between atoms: C_7  and  C_10 
REMARK    5  A    between atoms: N_29  and  C_32 
REMARK    6  A    between atoms: C_32  and  C_33 
ROOT
ATOM      1  C   LIG d   1       8.333  -2.902  -5.018  0.00  0.00     0.092 C 
ATOM      2  H   LIG d   1       7.858  -3.310  -5.911  0.00  0.00     0.062 H 
ATOM      3  C   LIG d   1       7.350  -2.035  -4.264  0.00  0.00     0.046 A 
ATOM      4  C   LIG d   1       7.432  -0.688  -4.211  0.00  0.00    -0.015 A 
ATOM      5  C   LIG d   1       6.320  -0.227  -3.405  0.00  0.00     0.003 A 
ATOM      6  C   LIG d   1       5.898   1.046  -3.010  0.00  0.00    -0.052 A 
ATOM      7  C   LIG d   1       4.773   1.112  -2.228  0.00  0.00    -0.061 A 
ATOM      8  C   LIG d   1       4.080  -0.022  -1.837  0.00  0.00    -0.060 A 
ATOM      9  C   LIG d   1       4.475  -1.295  -2.212  0.00  0.00    -0.038 A 
ATOM     10  C   LIG d   1       5.613  -1.392  -3.009  0.00  0.00     0.047 A 
ATOM     11  N   LIG d   1       6.266  -2.464  -3.545  0.00  0.00    -0.356 N 
ATOM     12  H   LIG d   1       6.001  -3.391  -3.435  0.00  0.00     0.166 HD
ATOM     13  C   LIG d   1       8.502   0.133  -4.884  0.00  0.00     0.002 C 
ATOM     14  C   LIG d   1       9.184  -0.727  -5.958  0.00  0.00     0.107 A 
ATOM     15  H   LIG d   1       8.503  -0.842  -6.801  0.00  0.00     0.060 H 
ATOM     16  N   LIG d   1       9.476  -2.047  -5.401  0.00  0.00    -0.276 N 
ATOM     17  C   LIG d   1      10.694  -2.524  -5.224  0.00  0.00     0.234 A 
ATOM     18  O   LIG d   1      10.813  -3.609  -4.694  0.00  0.00    -0.274 OA
ATOM     19  C   LIG d   1      11.941  -1.806  -5.627  0.00  0.00     0.092 A 
ATOM     20  N   LIG d   1      11.654  -0.537  -6.276  0.00  0.00    -0.287 N 
ATOM     21  C   LIG d   1      10.427  -0.046  -6.432  0.00  0.00     0.237 A 
ATOM     22  O   LIG d   1      10.311   1.023  -6.993  0.00  0.00    -0.274 OA
ATOM     23  H   LIG d   1       6.433   1.936  -3.309  0.00  0.00     0.062 H 
ATOM     24  H   LIG d   1       4.417   2.080  -1.903  0.00  0.00     0.062 H 
ATOM     25  H   LIG d   1       3.200   0.091  -1.220  0.00  0.00     0.062 H 
ATOM     26  H   LIG d   1       3.926  -2.171  -1.902  0.00  0.00     0.064 H 
ATOM     27  H   LIG d   1       8.051   1.009  -5.349  0.00  0.00     0.034 H 
ATOM     28  H   LIG d   1       9.239   0.448  -4.145  0.00  0.00     0.034 H 
ATOM     29  H   LIG d   1      12.506  -2.435  -6.314  0.00  0.00     0.056 H 
ATOM     30  H   LIG d   1      12.544  -1.620  -4.738  0.00  0.00     0.056 H 
ENDROOT
BRANCH   1  31
ATOM     31  C   LIG d   1       8.808  -4.027  -4.134  0.00  0.00    -0.021 A 
ATOM     32  C   LIG d   1       9.233  -3.759  -2.845  0.00  0.00    -0.056 A 
ATOM     33  C   LIG d   1       9.669  -4.790  -2.034  0.00  0.00    -0.058 A 
ATOM     34  H   LIG d   1       9.224  -2.745  -2.474  0.00  0.00     0.062 H 
ATOM     35  C   LIG d   1       9.679  -6.088  -2.511  0.00  0.00    -0.045 A 
ATOM     36  H   LIG d   1      10.002  -4.582  -1.027  0.00  0.00     0.062 H 
ATOM     37  C   LIG d   1       9.253  -6.355  -3.798  0.00  0.00    -0.058 A 
ATOM     38  C   LIG d   1       8.814  -5.324  -4.608  0.00  0.00    -0.056 A 
ATOM     39  H   LIG d   1       9.261  -7.368  -4.170  0.00  0.00     0.062 H 
ATOM     40  H   LIG d   1       8.477  -5.533  -5.613  0.00  0.00     0.062 H 
BRANCH  35  41
ATOM     41  C   LIG d   1      10.155  -7.211  -1.626  0.00  0.00    -0.021 C 
ATOM     42  H   LIG d   1      10.044  -6.923  -0.580  0.00  0.00     0.034 H 
BRANCH  41  43
ATOM     43  C   LIG d   1       9.320  -8.464  -1.900  0.00  0.00    -0.059 C 
ATOM     44  H   LIG d   1       9.960  -9.245  -2.308  0.00  0.00     0.024 H 
ATOM     45  H   LIG d   1       8.871  -8.812  -0.969  0.00  0.00     0.024 H 
ATOM     46  H   LIG d   1       8.533  -8.227  -2.615  0.00  0.00     0.024 H 
ENDBRANCH  41  43
BRANCH  41  47
ATOM     47  C   LIG d   1      11.626  -7.505  -1.921  0.00  0.00    -0.059 C 
ATOM     48  H   LIG d   1      12.255  -6.816  -1.357  0.00  0.00     0.024 H 
ATOM     49  H   LIG d   1      11.858  -8.529  -1.630  0.00  0.00     0.024 H 
ATOM     50  H   LIG d   1      11.816  -7.378  -2.987  0.00  0.00     0.024 H 
ENDBRANCH  41  47
ENDBRANCH  35  41
ENDBRANCH   1  31
BRANCH  20  51
ATOM     51  C   LIG d   1      12.782   0.246  -6.789  0.00  0.00     0.040 C 
ATOM     52  H   LIG d   1      13.411  -0.388  -7.413  0.00  0.00     0.051 H 
ATOM     53  H   LIG d   1      12.406   1.081  -7.379  0.00  0.00     0.051 H 
BRANCH  51  54
ATOM     54  C   LIG d   1      13.593   0.774  -5.632  0.00  0.00    -0.030 A 
ATOM     55  C   LIG d   1      14.876   0.307  -5.420  0.00  0.00    -0.054 A 
ATOM     56  C   LIG d   1      15.621   0.790  -4.360  0.00  0.00    -0.026 A 
ATOM     57  H   LIG d   1      15.298  -0.436  -6.081  0.00  0.00     0.062 H 
ATOM     58  C   LIG d   1      15.081   1.742  -3.512  0.00  0.00     0.123 A 
ATOM     59  H   LIG d   1      16.624   0.427  -4.194  0.00  0.00     0.065 H 
ATOM     60  C   LIG d   1      13.795   2.209  -3.726  0.00  0.00    -0.026 A 
ATOM     61  F   LIG d   1      15.808   2.215  -2.477  0.00  0.00    -0.205 F 
ATOM     62  C   LIG d   1      13.054   1.728  -4.790  0.00  0.00    -0.054 A 
ATOM     63  H   LIG d   1      13.372   2.951  -3.066  0.00  0.00     0.065 H 
ATOM     64  H   LIG d   1      12.053   2.095  -4.960  0.00  0.00     0.062 H 
ENDBRANCH  51  54
ENDBRANCH  20  51
TORSDOF 6
ENDMDL
MODEL 5
REMARK VINA RESULT:      -6.9      6.313      8.818
REMARK  6 active torsions:
REMARK  status: ('A' for Active; 'I' for Inactive)
REMARK    1  A    between atoms: C_1  and  C_2 
REMARK    2  A    between atoms: C_2  and  C_3 
REMARK    3  A    between atoms: C_2  and  C_4 
REMARK    4  A    between atoms: C_7  and  C_10 
REMARK    5  A    between atoms: N_29  and  C_32 
REMARK    6  A    between atoms: C_32  and  C_33 
ROOT
ATOM      1  C   LIG d   1       9.302   4.379  -5.202  0.00  0.00     0.092 C 
ATOM      2  H   LIG d   1       8.447   5.046  -5.310  0.00  0.00     0.062 H 
ATOM      3  C   LIG d   1      10.237   4.547  -6.379  0.00  0.00     0.046 A 
ATOM      4  C   LIG d   1      10.381   3.624  -7.355  0.00  0.00    -0.015 A 
ATOM      5  C   LIG d   1      11.352   4.149  -8.293  0.00  0.00     0.003 A 
ATOM      6  C   LIG d   1      11.892   3.644  -9.480  0.00  0.00    -0.052 A 
ATOM      7  C   LIG d   1      12.811   4.431 -10.128  0.00  0.00    -0.061 A 
ATOM      8  C   LIG d   1      13.198   5.668  -9.636  0.00  0.00    -0.060 A 
ATOM      9  C   LIG d   1      12.681   6.191  -8.464  0.00  0.00    -0.038 A 
ATOM     10  C   LIG d   1      11.743   5.415  -7.787  0.00  0.00     0.047 A 
ATOM     11  N   LIG d   1      11.050   5.620  -6.629  0.00  0.00    -0.356 N 
ATOM     12  H   LIG d   1      11.122   6.408  -6.067  0.00  0.00     0.166 HD
ATOM     13  C   LIG d   1       9.644   2.310  -7.408  0.00  0.00     0.002 C 
ATOM     14  C   LIG d   1       8.431   2.384  -6.469  0.00  0.00     0.107 A 
ATOM     15  H   LIG d   1       7.674   3.022  -6.924  0.00  0.00     0.060 H 
ATOM     16  N   LIG d   1       8.845   2.972  -5.196  0.00  0.00    -0.276 N 
ATOM     17  C   LIG d   1       8.833   2.330  -4.043  0.00  0.00     0.234 A 
ATOM     18  O   LIG d   1       9.260   2.902  -3.063  0.00  0.00    -0.274 OA
ATOM     19  C   LIG d   1       8.333   0.932  -3.870  0.00  0.00     0.092 A 
ATOM     20  N   LIG d   1       7.823   0.377  -5.113  0.00  0.00    -0.287 N 
ATOM     21  C   LIG d   1       7.859   1.017  -6.280  0.00  0.00     0.237 A 
ATOM     22  O   LIG d   1       7.400   0.453  -7.250  0.00  0.00    -0.274 OA
ATOM     23  H   LIG d   1      11.598   2.681  -9.870  0.00  0.00     0.062 H 
ATOM     24  H   LIG d   1      13.250   4.073 -11.048  0.00  0.00     0.062 H 
ATOM     25  H   LIG d   1      13.926   6.243 -10.189  0.00  0.00     0.062 H 
ATOM     26  H   LIG d   1      12.990   7.156  -8.092  0.00  0.00     0.064 H 
ATOM     27  H   LIG d   1       9.307   2.123  -8.427  0.00  0.00     0.034 H 
ATOM     28  H   LIG d   1      10.307   1.507  -7.087  0.00  0.00     0.034 H 
ATOM     29  H   LIG d   1       7.535   0.931  -3.128  0.00  0.00     0.056 H 
ATOM     30  H   LIG d   1       9.151   0.306  -3.512  0.00  0.00     0.056 H 
ENDROOT
BRANCH   1  31
ATOM     31  C   LIG d   1      10.032   4.685  -3.920  0.00  0.00    -0.021 A 
ATOM     32  C   LIG d   1      11.265   4.110  -3.672  0.00  0.00    -0.056 A 
ATOM     33  C   LIG d   1      11.934   4.390  -2.496  0.00  0.00    -0.058 A 
ATOM     34  H   LIG d   1      11.703   3.440  -4.397  0.00  0.00     0.062 H 
ATOM     35  C   LIG d   1      11.373   5.248  -1.569  0.00  0.00    -0.045 A 
ATOM     36  H   LIG d   1      12.897   3.940  -2.302  0.00  0.00     0.062 H 
ATOM     37  C   LIG d   1      10.141   5.824  -1.817  0.00  0.00    -0.058 A 
ATOM     38  C   LIG d   1       9.473   5.546  -2.995  0.00  0.00    -0.056 A 
ATOM     39  H   LIG d   1       9.702   6.493  -1.092  0.00  0.00     0.062 H 
ATOM     40  H   LIG d   1       8.512   5.999  -3.191  0.00  0.00     0.062 H 
BRANCH  35  41
ATOM     41  C   LIG d   1      12.103   5.554  -0.286  0.00  0.00    -0.021 C 
ATOM     42  H   LIG d   1      12.694   4.687   0.011  0.00  0.00     0.034 H 
BRANCH  41  43
ATOM     43  C   LIG d   1      13.030   6.752  -0.502  0.00  0.00    -0.059 C 
ATOM     44  H   LIG d   1      13.853   6.707   0.211  0.00  0.00     0.024 H 
ATOM     45  H   LIG d   1      13.427   6.726  -1.517  0.00  0.00     0.024 H 
ATOM     46  H   LIG d   1      12.471   7.675  -0.355  0.00  0.00     0.024 H 
ENDBRANCH  41  43
BRANCH  41  47
ATOM     47  C   LIG d   1      11.091   5.883   0.812  0.00  0.00    -0.059 C 
ATOM     48  H   LIG d   1      11.596   6.391   1.633  0.00  0.00     0.024 H 
ATOM     49  H   LIG d   1      10.314   6.531   0.407  0.00  0.00     0.024 H 
ATOM     50  H   LIG d   1      10.640   4.961   1.179  0.00  0.00     0.024 H 
ENDBRANCH  41  47
ENDBRANCH  35  41
ENDBRANCH   1  31
BRANCH  20  51
ATOM     51  C   LIG d   1       7.235  -0.965  -5.079  0.00  0.00     0.040 C 
ATOM     52  H   LIG d   1       7.109  -1.333  -6.097  0.00  0.00     0.051 H 
ATOM     53  H   LIG d   1       7.892  -1.636  -4.528  0.00  0.00     0.051 H 
BRANCH  51  54
ATOM     54  C   LIG d   1       5.890  -0.906  -4.399  0.00  0.00    -0.030 A 
ATOM     55  C   LIG d   1       5.756  -1.342  -3.095  0.00  0.00    -0.054 A 
ATOM     56  C   LIG d   1       4.524  -1.288  -2.471  0.00  0.00    -0.026 A 
ATOM     57  H   LIG d   1       6.614  -1.726  -2.563  0.00  0.00     0.062 H 
ATOM     58  C   LIG d   1       3.424  -0.797  -3.154  0.00  0.00     0.123 A 
ATOM     59  H   LIG d   1       4.419  -1.628  -1.451  0.00  0.00     0.065 H 
ATOM     60  C   LIG d   1       3.559  -0.360  -4.460  0.00  0.00    -0.026 A 
ATOM     61  F   LIG d   1       2.220  -0.744  -2.544  0.00  0.00    -0.205 F 
ATOM     62  C   LIG d   1       4.794  -0.411  -5.081  0.00  0.00    -0.054 A 
ATOM     63  H   LIG d   1       2.702   0.023  -4.994  0.00  0.00     0.065 H 
ATOM     64  H   LIG d   1       4.901  -0.066  -6.098  0.00  0.00     0.062 H 
ENDBRANCH  51  54
ENDBRANCH  20  51
TORSDOF 6
ENDMDL
MODEL 6
REMARK VINA RESULT:      -6.9      1.581      2.347
REMARK  6 active torsions:
REMARK  status: ('A' for Active; 'I' for Inactive)
REMARK    1  A    between atoms: C_1  and  C_2 
REMARK    2  A    between atoms: C_2  and  C_3 
REMARK    3  A    between atoms: C_2  and  C_4 
REMARK    4  A    between atoms: C_7  and  C_10 
REMARK    5  A    between atoms: N_29  and  C_32 
REMARK    6  A    between atoms: C_32  and  C_33 
ROOT
ATOM      1  C   LIG d   1       8.201  -2.199  -5.822  0.00  0.00     0.092 C 
ATOM      2  H   LIG d   1       8.039  -1.879  -6.851  0.00  0.00     0.062 H 
ATOM      3  C   LIG d   1       9.530  -1.678  -5.325  0.00  0.00     0.046 A 
ATOM      4  C   LIG d   1      10.610  -2.463  -5.122  0.00  0.00    -0.015 A 
ATOM      5  C   LIG d   1      11.678  -1.602  -4.654  0.00  0.00     0.003 A 
ATOM      6  C   LIG d   1      13.004  -1.851  -4.288  0.00  0.00    -0.052 A 
ATOM      7  C   LIG d   1      13.749  -0.771  -3.883  0.00  0.00    -0.061 A 
ATOM      8  C   LIG d   1      13.221   0.510  -3.833  0.00  0.00    -0.060 A 
ATOM      9  C   LIG d   1      11.912   0.784  -4.188  0.00  0.00    -0.038 A 
ATOM     10  C   LIG d   1      11.133  -0.293  -4.605  0.00  0.00     0.047 A 
ATOM     11  N   LIG d   1       9.834  -0.379  -5.016  0.00  0.00    -0.356 N 
ATOM     12  H   LIG d   1       9.219   0.369  -5.080  0.00  0.00     0.166 HD
ATOM     13  C   LIG d   1      10.644  -3.952  -5.355  0.00  0.00     0.002 C 
ATOM     14  C   LIG d   1       9.456  -4.341  -6.246  0.00  0.00     0.107 A 
ATOM     15  H   LIG d   1       9.655  -4.005  -7.264  0.00  0.00     0.060 H 
ATOM     16  N   LIG d   1       8.250  -3.675  -5.755  0.00  0.00    -0.276 N 
ATOM     17  C   LIG d   1       7.202  -4.308  -5.260  0.00  0.00     0.234 A 
ATOM     18  O   LIG d   1       6.285  -3.645  -4.825  0.00  0.00    -0.274 OA
ATOM     19  C   LIG d   1       7.079  -5.796  -5.193  0.00  0.00     0.092 A 
ATOM     20  N   LIG d   1       8.231  -6.466  -5.775  0.00  0.00    -0.287 N 
ATOM     21  C   LIG d   1       9.297  -5.827  -6.251  0.00  0.00     0.237 A 
ATOM     22  O   LIG d   1      10.196  -6.493  -6.717  0.00  0.00    -0.274 OA
ATOM     23  H   LIG d   1      13.423  -2.845  -4.323  0.00  0.00     0.062 H 
ATOM     24  H   LIG d   1      14.778  -0.924  -3.593  0.00  0.00     0.062 H 
ATOM     25  H   LIG d   1      13.855   1.322  -3.506  0.00  0.00     0.062 H 
ATOM     26  H   LIG d   1      11.513   1.786  -4.145  0.00  0.00     0.064 H 
ATOM     27  H   LIG d   1      11.576  -4.223  -5.850  0.00  0.00     0.034 H 
ATOM     28  H   LIG d   1      10.571  -4.473  -4.400  0.00  0.00     0.034 H 
ATOM     29  H   LIG d   1       6.182  -6.102  -5.732  0.00  0.00     0.056 H 
ATOM     30  H   LIG d   1       6.985  -6.096  -4.149  0.00  0.00     0.056 H 
ENDROOT
BRANCH   1  31
ATOM     31  C   LIG d   1       7.088  -1.683  -4.946  0.00  0.00    -0.021 A 
ATOM     32  C   LIG d   1       5.955  -1.136  -5.519  0.00  0.00    -0.056 A 
ATOM     33  C   LIG d   1       4.934  -0.663  -4.716  0.00  0.00    -0.058 A 
ATOM     34  H   LIG d   1       5.868  -1.079  -6.594  0.00  0.00     0.062 H 
ATOM     35  C   LIG d   1       5.046  -0.738  -3.340  0.00  0.00    -0.045 A 
ATOM     36  H   LIG d   1       4.049  -0.235  -5.163  0.00  0.00     0.062 H 
ATOM     37  C   LIG d   1       6.179  -1.285  -2.767  0.00  0.00    -0.058 A 
ATOM     38  C   LIG d   1       7.198  -1.762  -3.571  0.00  0.00    -0.056 A 
ATOM     39  H   LIG d   1       6.267  -1.343  -1.693  0.00  0.00     0.062 H 
ATOM     40  H   LIG d   1       8.081  -2.193  -3.124  0.00  0.00     0.062 H 
BRANCH  35  41
ATOM     41  C   LIG d   1       3.934  -0.221  -2.464  0.00  0.00    -0.021 C 
ATOM     42  H   LIG d   1       4.032  -0.643  -1.464  0.00  0.00     0.034 H 
BRANCH  41  43
ATOM     43  C   LIG d   1       4.016   1.305  -2.384  0.00  0.00    -0.059 C 
ATOM     44  H   LIG d   1       5.058   1.616  -2.456  0.00  0.00     0.024 H 
ATOM     45  H   LIG d   1       3.448   1.742  -3.205  0.00  0.00     0.024 H 
ATOM     46  H   LIG d   1       3.600   1.642  -1.435  0.00  0.00     0.024 H 
ENDBRANCH  41  43
BRANCH  41  47
ATOM     47  C   LIG d   1       2.585  -0.629  -3.059  0.00  0.00    -0.059 C 
ATOM     48  H   LIG d   1       2.725  -1.473  -3.735  0.00  0.00     0.024 H 
ATOM     49  H   LIG d   1       1.906  -0.916  -2.257  0.00  0.00     0.024 H 
ATOM     50  H   LIG d   1       2.162   0.210  -3.611  0.00  0.00     0.024 H 
ENDBRANCH  41  47
ENDBRANCH  35  41
ENDBRANCH   1  31
BRANCH  20  51
ATOM     51  C   LIG d   1       8.216  -7.930  -5.842  0.00  0.00     0.040 C 
ATOM     52  H   LIG d   1       7.401  -8.256  -6.488  0.00  0.00     0.051 H 
ATOM     53  H   LIG d   1       9.164  -8.284  -6.245  0.00  0.00     0.051 H 
BRANCH  51  54
ATOM     54  C   LIG d   1       8.015  -8.494  -4.458  0.00  0.00    -0.030 A 
ATOM     55  C   LIG d   1       6.924  -9.298  -4.192  0.00  0.00    -0.054 A 
ATOM     56  C   LIG d   1       6.739  -9.815  -2.924  0.00  0.00    -0.026 A 
ATOM     57  H   LIG d   1       6.214  -9.522  -4.975  0.00  0.00     0.062 H 
ATOM     58  C   LIG d   1       7.648  -9.527  -1.920  0.00  0.00     0.123 A 
ATOM     59  H   LIG d   1       5.886 -10.444  -2.715  0.00  0.00     0.065 H 
ATOM     60  C   LIG d   1       8.742  -8.722  -2.188  0.00  0.00    -0.026 A 
ATOM     61  F   LIG d   1       7.469 -10.033  -0.680  0.00  0.00    -0.205 F 
ATOM     62  C   LIG d   1       8.927  -8.209  -3.459  0.00  0.00    -0.054 A 
ATOM     63  H   LIG d   1       9.452  -8.497  -1.406  0.00  0.00     0.065 H 
ATOM     64  H   LIG d   1       9.782  -7.585  -3.670  0.00  0.00     0.062 H 
ENDBRANCH  51  54
ENDBRANCH  20  51
TORSDOF 6
ENDMDL
MODEL 7
REMARK VINA RESULT:      -6.8      3.083      5.492
REMARK  6 active torsions:
REMARK  status: ('A' for Active; 'I' for Inactive)
REMARK    1  A    between atoms: C_1  and  C_2 
REMARK    2  A    between atoms: C_2  and  C_3 
REMARK    3  A    between atoms: C_2  and  C_4 
REMARK    4  A    between atoms: C_7  and  C_10 
REMARK    5  A    between atoms: N_29  and  C_32 
REMARK    6  A    between atoms: C_32  and  C_33 
ROOT
ATOM      1  C   LIG d   1       5.239  -4.045  -5.236  0.00  0.00     0.092 C 
ATOM      2  H   LIG d   1       4.767  -4.920  -4.789  0.00  0.00     0.062 H 
ATOM      3  C   LIG d   1       4.881  -3.961  -6.703  0.00  0.00     0.046 A 
ATOM      4  C   LIG d   1       5.756  -4.218  -7.699  0.00  0.00    -0.015 A 
ATOM      5  C   LIG d   1       5.042  -4.036  -8.947  0.00  0.00     0.003 A 
ATOM      6  C   LIG d   1       5.425  -4.160 -10.285  0.00  0.00    -0.052 A 
ATOM      7  C   LIG d   1       4.465  -3.906 -11.232  0.00  0.00    -0.061 A 
ATOM      8  C   LIG d   1       3.173  -3.540 -10.890  0.00  0.00    -0.060 A 
ATOM      9  C   LIG d   1       2.767  -3.407  -9.574  0.00  0.00    -0.038 A 
ATOM     10  C   LIG d   1       3.720  -3.662  -8.591  0.00  0.00     0.047 A 
ATOM     11  N   LIG d   1       3.662  -3.626  -7.228  0.00  0.00    -0.356 N 
ATOM     12  H   LIG d   1       2.875  -3.398  -6.709  0.00  0.00     0.166 HD
ATOM     13  C   LIG d   1       7.196  -4.616  -7.496  0.00  0.00     0.002 C 
ATOM     14  C   LIG d   1       7.376  -5.100  -6.050  0.00  0.00     0.107 A 
ATOM     15  H   LIG d   1       6.913  -6.081  -5.948  0.00  0.00     0.060 H 
ATOM     16  N   LIG d   1       6.710  -4.165  -5.144  0.00  0.00    -0.276 N 
ATOM     17  C   LIG d   1       7.338  -3.427  -4.248  0.00  0.00     0.234 A 
ATOM     18  O   LIG d   1       6.685  -2.640  -3.595  0.00  0.00    -0.274 OA
ATOM     19  C   LIG d   1       8.808  -3.491  -3.993  0.00  0.00     0.092 A 
ATOM     20  N   LIG d   1       9.462  -4.493  -4.818  0.00  0.00    -0.287 N 
ATOM     21  C   LIG d   1       8.833  -5.220  -5.739  0.00  0.00     0.237 A 
ATOM     22  O   LIG d   1       9.483  -6.029  -6.365  0.00  0.00    -0.274 OA
ATOM     23  H   LIG d   1       6.430  -4.444 -10.561  0.00  0.00     0.062 H 
ATOM     24  H   LIG d   1       4.725  -3.992 -12.277  0.00  0.00     0.062 H 
ATOM     25  H   LIG d   1       2.458  -3.352 -11.679  0.00  0.00     0.062 H 
ATOM     26  H   LIG d   1       1.757  -3.122  -9.321  0.00  0.00     0.064 H 
ATOM     27  H   LIG d   1       7.453  -5.419  -8.186  0.00  0.00     0.034 H 
ATOM     28  H   LIG d   1       7.841  -3.756  -7.676  0.00  0.00     0.034 H 
ATOM     29  H   LIG d   1       8.976  -3.733  -2.943  0.00  0.00     0.056 H 
ATOM     30  H   LIG d   1       9.247  -2.516  -4.206  0.00  0.00     0.056 H 
ENDROOT
BRANCH   1  31
ATOM     31  C   LIG d   1       4.782  -2.798  -4.525  0.00  0.00    -0.021 A 
ATOM     32  C   LIG d   1       4.207  -2.889  -3.270  0.00  0.00    -0.056 A 
ATOM     33  C   LIG d   1       3.787  -1.745  -2.618  0.00  0.00    -0.058 A 
ATOM     34  H   LIG d   1       4.085  -3.854  -2.802  0.00  0.00     0.062 H 
ATOM     35  C   LIG d   1       3.944  -0.510  -3.219  0.00  0.00    -0.045 A 
ATOM     36  H   LIG d   1       3.338  -1.816  -1.638  0.00  0.00     0.062 H 
ATOM     37  C   LIG d   1       4.519  -0.419  -4.472  0.00  0.00    -0.058 A 
ATOM     38  C   LIG d   1       4.942  -1.562  -5.123  0.00  0.00    -0.056 A 
ATOM     39  H   LIG d   1       4.641   0.546  -4.941  0.00  0.00     0.062 H 
ATOM     40  H   LIG d   1       5.396  -1.491  -6.101  0.00  0.00     0.062 H 
BRANCH  35  41
ATOM     41  C   LIG d   1       3.486   0.737  -2.507  0.00  0.00    -0.021 C 
ATOM     42  H   LIG d   1       2.559   0.531  -1.971  0.00  0.00     0.034 H 
BRANCH  41  43
ATOM     43  C   LIG d   1       4.562   1.180  -1.513  0.00  0.00    -0.059 C 
ATOM     44  H   LIG d   1       4.681   2.262  -1.565  0.00  0.00     0.024 H 
ATOM     45  H   LIG d   1       4.262   0.896  -0.504  0.00  0.00     0.024 H 
ATOM     46  H   LIG d   1       5.506   0.697  -1.760  0.00  0.00     0.024 H 
ENDBRANCH  41  43
BRANCH  41  47
ATOM     47  C   LIG d   1       3.247   1.849  -3.529  0.00  0.00    -0.059 C 
ATOM     48  H   LIG d   1       2.725   2.678  -3.050  0.00  0.00     0.024 H 
ATOM     49  H   LIG d   1       4.204   2.198  -3.917  0.00  0.00     0.024 H 
ATOM     50  H   LIG d   1       2.640   1.465  -4.349  0.00  0.00     0.024 H 
ENDBRANCH  41  47
ENDBRANCH  35  41
ENDBRANCH   1  31
BRANCH  20  51
ATOM     51  C   LIG d   1      10.898  -4.717  -4.625  0.00  0.00     0.040 C 
ATOM     52  H   LIG d   1      11.336  -5.089  -5.551  0.00  0.00     0.051 H 
ATOM     53  H   LIG d   1      11.377  -3.780  -4.346  0.00  0.00     0.051 H 
BRANCH  51  54
ATOM     54  C   LIG d   1      11.105  -5.733  -3.530  0.00  0.00    -0.030 A 
ATOM     55  C   LIG d   1      12.185  -6.593  -3.581  0.00  0.00    -0.054 A 
ATOM     56  C   LIG d   1      12.375  -7.524  -2.578  0.00  0.00    -0.026 A 
ATOM     57  H   LIG d   1      12.881  -6.538  -4.405  0.00  0.00     0.062 H 
ATOM     58  C   LIG d   1      11.482  -7.595  -1.522  0.00  0.00     0.123 A 
ATOM     59  H   LIG d   1      13.220  -8.196  -2.616  0.00  0.00     0.065 H 
ATOM     60  C   LIG d   1      10.400  -6.733  -1.472  0.00  0.00    -0.026 A 
ATOM     61  F   LIG d   1      11.668  -8.505  -0.541  0.00  0.00    -0.205 F 
ATOM     62  C   LIG d   1      10.215  -5.800  -2.474  0.00  0.00    -0.054 A 
ATOM     63  H   LIG d   1       9.703  -6.788  -0.649  0.00  0.00     0.065 H 
ATOM     64  H   LIG d   1       9.374  -5.124  -2.433  0.00  0.00     0.062 H 
ENDBRANCH  51  54
ENDBRANCH  20  51
TORSDOF 6
ENDMDL
MODEL 8
REMARK VINA RESULT:      -6.8      7.583     10.139
REMARK  6 active torsions:
REMARK  status: ('A' for Active; 'I' for Inactive)
REMARK    1  A    between atoms: C_1  and  C_2 
REMARK    2  A    between atoms: C_2  and  C_3 
REMARK    3  A    between atoms: C_2  and  C_4 
REMARK    4  A    between atoms: C_7  and  C_10 
REMARK    5  A    between atoms: N_29  and  C_32 
REMARK    6  A    between atoms: C_32  and  C_33 
ROOT
ATOM      1  C   LIG d   1       9.331   5.835  -4.616  0.00  0.00     0.092 C 
ATOM      2  H   LIG d   1       8.342   6.290  -4.585  0.00  0.00     0.062 H 
ATOM      3  C   LIG d   1      10.064   6.283  -5.861  0.00  0.00     0.046 A 
ATOM      4  C   LIG d   1      10.300   5.475  -6.918  0.00  0.00    -0.015 A 
ATOM      5  C   LIG d   1      11.015   6.264  -7.901  0.00  0.00     0.003 A 
ATOM      6  C   LIG d   1      11.516   5.967  -9.172  0.00  0.00    -0.052 A 
ATOM      7  C   LIG d   1      12.155   6.981  -9.840  0.00  0.00    -0.061 A 
ATOM      8  C   LIG d   1      12.306   8.244  -9.291  0.00  0.00    -0.060 A 
ATOM      9  C   LIG d   1      11.822   8.565  -8.034  0.00  0.00    -0.038 A 
ATOM     10  C   LIG d   1      11.166   7.556  -7.334  0.00  0.00     0.047 A 
ATOM     11  N   LIG d   1      10.581   7.528  -6.101  0.00  0.00    -0.356 N 
ATOM     12  H   LIG d   1      10.536   8.278  -5.488  0.00  0.00     0.166 HD
ATOM     13  C   LIG d   1       9.877   4.031  -7.006  0.00  0.00     0.002 C 
ATOM     14  C   LIG d   1       8.794   3.768  -5.950  0.00  0.00     0.107 A 
ATOM     15  H   LIG d   1       7.866   4.236  -6.275  0.00  0.00     0.060 H 
ATOM     16  N   LIG d   1       9.207   4.363  -4.680  0.00  0.00    -0.276 N 
ATOM     17  C   LIG d   1       9.471   3.671  -3.587  0.00  0.00     0.234 A 
ATOM     18  O   LIG d   1       9.866   4.271  -2.610  0.00  0.00    -0.274 OA
ATOM     19  C   LIG d   1       9.322   2.188  -3.480  0.00  0.00     0.092 A 
ATOM     20  N   LIG d   1       8.813   1.600  -4.708  0.00  0.00    -0.287 N 
ATOM     21  C   LIG d   1       8.570   2.296  -5.817  0.00  0.00     0.237 A 
ATOM     22  O   LIG d   1       8.143   1.696  -6.780  0.00  0.00    -0.274 OA
ATOM     23  H   LIG d   1      11.404   4.985  -9.608  0.00  0.00     0.062 H 
ATOM     24  H   LIG d   1      12.555   6.789 -10.825  0.00  0.00     0.062 H 
ATOM     25  H   LIG d   1      12.818   9.004  -9.863  0.00  0.00     0.062 H 
ATOM     26  H   LIG d   1      11.945   9.554  -7.618  0.00  0.00     0.064 H 
ATOM     27  H   LIG d   1       9.477   3.828  -7.999  0.00  0.00     0.034 H 
ATOM     28  H   LIG d   1      10.737   3.387  -6.817  0.00  0.00     0.034 H 
ATOM     29  H   LIG d   1       8.635   1.958  -2.666  0.00  0.00     0.056 H 
ATOM     30  H   LIG d   1      10.295   1.751  -3.256  0.00  0.00     0.056 H 
ENDROOT
BRANCH   1  31
ATOM     31  C   LIG d   1      10.115   6.230  -3.391  0.00  0.00    -0.021 A 
ATOM     32  C   LIG d   1      11.486   6.057  -3.362  0.00  0.00    -0.056 A 
ATOM     33  C   LIG d   1      12.205   6.419  -2.238  0.00  0.00    -0.058 A 
ATOM     34  H   LIG d   1      11.995   5.639  -4.218  0.00  0.00     0.062 H 
ATOM     35  C   LIG d   1      11.552   6.956  -1.144  0.00  0.00    -0.045 A 
ATOM     36  H   LIG d   1      13.276   6.284  -2.215  0.00  0.00     0.062 H 
ATOM     37  C   LIG d   1      10.181   7.129  -1.173  0.00  0.00    -0.058 A 
ATOM     38  C   LIG d   1       9.463   6.771  -2.298  0.00  0.00    -0.056 A 
ATOM     39  H   LIG d   1       9.672   7.548  -0.318  0.00  0.00     0.062 H 
ATOM     40  H   LIG d   1       8.392   6.910  -2.323  0.00  0.00     0.062 H 
BRANCH  35  41
ATOM     41  C   LIG d   1      12.336   7.350   0.082  0.00  0.00    -0.021 C 
ATOM     42  H   LIG d   1      12.726   6.456   0.568  0.00  0.00     0.034 H 
BRANCH  41  43
ATOM     43  C   LIG d   1      13.500   8.255  -0.328  0.00  0.00    -0.059 C 
ATOM     44  H   LIG d   1      14.381   8.004   0.263  0.00  0.00     0.024 H 
ATOM     45  H   LIG d   1      13.719   8.108  -1.386  0.00  0.00     0.024 H 
ATOM     46  H   LIG d   1      13.230   9.296  -0.155  0.00  0.00     0.024 H 
ENDBRANCH  41  43
BRANCH  41  47
ATOM     47  C   LIG d   1      11.423   8.101   1.051  0.00  0.00    -0.059 C 
ATOM     48  H   LIG d   1      11.074   7.418   1.826  0.00  0.00     0.024 H 
ATOM     49  H   LIG d   1      11.976   8.920   1.512  0.00  0.00     0.024 H 
ATOM     50  H   LIG d   1      10.566   8.501   0.509  0.00  0.00     0.024 H 
ENDBRANCH  41  47
ENDBRANCH  35  41
ENDBRANCH   1  31
BRANCH  20  51
ATOM     51  C   LIG d   1       8.550   0.159  -4.726  0.00  0.00     0.040 C 
ATOM     52  H   LIG d   1       8.412  -0.173  -5.755  0.00  0.00     0.051 H 
ATOM     53  H   LIG d   1       9.392  -0.370  -4.283  0.00  0.00     0.051 H 
BRANCH  51  54
ATOM     54  C   LIG d   1       7.299  -0.133  -3.935  0.00  0.00    -0.030 A 
ATOM     55  C   LIG d   1       6.552   0.906  -3.416  0.00  0.00    -0.054 A 
ATOM     56  C   LIG d   1       5.406   0.640  -2.692  0.00  0.00    -0.026 A 
ATOM     57  H   LIG d   1       6.864   1.928  -3.576  0.00  0.00     0.062 H 
ATOM     58  C   LIG d   1       5.007  -0.670  -2.486  0.00  0.00     0.123 A 
ATOM     59  H   LIG d   1       4.821   1.452  -2.286  0.00  0.00     0.065 H 
ATOM     60  C   LIG d   1       5.756  -1.711  -3.007  0.00  0.00    -0.026 A 
ATOM     61  F   LIG d   1       3.887  -0.932  -1.778  0.00  0.00    -0.205 F 
ATOM     62  C   LIG d   1       6.900  -1.441  -3.736  0.00  0.00    -0.054 A 
ATOM     63  H   LIG d   1       5.446  -2.733  -2.848  0.00  0.00     0.065 H 
ATOM     64  H   LIG d   1       7.482  -2.253  -4.146  0.00  0.00     0.062 H 
ENDBRANCH  51  54
ENDBRANCH  20  51
TORSDOF 6
ENDMDL
MODEL 9
REMARK VINA RESULT:      -6.8      6.069      9.957
REMARK  6 active torsions:
REMARK  status: ('A' for Active; 'I' for Inactive)
REMARK    1  A    between atoms: C_1  and  C_2 
REMARK    2  A    between atoms: C_2  and  C_3 
REMARK    3  A    between atoms: C_2  and  C_4 
REMARK    4  A    between atoms: C_7  and  C_10 
REMARK    5  A    between atoms: N_29  and  C_32 
REMARK    6  A    between atoms: C_32  and  C_33 
ROOT
ATOM      1  C   LIG d   1       6.734  -1.607  -7.723  0.00  0.00     0.092 C 
ATOM      2  H   LIG d   1       7.216  -2.575  -7.860  0.00  0.00     0.062 H 
ATOM      3  C   LIG d   1       5.550  -1.486  -8.655  0.00  0.00     0.046 A 
ATOM      4  C   LIG d   1       5.535  -0.684  -9.741  0.00  0.00    -0.015 A 
ATOM      5  C   LIG d   1       4.240  -0.847 -10.370  0.00  0.00     0.003 A 
ATOM      6  C   LIG d   1       3.661  -0.280 -11.510  0.00  0.00    -0.052 A 
ATOM      7  C   LIG d   1       2.383  -0.675 -11.818  0.00  0.00    -0.061 A 
ATOM      8  C   LIG d   1       1.687  -1.589 -11.043  0.00  0.00    -0.060 A 
ATOM      9  C   LIG d   1       2.235  -2.164  -9.910  0.00  0.00    -0.038 A 
ATOM     10  C   LIG d   1       3.532  -1.784  -9.574  0.00  0.00     0.047 A 
ATOM     11  N   LIG d   1       4.355  -2.146  -8.546  0.00  0.00    -0.356 N 
ATOM     12  H   LIG d   1       4.127  -2.777  -7.845  0.00  0.00     0.166 HD
ATOM     13  C   LIG d   1       6.679   0.197 -10.173  0.00  0.00     0.002 C 
ATOM     14  C   LIG d   1       7.961  -0.281  -9.477  0.00  0.00     0.107 A 
ATOM     15  H   LIG d   1       8.283  -1.215  -9.937  0.00  0.00     0.060 H 
ATOM     16  N   LIG d   1       7.679  -0.521  -8.063  0.00  0.00    -0.276 N 
ATOM     17  C   LIG d   1       8.217   0.165  -7.072  0.00  0.00     0.234 A 
ATOM     18  O   LIG d   1       7.857  -0.083  -5.941  0.00  0.00    -0.274 OA
ATOM     19  C   LIG d   1       9.237   1.241  -7.257  0.00  0.00     0.092 A 
ATOM     20  N   LIG d   1       9.600   1.415  -8.654  0.00  0.00    -0.287 N 
ATOM     21  C   LIG d   1       9.039   0.739  -9.654  0.00  0.00     0.237 A 
ATOM     22  O   LIG d   1       9.427   0.968 -10.780  0.00  0.00    -0.274 OA
ATOM     23  H   LIG d   1       4.195   0.433 -12.119  0.00  0.00     0.062 H 
ATOM     24  H   LIG d   1       1.903  -0.258 -12.692  0.00  0.00     0.062 H 
ATOM     25  H   LIG d   1       0.683  -1.862 -11.335  0.00  0.00     0.062 H 
ATOM     26  H   LIG d   1       1.682  -2.876  -9.315  0.00  0.00     0.064 H 
ATOM     27  H   LIG d   1       6.803   0.131 -11.254  0.00  0.00     0.034 H 
ATOM     28  H   LIG d   1       6.473   1.229  -9.890  0.00  0.00     0.034 H 
ATOM     29  H   LIG d   1      10.130   0.984  -6.688  0.00  0.00     0.056 H 
ATOM     30  H   LIG d   1       8.833   2.180  -6.877  0.00  0.00     0.056 H 
ENDROOT
BRANCH   1  31
ATOM     31  C   LIG d   1       6.279  -1.461  -6.294  0.00  0.00    -0.021 A 
ATOM     32  C   LIG d   1       5.371  -0.475  -5.955  0.00  0.00    -0.056 A 
ATOM     33  C   LIG d   1       4.954  -0.340  -4.644  0.00  0.00    -0.058 A 
ATOM     34  H   LIG d   1       4.990   0.191  -6.715  0.00  0.00     0.062 H 
ATOM     35  C   LIG d   1       5.443  -1.193  -3.672  0.00  0.00    -0.045 A 
ATOM     36  H   LIG d   1       4.245   0.431  -4.379  0.00  0.00     0.062 H 
ATOM     37  C   LIG d   1       6.351  -2.180  -4.011  0.00  0.00    -0.058 A 
ATOM     38  C   LIG d   1       6.765  -2.316  -5.323  0.00  0.00    -0.056 A 
ATOM     39  H   LIG d   1       6.733  -2.845  -3.252  0.00  0.00     0.062 H 
ATOM     40  H   LIG d   1       7.470  -3.089  -5.588  0.00  0.00     0.062 H 
BRANCH  35  41
ATOM     41  C   LIG d   1       4.988  -1.046  -2.243  0.00  0.00    -0.021 C 
ATOM     42  H   LIG d   1       5.796  -1.341  -1.572  0.00  0.00     0.034 H 
BRANCH  41  43
ATOM     43  C   LIG d   1       4.612   0.413  -1.976  0.00  0.00    -0.059 C 
ATOM     44  H   LIG d   1       5.436   1.061  -2.273  0.00  0.00     0.024 H 
ATOM     45  H   LIG d   1       3.723   0.669  -2.553  0.00  0.00     0.024 H 
ATOM     46  H   LIG d   1       4.407   0.548  -0.915  0.00  0.00     0.024 H 
ENDBRANCH  41  43
BRANCH  41  47
ATOM     47  C   LIG d   1       3.771  -1.940  -2.001  0.00  0.00    -0.059 C 
ATOM     48  H   LIG d   1       2.960  -1.344  -1.583  0.00  0.00     0.024 H 
ATOM     49  H   LIG d   1       3.450  -2.380  -2.945  0.00  0.00     0.024 H 
ATOM     50  H   LIG d   1       4.036  -2.733  -1.301  0.00  0.00     0.024 H 
ENDBRANCH  41  47
ENDBRANCH  35  41
ENDBRANCH   1  31
BRANCH  20  51
ATOM     51  C   LIG d   1      10.644   2.391  -8.979  0.00  0.00     0.040 C 
ATOM     52  H   LIG d   1      11.486   2.262  -8.300  0.00  0.00     0.051 H 
ATOM     53  H   LIG d   1      10.977   2.238 -10.005  0.00  0.00     0.051 H 
BRANCH  51  54
ATOM     54  C   LIG d   1      10.090   3.786  -8.832  0.00  0.00    -0.030 A 
ATOM     55  C   LIG d   1       9.230   4.292  -9.788  0.00  0.00    -0.054 A 
ATOM     56  C   LIG d   1       8.723   5.570  -9.654  0.00  0.00    -0.026 A 
ATOM     57  H   LIG d   1       8.956   3.689 -10.641  0.00  0.00     0.062 H 
ATOM     58  C   LIG d   1       9.076   6.344  -8.561  0.00  0.00     0.123 A 
ATOM     59  H   LIG d   1       8.050   5.966 -10.400  0.00  0.00     0.065 H 
ATOM     60  C   LIG d   1       9.937   5.835  -7.603  0.00  0.00    -0.026 A 
ATOM     61  F   LIG d   1       8.579   7.593  -8.428  0.00  0.00    -0.205 F 
ATOM     62  C   LIG d   1      10.440   4.555  -7.738  0.00  0.00    -0.054 A 
ATOM     63  H   LIG d   1      10.213   6.437  -6.750  0.00  0.00     0.065 H 
ATOM     64  H   LIG d   1      11.108   4.156  -6.989  0.00  0.00     0.062 H 
ENDBRANCH  51  54
ENDBRANCH  20  51
TORSDOF 6
ENDMDL
MODEL 10
REMARK VINA RESULT:      -6.7      5.119      8.859
REMARK  6 active torsions:
REMARK  status: ('A' for Active; 'I' for Inactive)
REMARK    1  A    between atoms: C_1  and  C_2 
REMARK    2  A    between atoms: C_2  and  C_3 
REMARK    3  A    between atoms: C_2  and  C_4 
REMARK    4  A    between atoms: C_7  and  C_10 
REMARK    5  A    between atoms: N_29  and  C_32 
REMARK    6  A    between atoms: C_32  and  C_33 
ROOT
ATOM      1  C   LIG d   1       4.716  -2.786  -6.757  0.00  0.00     0.092 C 
ATOM      2  H   LIG d   1       3.960  -3.572  -6.757  0.00  0.00     0.062 H 
ATOM      3  C   LIG d   1       4.559  -1.924  -5.524  0.00  0.00     0.046 A 
ATOM      4  C   LIG d   1       4.084  -0.659  -5.554  0.00  0.00    -0.015 A 
ATOM      5  C   LIG d   1       4.082  -0.176  -4.188  0.00  0.00     0.003 A 
ATOM      6  C   LIG d   1       3.703   1.041  -3.615  0.00  0.00    -0.052 A 
ATOM      7  C   LIG d   1       3.838   1.154  -2.253  0.00  0.00    -0.061 A 
ATOM      8  C   LIG d   1       4.327   0.119  -1.474  0.00  0.00    -0.060 A 
ATOM      9  C   LIG d   1       4.711  -1.096  -2.015  0.00  0.00    -0.038 A 
ATOM     10  C   LIG d   1       4.583  -1.240  -3.394  0.00  0.00     0.047 A 
ATOM     11  N   LIG d   1       4.862  -2.277  -4.237  0.00  0.00    -0.356 N 
ATOM     12  H   LIG d   1       5.220  -3.137  -3.963  0.00  0.00     0.166 HD
ATOM     13  C   LIG d   1       3.652   0.065  -6.804  0.00  0.00     0.002 C 
ATOM     14  C   LIG d   1       3.420  -0.965  -7.918  0.00  0.00     0.107 A 
ATOM     15  H   LIG d   1       2.499  -1.508  -7.709  0.00  0.00     0.060 H 
ATOM     16  N   LIG d   1       4.535  -1.912  -7.936  0.00  0.00    -0.276 N 
ATOM     17  C   LIG d   1       5.385  -2.039  -8.937  0.00  0.00     0.234 A 
ATOM     18  O   LIG d   1       6.308  -2.815  -8.811  0.00  0.00    -0.274 OA
ATOM     19  C   LIG d   1       5.287  -1.276 -10.219  0.00  0.00     0.092 A 
ATOM     20  N   LIG d   1       4.122  -0.408 -10.250  0.00  0.00    -0.287 N 
ATOM     21  C   LIG d   1       3.279  -0.263  -9.230  0.00  0.00     0.237 A 
ATOM     22  O   LIG d   1       2.338   0.489  -9.374  0.00  0.00    -0.274 OA
ATOM     23  H   LIG d   1       3.321   1.854  -4.215  0.00  0.00     0.062 H 
ATOM     24  H   LIG d   1       3.555   2.081  -1.775  0.00  0.00     0.062 H 
ATOM     25  H   LIG d   1       4.412   0.265  -0.406  0.00  0.00     0.062 H 
ATOM     26  H   LIG d   1       5.091  -1.895  -1.396  0.00  0.00     0.064 H 
ATOM     27  H   LIG d   1       2.727   0.607  -6.609  0.00  0.00     0.034 H 
ATOM     28  H   LIG d   1       4.430   0.764  -7.108  0.00  0.00     0.034 H 
ATOM     29  H   LIG d   1       5.226  -1.981 -11.047  0.00  0.00     0.056 H 
ATOM     30  H   LIG d   1       6.184  -0.668 -10.337  0.00  0.00     0.056 H 
ENDROOT
BRANCH   1  31
ATOM     31  C   LIG d   1       6.092  -3.400  -6.781  0.00  0.00    -0.021 A 
ATOM     32  C   LIG d   1       7.199  -2.626  -6.485  0.00  0.00    -0.056 A 
ATOM     33  C   LIG d   1       8.461  -3.189  -6.508  0.00  0.00    -0.058 A 
ATOM     34  H   LIG d   1       7.076  -1.582  -6.238  0.00  0.00     0.062 H 
ATOM     35  C   LIG d   1       8.616  -4.526  -6.824  0.00  0.00    -0.045 A 
ATOM     36  H   LIG d   1       9.326  -2.584  -6.278  0.00  0.00     0.062 H 
ATOM     37  C   LIG d   1       7.509  -5.299  -7.119  0.00  0.00    -0.058 A 
ATOM     38  C   LIG d   1       6.247  -4.738  -7.093  0.00  0.00    -0.056 A 
ATOM     39  H   LIG d   1       7.631  -6.343  -7.366  0.00  0.00     0.062 H 
ATOM     40  H   LIG d   1       5.381  -5.343  -7.319  0.00  0.00     0.062 H 
BRANCH  35  41
ATOM     41  C   LIG d   1       9.993  -5.139  -6.849  0.00  0.00    -0.021 C 
ATOM     42  H   LIG d   1      10.252  -5.409  -7.873  0.00  0.00     0.034 H 
BRANCH  41  43
ATOM     43  C   LIG d   1      11.010  -4.128  -6.316  0.00  0.00    -0.059 C 
ATOM     44  H   LIG d   1      12.016  -4.445  -6.592  0.00  0.00     0.024 H 
ATOM     45  H   LIG d   1      10.808  -3.147  -6.748  0.00  0.00     0.024 H 
ATOM     46  H   LIG d   1      10.931  -4.070  -5.231  0.00  0.00     0.024 H 
ENDBRANCH  41  43
BRANCH  41  47
ATOM     47  C   LIG d   1      10.009  -6.391  -5.971  0.00  0.00    -0.059 C 
ATOM     48  H   LIG d   1      10.562  -7.183  -6.476  0.00  0.00     0.024 H 
ATOM     49  H   LIG d   1      10.492  -6.162  -5.021  0.00  0.00     0.024 H 
ATOM     50  H   LIG d   1       8.987  -6.722  -5.790  0.00  0.00     0.024 H 
ENDBRANCH  41  47
ENDBRANCH  35  41
ENDBRANCH   1  31
BRANCH  20  51
ATOM     51  C   LIG d   1       3.859   0.351 -11.476  0.00  0.00     0.040 C 
ATOM     52  H   LIG d   1       3.046   1.055 -11.300  0.00  0.00     0.051 H 
ATOM     53  H   LIG d   1       4.756   0.895 -11.766  0.00  0.00     0.051 H 
BRANCH  51  54
ATOM     54  C   LIG d   1       3.468  -0.599 -12.580  0.00  0.00    -0.030 A 
ATOM     55  C   LIG d   1       2.315  -1.351 -12.468  0.00  0.00    -0.054 A 
ATOM     56  C   LIG d   1       1.956  -2.222 -13.479  0.00  0.00    -0.026 A 
ATOM     57  H   LIG d   1       1.693  -1.260 -11.588  0.00  0.00     0.062 H 
ATOM     58  C   LIG d   1       2.753  -2.340 -14.605  0.00  0.00     0.123 A 
ATOM     59  H   LIG d   1       1.054  -2.810 -13.392  0.00  0.00     0.065 H 
ATOM     60  C   LIG d   1       3.908  -1.586 -14.717  0.00  0.00    -0.026 A 
ATOM     61  F   LIG d   1       2.403  -3.191 -15.595  0.00  0.00    -0.205 F 
ATOM     62  C   LIG d   1       4.262  -0.712 -13.706  0.00  0.00    -0.054 A 
ATOM     63  H   LIG d   1       4.531  -1.677 -15.595  0.00  0.00     0.065 H 
ATOM     64  H   LIG d   1       5.161  -0.120 -13.794  0.00  0.00     0.062 H 
ENDBRANCH  51  54
ENDBRANCH  20  51
TORSDOF 6
ENDMDL
