MODEL 1
REMARK VINA RESULT:      -3.4      0.000      0.000
REMARK  6 active torsions:
REMARK  status: ('A' for Active; 'I' for Inactive)
REMARK    1  A    between atoms: C_1  and  C_2 
REMARK    2  A    between atoms: C_2  and  C_4 
REMARK    3  A    between atoms: C_2  and  O_9 
REMARK    4  A    between atoms: C_4  and  C_6 
REMARK    5  A    between atoms: C_4  and  O_8 
REMARK    6  A    between atoms: C_6  and  O_7 
ROOT
ATOM      1  C   LIG d   1       3.309  -0.066  -3.615  0.00  0.00     0.104 C 
ATOM      2  H   LIG d   1       4.282  -0.335  -4.026  0.00  0.00     0.064 H 
ENDROOT
BRANCH   1   3
ATOM      3  C   LIG d   1       3.469   1.107  -2.646  0.00  0.00     0.080 C 
ATOM      4  H   LIG d   1       2.548   1.240  -2.080  0.00  0.00     0.062 H 
BRANCH   3   5
ATOM      5  C   LIG d   1       4.622   0.818  -1.682  0.00  0.00    -0.036 C 
ATOM      6  H   LIG d   1       4.416   1.286  -0.719  0.00  0.00     0.025 H 
ATOM      7  H   LIG d   1       4.722  -0.259  -1.549  0.00  0.00     0.025 H 
ATOM      8  H   LIG d   1       5.548   1.222  -2.091  0.00  0.00     0.025 H 
ENDBRANCH   3   5
BRANCH   3   9
ATOM      9  O   LIG d   1       3.753   2.298  -3.384  0.00  0.00    -0.389 OA
ATOM     10  H   LIG d   1       4.649   2.331  -3.748  0.00  0.00     0.210 HD
ENDBRANCH   3   9
ENDBRANCH   1   3
BRANCH   1  11
ATOM     11  C   LIG d   1       2.369   0.337  -4.753  0.00  0.00     0.072 C 
ATOM     12  H   LIG d   1       1.711   1.137  -4.414  0.00  0.00     0.058 H 
ATOM     13  H   LIG d   1       1.770  -0.523  -5.052  0.00  0.00     0.058 H 
BRANCH  11  14
ATOM     14  O   LIG d   1       3.138   0.792  -5.868  0.00  0.00    -0.392 OA
ATOM     15  H   LIG d   1       2.605   1.098  -6.615  0.00  0.00     0.209 HD
ENDBRANCH  11  14
ENDBRANCH   1  11
BRANCH   1  16
ATOM     16  O   LIG d   1       2.760  -1.187  -2.919  0.00  0.00    -0.387 OA
ATOM     17  H   LIG d   1       3.120  -2.039  -3.201  0.00  0.00     0.210 HD
ENDBRANCH   1  16
TORSDOF 6
ENDMDL
MODEL 2
REMARK VINA RESULT:      -3.4      1.643      2.204
REMARK  6 active torsions:
REMARK  status: ('A' for Active; 'I' for Inactive)
REMARK    1  A    between atoms: C_1  and  C_2 
REMARK    2  A    between atoms: C_2  and  C_4 
REMARK    3  A    between atoms: C_2  and  O_9 
REMARK    4  A    between atoms: C_4  and  C_6 
REMARK    5  A    between atoms: C_4  and  O_8 
REMARK    6  A    between atoms: C_6  and  O_7 
ROOT
ATOM      1  C   LIG d   1       2.947  -0.648  -3.022  0.00  0.00     0.104 C 
ATOM      2  H   LIG d   1       2.382  -0.558  -2.095  0.00  0.00     0.064 H 
ENDROOT
BRANCH   1   3
ATOM      3  C   LIG d   1       3.763   0.626  -3.248  0.00  0.00     0.080 C 
ATOM      4  H   LIG d   1       3.103   1.426  -3.585  0.00  0.00     0.062 H 
BRANCH   3   5
ATOM      5  C   LIG d   1       4.436   1.040  -1.937  0.00  0.00    -0.036 C 
ATOM      6  H   LIG d   1       4.078   0.401  -1.129  0.00  0.00     0.025 H 
ATOM      7  H   LIG d   1       5.516   0.934  -2.034  0.00  0.00     0.025 H 
ATOM      8  H   LIG d   1       4.190   2.078  -1.715  0.00  0.00     0.025 H 
ENDBRANCH   3   5
BRANCH   3   9
ATOM      9  O   LIG d   1       4.763   0.382  -4.240  0.00  0.00    -0.389 OA
ATOM     10  H   LIG d   1       4.741  -0.513  -4.607  0.00  0.00     0.210 HD
ENDBRANCH   3   9
ENDBRANCH   1   3
BRANCH   1  11
ATOM     11  C   LIG d   1       3.890  -1.849  -2.931  0.00  0.00     0.072 C 
ATOM     12  H   LIG d   1       3.537  -2.529  -2.156  0.00  0.00     0.058 H 
ATOM     13  H   LIG d   1       4.894  -1.505  -2.682  0.00  0.00     0.058 H 
BRANCH  11  14
ATOM     14  O   LIG d   1       3.918  -2.530  -4.187  0.00  0.00    -0.392 OA
ATOM     15  H   LIG d   1       3.864  -3.492  -4.114  0.00  0.00     0.209 HD
ENDBRANCH  11  14
ENDBRANCH   1  11
BRANCH   1  16
ATOM     16  O   LIG d   1       2.043  -0.835  -4.114  0.00  0.00    -0.387 OA
ATOM     17  H   LIG d   1       1.846  -0.025  -4.605  0.00  0.00     0.210 HD
ENDBRANCH   1  16
TORSDOF 6
ENDMDL
MODEL 3
REMARK VINA RESULT:      -3.3      1.367      2.115
REMARK  6 active torsions:
REMARK  status: ('A' for Active; 'I' for Inactive)
REMARK    1  A    between atoms: C_1  and  C_2 
REMARK    2  A    between atoms: C_2  and  C_4 
REMARK    3  A    between atoms: C_2  and  O_9 
REMARK    4  A    between atoms: C_4  and  C_6 
REMARK    5  A    between atoms: C_4  and  O_8 
REMARK    6  A    between atoms: C_6  and  O_7 
ROOT
ATOM      1  C   LIG d   1       3.302   0.986  -2.943  0.00  0.00     0.104 C 
ATOM      2  H   LIG d   1       2.321   0.996  -2.470  0.00  0.00     0.064 H 
ENDROOT
BRANCH   1   3
ATOM      3  C   LIG d   1       4.366   0.621  -1.906  0.00  0.00     0.080 C 
ATOM      4  H   LIG d   1       4.080   1.025  -0.935  0.00  0.00     0.062 H 
BRANCH   3   5
ATOM      5  C   LIG d   1       4.484  -0.902  -1.809  0.00  0.00    -0.036 C 
ATOM      6  H   LIG d   1       5.266  -1.161  -1.096  0.00  0.00     0.025 H 
ATOM      7  H   LIG d   1       3.534  -1.319  -1.475  0.00  0.00     0.025 H 
ATOM      8  H   LIG d   1       4.736  -1.309  -2.789  0.00  0.00     0.025 H 
ENDBRANCH   3   5
BRANCH   3   9
ATOM      9  O   LIG d   1       5.624   1.172  -2.300  0.00  0.00    -0.389 OA
ATOM     10  H   LIG d   1       6.054   1.700  -1.613  0.00  0.00     0.210 HD
ENDBRANCH   3   9
ENDBRANCH   1   3
BRANCH   1  11
ATOM     11  C   LIG d   1       3.314  -0.048  -4.071  0.00  0.00     0.072 C 
ATOM     12  H   LIG d   1       3.819  -0.952  -3.729  0.00  0.00     0.058 H 
ATOM     13  H   LIG d   1       3.844   0.360  -4.933  0.00  0.00     0.058 H 
BRANCH  11  14
ATOM     14  O   LIG d   1       1.972  -0.363  -4.443  0.00  0.00    -0.392 OA
ATOM     15  H   LIG d   1       1.877  -0.666  -5.357  0.00  0.00     0.209 HD
ENDBRANCH  11  14
ENDBRANCH   1  11
BRANCH   1  16
ATOM     16  O   LIG d   1       3.584   2.280  -3.481  0.00  0.00    -0.387 OA
ATOM     17  H   LIG d   1       3.085   2.490  -4.282  0.00  0.00     0.210 HD
ENDBRANCH   1  16
TORSDOF 6
ENDMDL
MODEL 4
REMARK VINA RESULT:      -3.3      1.578      2.905
REMARK  6 active torsions:
REMARK  status: ('A' for Active; 'I' for Inactive)
REMARK    1  A    between atoms: C_1  and  C_2 
REMARK    2  A    between atoms: C_2  and  C_4 
REMARK    3  A    between atoms: C_2  and  O_9 
REMARK    4  A    between atoms: C_4  and  C_6 
REMARK    5  A    between atoms: C_4  and  O_8 
REMARK    6  A    between atoms: C_6  and  O_7 
ROOT
ATOM      1  C   LIG d   1       3.327  -0.215  -3.994  0.00  0.00     0.104 C 
ATOM      2  H   LIG d   1       3.710   0.300  -4.875  0.00  0.00     0.064 H 
ENDROOT
BRANCH   1   3
ATOM      3  C   LIG d   1       4.141  -1.488  -3.751  0.00  0.00     0.080 C 
ATOM      4  H   LIG d   1       5.202  -1.267  -3.866  0.00  0.00     0.062 H 
BRANCH   3   5
ATOM      5  C   LIG d   1       3.877  -1.999  -2.333  0.00  0.00    -0.036 C 
ATOM      6  H   LIG d   1       3.659  -1.155  -1.678  0.00  0.00     0.025 H 
ATOM      7  H   LIG d   1       3.026  -2.680  -2.345  0.00  0.00     0.025 H 
ATOM      8  H   LIG d   1       4.759  -2.524  -1.967  0.00  0.00     0.025 H 
ENDBRANCH   3   5
BRANCH   3   9
ATOM      9  O   LIG d   1       3.755  -2.486  -4.698  0.00  0.00    -0.389 OA
ATOM     10  H   LIG d   1       2.798  -2.563  -4.820  0.00  0.00     0.210 HD
ENDBRANCH   3   9
ENDBRANCH   1   3
BRANCH   1  11
ATOM     11  C   LIG d   1       3.443   0.704  -2.776  0.00  0.00     0.072 C 
ATOM     12  H   LIG d   1       4.192   0.306  -2.091  0.00  0.00     0.058 H 
ATOM     13  H   LIG d   1       2.479   0.760  -2.269  0.00  0.00     0.058 H 
BRANCH  11  14
ATOM     14  O   LIG d   1       3.833   2.011  -3.201  0.00  0.00    -0.392 OA
ATOM     15  H   LIG d   1       3.446   2.727  -2.678  0.00  0.00     0.209 HD
ENDBRANCH  11  14
ENDBRANCH   1  11
BRANCH   1  16
ATOM     16  O   LIG d   1       1.955  -0.558  -4.201  0.00  0.00    -0.387 OA
ATOM     17  H   LIG d   1       1.826  -1.356  -4.732  0.00  0.00     0.210 HD
ENDBRANCH   1  16
TORSDOF 6
ENDMDL
MODEL 5
REMARK VINA RESULT:      -3.2      1.843      2.964
REMARK  6 active torsions:
REMARK  status: ('A' for Active; 'I' for Inactive)
REMARK    1  A    between atoms: C_1  and  C_2 
REMARK    2  A    between atoms: C_2  and  C_4 
REMARK    3  A    between atoms: C_2  and  O_9 
REMARK    4  A    between atoms: C_4  and  C_6 
REMARK    5  A    between atoms: C_4  and  O_8 
REMARK    6  A    between atoms: C_6  and  O_7 
ROOT
ATOM      1  C   LIG d   1       4.974   0.563  -2.176  0.00  0.00     0.104 C 
ATOM      2  H   LIG d   1       5.172   0.397  -1.117  0.00  0.00     0.064 H 
ENDROOT
BRANCH   1   3
ATOM      3  C   LIG d   1       5.003  -0.775  -2.918  0.00  0.00     0.080 C 
ATOM      4  H   LIG d   1       6.023  -1.158  -2.936  0.00  0.00     0.062 H 
BRANCH   3   5
ATOM      5  C   LIG d   1       4.096  -1.776  -2.197  0.00  0.00    -0.036 C 
ATOM      6  H   LIG d   1       3.488  -2.307  -2.930  0.00  0.00     0.025 H 
ATOM      7  H   LIG d   1       4.709  -2.489  -1.646  0.00  0.00     0.025 H 
ATOM      8  H   LIG d   1       3.446  -1.242  -1.504  0.00  0.00     0.025 H 
ENDBRANCH   3   5
BRANCH   3   9
ATOM      9  O   LIG d   1       4.538  -0.587  -4.256  0.00  0.00    -0.389 OA
ATOM     10  H   LIG d   1       3.804  -1.168  -4.501  0.00  0.00     0.210 HD
ENDBRANCH   3   9
ENDBRANCH   1   3
BRANCH   1  11
ATOM     11  C   LIG d   1       3.598   1.210  -2.343  0.00  0.00     0.072 C 
ATOM     12  H   LIG d   1       3.329   1.733  -1.425  0.00  0.00     0.058 H 
ATOM     13  H   LIG d   1       2.857   0.439  -2.552  0.00  0.00     0.058 H 
BRANCH  11  14
ATOM     14  O   LIG d   1       3.637   2.140  -3.427  0.00  0.00    -0.392 OA
ATOM     15  H   LIG d   1       3.960   3.018  -3.181  0.00  0.00     0.209 HD
ENDBRANCH  11  14
ENDBRANCH   1  11
BRANCH   1  16
ATOM     16  O   LIG d   1       5.975   1.429  -2.716  0.00  0.00    -0.387 OA
ATOM     17  H   LIG d   1       6.377   2.021  -2.065  0.00  0.00     0.210 HD
ENDBRANCH   1  16
TORSDOF 6
ENDMDL
MODEL 6
REMARK VINA RESULT:      -3.2     10.238     10.998
REMARK  6 active torsions:
REMARK  status: ('A' for Active; 'I' for Inactive)
REMARK    1  A    between atoms: C_1  and  C_2 
REMARK    2  A    between atoms: C_2  and  C_4 
REMARK    3  A    between atoms: C_2  and  O_9 
REMARK    4  A    between atoms: C_4  and  C_6 
REMARK    5  A    between atoms: C_4  and  O_8 
REMARK    6  A    between atoms: C_6  and  O_7 
ROOT
ATOM      1  C   LIG d   1      -2.258  -5.483 -10.238  0.00  0.00     0.104 C 
ATOM      2  H   LIG d   1      -2.161  -5.800 -11.276  0.00  0.00     0.064 H 
ENDROOT
BRANCH   1   3
ATOM      3  C   LIG d   1      -3.615  -4.804 -10.035  0.00  0.00     0.080 C 
ATOM      4  H   LIG d   1      -3.487  -3.722 -10.064  0.00  0.00     0.062 H 
BRANCH   3   5
ATOM      5  C   LIG d   1      -4.571  -5.234 -11.150  0.00  0.00    -0.036 C 
ATOM      6  H   LIG d   1      -4.517  -6.316 -11.277  0.00  0.00     0.025 H 
ATOM      7  H   LIG d   1      -5.589  -4.949 -10.886  0.00  0.00     0.025 H 
ATOM      8  H   LIG d   1      -4.285  -4.745 -12.082  0.00  0.00     0.025 H 
ENDBRANCH   3   5
BRANCH   3   9
ATOM      9  O   LIG d   1      -4.155  -5.188  -8.770  0.00  0.00    -0.389 OA
ATOM     10  H   LIG d   1      -3.775  -6.003  -8.411  0.00  0.00     0.210 HD
ENDBRANCH   3   9
ENDBRANCH   1   3
BRANCH   1  11
ATOM     11  C   LIG d   1      -2.157  -6.703  -9.320  0.00  0.00     0.072 C 
ATOM     12  H   LIG d   1      -1.597  -7.490  -9.825  0.00  0.00     0.058 H 
ATOM     13  H   LIG d   1      -3.158  -7.064  -9.083  0.00  0.00     0.058 H 
BRANCH  11  14
ATOM     14  O   LIG d   1      -1.484  -6.338  -8.114  0.00  0.00    -0.392 OA
ATOM     15  H   LIG d   1      -1.869  -6.725  -7.316  0.00  0.00     0.209 HD
ENDBRANCH  11  14
ENDBRANCH   1  11
BRANCH   1  16
ATOM     16  O   LIG d   1      -1.212  -4.562  -9.922  0.00  0.00    -0.387 OA
ATOM     17  H   LIG d   1      -0.519  -4.508 -10.593  0.00  0.00     0.210 HD
ENDBRANCH   1  16
TORSDOF 6
ENDMDL
MODEL 7
REMARK VINA RESULT:      -3.1      1.870      2.311
REMARK  6 active torsions:
REMARK  status: ('A' for Active; 'I' for Inactive)
REMARK    1  A    between atoms: C_1  and  C_2 
REMARK    2  A    between atoms: C_2  and  C_4 
REMARK    3  A    between atoms: C_2  and  O_9 
REMARK    4  A    between atoms: C_4  and  C_6 
REMARK    5  A    between atoms: C_4  and  O_8 
REMARK    6  A    between atoms: C_6  and  O_7 
ROOT
ATOM      1  C   LIG d   1       4.182  -1.483  -3.801  0.00  0.00     0.104 C 
ATOM      2  H   LIG d   1       4.769  -1.970  -3.021  0.00  0.00     0.064 H 
ENDROOT
BRANCH   1   3
ATOM      3  C   LIG d   1       2.948  -0.828  -3.177  0.00  0.00     0.080 C 
ATOM      4  H   LIG d   1       2.502  -1.509  -2.453  0.00  0.00     0.062 H 
BRANCH   3   5
ATOM      5  C   LIG d   1       3.361   0.466  -2.471  0.00  0.00    -0.036 C 
ATOM      6  H   LIG d   1       4.218   0.902  -2.984  0.00  0.00     0.025 H 
ATOM      7  H   LIG d   1       2.529   1.170  -2.488  0.00  0.00     0.025 H 
ATOM      8  H   LIG d   1       3.630   0.245  -1.438  0.00  0.00     0.025 H 
ENDBRANCH   3   5
BRANCH   3   9
ATOM      9  O   LIG d   1       1.998  -0.530  -4.202  0.00  0.00    -0.389 OA
ATOM     10  H   LIG d   1       1.215  -1.097  -4.188  0.00  0.00     0.210 HD
ENDBRANCH   3   9
ENDBRANCH   1   3
BRANCH   1  11
ATOM     11  C   LIG d   1       5.034  -0.415  -4.489  0.00  0.00     0.072 C 
ATOM     12  H   LIG d   1       6.035  -0.809  -4.666  0.00  0.00     0.058 H 
ATOM     13  H   LIG d   1       5.099   0.466  -3.850  0.00  0.00     0.058 H 
BRANCH  11  14
ATOM     14  O   LIG d   1       4.435  -0.057  -5.735  0.00  0.00    -0.392 OA
ATOM     15  H   LIG d   1       4.748  -0.579  -6.487  0.00  0.00     0.209 HD
ENDBRANCH  11  14
ENDBRANCH   1  11
BRANCH   1  16
ATOM     16  O   LIG d   1       3.770  -2.456  -4.763  0.00  0.00    -0.387 OA
ATOM     17  H   LIG d   1       3.259  -2.090  -5.498  0.00  0.00     0.210 HD
ENDBRANCH   1  16
TORSDOF 6
ENDMDL
MODEL 8
REMARK VINA RESULT:      -3.1      9.483     10.563
REMARK  6 active torsions:
REMARK  status: ('A' for Active; 'I' for Inactive)
REMARK    1  A    between atoms: C_1  and  C_2 
REMARK    2  A    between atoms: C_2  and  C_4 
REMARK    3  A    between atoms: C_2  and  O_9 
REMARK    4  A    between atoms: C_4  and  C_6 
REMARK    5  A    between atoms: C_4  and  O_8 
REMARK    6  A    between atoms: C_6  and  O_7 
ROOT
ATOM      1  C   LIG d   1       9.876   9.017  -1.986  0.00  0.00     0.104 C 
ATOM      2  H   LIG d   1      10.959   9.027  -1.863  0.00  0.00     0.064 H 
ENDROOT
BRANCH   1   3
ATOM      3  C   LIG d   1       9.319   7.679  -1.496  0.00  0.00     0.080 C 
ATOM      4  H   LIG d   1       9.239   6.989  -2.336  0.00  0.00     0.062 H 
BRANCH   3   5
ATOM      5  C   LIG d   1      10.260   7.090  -0.442  0.00  0.00    -0.036 C 
ATOM      6  H   LIG d   1       9.818   7.211   0.547  0.00  0.00     0.025 H 
ATOM      7  H   LIG d   1      10.415   6.030  -0.645  0.00  0.00     0.025 H 
ATOM      8  H   LIG d   1      11.217   7.612  -0.479  0.00  0.00     0.025 H 
ENDBRANCH   3   5
BRANCH   3   9
ATOM      9  O   LIG d   1       8.027   7.882  -0.921  0.00  0.00    -0.389 OA
ATOM     10  H   LIG d   1       7.681   8.778  -1.040  0.00  0.00     0.210 HD
ENDBRANCH   3   9
ENDBRANCH   1   3
BRANCH   1  11
ATOM     11  C   LIG d   1       9.259  10.155  -1.171  0.00  0.00     0.072 C 
ATOM     12  H   LIG d   1       9.921  11.021  -1.198  0.00  0.00     0.058 H 
ATOM     13  H   LIG d   1       9.126   9.832  -0.138  0.00  0.00     0.058 H 
BRANCH  11  14
ATOM     14  O   LIG d   1       7.991  10.507  -1.727  0.00  0.00    -0.392 OA
ATOM     15  H   LIG d   1       7.800  11.455  -1.705  0.00  0.00     0.209 HD
ENDBRANCH  11  14
ENDBRANCH   1  11
BRANCH   1  16
ATOM     16  O   LIG d   1       9.552   9.191  -3.367  0.00  0.00    -0.387 OA
ATOM     17  H   LIG d   1       8.608   9.113  -3.563  0.00  0.00     0.210 HD
ENDBRANCH   1  16
TORSDOF 6
ENDMDL
MODEL 9
REMARK VINA RESULT:      -3.1      2.128      3.121
REMARK  6 active torsions:
REMARK  status: ('A' for Active; 'I' for Inactive)
REMARK    1  A    between atoms: C_1  and  C_2 
REMARK    2  A    between atoms: C_2  and  C_4 
REMARK    3  A    between atoms: C_2  and  O_9 
REMARK    4  A    between atoms: C_4  and  C_6 
REMARK    5  A    between atoms: C_4  and  O_8 
REMARK    6  A    between atoms: C_6  and  O_7 
ROOT
ATOM      1  C   LIG d   1       5.003  -0.427  -3.799  0.00  0.00     0.104 C 
ATOM      2  H   LIG d   1       5.253  -1.396  -4.230  0.00  0.00     0.064 H 
ENDROOT
BRANCH   1   3
ATOM      3  C   LIG d   1       4.006  -0.618  -2.655  0.00  0.00     0.080 C 
ATOM      4  H   LIG d   1       3.045  -0.188  -2.935  0.00  0.00     0.062 H 
BRANCH   3   5
ATOM      5  C   LIG d   1       3.833  -2.113  -2.374  0.00  0.00    -0.036 C 
ATOM      6  H   LIG d   1       3.159  -2.248  -1.528  0.00  0.00     0.025 H 
ATOM      7  H   LIG d   1       3.415  -2.601  -3.254  0.00  0.00     0.025 H 
ATOM      8  H   LIG d   1       4.803  -2.552  -2.140  0.00  0.00     0.025 H 
ENDBRANCH   3   5
BRANCH   3   9
ATOM      9  O   LIG d   1       4.498   0.033  -1.482  0.00  0.00    -0.389 OA
ATOM     10  H   LIG d   1       5.255  -0.410  -1.074  0.00  0.00     0.210 HD
ENDBRANCH   3   9
ENDBRANCH   1   3
BRANCH   1  11
ATOM     11  C   LIG d   1       6.273   0.237  -3.264  0.00  0.00     0.072 C 
ATOM     12  H   LIG d   1       7.104   0.028  -3.939  0.00  0.00     0.058 H 
ATOM     13  H   LIG d   1       6.502  -0.160  -2.275  0.00  0.00     0.058 H 
BRANCH  11  14
ATOM     14  O   LIG d   1       6.073   1.649  -3.177  0.00  0.00    -0.392 OA
ATOM     15  H   LIG d   1       6.442   2.145  -3.920  0.00  0.00     0.209 HD
ENDBRANCH  11  14
ENDBRANCH   1  11
BRANCH   1  16
ATOM     16  O   LIG d   1       4.420   0.404  -4.806  0.00  0.00    -0.387 OA
ATOM     17  H   LIG d   1       3.708   0.973  -4.482  0.00  0.00     0.210 HD
ENDBRANCH   1  16
TORSDOF 6
ENDMDL
MODEL 10
REMARK VINA RESULT:      -3.0     12.889     13.921
REMARK  6 active torsions:
REMARK  status: ('A' for Active; 'I' for Inactive)
REMARK    1  A    between atoms: C_1  and  C_2 
REMARK    2  A    between atoms: C_2  and  C_4 
REMARK    3  A    between atoms: C_2  and  O_9 
REMARK    4  A    between atoms: C_4  and  C_6 
REMARK    5  A    between atoms: C_4  and  O_8 
REMARK    6  A    between atoms: C_6  and  O_7 
ROOT
ATOM      1  C   LIG d   1      11.489  -8.646   1.621  0.00  0.00     0.104 C 
ATOM      2  H   LIG d   1      11.216  -9.471   0.963  0.00  0.00     0.064 H 
ENDROOT
BRANCH   1   3
ATOM      3  C   LIG d   1      10.972  -8.926   3.033  0.00  0.00     0.080 C 
ATOM      4  H   LIG d   1       9.895  -8.758   3.066  0.00  0.00     0.062 H 
BRANCH   3   5
ATOM      5  C   LIG d   1      11.270 -10.381   3.406  0.00  0.00    -0.036 C 
ATOM      6  H   LIG d   1      11.247 -10.489   4.491  0.00  0.00     0.025 H 
ATOM      7  H   LIG d   1      10.519 -11.032   2.959  0.00  0.00     0.025 H 
ATOM      8  H   LIG d   1      12.258 -10.655   3.035  0.00  0.00     0.025 H 
ENDBRANCH   3   5
BRANCH   3   9
ATOM      9  O   LIG d   1      11.621  -8.054   3.960  0.00  0.00    -0.389 OA
ATOM     10  H   LIG d   1      11.708  -7.143   3.646  0.00  0.00     0.210 HD
ENDBRANCH   3   9
ENDBRANCH   1   3
BRANCH   1  11
ATOM     11  C   LIG d   1      13.012  -8.502   1.655  0.00  0.00     0.072 C 
ATOM     12  H   LIG d   1      13.430  -8.856   0.712  0.00  0.00     0.058 H 
ATOM     13  H   LIG d   1      13.415  -9.095   2.476  0.00  0.00     0.058 H 
BRANCH  11  14
ATOM     14  O   LIG d   1      13.357  -7.129   1.844  0.00  0.00    -0.392 OA
ATOM     15  H   LIG d   1      14.263  -6.990   2.152  0.00  0.00     0.209 HD
ENDBRANCH  11  14
ENDBRANCH   1  11
BRANCH   1  16
ATOM     16  O   LIG d   1      10.908  -7.436   1.131  0.00  0.00    -0.387 OA
ATOM     17  H   LIG d   1      11.304  -7.113   0.310  0.00  0.00     0.210 HD
ENDBRANCH   1  16
TORSDOF 6
ENDMDL
