MODEL 1
REMARK VINA RESULT:      -6.1      0.000      0.000
REMARK  11 active torsions:
REMARK  status: ('A' for Active; 'I' for Inactive)
REMARK    1  A    between atoms: C_1  and  C_2 
REMARK    2  A    between atoms: C_6  and  O_33 
REMARK    3  A    between atoms: C_7  and  O_31 
REMARK    4  A    between atoms: C_12  and  C_13 
REMARK    5  A    between atoms: C_12  and  N_59 
REMARK       I    between atoms: C_13  and  N_15 
REMARK    6  A    between atoms: N_15  and  C_16 
REMARK    7  A    between atoms: C_25  and  C_26 
REMARK    8  A    between atoms: C_26  and  O_28 
REMARK    9  A    between atoms: O_28  and  C_29 
REMARK   10  A    between atoms: O_31  and  C_32 
REMARK   11  A    between atoms: O_33  and  C_34 
ROOT
ATOM      1  C   LIG d   1      10.133   3.390  -6.366  0.00  0.00     0.003 C 
ATOM      2  H   LIG d   1      11.194   3.185  -6.504  0.00  0.00     0.090 H 
ATOM      3  C   LIG d   1       9.955   4.821  -5.929  0.00  0.00     0.007 A 
ATOM      4  C   LIG d   1      10.061   5.820  -6.886  0.00  0.00    -0.008 A 
ATOM      5  C   LIG d   1       9.909   7.148  -6.531  0.00  0.00     0.162 A 
ATOM      6  C   LIG d   1       9.649   7.482  -5.204  0.00  0.00     0.162 A 
ATOM      7  C   LIG d   1       9.543   6.482  -4.254  0.00  0.00    -0.013 A 
ATOM      8  C   LIG d   1       9.694   5.152  -4.616  0.00  0.00    -0.030 A 
ATOM      9  C   LIG d   1       9.559   4.098  -3.547  0.00  0.00     0.013 C 
ATOM     10  C   LIG d   1      10.154   2.778  -4.035  0.00  0.00    -0.027 C 
ATOM     11  H   LIG d   1      10.264   5.559  -7.914  0.00  0.00     0.066 H 
ATOM     12  H   LIG d   1       9.341   6.739  -3.225  0.00  0.00     0.066 H 
ATOM     13  H   LIG d   1      10.087   4.424  -2.650  0.00  0.00     0.036 H 
ATOM     14  H   LIG d   1       8.504   3.953  -3.312  0.00  0.00     0.036 H 
ATOM     15  H   LIG d   1       9.902   1.981  -3.337  0.00  0.00     0.082 H 
ATOM     16  H   LIG d   1      11.238   2.871  -4.112  0.00  0.00     0.082 H 
ATOM     17  N   LIG d   1       9.566   2.479  -5.357  0.00  0.00     0.247 N 
ATOM     18  H   LIG d   1       8.550   2.619  -5.311  0.00  0.00     0.204 HD
ENDROOT
BRANCH  17  19
ATOM     19  C   LIG d   1       9.842   1.074  -5.730  0.00  0.00     0.047 C 
ATOM     20  H   LIG d   1      10.112   1.034  -6.785  0.00  0.00     0.091 H 
ATOM     21  H   LIG d   1      10.670   0.703  -5.127  0.00  0.00     0.091 H 
BRANCH  19  22
ATOM     22  C   LIG d   1       8.624   0.220  -5.490  0.00  0.00     0.263 C 
ATOM     23  O   LIG d   1       7.682   0.278  -6.252  0.00  0.00    -0.270 OA
ATOM     24  N   LIG d   1       8.582  -0.610  -4.429  0.00  0.00    -0.279 N 
ATOM     25  H   LIG d   1       9.299  -0.601  -3.777  0.00  0.00     0.155 HD
BRANCH  24  26
ATOM     26  C   LIG d   1       7.509  -1.482  -4.270  0.00  0.00     0.073 A 
ATOM     27  C   LIG d   1       7.467  -2.812  -4.632  0.00  0.00     0.147 A 
ATOM     28  N   LIG d   1       6.221  -3.329  -4.306  0.00  0.00    -0.347 N 
ATOM     29  C   LIG d   1       5.445  -2.349  -3.732  0.00  0.00     0.049 A 
ATOM     30  H   LIG d   1       5.940  -4.244  -4.460  0.00  0.00     0.166 HD
ATOM     31  C   LIG d   1       6.206  -1.168  -3.678  0.00  0.00     0.023 A 
ATOM     32  C   LIG d   1       4.143  -2.343  -3.235  0.00  0.00    -0.036 A 
ATOM     33  C   LIG d   1       5.650  -0.003  -3.140  0.00  0.00    -0.032 A 
ATOM     34  C   LIG d   1       4.371  -0.021  -2.659  0.00  0.00     0.042 A 
ATOM     35  H   LIG d   1       6.231   0.907  -3.101  0.00  0.00     0.064 H 
ATOM     36  C   LIG d   1       3.617  -1.187  -2.705  0.00  0.00    -0.041 A 
ATOM     37 CL   LIG d   1       3.684   1.424  -1.985  0.00  0.00    -0.084 Cl
ATOM     38  H   LIG d   1       2.607  -1.186  -2.321  0.00  0.00     0.063 H 
ATOM     39  H   LIG d   1       3.548  -3.245  -3.266  0.00  0.00     0.064 H 
BRANCH  27  40
ATOM     40  C   LIG d   1       8.525  -3.535  -5.240  0.00  0.00     0.357 C 
ATOM     41  O   LIG d   1       8.994  -3.154  -6.296  0.00  0.00    -0.243 OA
BRANCH  40  42
ATOM     42  O   LIG d   1       9.011  -4.645  -4.647  0.00  0.00    -0.463 OA
BRANCH  42  43
ATOM     43  C   LIG d   1       9.549  -4.496  -3.331  0.00  0.00     0.082 C 
ATOM     44  H   LIG d   1      10.473  -5.068  -3.250  0.00  0.00     0.066 H 
ATOM     45  H   LIG d   1       9.756  -3.443  -3.142  0.00  0.00     0.066 H 
ATOM     46  H   LIG d   1       8.829  -4.863  -2.600  0.00  0.00     0.066 H 
ENDBRANCH  42  43
ENDBRANCH  40  42
ENDBRANCH  27  40
ENDBRANCH  24  26
ENDBRANCH  19  22
ENDBRANCH  17  19
BRANCH   1  47
ATOM     47  C   LIG d   1       9.400   3.174  -7.692  0.00  0.00    -0.017 C 
ATOM     48  H   LIG d   1       8.469   2.638  -7.510  0.00  0.00     0.029 H 
ATOM     49  H   LIG d   1       9.180   4.139  -8.147  0.00  0.00     0.029 H 
ATOM     50  H   LIG d   1      10.030   2.591  -8.364  0.00  0.00     0.029 H 
ENDBRANCH   1  47
BRANCH   5  51
ATOM     51  O   LIG d   1      10.015   8.123  -7.473  0.00  0.00    -0.491 OA
BRANCH  51  52
ATOM     52  C   LIG d   1       8.871   8.354  -8.298  0.00  0.00     0.079 C 
ATOM     53  H   LIG d   1       7.980   7.976  -7.796  0.00  0.00     0.066 H 
ATOM     54  H   LIG d   1       8.763   9.423  -8.477  0.00  0.00     0.066 H 
ATOM     55  H   LIG d   1       9.000   7.837  -9.249  0.00  0.00     0.066 H 
ENDBRANCH  51  52
ENDBRANCH   5  51
BRANCH   6  56
ATOM     56  O   LIG d   1       9.499   8.785  -4.845  0.00  0.00    -0.491 OA
BRANCH  56  57
ATOM     57  C   LIG d   1      10.239   9.234  -3.708  0.00  0.00     0.079 C 
ATOM     58  H   LIG d   1      10.940  10.011  -4.014  0.00  0.00     0.066 H 
ATOM     59  H   LIG d   1       9.552   9.638  -2.964  0.00  0.00     0.066 H 
ATOM     60  H   LIG d   1      10.789   8.397  -3.278  0.00  0.00     0.066 H 
ENDBRANCH  56  57
ENDBRANCH   6  56
TORSDOF 11
ENDMDL
MODEL 2
REMARK VINA RESULT:      -6.1      6.810      9.100
REMARK  11 active torsions:
REMARK  status: ('A' for Active; 'I' for Inactive)
REMARK    1  A    between atoms: C_1  and  C_2 
REMARK    2  A    between atoms: C_6  and  O_33 
REMARK    3  A    between atoms: C_7  and  O_31 
REMARK    4  A    between atoms: C_12  and  C_13 
REMARK    5  A    between atoms: C_12  and  N_59 
REMARK       I    between atoms: C_13  and  N_15 
REMARK    6  A    between atoms: N_15  and  C_16 
REMARK    7  A    between atoms: C_25  and  C_26 
REMARK    8  A    between atoms: C_26  and  O_28 
REMARK    9  A    between atoms: O_28  and  C_29 
REMARK   10  A    between atoms: O_31  and  C_32 
REMARK   11  A    between atoms: O_33  and  C_34 
ROOT
ATOM      1  C   LIG d   1       3.997   0.289 -11.111  0.00  0.00     0.003 C 
ATOM      2  H   LIG d   1       3.769   1.342 -11.273  0.00  0.00     0.090 H 
ATOM      3  C   LIG d   1       3.591  -0.501 -12.327  0.00  0.00     0.007 A 
ATOM      4  C   LIG d   1       4.412  -0.459 -13.445  0.00  0.00    -0.008 A 
ATOM      5  C   LIG d   1       4.078  -1.165 -14.587  0.00  0.00     0.162 A 
ATOM      6  C   LIG d   1       2.911  -1.922 -14.612  0.00  0.00     0.162 A 
ATOM      7  C   LIG d   1       2.095  -1.963 -13.495  0.00  0.00    -0.013 A 
ATOM      8  C   LIG d   1       2.436  -1.255 -12.353  0.00  0.00    -0.030 A 
ATOM      9  C   LIG d   1       1.521  -1.338 -11.158  0.00  0.00     0.013 C 
ATOM     10  C   LIG d   1       1.827  -0.201 -10.183  0.00  0.00    -0.027 C 
ATOM     11  H   LIG d   1       5.317   0.130 -13.423  0.00  0.00     0.066 H 
ATOM     12  H   LIG d   1       1.189  -2.550 -13.513  0.00  0.00     0.066 H 
ATOM     13  H   LIG d   1       0.485  -1.263 -11.489  0.00  0.00     0.036 H 
ATOM     14  H   LIG d   1       1.670  -2.294 -10.654  0.00  0.00     0.036 H 
ATOM     15  H   LIG d   1       1.290  -0.364  -9.249  0.00  0.00     0.082 H 
ATOM     16  H   LIG d   1       1.523   0.749 -10.622  0.00  0.00     0.082 H 
ATOM     17  N   LIG d   1       3.282  -0.209  -9.923  0.00  0.00     0.247 N 
ATOM     18  H   LIG d   1       3.583  -1.170  -9.728  0.00  0.00     0.204 HD
ENDROOT
BRANCH  17  19
ATOM     19  C   LIG d   1       3.592   0.640  -8.751  0.00  0.00     0.047 C 
ATOM     20  H   LIG d   1       4.599   1.041  -8.861  0.00  0.00     0.091 H 
ATOM     21  H   LIG d   1       2.876   1.460  -8.706  0.00  0.00     0.091 H 
BRANCH  19  22
ATOM     22  C   LIG d   1       3.509  -0.169  -7.482  0.00  0.00     0.263 C 
ATOM     23  O   LIG d   1       2.491  -0.157  -6.822  0.00  0.00    -0.270 OA
ATOM     24  N   LIG d   1       4.563  -0.907  -7.083  0.00  0.00    -0.279 N 
ATOM     25  H   LIG d   1       5.402  -0.856  -7.567  0.00  0.00     0.155 HD
BRANCH  24  26
ATOM     26  C   LIG d   1       4.448  -1.743  -5.976  0.00  0.00     0.073 A 
ATOM     27  C   LIG d   1       4.360  -3.119  -5.988  0.00  0.00     0.147 A 
ATOM     28  N   LIG d   1       4.259  -3.575  -4.682  0.00  0.00    -0.347 N 
ATOM     29  C   LIG d   1       4.281  -2.511  -3.812  0.00  0.00     0.049 A 
ATOM     30  H   LIG d   1       4.185  -4.506  -4.422  0.00  0.00     0.166 HD
ATOM     31  C   LIG d   1       4.405  -1.332  -4.571  0.00  0.00     0.023 A 
ATOM     32  C   LIG d   1       4.212  -2.421  -2.423  0.00  0.00    -0.036 A 
ATOM     33  C   LIG d   1       4.446  -0.091  -3.930  0.00  0.00    -0.032 A 
ATOM     34  C   LIG d   1       4.376  -0.028  -2.567  0.00  0.00     0.042 A 
ATOM     35  H   LIG d   1       4.537   0.817  -4.510  0.00  0.00     0.064 H 
ATOM     36  C   LIG d   1       4.260  -1.189  -1.812  0.00  0.00    -0.041 A 
ATOM     37 CL   LIG d   1       4.434   1.514  -1.771  0.00  0.00    -0.084 Cl
ATOM     38  H   LIG d   1       4.206  -1.124  -0.735  0.00  0.00     0.063 H 
ATOM     39  H   LIG d   1       4.121  -3.319  -1.827  0.00  0.00     0.064 H 
BRANCH  27  40
ATOM     40  C   LIG d   1       4.371  -3.935  -7.148  0.00  0.00     0.357 C 
ATOM     41  O   LIG d   1       3.700  -4.950  -7.185  0.00  0.00    -0.243 OA
BRANCH  40  42
ATOM     42  O   LIG d   1       5.126  -3.587  -8.211  0.00  0.00    -0.463 OA
BRANCH  42  43
ATOM     43  C   LIG d   1       4.485  -3.579  -9.488  0.00  0.00     0.082 C 
ATOM     44  H   LIG d   1       4.642  -4.538  -9.980  0.00  0.00     0.066 H 
ATOM     45  H   LIG d   1       3.416  -3.408  -9.356  0.00  0.00     0.066 H 
ATOM     46  H   LIG d   1       4.906  -2.782 -10.102  0.00  0.00     0.066 H 
ENDBRANCH  42  43
ENDBRANCH  40  42
ENDBRANCH  27  40
ENDBRANCH  24  26
ENDBRANCH  19  22
ENDBRANCH  17  19
BRANCH   1  47
ATOM     47  C   LIG d   1       5.501   0.127 -10.884  0.00  0.00    -0.017 C 
ATOM     48  H   LIG d   1       6.027   0.986 -11.299  0.00  0.00     0.029 H 
ATOM     49  H   LIG d   1       5.703   0.061  -9.814  0.00  0.00     0.029 H 
ATOM     50  H   LIG d   1       5.847  -0.784 -11.374  0.00  0.00     0.029 H 
ENDBRANCH   1  47
BRANCH   5  51
ATOM     51  O   LIG d   1       4.887  -1.119 -15.678  0.00  0.00    -0.491 OA
BRANCH  51  52
ATOM     52  C   LIG d   1       4.842   0.070 -16.470  0.00  0.00     0.079 C 
ATOM     53  H   LIG d   1       3.892   0.580 -16.305  0.00  0.00     0.066 H 
ATOM     54  H   LIG d   1       5.662   0.728 -16.185  0.00  0.00     0.066 H 
ATOM     55  H   LIG d   1       4.935  -0.192 -17.525  0.00  0.00     0.066 H 
ENDBRANCH  51  52
ENDBRANCH   5  51
BRANCH   6  56
ATOM     56  O   LIG d   1       2.573  -2.620 -15.730  0.00  0.00    -0.491 OA
BRANCH  56  57
ATOM     57  C   LIG d   1       1.359  -2.248 -16.385  0.00  0.00     0.079 C 
ATOM     58  H   LIG d   1       1.511  -2.257 -17.465  0.00  0.00     0.066 H 
ATOM     59  H   LIG d   1       0.573  -2.956 -16.123  0.00  0.00     0.066 H 
ATOM     60  H   LIG d   1       1.066  -1.247 -16.068  0.00  0.00     0.066 H 
ENDBRANCH  56  57
ENDBRANCH   6  56
TORSDOF 11
ENDMDL
MODEL 3
REMARK VINA RESULT:      -5.8      6.438     11.143
REMARK  11 active torsions:
REMARK  status: ('A' for Active; 'I' for Inactive)
REMARK    1  A    between atoms: C_1  and  C_2 
REMARK    2  A    between atoms: C_6  and  O_33 
REMARK    3  A    between atoms: C_7  and  O_31 
REMARK    4  A    between atoms: C_12  and  C_13 
REMARK    5  A    between atoms: C_12  and  N_59 
REMARK       I    between atoms: C_13  and  N_15 
REMARK    6  A    between atoms: N_15  and  C_16 
REMARK    7  A    between atoms: C_25  and  C_26 
REMARK    8  A    between atoms: C_26  and  O_28 
REMARK    9  A    between atoms: O_28  and  C_29 
REMARK   10  A    between atoms: O_31  and  C_32 
REMARK   11  A    between atoms: O_33  and  C_34 
ROOT
ATOM      1  C   LIG d   1       7.399  -6.285  -5.901  0.00  0.00     0.003 C 
ATOM      2  H   LIG d   1       8.115  -6.631  -6.646  0.00  0.00     0.090 H 
ATOM      3  C   LIG d   1       6.684  -7.472  -5.311  0.00  0.00     0.007 A 
ATOM      4  C   LIG d   1       7.350  -8.241  -4.366  0.00  0.00    -0.008 A 
ATOM      5  C   LIG d   1       6.735  -9.342  -3.799  0.00  0.00     0.162 A 
ATOM      6  C   LIG d   1       5.439  -9.680  -4.179  0.00  0.00     0.162 A 
ATOM      7  C   LIG d   1       4.778  -8.911  -5.120  0.00  0.00    -0.013 A 
ATOM      8  C   LIG d   1       5.399  -7.806  -5.684  0.00  0.00    -0.030 A 
ATOM      9  C   LIG d   1       4.634  -6.994  -6.697  0.00  0.00     0.013 C 
ATOM     10  C   LIG d   1       5.594  -6.106  -7.488  0.00  0.00    -0.027 C 
ATOM     11  H   LIG d   1       8.355  -7.977  -4.073  0.00  0.00     0.066 H 
ATOM     12  H   LIG d   1       3.773  -9.172  -5.417  0.00  0.00     0.066 H 
ATOM     13  H   LIG d   1       4.115  -7.665  -7.381  0.00  0.00     0.036 H 
ATOM     14  H   LIG d   1       3.905  -6.367  -6.182  0.00  0.00     0.036 H 
ATOM     15  H   LIG d   1       5.027  -5.399  -8.092  0.00  0.00     0.082 H 
ATOM     16  H   LIG d   1       6.218  -6.724  -8.134  0.00  0.00     0.082 H 
ATOM     17  N   LIG d   1       6.428  -5.366  -6.518  0.00  0.00     0.247 N 
ATOM     18  H   LIG d   1       5.824  -4.975  -5.786  0.00  0.00     0.204 HD
ENDROOT
BRANCH  17  19
ATOM     19  C   LIG d   1       7.138  -4.260  -7.198  0.00  0.00     0.047 C 
ATOM     20  H   LIG d   1       8.162  -4.216  -6.829  0.00  0.00     0.091 H 
ATOM     21  H   LIG d   1       7.145  -4.448  -8.271  0.00  0.00     0.091 H 
BRANCH  19  22
ATOM     22  C   LIG d   1       6.448  -2.948  -6.923  0.00  0.00     0.263 C 
ATOM     23  O   LIG d   1       7.094  -1.922  -6.878  0.00  0.00    -0.270 OA
ATOM     24  N   LIG d   1       5.115  -2.915  -6.731  0.00  0.00    -0.279 N 
ATOM     25  H   LIG d   1       4.610  -3.742  -6.690  0.00  0.00     0.155 HD
BRANCH  24  26
ATOM     26  C   LIG d   1       4.462  -1.694  -6.592  0.00  0.00     0.073 A 
ATOM     27  C   LIG d   1       4.154  -1.055  -5.410  0.00  0.00     0.147 A 
ATOM     28  N   LIG d   1       3.505   0.137  -5.698  0.00  0.00    -0.347 N 
ATOM     29  C   LIG d   1       3.384   0.286  -7.060  0.00  0.00     0.049 A 
ATOM     30  H   LIG d   1       3.184   0.770  -5.038  0.00  0.00     0.166 HD
ATOM     31  C   LIG d   1       3.975  -0.834  -7.673  0.00  0.00     0.023 A 
ATOM     32  C   LIG d   1       2.826   1.283  -7.857  0.00  0.00    -0.036 A 
ATOM     33  C   LIG d   1       3.986  -0.941  -9.067  0.00  0.00    -0.032 A 
ATOM     34  C   LIG d   1       3.432   0.049  -9.828  0.00  0.00     0.042 A 
ATOM     35  H   LIG d   1       4.436  -1.802  -9.541  0.00  0.00     0.064 H 
ATOM     36  C   LIG d   1       2.852   1.160  -9.228  0.00  0.00    -0.041 A 
ATOM     37 CL   LIG d   1       3.452  -0.082 -11.560  0.00  0.00    -0.084 Cl
ATOM     38  H   LIG d   1       2.418   1.934  -9.843  0.00  0.00     0.063 H 
ATOM     39  H   LIG d   1       2.372   2.151  -7.400  0.00  0.00     0.064 H 
BRANCH  27  40
ATOM     40  C   LIG d   1       4.452  -1.537  -4.110  0.00  0.00     0.357 C 
ATOM     41  O   LIG d   1       4.096  -2.652  -3.777  0.00  0.00    -0.243 OA
BRANCH  40  42
ATOM     42  O   LIG d   1       5.131  -0.759  -3.241  0.00  0.00    -0.463 OA
BRANCH  42  43
ATOM     43  C   LIG d   1       4.447  -0.370  -2.047  0.00  0.00     0.082 C 
ATOM     44  H   LIG d   1       5.081  -0.571  -1.184  0.00  0.00     0.066 H 
ATOM     45  H   LIG d   1       4.218   0.695  -2.091  0.00  0.00     0.066 H 
ATOM     46  H   LIG d   1       3.520  -0.938  -1.958  0.00  0.00     0.066 H 
ENDBRANCH  42  43
ENDBRANCH  40  42
ENDBRANCH  27  40
ENDBRANCH  24  26
ENDBRANCH  19  22
ENDBRANCH  17  19
BRANCH   1  47
ATOM     47  C   LIG d   1       8.144  -5.543  -4.791  0.00  0.00    -0.017 C 
ATOM     48  H   LIG d   1       8.302  -6.213  -3.946  0.00  0.00     0.029 H 
ATOM     49  H   LIG d   1       9.109  -5.201  -5.166  0.00  0.00     0.029 H 
ATOM     50  H   LIG d   1       7.555  -4.684  -4.469  0.00  0.00     0.029 H 
ENDBRANCH   1  47
BRANCH   5  51
ATOM     51  O   LIG d   1       7.393 -10.091  -2.875  0.00  0.00    -0.491 OA
BRANCH  51  52
ATOM     52  C   LIG d   1       7.785  -9.434  -1.667  0.00  0.00     0.079 C 
ATOM     53  H   LIG d   1       8.367 -10.122  -1.052  0.00  0.00     0.066 H 
ATOM     54  H   LIG d   1       8.390  -8.561  -1.909  0.00  0.00     0.066 H 
ATOM     55  H   LIG d   1       6.895  -9.121  -1.120  0.00  0.00     0.066 H 
ENDBRANCH  51  52
ENDBRANCH   5  51
BRANCH   6  56
ATOM     56  O   LIG d   1       4.826 -10.762  -3.628  0.00  0.00    -0.491 OA
BRANCH  56  57
ATOM     57  C   LIG d   1       3.433 -10.640  -3.338  0.00  0.00     0.079 C 
ATOM     58  H   LIG d   1       2.872 -11.358  -3.938  0.00  0.00     0.066 H 
ATOM     59  H   LIG d   1       3.262 -10.840  -2.280  0.00  0.00     0.066 H 
ATOM     60  H   LIG d   1       3.099  -9.630  -3.575  0.00  0.00     0.066 H 
ENDBRANCH  56  57
ENDBRANCH   6  56
TORSDOF 11
ENDMDL
MODEL 4
REMARK VINA RESULT:      -5.8      4.012      4.661
REMARK  11 active torsions:
REMARK  status: ('A' for Active; 'I' for Inactive)
REMARK    1  A    between atoms: C_1  and  C_2 
REMARK    2  A    between atoms: C_6  and  O_33 
REMARK    3  A    between atoms: C_7  and  O_31 
REMARK    4  A    between atoms: C_12  and  C_13 
REMARK    5  A    between atoms: C_12  and  N_59 
REMARK       I    between atoms: C_13  and  N_15 
REMARK    6  A    between atoms: N_15  and  C_16 
REMARK    7  A    between atoms: C_25  and  C_26 
REMARK    8  A    between atoms: C_26  and  O_28 
REMARK    9  A    between atoms: O_28  and  C_29 
REMARK   10  A    between atoms: O_31  and  C_32 
REMARK   11  A    between atoms: O_33  and  C_34 
ROOT
ATOM      1  C   LIG d   1       9.319   2.088  -6.728  0.00  0.00     0.003 C 
ATOM      2  H   LIG d   1      10.303   1.631  -6.827  0.00  0.00     0.090 H 
ATOM      3  C   LIG d   1       9.449   3.395  -5.991  0.00  0.00     0.007 A 
ATOM      4  C   LIG d   1       9.930   4.497  -6.684  0.00  0.00    -0.008 A 
ATOM      5  C   LIG d   1      10.070   5.718  -6.049  0.00  0.00     0.162 A 
ATOM      6  C   LIG d   1       9.726   5.839  -4.705  0.00  0.00     0.162 A 
ATOM      7  C   LIG d   1       9.245   4.738  -4.018  0.00  0.00    -0.013 A 
ATOM      8  C   LIG d   1       9.105   3.518  -4.661  0.00  0.00    -0.030 A 
ATOM      9  C   LIG d   1       8.568   2.350  -3.874  0.00  0.00     0.013 C 
ATOM     10  C   LIG d   1       8.873   1.042  -4.603  0.00  0.00    -0.027 C 
ATOM     11  H   LIG d   1      10.197   4.400  -7.726  0.00  0.00     0.066 H 
ATOM     12  H   LIG d   1       8.978   4.831  -2.976  0.00  0.00     0.066 H 
ATOM     13  H   LIG d   1       9.035   2.333  -2.888  0.00  0.00     0.036 H 
ATOM     14  H   LIG d   1       7.489   2.456  -3.760  0.00  0.00     0.036 H 
ATOM     15  H   LIG d   1       8.337   0.222  -4.125  0.00  0.00     0.082 H 
ATOM     16  H   LIG d   1       9.946   0.848  -4.573  0.00  0.00     0.082 H 
ATOM     17  N   LIG d   1       8.411   1.185  -5.999  0.00  0.00     0.247 N 
ATOM     18  H   LIG d   1       7.467   1.586  -6.000  0.00  0.00     0.204 HD
ENDROOT
BRANCH  17  19
ATOM     19  C   LIG d   1       8.373  -0.138  -6.660  0.00  0.00     0.047 C 
ATOM     20  H   LIG d   1       8.992  -0.105  -7.556  0.00  0.00     0.091 H 
ATOM     21  H   LIG d   1       8.766  -0.889  -5.974  0.00  0.00     0.091 H 
BRANCH  19  22
ATOM     22  C   LIG d   1       6.959  -0.494  -7.038  0.00  0.00     0.263 C 
ATOM     23  O   LIG d   1       6.689  -1.628  -7.376  0.00  0.00    -0.270 OA
ATOM     24  N   LIG d   1       5.994   0.445  -6.999  0.00  0.00    -0.279 N 
ATOM     25  H   LIG d   1       6.223   1.368  -6.806  0.00  0.00     0.155 HD
BRANCH  24  26
ATOM     26  C   LIG d   1       4.669   0.093  -7.236  0.00  0.00     0.073 A 
ATOM     27  C   LIG d   1       3.702  -0.162  -6.287  0.00  0.00     0.147 A 
ATOM     28  N   LIG d   1       2.513  -0.479  -6.929  0.00  0.00    -0.347 N 
ATOM     29  C   LIG d   1       2.692  -0.434  -8.292  0.00  0.00     0.049 A 
ATOM     30  H   LIG d   1       1.681  -0.699  -6.483  0.00  0.00     0.166 HD
ATOM     31  C   LIG d   1       4.028  -0.073  -8.543  0.00  0.00     0.023 A 
ATOM     32  C   LIG d   1       1.835  -0.662  -9.367  0.00  0.00    -0.036 A 
ATOM     33  C   LIG d   1       4.485   0.041  -9.860  0.00  0.00    -0.032 A 
ATOM     34  C   LIG d   1       3.627  -0.188 -10.898  0.00  0.00     0.042 A 
ATOM     35  H   LIG d   1       5.512   0.314 -10.056  0.00  0.00     0.064 H 
ATOM     36  C   LIG d   1       2.304  -0.539 -10.655  0.00  0.00    -0.041 A 
ATOM     37 CL   LIG d   1       4.193  -0.040 -12.532  0.00  0.00    -0.084 Cl
ATOM     38  H   LIG d   1       1.637  -0.718 -11.486  0.00  0.00     0.063 H 
ATOM     39  H   LIG d   1       0.805  -0.936  -9.189  0.00  0.00     0.064 H 
BRANCH  27  40
ATOM     40  C   LIG d   1       3.891  -0.109  -4.882  0.00  0.00     0.357 C 
ATOM     41  O   LIG d   1       3.065  -0.602  -4.138  0.00  0.00    -0.243 OA
BRANCH  40  42
ATOM     42  O   LIG d   1       4.987   0.490  -4.372  0.00  0.00    -0.463 OA
BRANCH  42  43
ATOM     43  C   LIG d   1       5.704  -0.221  -3.360  0.00  0.00     0.082 C 
ATOM     44  H   LIG d   1       6.543   0.383  -3.016  0.00  0.00     0.066 H 
ATOM     45  H   LIG d   1       5.038  -0.429  -2.523  0.00  0.00     0.066 H 
ATOM     46  H   LIG d   1       6.076  -1.160  -3.771  0.00  0.00     0.066 H 
ENDBRANCH  42  43
ENDBRANCH  40  42
ENDBRANCH  27  40
ENDBRANCH  24  26
ENDBRANCH  19  22
ENDBRANCH  17  19
BRANCH   1  47
ATOM     47  C   LIG d   1       8.741   2.349  -8.120  0.00  0.00    -0.017 C 
ATOM     48  H   LIG d   1       9.383   1.891  -8.873  0.00  0.00     0.029 H 
ATOM     49  H   LIG d   1       7.742   1.918  -8.185  0.00  0.00     0.029 H 
ATOM     50  H   LIG d   1       8.685   3.424  -8.294  0.00  0.00     0.029 H 
ENDBRANCH   1  47
BRANCH   5  51
ATOM     51  O   LIG d   1      10.542   6.793  -6.733  0.00  0.00    -0.491 OA
BRANCH  51  52
ATOM     52  C   LIG d   1      11.920   6.767  -7.113  0.00  0.00     0.079 C 
ATOM     53  H   LIG d   1      12.015   7.074  -8.155  0.00  0.00     0.066 H 
ATOM     54  H   LIG d   1      12.484   7.450  -6.479  0.00  0.00     0.066 H 
ATOM     55  H   LIG d   1      12.309   5.755  -6.995  0.00  0.00     0.066 H 
ENDBRANCH  51  52
ENDBRANCH   5  51
BRANCH   6  56
ATOM     56  O   LIG d   1       9.861   7.035  -4.071  0.00  0.00    -0.491 OA
BRANCH  56  57
ATOM     57  C   LIG d   1       9.817   7.020  -2.643  0.00  0.00     0.079 C 
ATOM     58  H   LIG d   1      10.803   7.264  -2.247  0.00  0.00     0.066 H 
ATOM     59  H   LIG d   1       9.093   7.757  -2.294  0.00  0.00     0.066 H 
ATOM     60  H   LIG d   1       9.522   6.029  -2.298  0.00  0.00     0.066 H 
ENDBRANCH  56  57
ENDBRANCH   6  56
TORSDOF 11
ENDMDL
MODEL 5
REMARK VINA RESULT:      -5.7      1.953      2.364
REMARK  11 active torsions:
REMARK  status: ('A' for Active; 'I' for Inactive)
REMARK    1  A    between atoms: C_1  and  C_2 
REMARK    2  A    between atoms: C_6  and  O_33 
REMARK    3  A    between atoms: C_7  and  O_31 
REMARK    4  A    between atoms: C_12  and  C_13 
REMARK    5  A    between atoms: C_12  and  N_59 
REMARK       I    between atoms: C_13  and  N_15 
REMARK    6  A    between atoms: N_15  and  C_16 
REMARK    7  A    between atoms: C_25  and  C_26 
REMARK    8  A    between atoms: C_26  and  O_28 
REMARK    9  A    between atoms: O_28  and  C_29 
REMARK   10  A    between atoms: O_31  and  C_32 
REMARK   11  A    between atoms: O_33  and  C_34 
ROOT
ATOM      1  C   LIG d   1       9.628   2.864  -7.033  0.00  0.00     0.003 C 
ATOM      2  H   LIG d   1      10.651   2.539  -7.224  0.00  0.00     0.090 H 
ATOM      3  C   LIG d   1       9.653   4.148  -6.245  0.00  0.00     0.007 A 
ATOM      4  C   LIG d   1       9.941   5.328  -6.916  0.00  0.00    -0.008 A 
ATOM      5  C   LIG d   1       9.978   6.530  -6.234  0.00  0.00     0.162 A 
ATOM      6  C   LIG d   1       9.726   6.555  -4.865  0.00  0.00     0.162 A 
ATOM      7  C   LIG d   1       9.438   5.376  -4.200  0.00  0.00    -0.013 A 
ATOM      8  C   LIG d   1       9.400   4.174  -4.889  0.00  0.00    -0.030 A 
ATOM      9  C   LIG d   1       9.072   2.918  -4.123  0.00  0.00     0.013 C 
ATOM     10  C   LIG d   1       9.478   1.688  -4.934  0.00  0.00    -0.027 C 
ATOM     11  H   LIG d   1      10.137   5.306  -7.978  0.00  0.00     0.066 H 
ATOM     12  H   LIG d   1       9.242   5.393  -3.138  0.00  0.00     0.066 H 
ATOM     13  H   LIG d   1       9.612   2.922  -3.175  0.00  0.00     0.036 H 
ATOM     14  H   LIG d   1       8.000   2.883  -3.928  0.00  0.00     0.036 H 
ATOM     15  H   LIG d   1       9.086   0.790  -4.460  0.00  0.00     0.082 H 
ATOM     16  H   LIG d   1      10.566   1.629  -4.991  0.00  0.00     0.082 H 
ATOM     17  N   LIG d   1       8.897   1.827  -6.286  0.00  0.00     0.247 N 
ATOM     18  H   LIG d   1       7.913   2.105  -6.201  0.00  0.00     0.204 HD
ENDROOT
BRANCH  17  19
ATOM     19  C   LIG d   1       8.971   0.536  -7.005  0.00  0.00     0.047 C 
ATOM     20  H   LIG d   1       8.691   0.694  -8.046  0.00  0.00     0.091 H 
ATOM     21  H   LIG d   1       9.993   0.160  -6.956  0.00  0.00     0.091 H 
BRANCH  19  22
ATOM     22  C   LIG d   1       8.036  -0.467  -6.379  0.00  0.00     0.263 C 
ATOM     23  O   LIG d   1       8.477  -1.340  -5.661  0.00  0.00    -0.270 OA
ATOM     24  N   LIG d   1       6.712  -0.392  -6.615  0.00  0.00    -0.279 N 
ATOM     25  H   LIG d   1       6.368   0.256  -7.250  0.00  0.00     0.155 HD
BRANCH  24  26
ATOM     26  C   LIG d   1       5.837  -1.244  -5.948  0.00  0.00     0.073 A 
ATOM     27  C   LIG d   1       5.353  -2.451  -6.407  0.00  0.00     0.147 A 
ATOM     28  N   LIG d   1       4.510  -2.993  -5.448  0.00  0.00    -0.347 N 
ATOM     29  C   LIG d   1       4.437  -2.152  -4.362  0.00  0.00     0.049 A 
ATOM     30  H   LIG d   1       4.042  -3.838  -5.530  0.00  0.00     0.166 HD
ATOM     31  C   LIG d   1       5.258  -1.039  -4.619  0.00  0.00     0.023 A 
ATOM     32  C   LIG d   1       3.747  -2.224  -3.153  0.00  0.00    -0.036 A 
ATOM     33  C   LIG d   1       5.363  -0.016  -3.671  0.00  0.00    -0.032 A 
ATOM     34  C   LIG d   1       4.676  -0.108  -2.494  0.00  0.00     0.042 A 
ATOM     35  H   LIG d   1       5.990   0.843  -3.867  0.00  0.00     0.064 H 
ATOM     36  C   LIG d   1       3.869  -1.209  -2.232  0.00  0.00    -0.041 A 
ATOM     37 CL   LIG d   1       4.814   1.159  -1.315  0.00  0.00    -0.084 Cl
ATOM     38  H   LIG d   1       3.332  -1.268  -1.297  0.00  0.00     0.063 H 
ATOM     39  H   LIG d   1       3.116  -3.076  -2.940  0.00  0.00     0.064 H 
BRANCH  27  40
ATOM     40  C   LIG d   1       5.665  -3.043  -7.658  0.00  0.00     0.357 C 
ATOM     41  O   LIG d   1       6.823  -3.278  -7.948  0.00  0.00    -0.243 OA
BRANCH  40  42
ATOM     42  O   LIG d   1       4.678  -3.343  -8.528  0.00  0.00    -0.463 OA
BRANCH  42  43
ATOM     43  C   LIG d   1       3.760  -2.297  -8.854  0.00  0.00     0.082 C 
ATOM     44  H   LIG d   1       3.252  -1.964  -7.949  0.00  0.00     0.066 H 
ATOM     45  H   LIG d   1       4.305  -1.461  -9.293  0.00  0.00     0.066 H 
ATOM     46  H   LIG d   1       3.025  -2.668  -9.568  0.00  0.00     0.066 H 
ENDBRANCH  42  43
ENDBRANCH  40  42
ENDBRANCH  27  40
ENDBRANCH  24  26
ENDBRANCH  19  22
ENDBRANCH  17  19
BRANCH   1  47
ATOM     47  C   LIG d   1       8.918   3.105  -8.366  0.00  0.00    -0.017 C 
ATOM     48  H   LIG d   1       9.412   3.916  -8.901  0.00  0.00     0.029 H 
ATOM     49  H   LIG d   1       8.957   2.197  -8.968  0.00  0.00     0.029 H 
ATOM     50  H   LIG d   1       7.877   3.372  -8.180  0.00  0.00     0.029 H 
ENDBRANCH   1  47
BRANCH   5  51
ATOM     51  O   LIG d   1      10.261   7.683  -6.898  0.00  0.00    -0.491 OA
BRANCH  51  52
ATOM     52  C   LIG d   1       9.212   8.254  -7.681  0.00  0.00     0.079 C 
ATOM     53  H   LIG d   1       9.629   8.669  -8.599  0.00  0.00     0.066 H 
ATOM     54  H   LIG d   1       8.482   7.484  -7.928  0.00  0.00     0.066 H 
ATOM     55  H   LIG d   1       8.725   9.048  -7.113  0.00  0.00     0.066 H 
ENDBRANCH  51  52
ENDBRANCH   5  51
BRANCH   6  56
ATOM     56  O   LIG d   1       9.761   7.732  -4.185  0.00  0.00    -0.491 OA
BRANCH  56  57
ATOM     57  C   LIG d   1      10.224   7.688  -2.835  0.00  0.00     0.079 C 
ATOM     58  H   LIG d   1      11.315   7.656  -2.825  0.00  0.00     0.066 H 
ATOM     59  H   LIG d   1       9.883   8.576  -2.303  0.00  0.00     0.066 H 
ATOM     60  H   LIG d   1       9.831   6.797  -2.344  0.00  0.00     0.066 H 
ENDBRANCH  56  57
ENDBRANCH   6  56
TORSDOF 11
ENDMDL
MODEL 6
REMARK VINA RESULT:      -5.7      5.667      9.464
REMARK  11 active torsions:
REMARK  status: ('A' for Active; 'I' for Inactive)
REMARK    1  A    between atoms: C_1  and  C_2 
REMARK    2  A    between atoms: C_6  and  O_33 
REMARK    3  A    between atoms: C_7  and  O_31 
REMARK    4  A    between atoms: C_12  and  C_13 
REMARK    5  A    between atoms: C_12  and  N_59 
REMARK       I    between atoms: C_13  and  N_15 
REMARK    6  A    between atoms: N_15  and  C_16 
REMARK    7  A    between atoms: C_25  and  C_26 
REMARK    8  A    between atoms: C_26  and  O_28 
REMARK    9  A    between atoms: O_28  and  C_29 
REMARK   10  A    between atoms: O_31  and  C_32 
REMARK   11  A    between atoms: O_33  and  C_34 
ROOT
ATOM      1  C   LIG d   1       6.008  -4.948  -5.768  0.00  0.00     0.003 C 
ATOM      2  H   LIG d   1       6.081  -4.719  -6.831  0.00  0.00     0.090 H 
ATOM      3  C   LIG d   1       6.078  -3.667  -4.977  0.00  0.00     0.007 A 
ATOM      4  C   LIG d   1       4.946  -2.867  -4.918  0.00  0.00    -0.008 A 
ATOM      5  C   LIG d   1       4.963  -1.680  -4.207  0.00  0.00     0.162 A 
ATOM      6  C   LIG d   1       6.125  -1.289  -3.548  0.00  0.00     0.162 A 
ATOM      7  C   LIG d   1       7.251  -2.091  -3.607  0.00  0.00    -0.013 A 
ATOM      8  C   LIG d   1       7.227  -3.280  -4.320  0.00  0.00    -0.030 A 
ATOM      9  C   LIG d   1       8.475  -4.125  -4.348  0.00  0.00     0.013 C 
ATOM     10  C   LIG d   1       8.393  -5.142  -5.485  0.00  0.00    -0.027 C 
ATOM     11  H   LIG d   1       4.046  -3.172  -5.432  0.00  0.00     0.066 H 
ATOM     12  H   LIG d   1       8.153  -1.789  -3.097  0.00  0.00     0.066 H 
ATOM     13  H   LIG d   1       9.343  -3.483  -4.498  0.00  0.00     0.036 H 
ATOM     14  H   LIG d   1       8.576  -4.652  -3.399  0.00  0.00     0.036 H 
ATOM     15  H   LIG d   1       9.209  -5.859  -5.395  0.00  0.00     0.082 H 
ATOM     16  H   LIG d   1       8.460  -4.627  -6.444  0.00  0.00     0.082 H 
ATOM     17  N   LIG d   1       7.101  -5.850  -5.367  0.00  0.00     0.247 N 
ATOM     18  H   LIG d   1       6.962  -6.132  -4.390  0.00  0.00     0.204 HD
ENDROOT
BRANCH  17  19
ATOM     19  C   LIG d   1       7.103  -7.057  -6.222  0.00  0.00     0.047 C 
ATOM     20  H   LIG d   1       6.142  -7.131  -6.732  0.00  0.00     0.091 H 
ATOM     21  H   LIG d   1       7.900  -6.969  -6.959  0.00  0.00     0.091 H 
BRANCH  19  22
ATOM     22  C   LIG d   1       7.326  -8.291  -5.386  0.00  0.00     0.263 C 
ATOM     23  O   LIG d   1       8.187  -9.086  -5.697  0.00  0.00    -0.270 OA
ATOM     24  N   LIG d   1       6.570  -8.508  -4.292  0.00  0.00    -0.279 N 
ATOM     25  H   LIG d   1       5.831  -7.915  -4.086  0.00  0.00     0.155 HD
BRANCH  24  26
ATOM     26  C   LIG d   1       6.851  -9.585  -3.456  0.00  0.00     0.073 A 
ATOM     27  C   LIG d   1       6.194 -10.797  -3.425  0.00  0.00     0.147 A 
ATOM     28  N   LIG d   1       6.774 -11.600  -2.455  0.00  0.00    -0.347 N 
ATOM     29  C   LIG d   1       7.808 -10.926  -1.848  0.00  0.00     0.049 A 
ATOM     30  H   LIG d   1       6.494 -12.503  -2.237  0.00  0.00     0.166 HD
ATOM     31  C   LIG d   1       7.906  -9.655  -2.442  0.00  0.00     0.023 A 
ATOM     32  C   LIG d   1       8.698 -11.273  -0.833  0.00  0.00    -0.036 A 
ATOM     33  C   LIG d   1       8.881  -8.753  -2.005  0.00  0.00    -0.032 A 
ATOM     34  C   LIG d   1       9.742  -9.116  -1.008  0.00  0.00     0.042 A 
ATOM     35  H   LIG d   1       8.956  -7.775  -2.457  0.00  0.00     0.064 H 
ATOM     36  C   LIG d   1       9.653 -10.372  -0.421  0.00  0.00    -0.041 A 
ATOM     37 CL   LIG d   1      10.956  -7.998  -0.470  0.00  0.00    -0.084 Cl
ATOM     38  H   LIG d   1      10.341 -10.645   0.366  0.00  0.00     0.063 H 
ATOM     39  H   LIG d   1       8.637 -12.248  -0.370  0.00  0.00     0.064 H 
BRANCH  27  40
ATOM     40  C   LIG d   1       5.101 -11.163  -4.252  0.00  0.00     0.357 C 
ATOM     41  O   LIG d   1       5.254 -11.263  -5.455  0.00  0.00    -0.243 OA
BRANCH  40  42
ATOM     42  O   LIG d   1       3.890 -11.399  -3.705  0.00  0.00    -0.463 OA
BRANCH  42  43
ATOM     43  C   LIG d   1       3.187 -10.272  -3.175  0.00  0.00     0.082 C 
ATOM     44  H   LIG d   1       3.374  -9.400  -3.801  0.00  0.00     0.066 H 
ATOM     45  H   LIG d   1       2.118 -10.487  -3.159  0.00  0.00     0.066 H 
ATOM     46  H   LIG d   1       3.533 -10.072  -2.160  0.00  0.00     0.066 H 
ENDBRANCH  42  43
ENDBRANCH  40  42
ENDBRANCH  27  40
ENDBRANCH  24  26
ENDBRANCH  19  22
ENDBRANCH  17  19
BRANCH   1  47
ATOM     47  C   LIG d   1       4.672  -5.639  -5.490  0.00  0.00    -0.017 C 
ATOM     48  H   LIG d   1       3.955  -4.909  -5.114  0.00  0.00     0.029 H 
ATOM     49  H   LIG d   1       4.291  -6.079  -6.412  0.00  0.00     0.029 H 
ATOM     50  H   LIG d   1       4.816  -6.424  -4.747  0.00  0.00     0.029 H 
ENDBRANCH   1  47
BRANCH   5  51
ATOM     51  O   LIG d   1       3.851  -0.900  -4.154  0.00  0.00    -0.491 OA
BRANCH  51  52
ATOM     52  C   LIG d   1       2.960  -1.115  -3.058  0.00  0.00     0.079 C 
ATOM     53  H   LIG d   1       2.589  -2.139  -3.087  0.00  0.00     0.066 H 
ATOM     54  H   LIG d   1       3.489  -0.945  -2.121  0.00  0.00     0.066 H 
ATOM     55  H   LIG d   1       2.120  -0.422  -3.132  0.00  0.00     0.066 H 
ENDBRANCH  51  52
ENDBRANCH   5  51
BRANCH   6  56
ATOM     56  O   LIG d   1       6.153  -0.124  -2.847  0.00  0.00    -0.491 OA
BRANCH  56  57
ATOM     57  C   LIG d   1       6.731   1.010  -3.495  0.00  0.00     0.079 C 
ATOM     58  H   LIG d   1       5.967   1.776  -3.638  0.00  0.00     0.066 H 
ATOM     59  H   LIG d   1       7.536   1.411  -2.880  0.00  0.00     0.066 H 
ATOM     60  H   LIG d   1       7.129   0.711  -4.465  0.00  0.00     0.066 H 
ENDBRANCH  56  57
ENDBRANCH   6  56
TORSDOF 11
ENDMDL
MODEL 7
REMARK VINA RESULT:      -5.5      3.544      9.342
REMARK  11 active torsions:
REMARK  status: ('A' for Active; 'I' for Inactive)
REMARK    1  A    between atoms: C_1  and  C_2 
REMARK    2  A    between atoms: C_6  and  O_33 
REMARK    3  A    between atoms: C_7  and  O_31 
REMARK    4  A    between atoms: C_12  and  C_13 
REMARK    5  A    between atoms: C_12  and  N_59 
REMARK       I    between atoms: C_13  and  N_15 
REMARK    6  A    between atoms: N_15  and  C_16 
REMARK    7  A    between atoms: C_25  and  C_26 
REMARK    8  A    between atoms: C_26  and  O_28 
REMARK    9  A    between atoms: O_28  and  C_29 
REMARK   10  A    between atoms: O_31  and  C_32 
REMARK   11  A    between atoms: O_33  and  C_34 
ROOT
ATOM      1  C   LIG d   1       7.070  -3.786  -7.157  0.00  0.00     0.003 C 
ATOM      2  H   LIG d   1       6.489  -2.924  -6.832  0.00  0.00     0.090 H 
ATOM      3  C   LIG d   1       6.323  -5.048  -6.813  0.00  0.00     0.007 A 
ATOM      4  C   LIG d   1       5.254  -5.421  -7.616  0.00  0.00    -0.008 A 
ATOM      5  C   LIG d   1       4.536  -6.570  -7.338  0.00  0.00     0.162 A 
ATOM      6  C   LIG d   1       4.890  -7.356  -6.245  0.00  0.00     0.162 A 
ATOM      7  C   LIG d   1       5.957  -6.982  -5.448  0.00  0.00    -0.013 A 
ATOM      8  C   LIG d   1       6.675  -5.830  -5.733  0.00  0.00    -0.030 A 
ATOM      9  C   LIG d   1       7.835  -5.469  -4.841  0.00  0.00     0.013 C 
ATOM     10  C   LIG d   1       8.221  -4.005  -5.051  0.00  0.00    -0.027 C 
ATOM     11  H   LIG d   1       4.982  -4.810  -8.463  0.00  0.00     0.066 H 
ATOM     12  H   LIG d   1       6.233  -7.590  -4.599  0.00  0.00     0.066 H 
ATOM     13  H   LIG d   1       7.553  -5.624  -3.800  0.00  0.00     0.036 H 
ATOM     14  H   LIG d   1       8.688  -6.104  -5.082  0.00  0.00     0.036 H 
ATOM     15  H   LIG d   1       9.160  -3.796  -4.540  0.00  0.00     0.082 H 
ATOM     16  H   LIG d   1       7.436  -3.359  -4.656  0.00  0.00     0.082 H 
ATOM     17  N   LIG d   1       8.390  -3.786  -6.502  0.00  0.00     0.247 N 
ATOM     18  H   LIG d   1       8.958  -4.546  -6.892  0.00  0.00     0.204 HD
ENDROOT
BRANCH  17  19
ATOM     19  C   LIG d   1       9.076  -2.497  -6.745  0.00  0.00     0.047 C 
ATOM     20  H   LIG d   1      10.069  -2.536  -6.298  0.00  0.00     0.091 H 
ATOM     21  H   LIG d   1       9.166  -2.339  -7.819  0.00  0.00     0.091 H 
BRANCH  19  22
ATOM     22  C   LIG d   1       8.292  -1.364  -6.135  0.00  0.00     0.263 C 
ATOM     23  O   LIG d   1       7.410  -0.826  -6.771  0.00  0.00    -0.270 OA
ATOM     24  N   LIG d   1       8.570  -0.950  -4.883  0.00  0.00    -0.279 N 
ATOM     25  H   LIG d   1       9.325  -1.326  -4.404  0.00  0.00     0.155 HD
BRANCH  24  26
ATOM     26  C   LIG d   1       7.774   0.017  -4.277  0.00  0.00     0.073 A 
ATOM     27  C   LIG d   1       8.011   1.375  -4.241  0.00  0.00     0.147 A 
ATOM     28  N   LIG d   1       6.984   1.994  -3.543  0.00  0.00    -0.347 N 
ATOM     29  C   LIG d   1       6.073   1.053  -3.121  0.00  0.00     0.049 A 
ATOM     30  H   LIG d   1       6.918   2.947  -3.378  0.00  0.00     0.166 HD
ATOM     31  C   LIG d   1       6.516  -0.208  -3.561  0.00  0.00     0.023 A 
ATOM     32  C   LIG d   1       4.885   1.143  -2.398  0.00  0.00    -0.036 A 
ATOM     33  C   LIG d   1       5.772  -1.352  -3.260  0.00  0.00    -0.032 A 
ATOM     34  C   LIG d   1       4.610  -1.239  -2.549  0.00  0.00     0.042 A 
ATOM     35  H   LIG d   1       6.111  -2.323  -3.592  0.00  0.00     0.064 H 
ATOM     36  C   LIG d   1       4.165   0.005  -2.118  0.00  0.00    -0.041 A 
ATOM     37 CL   LIG d   1       3.683  -2.661  -2.182  0.00  0.00    -0.084 Cl
ATOM     38  H   LIG d   1       3.245   0.078  -1.557  0.00  0.00     0.063 H 
ATOM     39  H   LIG d   1       4.531   2.106  -2.058  0.00  0.00     0.064 H 
BRANCH  27  40
ATOM     40  C   LIG d   1       9.125   2.033  -4.823  0.00  0.00     0.357 C 
ATOM     41  O   LIG d   1       9.339   1.929  -6.016  0.00  0.00    -0.243 OA
BRANCH  40  42
ATOM     42  O   LIG d   1       9.950   2.773  -4.052  0.00  0.00    -0.463 OA
BRANCH  42  43
ATOM     43  C   LIG d   1      11.158   2.150  -3.611  0.00  0.00     0.082 C 
ATOM     44  H   LIG d   1      11.962   2.382  -4.310  0.00  0.00     0.066 H 
ATOM     45  H   LIG d   1      11.419   2.524  -2.621  0.00  0.00     0.066 H 
ATOM     46  H   LIG d   1      11.016   1.070  -3.567  0.00  0.00     0.066 H 
ENDBRANCH  42  43
ENDBRANCH  40  42
ENDBRANCH  27  40
ENDBRANCH  24  26
ENDBRANCH  19  22
ENDBRANCH  17  19
BRANCH   1  47
ATOM     47  C   LIG d   1       7.272  -3.717  -8.672  0.00  0.00    -0.017 C 
ATOM     48  H   LIG d   1       6.432  -4.197  -9.174  0.00  0.00     0.029 H 
ATOM     49  H   LIG d   1       7.332  -2.674  -8.983  0.00  0.00     0.029 H 
ATOM     50  H   LIG d   1       8.197  -4.229  -8.939  0.00  0.00     0.029 H 
ENDBRANCH   1  47
BRANCH   5  51
ATOM     51  O   LIG d   1       3.490  -6.930  -8.128  0.00  0.00    -0.491 OA
BRANCH  51  52
ATOM     52  C   LIG d   1       3.623  -6.687  -9.530  0.00  0.00     0.079 C 
ATOM     53  H   LIG d   1       4.564  -7.108  -9.884  0.00  0.00     0.066 H 
ATOM     54  H   LIG d   1       2.793  -7.153 -10.059  0.00  0.00     0.066 H 
ATOM     55  H   LIG d   1       3.614  -5.612  -9.715  0.00  0.00     0.066 H 
ENDBRANCH  51  52
ENDBRANCH   5  51
BRANCH   6  56
ATOM     56  O   LIG d   1       4.190  -8.487  -5.962  0.00  0.00    -0.491 OA
BRANCH  56  57
ATOM     57  C   LIG d   1       4.813  -9.733  -6.280  0.00  0.00     0.079 C 
ATOM     58  H   LIG d   1       5.031 -10.276  -5.359  0.00  0.00     0.066 H 
ATOM     59  H   LIG d   1       4.143 -10.327  -6.901  0.00  0.00     0.066 H 
ATOM     60  H   LIG d   1       5.742  -9.548  -6.820  0.00  0.00     0.066 H 
ENDBRANCH  56  57
ENDBRANCH   6  56
TORSDOF 11
ENDMDL
MODEL 8
REMARK VINA RESULT:      -5.5      6.114      8.917
REMARK  11 active torsions:
REMARK  status: ('A' for Active; 'I' for Inactive)
REMARK    1  A    between atoms: C_1  and  C_2 
REMARK    2  A    between atoms: C_6  and  O_33 
REMARK    3  A    between atoms: C_7  and  O_31 
REMARK    4  A    between atoms: C_12  and  C_13 
REMARK    5  A    between atoms: C_12  and  N_59 
REMARK       I    between atoms: C_13  and  N_15 
REMARK    6  A    between atoms: N_15  and  C_16 
REMARK    7  A    between atoms: C_25  and  C_26 
REMARK    8  A    between atoms: C_26  and  O_28 
REMARK    9  A    between atoms: O_28  and  C_29 
REMARK   10  A    between atoms: O_31  and  C_32 
REMARK   11  A    between atoms: O_33  and  C_34 
ROOT
ATOM      1  C   LIG d   1       4.699   0.361 -10.500  0.00  0.00     0.003 C 
ATOM      2  H   LIG d   1       4.730   1.379 -10.888  0.00  0.00     0.090 H 
ATOM      3  C   LIG d   1       3.501  -0.352 -11.071  0.00  0.00     0.007 A 
ATOM      4  C   LIG d   1       3.570  -0.814 -12.378  0.00  0.00    -0.008 A 
ATOM      5  C   LIG d   1       2.494  -1.472 -12.946  0.00  0.00     0.162 A 
ATOM      6  C   LIG d   1       1.335  -1.670 -12.199  0.00  0.00     0.162 A 
ATOM      7  C   LIG d   1       1.272  -1.210 -10.896  0.00  0.00    -0.013 A 
ATOM      8  C   LIG d   1       2.354  -0.553 -10.332  0.00  0.00    -0.030 A 
ATOM      9  C   LIG d   1       2.241  -0.078  -8.906  0.00  0.00     0.013 C 
ATOM     10  C   LIG d   1       3.328   0.954  -8.610  0.00  0.00    -0.027 C 
ATOM     11  H   LIG d   1       4.469  -0.659 -12.955  0.00  0.00     0.066 H 
ATOM     12  H   LIG d   1       0.374  -1.363 -10.317  0.00  0.00     0.066 H 
ATOM     13  H   LIG d   1       1.260   0.374  -8.752  0.00  0.00     0.036 H 
ATOM     14  H   LIG d   1       2.357  -0.927  -8.231  0.00  0.00     0.036 H 
ATOM     15  H   LIG d   1       3.353   1.164  -7.541  0.00  0.00     0.082 H 
ATOM     16  H   LIG d   1       3.121   1.873  -9.160  0.00  0.00     0.082 H 
ATOM     17  N   LIG d   1       4.623   0.380  -9.030  0.00  0.00     0.247 N 
ATOM     18  H   LIG d   1       4.693  -0.581  -8.677  0.00  0.00     0.204 HD
ENDROOT
BRANCH  17  19
ATOM     19  C   LIG d   1       5.737   1.180  -8.474  0.00  0.00     0.047 C 
ATOM     20  H   LIG d   1       6.412   1.456  -9.283  0.00  0.00     0.091 H 
ATOM     21  H   LIG d   1       5.333   2.080  -8.013  0.00  0.00     0.091 H 
BRANCH  19  22
ATOM     22  C   LIG d   1       6.490   0.381  -7.441  0.00  0.00     0.263 C 
ATOM     23  O   LIG d   1       7.674   0.163  -7.588  0.00  0.00    -0.270 OA
ATOM     24  N   LIG d   1       5.848  -0.088  -6.353  0.00  0.00    -0.279 N 
ATOM     25  H   LIG d   1       4.887   0.018  -6.273  0.00  0.00     0.155 HD
BRANCH  24  26
ATOM     26  C   LIG d   1       6.564  -0.725  -5.344  0.00  0.00     0.073 A 
ATOM     27  C   LIG d   1       6.987  -0.168  -4.156  0.00  0.00     0.147 A 
ATOM     28  N   LIG d   1       7.667  -1.130  -3.423  0.00  0.00    -0.347 N 
ATOM     29  C   LIG d   1       7.692  -2.316  -4.120  0.00  0.00     0.049 A 
ATOM     30  H   LIG d   1       8.064  -0.988  -2.550  0.00  0.00     0.166 HD
ATOM     31  C   LIG d   1       7.007  -2.121  -5.334  0.00  0.00     0.023 A 
ATOM     32  C   LIG d   1       8.234  -3.568  -3.838  0.00  0.00    -0.036 A 
ATOM     33  C   LIG d   1       6.888  -3.175  -6.244  0.00  0.00    -0.032 A 
ATOM     34  C   LIG d   1       7.429  -4.394  -5.946  0.00  0.00     0.042 A 
ATOM     35  H   LIG d   1       6.366  -3.028  -7.179  0.00  0.00     0.064 H 
ATOM     36  C   LIG d   1       8.101  -4.594  -4.746  0.00  0.00    -0.041 A 
ATOM     37 CL   LIG d   1       7.274  -5.705  -7.075  0.00  0.00    -0.084 Cl
ATOM     38  H   LIG d   1       8.523  -5.563  -4.524  0.00  0.00     0.063 H 
ATOM     39  H   LIG d   1       8.759  -3.733  -2.908  0.00  0.00     0.064 H 
BRANCH  27  40
ATOM     40  C   LIG d   1       6.765   1.173  -3.749  0.00  0.00     0.357 C 
ATOM     41  O   LIG d   1       6.085   1.406  -2.768  0.00  0.00    -0.243 OA
BRANCH  40  42
ATOM     42  O   LIG d   1       7.307   2.190  -4.452  0.00  0.00    -0.463 OA
BRANCH  42  43
ATOM     43  C   LIG d   1       8.676   2.503  -4.188  0.00  0.00     0.082 C 
ATOM     44  H   LIG d   1       8.828   3.578  -4.284  0.00  0.00     0.066 H 
ATOM     45  H   LIG d   1       8.932   2.189  -3.176  0.00  0.00     0.066 H 
ATOM     46  H   LIG d   1       9.313   1.981  -4.902  0.00  0.00     0.066 H 
ENDBRANCH  42  43
ENDBRANCH  40  42
ENDBRANCH  27  40
ENDBRANCH  24  26
ENDBRANCH  19  22
ENDBRANCH  17  19
BRANCH   1  47
ATOM     47  C   LIG d   1       5.972  -0.378 -10.918  0.00  0.00    -0.017 C 
ATOM     48  H   LIG d   1       6.065  -0.357 -12.004  0.00  0.00     0.029 H 
ATOM     49  H   LIG d   1       6.838   0.109 -10.471  0.00  0.00     0.029 H 
ATOM     50  H   LIG d   1       5.920  -1.412 -10.577  0.00  0.00     0.029 H 
ENDBRANCH   1  47
BRANCH   5  51
ATOM     51  O   LIG d   1       2.567  -1.922 -14.226  0.00  0.00    -0.491 OA
BRANCH  51  52
ATOM     52  C   LIG d   1       3.377  -3.076 -14.463  0.00  0.00     0.079 C 
ATOM     53  H   LIG d   1       3.065  -3.552 -15.394  0.00  0.00     0.066 H 
ATOM     54  H   LIG d   1       4.421  -2.777 -14.539  0.00  0.00     0.066 H 
ATOM     55  H   LIG d   1       3.257  -3.778 -13.638  0.00  0.00     0.066 H 
ENDBRANCH  51  52
ENDBRANCH   5  51
BRANCH   6  56
ATOM     56  O   LIG d   1       0.271  -2.315 -12.749  0.00  0.00    -0.491 OA
BRANCH  56  57
ATOM     57  C   LIG d   1      -0.844  -1.512 -13.138  0.00  0.00     0.079 C 
ATOM     58  H   LIG d   1      -0.814  -1.346 -14.215  0.00  0.00     0.066 H 
ATOM     59  H   LIG d   1      -1.770  -2.023 -12.875  0.00  0.00     0.066 H 
ATOM     60  H   LIG d   1      -0.800  -0.553 -12.621  0.00  0.00     0.066 H 
ENDBRANCH  56  57
ENDBRANCH   6  56
TORSDOF 11
ENDMDL
MODEL 9
REMARK VINA RESULT:      -5.5      6.439     11.075
REMARK  11 active torsions:
REMARK  status: ('A' for Active; 'I' for Inactive)
REMARK    1  A    between atoms: C_1  and  C_2 
REMARK    2  A    between atoms: C_6  and  O_33 
REMARK    3  A    between atoms: C_7  and  O_31 
REMARK    4  A    between atoms: C_12  and  C_13 
REMARK    5  A    between atoms: C_12  and  N_59 
REMARK       I    between atoms: C_13  and  N_15 
REMARK    6  A    between atoms: N_15  and  C_16 
REMARK    7  A    between atoms: C_25  and  C_26 
REMARK    8  A    between atoms: C_26  and  O_28 
REMARK    9  A    between atoms: O_28  and  C_29 
REMARK   10  A    between atoms: O_31  and  C_32 
REMARK   11  A    between atoms: O_33  and  C_34 
ROOT
ATOM      1  C   LIG d   1       7.360  -6.296  -5.976  0.00  0.00     0.003 C 
ATOM      2  H   LIG d   1       8.115  -6.593  -6.704  0.00  0.00     0.090 H 
ATOM      3  C   LIG d   1       6.733  -7.529  -5.379  0.00  0.00     0.007 A 
ATOM      4  C   LIG d   1       7.442  -8.227  -4.412  0.00  0.00    -0.008 A 
ATOM      5  C   LIG d   1       6.908  -9.367  -3.838  0.00  0.00     0.162 A 
ATOM      6  C   LIG d   1       5.651  -9.814  -4.235  0.00  0.00     0.162 A 
ATOM      7  C   LIG d   1       4.947  -9.115  -5.198  0.00  0.00    -0.013 A 
ATOM      8  C   LIG d   1       5.486  -7.972  -5.769  0.00  0.00    -0.030 A 
ATOM      9  C   LIG d   1       4.676  -7.238  -6.807  0.00  0.00     0.013 C 
ATOM     10  C   LIG d   1       5.575  -6.286  -7.595  0.00  0.00    -0.027 C 
ATOM     11  H   LIG d   1       8.418  -7.878  -4.107  0.00  0.00     0.066 H 
ATOM     12  H   LIG d   1       3.972  -9.461  -5.507  0.00  0.00     0.066 H 
ATOM     13  H   LIG d   1       4.225  -7.959  -7.489  0.00  0.00     0.036 H 
ATOM     14  H   LIG d   1       3.889  -6.666  -6.314  0.00  0.00     0.036 H 
ATOM     15  H   LIG d   1       4.963  -5.636  -8.220  0.00  0.00     0.082 H 
ATOM     16  H   LIG d   1       6.258  -6.861  -8.221  0.00  0.00     0.082 H 
ATOM     17  N   LIG d   1       6.329  -5.467  -6.623  0.00  0.00     0.247 N 
ATOM     18  H   LIG d   1       5.682  -5.117  -5.908  0.00  0.00     0.204 HD
ENDROOT
BRANCH  17  19
ATOM     19  C   LIG d   1       6.958  -4.317  -7.308  0.00  0.00     0.047 C 
ATOM     20  H   LIG d   1       7.985  -4.215  -6.958  0.00  0.00     0.091 H 
ATOM     21  H   LIG d   1       6.956  -4.498  -8.383  0.00  0.00     0.091 H 
BRANCH  19  22
ATOM     22  C   LIG d   1       6.197  -3.050  -7.012  0.00  0.00     0.263 C 
ATOM     23  O   LIG d   1       6.795  -2.006  -6.858  0.00  0.00    -0.270 OA
ATOM     24  N   LIG d   1       4.854  -3.078  -6.919  0.00  0.00    -0.279 N 
ATOM     25  H   LIG d   1       4.381  -3.924  -6.963  0.00  0.00     0.155 HD
BRANCH  24  26
ATOM     26  C   LIG d   1       4.143  -1.892  -6.759  0.00  0.00     0.073 A 
ATOM     27  C   LIG d   1       3.503  -1.175  -7.749  0.00  0.00     0.147 A 
ATOM     28  N   LIG d   1       2.912  -0.055  -7.183  0.00  0.00    -0.347 N 
ATOM     29  C   LIG d   1       3.157  -0.030  -5.830  0.00  0.00     0.049 A 
ATOM     30  H   LIG d   1       2.401   0.610  -7.669  0.00  0.00     0.166 HD
ATOM     31  C   LIG d   1       3.922  -1.166  -5.506  0.00  0.00     0.023 A 
ATOM     32  C   LIG d   1       2.795   0.857  -4.818  0.00  0.00    -0.036 A 
ATOM     33  C   LIG d   1       4.320  -1.386  -4.184  0.00  0.00    -0.032 A 
ATOM     34  C   LIG d   1       3.954  -0.501  -3.209  0.00  0.00     0.042 A 
ATOM     35  H   LIG d   1       4.911  -2.255  -3.933  0.00  0.00     0.064 H 
ATOM     36  C   LIG d   1       3.193   0.619  -3.523  0.00  0.00    -0.041 A 
ATOM     37 CL   LIG d   1       4.442  -0.779  -1.567  0.00  0.00    -0.084 Cl
ATOM     38  H   LIG d   1       2.911   1.309  -2.741  0.00  0.00     0.063 H 
ATOM     39  H   LIG d   1       2.203   1.731  -5.051  0.00  0.00     0.064 H 
BRANCH  27  40
ATOM     40  C   LIG d   1       3.458  -1.526  -9.122  0.00  0.00     0.357 C 
ATOM     41  O   LIG d   1       4.483  -1.809  -9.713  0.00  0.00    -0.243 OA
BRANCH  40  42
ATOM     42  O   LIG d   1       2.277  -1.545  -9.775  0.00  0.00    -0.463 OA
BRANCH  42  43
ATOM     43  C   LIG d   1       1.750  -2.826 -10.127  0.00  0.00     0.082 C 
ATOM     44  H   LIG d   1       2.359  -3.265 -10.918  0.00  0.00     0.066 H 
ATOM     45  H   LIG d   1       1.766  -3.477  -9.253  0.00  0.00     0.066 H 
ATOM     46  H   LIG d   1       0.724  -2.714 -10.478  0.00  0.00     0.066 H 
ENDBRANCH  42  43
ENDBRANCH  40  42
ENDBRANCH  27  40
ENDBRANCH  24  26
ENDBRANCH  19  22
ENDBRANCH  17  19
BRANCH   1  47
ATOM     47  C   LIG d   1       8.023  -5.480  -4.865  0.00  0.00    -0.017 C 
ATOM     48  H   LIG d   1       7.698  -5.854  -3.895  0.00  0.00     0.029 H 
ATOM     49  H   LIG d   1       9.106  -5.571  -4.944  0.00  0.00     0.029 H 
ATOM     50  H   LIG d   1       7.738  -4.432  -4.965  0.00  0.00     0.029 H 
ENDBRANCH   1  47
BRANCH   5  51
ATOM     51  O   LIG d   1       7.609 -10.046  -2.892  0.00  0.00    -0.491 OA
BRANCH  51  52
ATOM     52  C   LIG d   1       7.632  -9.488  -1.576  0.00  0.00     0.079 C 
ATOM     53  H   LIG d   1       6.842  -8.743  -1.484  0.00  0.00     0.066 H 
ATOM     54  H   LIG d   1       7.474 -10.279  -0.844  0.00  0.00     0.066 H 
ATOM     55  H   LIG d   1       8.599  -9.016  -1.400  0.00  0.00     0.066 H 
ENDBRANCH  51  52
ENDBRANCH   5  51
BRANCH   6  56
ATOM     56  O   LIG d   1       5.118 -10.935  -3.677  0.00  0.00    -0.491 OA
BRANCH  56  57
ATOM     57  C   LIG d   1       3.703 -10.954  -3.487  0.00  0.00     0.079 C 
ATOM     58  H   LIG d   1       3.266 -11.751  -4.090  0.00  0.00     0.066 H 
ATOM     59  H   LIG d   1       3.479 -11.131  -2.435  0.00  0.00     0.066 H 
ATOM     60  H   LIG d   1       3.281  -9.996  -3.792  0.00  0.00     0.066 H 
ENDBRANCH  56  57
ENDBRANCH   6  56
TORSDOF 11
ENDMDL
