MODEL 1
REMARK VINA RESULT:      -6.0      0.000      0.000
REMARK  11 active torsions:
REMARK  status: ('A' for Active; 'I' for Inactive)
REMARK    1  A    between atoms: C_1  and  C_2 
REMARK    2  A    between atoms: C_2  and  C_3 
REMARK    3  A    between atoms: C_10  and  O_35 
REMARK    4  A    between atoms: C_11  and  O_33 
REMARK    5  A    between atoms: C_17  and  C_19 
REMARK    6  A    between atoms: C_19  and  C_20 
REMARK    7  A    between atoms: C_24  and  O_31 
REMARK    8  A    between atoms: C_25  and  O_30 
REMARK    9  A    between atoms: O_31  and  C_32 
REMARK   10  A    between atoms: O_33  and  C_34 
REMARK   11  A    between atoms: O_35  and  C_36 
ROOT
ATOM      1  C   LIG d   1       5.736  -5.131  -5.698  0.00  0.00     0.002 C 
ATOM      2  H   LIG d   1       5.841  -5.804  -4.847  0.00  0.00     0.035 H 
ATOM      3  C   LIG d   1       5.371  -5.941  -6.946  0.00  0.00    -0.028 C 
ATOM      4  C   LIG d   1       4.988  -5.765  -9.337  0.00  0.00    -0.027 C 
ATOM      5  C   LIG d   1       5.199  -4.807 -10.509  0.00  0.00     0.013 C 
ATOM      6  C   LIG d   1       4.397  -3.548 -10.297  0.00  0.00    -0.030 A 
ATOM      7  C   LIG d   1       4.168  -2.721 -11.387  0.00  0.00    -0.013 A 
ATOM      8  C   LIG d   1       3.441  -1.553 -11.239  0.00  0.00     0.162 A 
ATOM      9  C   LIG d   1       2.937  -1.209  -9.988  0.00  0.00     0.162 A 
ATOM     10  C   LIG d   1       3.166  -2.038  -8.905  0.00  0.00    -0.007 A 
ATOM     11  C   LIG d   1       3.894  -3.210  -9.058  0.00  0.00     0.007 A 
ATOM     12  C   LIG d   1       4.112  -4.080  -7.850  0.00  0.00     0.006 C 
ATOM     13  H   LIG d   1       3.200  -4.643  -7.648  0.00  0.00     0.090 H 
ATOM     14  C   LIG d   1       4.441  -3.211  -6.634  0.00  0.00    -0.002 C 
ATOM     15  C   LIG d   1       4.630  -4.113  -5.411  0.00  0.00    -0.023 C 
ATOM     16  H   LIG d   1       3.699  -4.638  -5.197  0.00  0.00     0.031 H 
ATOM     17  H   LIG d   1       6.166  -6.653  -7.164  0.00  0.00     0.082 H 
ATOM     18  H   LIG d   1       4.438  -6.478  -6.772  0.00  0.00     0.082 H 
ATOM     19  H   LIG d   1       3.971  -6.156  -9.361  0.00  0.00     0.082 H 
ATOM     20  H   LIG d   1       5.701  -6.587  -9.404  0.00  0.00     0.082 H 
ATOM     21  H   LIG d   1       4.878  -5.288 -11.432  0.00  0.00     0.036 H 
ATOM     22  H   LIG d   1       6.256  -4.553 -10.581  0.00  0.00     0.036 H 
ATOM     23  H   LIG d   1       4.561  -2.990 -12.356  0.00  0.00     0.066 H 
ATOM     24  H   LIG d   1       2.774  -1.773  -7.935  0.00  0.00     0.066 H 
ATOM     25  H   LIG d   1       3.622  -2.516  -6.451  0.00  0.00     0.033 H 
ATOM     26  H   LIG d   1       5.359  -2.654  -6.821  0.00  0.00     0.033 H 
ATOM     27  N   LIG d   1       5.228  -5.010  -8.089  0.00  0.00     0.241 N 
ATOM     28  H   LIG d   1       6.096  -4.471  -8.188  0.00  0.00     0.204 HD
ENDROOT
BRANCH  15  29
ATOM     29  C   LIG d   1       5.023  -3.260  -4.203  0.00  0.00    -0.002 C 
ATOM     30  H   LIG d   1       4.741  -3.776  -3.286  0.00  0.00     0.033 H 
ATOM     31  H   LIG d   1       6.100  -3.095  -4.211  0.00  0.00     0.033 H 
BRANCH  29  32
ATOM     32  C   LIG d   1       4.300  -1.913  -4.273  0.00  0.00     0.004 C 
ATOM     33  H   LIG d   1       3.857  -1.793  -5.262  0.00  0.00     0.090 H 
ATOM     34  C   LIG d   1       5.292  -0.803  -4.036  0.00  0.00     0.007 A 
ATOM     35  C   LIG d   1       4.994   0.281  -3.238  0.00  0.00    -0.030 A 
ATOM     36  C   LIG d   1       6.534  -0.889  -4.647  0.00  0.00    -0.008 A 
ATOM     37  C   LIG d   1       5.935   1.282  -3.050  0.00  0.00    -0.013 A 
ATOM     38  C   LIG d   1       3.658   0.413  -2.551  0.00  0.00     0.013 C 
ATOM     39  C   LIG d   1       7.175   1.200  -3.656  0.00  0.00     0.159 A 
ATOM     40  H   LIG d   1       5.698   2.131  -2.425  0.00  0.00     0.066 H 
ATOM     41  C   LIG d   1       7.477   0.105  -4.462  0.00  0.00     0.162 A 
ATOM     42  C   LIG d   1       2.644  -0.535  -3.193  0.00  0.00    -0.029 C 
ATOM     43  H   LIG d   1       3.303   1.439  -2.645  0.00  0.00     0.036 H 
ATOM     44  H   LIG d   1       3.768   0.163  -1.496  0.00  0.00     0.036 H 
ATOM     45  H   LIG d   1       2.405  -0.189  -4.199  0.00  0.00     0.082 H 
ATOM     46  H   LIG d   1       1.738  -0.566  -2.588  0.00  0.00     0.082 H 
ATOM     47  N   LIG d   1       3.239  -1.883  -3.258  0.00  0.00     0.233 N 
ATOM     48  H   LIG d   1       3.637  -2.124  -2.343  0.00  0.00     0.202 HD
ATOM     49  H   LIG d   1       2.512  -2.564  -3.506  0.00  0.00     0.202 HD
ATOM     50  H   LIG d   1       6.769  -1.740  -5.271  0.00  0.00     0.066 H 
BRANCH  39  51
ATOM     51  O   LIG d   1       8.093   2.185  -3.470  0.00  0.00    -0.503 OA
ATOM     52  H   LIG d   1       7.709   3.043  -3.240  0.00  0.00     0.292 HD
ENDBRANCH  39  51
BRANCH  41  53
ATOM     53  O   LIG d   1       8.693   0.015  -5.062  0.00  0.00    -0.491 OA
BRANCH  53  54
ATOM     54  C   LIG d   1       9.261  -1.291  -5.186  0.00  0.00     0.079 C 
ATOM     55  H   LIG d   1      10.005  -1.439  -4.403  0.00  0.00     0.066 H 
ATOM     56  H   LIG d   1       8.475  -2.040  -5.086  0.00  0.00     0.066 H 
ATOM     57  H   LIG d   1       9.735  -1.390  -6.162  0.00  0.00     0.066 H 
ENDBRANCH  53  54
ENDBRANCH  41  53
ENDBRANCH  29  32
ENDBRANCH  15  29
BRANCH   1  58
ATOM     58  C   LIG d   1       7.057  -4.397  -5.934  0.00  0.00    -0.048 C 
ATOM     59  H   LIG d   1       6.937  -3.343  -5.683  0.00  0.00     0.027 H 
ATOM     60  H   LIG d   1       7.341  -4.491  -6.982  0.00  0.00     0.027 H 
BRANCH  58  61
ATOM     61  C   LIG d   1       8.146  -5.011  -5.053  0.00  0.00    -0.065 C 
ATOM     62  H   LIG d   1       7.832  -6.002  -4.725  0.00  0.00     0.023 H 
ATOM     63  H   LIG d   1       8.311  -4.376  -4.182  0.00  0.00     0.023 H 
ATOM     64  H   LIG d   1       9.071  -5.093  -5.623  0.00  0.00     0.023 H 
ENDBRANCH  58  61
ENDBRANCH   1  58
BRANCH   9  65
ATOM     65  O   LIG d   1       2.223  -0.062  -9.832  0.00  0.00    -0.491 OA
BRANCH  65  66
ATOM     66  C   LIG d   1       2.746   0.910  -8.924  0.00  0.00     0.079 C 
ATOM     67  H   LIG d   1       3.033   0.421  -7.993  0.00  0.00     0.066 H 
ATOM     68  H   LIG d   1       3.620   1.387  -9.368  0.00  0.00     0.066 H 
ATOM     69  H   LIG d   1       1.985   1.662  -8.720  0.00  0.00     0.066 H 
ENDBRANCH  65  66
ENDBRANCH   9  65
BRANCH   8  70
ATOM     70  O   LIG d   1       3.220  -0.745 -12.311  0.00  0.00    -0.491 OA
BRANCH  70  71
ATOM     71  C   LIG d   1       4.313  -0.546 -13.209  0.00  0.00     0.079 C 
ATOM     72  H   LIG d   1       4.464   0.522 -13.367  0.00  0.00     0.066 H 
ATOM     73  H   LIG d   1       5.217  -0.981 -12.784  0.00  0.00     0.066 H 
ATOM     74  H   LIG d   1       4.092  -1.026 -14.162  0.00  0.00     0.066 H 
ENDBRANCH  70  71
ENDBRANCH   8  70
TORSDOF 11
ENDMDL
MODEL 2
REMARK VINA RESULT:      -6.0      5.538     10.335
REMARK  11 active torsions:
REMARK  status: ('A' for Active; 'I' for Inactive)
REMARK    1  A    between atoms: C_1  and  C_2 
REMARK    2  A    between atoms: C_2  and  C_3 
REMARK    3  A    between atoms: C_10  and  O_35 
REMARK    4  A    between atoms: C_11  and  O_33 
REMARK    5  A    between atoms: C_17  and  C_19 
REMARK    6  A    between atoms: C_19  and  C_20 
REMARK    7  A    between atoms: C_24  and  O_31 
REMARK    8  A    between atoms: C_25  and  O_30 
REMARK    9  A    between atoms: O_31  and  C_32 
REMARK   10  A    between atoms: O_33  and  C_34 
REMARK   11  A    between atoms: O_35  and  C_36 
ROOT
ATOM      1  C   LIG d   1       9.660   2.861  -6.115  0.00  0.00     0.002 C 
ATOM      2  H   LIG d   1       9.225   2.067  -6.723  0.00  0.00     0.035 H 
ATOM      3  C   LIG d   1       9.473   4.205  -6.824  0.00  0.00    -0.028 C 
ATOM      4  C   LIG d   1      10.006   6.569  -6.684  0.00  0.00    -0.027 C 
ATOM      5  C   LIG d   1      10.925   7.540  -5.943  0.00  0.00     0.013 C 
ATOM      6  C   LIG d   1      10.602   7.535  -4.471  0.00  0.00    -0.030 A 
ATOM      7  C   LIG d   1      11.064   8.586  -3.691  0.00  0.00    -0.013 A 
ATOM      8  C   LIG d   1      10.796   8.621  -2.334  0.00  0.00     0.162 A 
ATOM      9  C   LIG d   1      10.058   7.595  -1.750  0.00  0.00     0.162 A 
ATOM     10  C   LIG d   1       9.598   6.551  -2.533  0.00  0.00    -0.007 A 
ATOM     11  C   LIG d   1       9.867   6.521  -3.894  0.00  0.00     0.007 A 
ATOM     12  C   LIG d   1       9.341   5.365  -4.702  0.00  0.00     0.006 C 
ATOM     13  H   LIG d   1       8.279   5.518  -4.890  0.00  0.00     0.090 H 
ATOM     14  C   LIG d   1       9.529   4.059  -3.928  0.00  0.00    -0.002 C 
ATOM     15  C   LIG d   1       8.961   2.901  -4.753  0.00  0.00    -0.023 C 
ATOM     16  H   LIG d   1       7.891   3.047  -4.898  0.00  0.00     0.031 H 
ATOM     17  H   LIG d   1       9.986   4.185  -7.784  0.00  0.00     0.082 H 
ATOM     18  H   LIG d   1       8.410   4.389  -6.982  0.00  0.00     0.082 H 
ATOM     19  H   LIG d   1       8.988   6.959  -6.689  0.00  0.00     0.082 H 
ATOM     20  H   LIG d   1      10.357   6.442  -7.708  0.00  0.00     0.082 H 
ATOM     21  H   LIG d   1      10.785   8.546  -6.340  0.00  0.00     0.036 H 
ATOM     22  H   LIG d   1      11.961   7.236  -6.087  0.00  0.00     0.036 H 
ATOM     23  H   LIG d   1      11.637   9.381  -4.146  0.00  0.00     0.066 H 
ATOM     24  H   LIG d   1       9.025   5.755  -2.081  0.00  0.00     0.066 H 
ATOM     25  H   LIG d   1       9.001   4.121  -2.976  0.00  0.00     0.033 H 
ATOM     26  H   LIG d   1      10.590   3.891  -3.746  0.00  0.00     0.033 H 
ATOM     27  N   LIG d   1      10.065   5.270  -5.981  0.00  0.00     0.241 N 
ATOM     28  H   LIG d   1      11.047   5.037  -5.793  0.00  0.00     0.204 HD
ENDROOT
BRANCH  15  29
ATOM     29  C   LIG d   1       9.202   1.582  -4.017  0.00  0.00    -0.002 C 
ATOM     30  H   LIG d   1      10.273   1.410  -3.919  0.00  0.00     0.033 H 
ATOM     31  H   LIG d   1       8.749   1.631  -3.027  0.00  0.00     0.033 H 
BRANCH  29  32
ATOM     32  C   LIG d   1       8.571   0.434  -4.810  0.00  0.00     0.004 C 
ATOM     33  H   LIG d   1       8.206   0.814  -5.764  0.00  0.00     0.090 H 
ATOM     34  C   LIG d   1       7.416  -0.135  -4.027  0.00  0.00     0.007 A 
ATOM     35  C   LIG d   1       7.201  -1.493  -3.932  0.00  0.00    -0.030 A 
ATOM     36  C   LIG d   1       6.554   0.747  -3.391  0.00  0.00    -0.008 A 
ATOM     37  C   LIG d   1       6.122  -1.974  -3.204  0.00  0.00    -0.013 A 
ATOM     38  C   LIG d   1       8.114  -2.487  -4.602  0.00  0.00     0.013 C 
ATOM     39  C   LIG d   1       5.260  -1.099  -2.569  0.00  0.00     0.159 A 
ATOM     40  H   LIG d   1       5.955  -3.039  -3.133  0.00  0.00     0.066 H 
ATOM     41  C   LIG d   1       5.478   0.273  -2.663  0.00  0.00     0.162 A 
ATOM     42  C   LIG d   1       8.961  -1.785  -5.664  0.00  0.00    -0.029 C 
ATOM     43  H   LIG d   1       7.517  -3.267  -5.074  0.00  0.00     0.036 H 
ATOM     44  H   LIG d   1       8.769  -2.936  -3.856  0.00  0.00     0.036 H 
ATOM     45  H   LIG d   1       8.326  -1.480  -6.496  0.00  0.00     0.082 H 
ATOM     46  H   LIG d   1       9.737  -2.463  -6.021  0.00  0.00     0.082 H 
ATOM     47  N   LIG d   1       9.588  -0.598  -5.054  0.00  0.00     0.233 N 
ATOM     48  H   LIG d   1      10.024  -0.862  -4.163  0.00  0.00     0.202 HD
ATOM     49  H   LIG d   1      10.303  -0.226  -5.689  0.00  0.00     0.202 HD
ATOM     50  H   LIG d   1       6.724   1.812  -3.465  0.00  0.00     0.066 H 
BRANCH  39  51
ATOM     51  O   LIG d   1       4.204  -1.576  -1.858  0.00  0.00    -0.503 OA
ATOM     52  H   LIG d   1       3.745  -0.902  -1.337  0.00  0.00     0.292 HD
ENDBRANCH  39  51
BRANCH  41  53
ATOM     53  O   LIG d   1       4.637   1.141  -2.042  0.00  0.00    -0.491 OA
BRANCH  53  54
ATOM     54  C   LIG d   1       3.563   1.675  -2.821  0.00  0.00     0.079 C 
ATOM     55  H   LIG d   1       2.613   1.329  -2.414  0.00  0.00     0.066 H 
ATOM     56  H   LIG d   1       3.597   2.763  -2.790  0.00  0.00     0.066 H 
ATOM     57  H   LIG d   1       3.662   1.338  -3.853  0.00  0.00     0.066 H 
ENDBRANCH  53  54
ENDBRANCH  41  53
ENDBRANCH  29  32
ENDBRANCH  15  29
BRANCH   1  58
ATOM     58  C   LIG d   1      11.152   2.592  -5.915  0.00  0.00    -0.048 C 
ATOM     59  H   LIG d   1      11.308   2.107  -4.951  0.00  0.00     0.027 H 
ATOM     60  H   LIG d   1      11.697   3.536  -5.939  0.00  0.00     0.027 H 
BRANCH  58  61
ATOM     61  C   LIG d   1      11.661   1.680  -7.033  0.00  0.00    -0.065 C 
ATOM     62  H   LIG d   1      11.679   0.649  -6.681  0.00  0.00     0.023 H 
ATOM     63  H   LIG d   1      12.668   1.984  -7.320  0.00  0.00     0.023 H 
ATOM     64  H   LIG d   1      10.998   1.758  -7.895  0.00  0.00     0.023 H 
ENDBRANCH  58  61
ENDBRANCH   1  58
BRANCH   9  65
ATOM     65  O   LIG d   1       9.791   7.619  -0.417  0.00  0.00    -0.491 OA
BRANCH  65  66
ATOM     66  C   LIG d   1      10.735   6.982   0.445  0.00  0.00     0.079 C 
ATOM     67  H   LIG d   1      10.935   5.972   0.084  0.00  0.00     0.066 H 
ATOM     68  H   LIG d   1      11.662   7.554   0.455  0.00  0.00     0.066 H 
ATOM     69  H   LIG d   1      10.328   6.931   1.455  0.00  0.00     0.066 H 
ENDBRANCH  65  66
ENDBRANCH   9  65
BRANCH   8  70
ATOM     70  O   LIG d   1      11.251   9.653  -1.574  0.00  0.00    -0.491 OA
BRANCH  70  71
ATOM     71  C   LIG d   1      10.604  10.916  -1.741  0.00  0.00     0.079 C 
ATOM     72  H   LIG d   1      10.444  11.105  -2.802  0.00  0.00     0.066 H 
ATOM     73  H   LIG d   1       9.645  10.904  -1.225  0.00  0.00     0.066 H 
ATOM     74  H   LIG d   1      11.231  11.703  -1.323  0.00  0.00     0.066 H 
ENDBRANCH  70  71
ENDBRANCH   8  70
TORSDOF 11
ENDMDL
MODEL 3
REMARK VINA RESULT:      -5.9      3.128      5.326
REMARK  11 active torsions:
REMARK  status: ('A' for Active; 'I' for Inactive)
REMARK    1  A    between atoms: C_1  and  C_2 
REMARK    2  A    between atoms: C_2  and  C_3 
REMARK    3  A    between atoms: C_10  and  O_35 
REMARK    4  A    between atoms: C_11  and  O_33 
REMARK    5  A    between atoms: C_17  and  C_19 
REMARK    6  A    between atoms: C_19  and  C_20 
REMARK    7  A    between atoms: C_24  and  O_31 
REMARK    8  A    between atoms: C_25  and  O_30 
REMARK    9  A    between atoms: O_31  and  C_32 
REMARK   10  A    between atoms: O_33  and  C_34 
REMARK   11  A    between atoms: O_35  and  C_36 
ROOT
ATOM      1  C   LIG d   1       4.641   0.689  -9.374  0.00  0.00     0.002 C 
ATOM      2  H   LIG d   1       5.293   1.555  -9.489  0.00  0.00     0.035 H 
ATOM      3  C   LIG d   1       3.951   0.390 -10.708  0.00  0.00    -0.028 C 
ATOM      4  C   LIG d   1       2.303  -1.043 -11.768  0.00  0.00    -0.027 C 
ATOM      5  C   LIG d   1       1.183  -2.026 -11.425  0.00  0.00     0.013 C 
ATOM      6  C   LIG d   1       1.750  -3.224 -10.706  0.00  0.00    -0.030 A 
ATOM      7  C   LIG d   1       0.975  -4.372 -10.627  0.00  0.00    -0.013 A 
ATOM      8  C   LIG d   1       1.452  -5.494  -9.974  0.00  0.00     0.162 A 
ATOM      9  C   LIG d   1       2.717  -5.469  -9.393  0.00  0.00     0.162 A 
ATOM     10  C   LIG d   1       3.485  -4.322  -9.476  0.00  0.00    -0.007 A 
ATOM     11  C   LIG d   1       3.005  -3.199 -10.135  0.00  0.00     0.007 A 
ATOM     12  C   LIG d   1       3.881  -1.977 -10.201  0.00  0.00     0.006 C 
ATOM     13  H   LIG d   1       4.644  -2.129 -10.964  0.00  0.00     0.090 H 
ATOM     14  C   LIG d   1       4.564  -1.752  -8.850  0.00  0.00    -0.002 C 
ATOM     15  C   LIG d   1       5.473  -0.523  -8.947  0.00  0.00    -0.023 C 
ATOM     16  H   LIG d   1       6.254  -0.706  -9.684  0.00  0.00     0.031 H 
ATOM     17  H   LIG d   1       3.343   1.244 -11.004  0.00  0.00     0.082 H 
ATOM     18  H   LIG d   1       4.704   0.196 -11.472  0.00  0.00     0.082 H 
ATOM     19  H   LIG d   1       2.943  -1.471 -12.541  0.00  0.00     0.082 H 
ATOM     20  H   LIG d   1       1.872  -0.107 -12.122  0.00  0.00     0.082 H 
ATOM     21  H   LIG d   1       0.695  -2.353 -12.343  0.00  0.00     0.036 H 
ATOM     22  H   LIG d   1       0.455  -1.531 -10.783  0.00  0.00     0.036 H 
ATOM     23  H   LIG d   1      -0.006  -4.390 -11.079  0.00  0.00     0.066 H 
ATOM     24  H   LIG d   1       4.467  -4.301  -9.026  0.00  0.00     0.066 H 
ATOM     25  H   LIG d   1       5.160  -2.627  -8.593  0.00  0.00     0.033 H 
ATOM     26  H   LIG d   1       3.808  -1.586  -8.082  0.00  0.00     0.033 H 
ATOM     27  N   LIG d   1       3.074  -0.791 -10.532  0.00  0.00     0.241 N 
ATOM     28  H   LIG d   1       2.420  -0.607  -9.763  0.00  0.00     0.204 HD
ENDROOT
BRANCH  15  29
ATOM     29  C   LIG d   1       6.110  -0.250  -7.583  0.00  0.00    -0.002 C 
ATOM     30  H   LIG d   1       7.073   0.241  -7.724  0.00  0.00     0.033 H 
ATOM     31  H   LIG d   1       5.455   0.396  -6.999  0.00  0.00     0.033 H 
BRANCH  29  32
ATOM     32  C   LIG d   1       6.315  -1.573  -6.842  0.00  0.00     0.004 C 
ATOM     33  H   LIG d   1       5.745  -2.357  -7.341  0.00  0.00     0.090 H 
ATOM     34  C   LIG d   1       5.827  -1.429  -5.424  0.00  0.00     0.007 A 
ATOM     35  C   LIG d   1       6.530  -1.947  -4.357  0.00  0.00    -0.030 A 
ATOM     36  C   LIG d   1       4.634  -0.757  -5.204  0.00  0.00    -0.008 A 
ATOM     37  C   LIG d   1       6.042  -1.795  -3.067  0.00  0.00    -0.013 A 
ATOM     38  C   LIG d   1       7.832  -2.681  -4.549  0.00  0.00     0.013 C 
ATOM     39  C   LIG d   1       4.853  -1.125  -2.843  0.00  0.00     0.159 A 
ATOM     40  H   LIG d   1       6.594  -2.203  -2.233  0.00  0.00     0.066 H 
ATOM     41  C   LIG d   1       4.144  -0.602  -3.920  0.00  0.00     0.162 A 
ATOM     42  C   LIG d   1       7.985  -3.099  -6.012  0.00  0.00    -0.029 C 
ATOM     43  H   LIG d   1       7.845  -3.568  -3.916  0.00  0.00     0.036 H 
ATOM     44  H   LIG d   1       8.659  -2.027  -4.273  0.00  0.00     0.036 H 
ATOM     45  H   LIG d   1       7.261  -3.879  -6.247  0.00  0.00     0.082 H 
ATOM     46  H   LIG d   1       8.996  -3.470  -6.184  0.00  0.00     0.082 H 
ATOM     47  N   LIG d   1       7.742  -1.921  -6.865  0.00  0.00     0.233 N 
ATOM     48  H   LIG d   1       8.291  -1.127  -6.514  0.00  0.00     0.202 HD
ATOM     49  H   LIG d   1       8.025  -2.134  -7.828  0.00  0.00     0.202 HD
ATOM     50  H   LIG d   1       4.084  -0.350  -6.040  0.00  0.00     0.066 H 
BRANCH  39  51
ATOM     51  O   LIG d   1       4.379  -0.981  -1.577  0.00  0.00    -0.503 OA
ATOM     52  H   LIG d   1       5.070  -0.931  -0.901  0.00  0.00     0.292 HD
ENDBRANCH  39  51
BRANCH  41  53
ATOM     53  O   LIG d   1       2.974   0.059  -3.710  0.00  0.00    -0.491 OA
BRANCH  53  54
ATOM     54  C   LIG d   1       2.279   0.533  -4.867  0.00  0.00     0.079 C 
ATOM     55  H   LIG d   1       1.775  -0.301  -5.353  0.00  0.00     0.066 H 
ATOM     56  H   LIG d   1       1.544   1.279  -4.568  0.00  0.00     0.066 H 
ATOM     57  H   LIG d   1       2.992   0.982  -5.559  0.00  0.00     0.066 H 
ENDBRANCH  53  54
ENDBRANCH  41  53
ENDBRANCH  29  32
ENDBRANCH  15  29
BRANCH   1  58
ATOM     58  C   LIG d   1       3.585   0.984  -8.308  0.00  0.00    -0.048 C 
ATOM     59  H   LIG d   1       4.060   1.032  -7.328  0.00  0.00     0.027 H 
ATOM     60  H   LIG d   1       2.836   0.192  -8.310  0.00  0.00     0.027 H 
BRANCH  58  61
ATOM     61  C   LIG d   1       2.911   2.323  -8.614  0.00  0.00    -0.065 C 
ATOM     62  H   LIG d   1       2.279   2.218  -9.496  0.00  0.00     0.023 H 
ATOM     63  H   LIG d   1       3.673   3.079  -8.802  0.00  0.00     0.023 H 
ATOM     64  H   LIG d   1       2.301   2.626  -7.764  0.00  0.00     0.023 H 
ENDBRANCH  58  61
ENDBRANCH   1  58
BRANCH   9  65
ATOM     65  O   LIG d   1       3.194  -6.566  -8.746  0.00  0.00    -0.491 OA
BRANCH  65  66
ATOM     66  C   LIG d   1       4.244  -6.356  -7.800  0.00  0.00     0.079 C 
ATOM     67  H   LIG d   1       3.865  -6.529  -6.793  0.00  0.00     0.066 H 
ATOM     68  H   LIG d   1       5.061  -7.047  -8.005  0.00  0.00     0.066 H 
ATOM     69  H   LIG d   1       4.606  -5.331  -7.881  0.00  0.00     0.066 H 
ENDBRANCH  65  66
ENDBRANCH   9  65
BRANCH   8  70
ATOM     70  O   LIG d   1       0.688  -6.618  -9.900  0.00  0.00    -0.491 OA
BRANCH  70  71
ATOM     71  C   LIG d   1      -0.723  -6.453 -10.042  0.00  0.00     0.079 C 
ATOM     72  H   LIG d   1      -1.176  -6.330  -9.059  0.00  0.00     0.066 H 
ATOM     73  H   LIG d   1      -0.927  -5.572 -10.649  0.00  0.00     0.066 H 
ATOM     74  H   LIG d   1      -1.145  -7.334 -10.527  0.00  0.00     0.066 H 
ENDBRANCH  70  71
ENDBRANCH   8  70
TORSDOF 11
ENDMDL
MODEL 4
REMARK VINA RESULT:      -5.7      6.967     10.326
REMARK  11 active torsions:
REMARK  status: ('A' for Active; 'I' for Inactive)
REMARK    1  A    between atoms: C_1  and  C_2 
REMARK    2  A    between atoms: C_2  and  C_3 
REMARK    3  A    between atoms: C_10  and  O_35 
REMARK    4  A    between atoms: C_11  and  O_33 
REMARK    5  A    between atoms: C_17  and  C_19 
REMARK    6  A    between atoms: C_19  and  C_20 
REMARK    7  A    between atoms: C_24  and  O_31 
REMARK    8  A    between atoms: C_25  and  O_30 
REMARK    9  A    between atoms: O_31  and  C_32 
REMARK   10  A    between atoms: O_33  and  C_34 
REMARK   11  A    between atoms: O_35  and  C_36 
ROOT
ATOM      1  C   LIG d   1      10.419   6.703  -5.081  0.00  0.00     0.002 C 
ATOM      2  H   LIG d   1      11.117   7.525  -4.917  0.00  0.00     0.035 H 
ATOM      3  C   LIG d   1      11.062   5.666  -6.005  0.00  0.00    -0.028 C 
ATOM      4  C   LIG d   1      10.642   3.589  -7.191  0.00  0.00    -0.027 C 
ATOM      5  C   LIG d   1       9.494   2.678  -7.625  0.00  0.00     0.013 C 
ATOM      6  C   LIG d   1       8.792   2.118  -6.414  0.00  0.00    -0.030 A 
ATOM      7  C   LIG d   1       7.970   1.013  -6.580  0.00  0.00    -0.013 A 
ATOM      8  C   LIG d   1       7.303   0.468  -5.498  0.00  0.00     0.162 A 
ATOM      9  C   LIG d   1       7.457   1.034  -4.236  0.00  0.00     0.162 A 
ATOM     10  C   LIG d   1       8.279   2.135  -4.076  0.00  0.00    -0.007 A 
ATOM     11  C   LIG d   1       8.949   2.678  -5.163  0.00  0.00     0.007 A 
ATOM     12  C   LIG d   1       9.834   3.873  -4.935  0.00  0.00     0.006 C 
ATOM     13  H   LIG d   1      10.772   3.541  -4.491  0.00  0.00     0.090 H 
ATOM     14  C   LIG d   1       9.149   4.855  -3.981  0.00  0.00    -0.002 C 
ATOM     15  C   LIG d   1      10.078   6.048  -3.740  0.00  0.00    -0.023 C 
ATOM     16  H   LIG d   1      10.994   5.706  -3.258  0.00  0.00     0.031 H 
ATOM     17  H   LIG d   1      11.288   6.124  -6.967  0.00  0.00     0.082 H 
ATOM     18  H   LIG d   1      11.982   5.295  -5.553  0.00  0.00     0.082 H 
ATOM     19  H   LIG d   1      11.436   2.991  -6.743  0.00  0.00     0.082 H 
ATOM     20  H   LIG d   1      11.029   4.128  -8.055  0.00  0.00     0.082 H 
ATOM     21  H   LIG d   1       9.890   1.858  -8.224  0.00  0.00     0.036 H 
ATOM     22  H   LIG d   1       8.784   3.252  -8.220  0.00  0.00     0.036 H 
ATOM     23  H   LIG d   1       7.852   0.575  -7.560  0.00  0.00     0.066 H 
ATOM     24  H   LIG d   1       8.400   2.575  -3.097  0.00  0.00     0.066 H 
ATOM     25  H   LIG d   1       8.942   4.357  -3.034  0.00  0.00     0.033 H 
ATOM     26  H   LIG d   1       8.216   5.202  -4.424  0.00  0.00     0.033 H 
ATOM     27  N   LIG d   1      10.102   4.556  -6.212  0.00  0.00     0.241 N 
ATOM     28  H   LIG d   1       9.223   4.943  -6.575  0.00  0.00     0.204 HD
ENDROOT
BRANCH  15  29
ATOM     29  C   LIG d   1       9.377   7.067  -2.839  0.00  0.00    -0.002 C 
ATOM     30  H   LIG d   1       8.428   7.359  -3.289  0.00  0.00     0.033 H 
ATOM     31  H   LIG d   1       9.194   6.622  -1.861  0.00  0.00     0.033 H 
BRANCH  29  32
ATOM     32  C   LIG d   1      10.266   8.302  -2.678  0.00  0.00     0.004 C 
ATOM     33  H   LIG d   1      11.151   8.192  -3.306  0.00  0.00     0.090 H 
ATOM     34  C   LIG d   1      10.690   8.426  -1.238  0.00  0.00     0.007 A 
ATOM     35  C   LIG d   1      10.707   9.641  -0.586  0.00  0.00    -0.030 A 
ATOM     36  C   LIG d   1      11.074   7.275  -0.564  0.00  0.00    -0.008 A 
ATOM     37  C   LIG d   1      11.109   9.710   0.740  0.00  0.00    -0.013 A 
ATOM     38  C   LIG d   1      10.295  10.915  -1.278  0.00  0.00     0.013 C 
ATOM     39  C   LIG d   1      11.491   8.566   1.416  0.00  0.00     0.159 A 
ATOM     40  H   LIG d   1      11.122  10.663   1.247  0.00  0.00     0.066 H 
ATOM     41  C   LIG d   1      11.473   7.339   0.758  0.00  0.00     0.162 A 
ATOM     42  C   LIG d   1      10.293  10.709  -2.794  0.00  0.00    -0.029 C 
ATOM     43  H   LIG d   1      10.996  11.709  -1.022  0.00  0.00     0.036 H 
ATOM     44  H   LIG d   1       9.294  11.196  -0.951  0.00  0.00     0.036 H 
ATOM     45  H   LIG d   1      11.317  10.592  -3.149  0.00  0.00     0.082 H 
ATOM     46  H   LIG d   1       9.829  11.568  -3.279  0.00  0.00     0.082 H 
ATOM     47  N   LIG d   1       9.517   9.493  -3.101  0.00  0.00     0.233 N 
ATOM     48  H   LIG d   1       8.620   9.526  -2.601  0.00  0.00     0.202 HD
ATOM     49  H   LIG d   1       9.344   9.446  -4.111  0.00  0.00     0.202 HD
ATOM     50  H   LIG d   1      11.059   6.323  -1.074  0.00  0.00     0.066 H 
BRANCH  39  51
ATOM     51  O   LIG d   1      11.885   8.639   2.715  0.00  0.00    -0.503 OA
ATOM     52  H   LIG d   1      11.650   9.471   3.151  0.00  0.00     0.292 HD
ENDBRANCH  39  51
BRANCH  41  53
ATOM     53  O   LIG d   1      11.847   6.208   1.414  0.00  0.00    -0.491 OA
BRANCH  53  54
ATOM     54  C   LIG d   1      10.827   5.505   2.128  0.00  0.00     0.079 C 
ATOM     55  H   LIG d   1      10.698   5.953   3.113  0.00  0.00     0.066 H 
ATOM     56  H   LIG d   1       9.890   5.565   1.576  0.00  0.00     0.066 H 
ATOM     57  H   LIG d   1      11.117   4.460   2.239  0.00  0.00     0.066 H 
ENDBRANCH  53  54
ENDBRANCH  41  53
ENDBRANCH  29  32
ENDBRANCH  15  29
BRANCH   1  58
ATOM     58  C   LIG d   1       9.141   7.240  -5.727  0.00  0.00    -0.048 C 
ATOM     59  H   LIG d   1       8.428   7.513  -4.949  0.00  0.00     0.027 H 
ATOM     60  H   LIG d   1       8.706   6.471  -6.365  0.00  0.00     0.027 H 
BRANCH  58  61
ATOM     61  C   LIG d   1       9.475   8.473  -6.570  0.00  0.00    -0.065 C 
ATOM     62  H   LIG d   1       8.931   8.425  -7.514  0.00  0.00     0.023 H 
ATOM     63  H   LIG d   1      10.546   8.498  -6.769  0.00  0.00     0.023 H 
ATOM     64  H   LIG d   1       9.185   9.373  -6.029  0.00  0.00     0.023 H 
ENDBRANCH  58  61
ENDBRANCH   1  58
BRANCH   9  65
ATOM     65  O   LIG d   1       6.804   0.508  -3.166  0.00  0.00    -0.491 OA
BRANCH  65  66
ATOM     66  C   LIG d   1       5.522   1.057  -2.854  0.00  0.00     0.079 C 
ATOM     67  H   LIG d   1       5.056   0.467  -2.065  0.00  0.00     0.066 H 
ATOM     68  H   LIG d   1       5.640   2.087  -2.517  0.00  0.00     0.066 H 
ATOM     69  H   LIG d   1       4.892   1.036  -3.743  0.00  0.00     0.066 H 
ENDBRANCH  65  66
ENDBRANCH   9  65
BRANCH   8  70
ATOM     70  O   LIG d   1       6.499  -0.617  -5.667  0.00  0.00    -0.491 OA
BRANCH  70  71
ATOM     71  C   LIG d   1       5.298  -0.424  -6.417  0.00  0.00     0.079 C 
ATOM     72  H   LIG d   1       4.507  -0.076  -5.754  0.00  0.00     0.066 H 
ATOM     73  H   LIG d   1       5.472   0.318  -7.196  0.00  0.00     0.066 H 
ATOM     74  H   LIG d   1       5.001  -1.367  -6.874  0.00  0.00     0.066 H 
ENDBRANCH  70  71
ENDBRANCH   8  70
TORSDOF 11
ENDMDL
MODEL 5
REMARK VINA RESULT:      -5.6      6.257      9.519
REMARK  11 active torsions:
REMARK  status: ('A' for Active; 'I' for Inactive)
REMARK    1  A    between atoms: C_1  and  C_2 
REMARK    2  A    between atoms: C_2  and  C_3 
REMARK    3  A    between atoms: C_10  and  O_35 
REMARK    4  A    between atoms: C_11  and  O_33 
REMARK    5  A    between atoms: C_17  and  C_19 
REMARK    6  A    between atoms: C_19  and  C_20 
REMARK    7  A    between atoms: C_24  and  O_31 
REMARK    8  A    between atoms: C_25  and  O_30 
REMARK    9  A    between atoms: O_31  and  C_32 
REMARK   10  A    between atoms: O_33  and  C_34 
REMARK   11  A    between atoms: O_35  and  C_36 
ROOT
ATOM      1  C   LIG d   1      10.942   4.859  -5.061  0.00  0.00     0.002 C 
ATOM      2  H   LIG d   1      11.841   5.466  -4.947  0.00  0.00     0.035 H 
ATOM      3  C   LIG d   1      11.310   3.522  -5.709  0.00  0.00    -0.028 C 
ATOM      4  C   LIG d   1      10.374   1.457  -6.579  0.00  0.00    -0.027 C 
ATOM      5  C   LIG d   1       9.040   0.840  -7.001  0.00  0.00     0.013 C 
ATOM      6  C   LIG d   1       8.114   0.751  -5.815  0.00  0.00    -0.030 A 
ATOM      7  C   LIG d   1       7.012  -0.088  -5.901  0.00  0.00    -0.013 A 
ATOM      8  C   LIG d   1       6.133  -0.199  -4.839  0.00  0.00     0.162 A 
ATOM      9  C   LIG d   1       6.356   0.538  -3.679  0.00  0.00     0.162 A 
ATOM     10  C   LIG d   1       7.456   1.371  -3.599  0.00  0.00    -0.007 A 
ATOM     11  C   LIG d   1       8.338   1.478  -4.665  0.00  0.00     0.007 A 
ATOM     12  C   LIG d   1       9.523   2.396  -4.526  0.00  0.00     0.006 C 
ATOM     13  H   LIG d   1      10.281   1.906  -3.915  0.00  0.00     0.090 H 
ATOM     14  C   LIG d   1       9.096   3.698  -3.844  0.00  0.00    -0.002 C 
ATOM     15  C   LIG d   1      10.320   4.604  -3.686  0.00  0.00    -0.023 C 
ATOM     16  H   LIG d   1      11.051   4.119  -3.040  0.00  0.00     0.031 H 
ATOM     17  H   LIG d   1      11.735   3.700  -6.697  0.00  0.00     0.082 H 
ATOM     18  H   LIG d   1      12.039   3.003  -5.087  0.00  0.00     0.082 H 
ATOM     19  H   LIG d   1      10.915   0.760  -5.939  0.00  0.00     0.082 H 
ATOM     20  H   LIG d   1      10.969   1.684  -7.463  0.00  0.00     0.082 H 
ATOM     21  H   LIG d   1       9.214  -0.159  -7.400  0.00  0.00     0.036 H 
ATOM     22  H   LIG d   1       8.584   1.462  -7.770  0.00  0.00     0.036 H 
ATOM     23  H   LIG d   1       6.841  -0.659  -6.802  0.00  0.00     0.066 H 
ATOM     24  H   LIG d   1       7.631   1.943  -2.699  0.00  0.00     0.066 H 
ATOM     25  H   LIG d   1       8.678   3.475  -2.863  0.00  0.00     0.033 H 
ATOM     26  H   LIG d   1       8.347   4.201  -4.455  0.00  0.00     0.033 H 
ATOM     27  N   LIG d   1      10.079   2.710  -5.852  0.00  0.00     0.241 N 
ATOM     28  H   LIG d   1       9.387   3.250  -6.385  0.00  0.00     0.204 HD
ENDROOT
BRANCH  15  29
ATOM     29  C   LIG d   1       9.893   5.936  -3.065  0.00  0.00    -0.002 C 
ATOM     30  H   LIG d   1      10.545   6.731  -3.424  0.00  0.00     0.033 H 
ATOM     31  H   LIG d   1       8.863   6.155  -3.347  0.00  0.00     0.033 H 
BRANCH  29  32
ATOM     32  C   LIG d   1       9.994   5.843  -1.540  0.00  0.00     0.004 C 
ATOM     33  H   LIG d   1       9.089   5.378  -1.148  0.00  0.00     0.090 H 
ATOM     34  C   LIG d   1      10.131   7.229  -0.966  0.00  0.00     0.007 A 
ATOM     35  C   LIG d   1      11.014   7.509   0.055  0.00  0.00    -0.030 A 
ATOM     36  C   LIG d   1       9.337   8.239  -1.488  0.00  0.00    -0.008 A 
ATOM     37  C   LIG d   1      11.105   8.798   0.558  0.00  0.00    -0.013 A 
ATOM     38  C   LIG d   1      11.898   6.443   0.650  0.00  0.00     0.013 C 
ATOM     39  C   LIG d   1      10.316   9.809   0.040  0.00  0.00     0.159 A 
ATOM     40  H   LIG d   1      11.796   9.015   1.359  0.00  0.00     0.066 H 
ATOM     41  C   LIG d   1       9.424   9.527  -0.992  0.00  0.00     0.162 A 
ATOM     42  C   LIG d   1      11.373   5.057   0.273  0.00  0.00    -0.029 C 
ATOM     43  H   LIG d   1      11.907   6.543   1.735  0.00  0.00     0.036 H 
ATOM     44  H   LIG d   1      12.912   6.561   0.269  0.00  0.00     0.036 H 
ATOM     45  H   LIG d   1      10.431   4.870   0.790  0.00  0.00     0.082 H 
ATOM     46  H   LIG d   1      12.105   4.299   0.553  0.00  0.00     0.082 H 
ATOM     47  N   LIG d   1      11.157   5.019  -1.185  0.00  0.00     0.233 N 
ATOM     48  H   LIG d   1      11.990   5.383  -1.662  0.00  0.00     0.202 HD
ATOM     49  H   LIG d   1      10.990   4.049  -1.479  0.00  0.00     0.202 HD
ATOM     50  H   LIG d   1       8.646   8.020  -2.290  0.00  0.00     0.066 H 
BRANCH  39  51
ATOM     51  O   LIG d   1      10.408  11.071   0.537  0.00  0.00    -0.503 OA
ATOM     52  H   LIG d   1      10.340  11.120   1.501  0.00  0.00     0.292 HD
ENDBRANCH  39  51
BRANCH  41  53
ATOM     53  O   LIG d   1       8.645  10.513  -1.509  0.00  0.00    -0.491 OA
BRANCH  53  54
ATOM     54  C   LIG d   1       9.091  11.126  -2.721  0.00  0.00     0.079 C 
ATOM     55  H   LIG d   1       9.121  10.379  -3.515  0.00  0.00     0.066 H 
ATOM     56  H   LIG d   1       8.405  11.924  -3.000  0.00  0.00     0.066 H 
ATOM     57  H   LIG d   1      10.089  11.539  -2.573  0.00  0.00     0.066 H 
ENDBRANCH  53  54
ENDBRANCH  41  53
ENDBRANCH  29  32
ENDBRANCH  15  29
BRANCH   1  58
ATOM     58  C   LIG d   1       9.937   5.597  -5.947  0.00  0.00    -0.048 C 
ATOM     59  H   LIG d   1       9.510   6.432  -5.394  0.00  0.00     0.027 H 
ATOM     60  H   LIG d   1       9.143   4.912  -6.243  0.00  0.00     0.027 H 
BRANCH  58  61
ATOM     61  C   LIG d   1      10.648   6.122  -7.196  0.00  0.00    -0.065 C 
ATOM     62  H   LIG d   1      10.313   7.138  -7.405  0.00  0.00     0.023 H 
ATOM     63  H   LIG d   1      10.413   5.481  -8.046  0.00  0.00     0.023 H 
ATOM     64  H   LIG d   1      11.725   6.123  -7.028  0.00  0.00     0.023 H 
ENDBRANCH  58  61
ENDBRANCH   1  58
BRANCH   9  65
ATOM     65  O   LIG d   1       5.495   0.438  -2.631  0.00  0.00    -0.491 OA
BRANCH  65  66
ATOM     66  C   LIG d   1       4.396   1.351  -2.604  0.00  0.00     0.079 C 
ATOM     67  H   LIG d   1       3.585   0.926  -2.012  0.00  0.00     0.066 H 
ATOM     68  H   LIG d   1       4.717   2.292  -2.160  0.00  0.00     0.066 H 
ATOM     69  H   LIG d   1       4.048   1.529  -3.621  0.00  0.00     0.066 H 
ENDBRANCH  65  66
ENDBRANCH   9  65
BRANCH   8  70
ATOM     70  O   LIG d   1       5.054  -1.024  -4.929  0.00  0.00    -0.491 OA
BRANCH  70  71
ATOM     71  C   LIG d   1       4.012  -0.634  -5.825  0.00  0.00     0.079 C 
ATOM     72  H   LIG d   1       3.703  -1.494  -6.419  0.00  0.00     0.066 H 
ATOM     73  H   LIG d   1       3.162  -0.262  -5.254  0.00  0.00     0.066 H 
ATOM     74  H   LIG d   1       4.377   0.151  -6.487  0.00  0.00     0.066 H 
ENDBRANCH  70  71
ENDBRANCH   8  70
TORSDOF 11
ENDMDL
MODEL 6
REMARK VINA RESULT:      -5.6      9.433     11.900
REMARK  11 active torsions:
REMARK  status: ('A' for Active; 'I' for Inactive)
REMARK    1  A    between atoms: C_1  and  C_2 
REMARK    2  A    between atoms: C_2  and  C_3 
REMARK    3  A    between atoms: C_10  and  O_35 
REMARK    4  A    between atoms: C_11  and  O_33 
REMARK    5  A    between atoms: C_17  and  C_19 
REMARK    6  A    between atoms: C_19  and  C_20 
REMARK    7  A    between atoms: C_24  and  O_31 
REMARK    8  A    between atoms: C_25  and  O_30 
REMARK    9  A    between atoms: O_31  and  C_32 
REMARK   10  A    between atoms: O_33  and  C_34 
REMARK   11  A    between atoms: O_35  and  C_36 
ROOT
ATOM      1  C   LIG d   1       9.934   4.712  -3.286  0.00  0.00     0.002 C 
ATOM      2  H   LIG d   1       9.555   3.984  -2.568  0.00  0.00     0.035 H 
ATOM      3  C   LIG d   1       9.578   4.260  -4.705  0.00  0.00    -0.028 C 
ATOM      4  C   LIG d   1       9.873   4.804  -7.052  0.00  0.00    -0.027 C 
ATOM      5  C   LIG d   1      10.722   5.680  -7.974  0.00  0.00     0.013 C 
ATOM      6  C   LIG d   1      10.470   7.136  -7.677  0.00  0.00    -0.030 A 
ATOM      7  C   LIG d   1      10.859   8.078  -8.619  0.00  0.00    -0.013 A 
ATOM      8  C   LIG d   1      10.653   9.426  -8.387  0.00  0.00     0.162 A 
ATOM      9  C   LIG d   1      10.052   9.838  -7.201  0.00  0.00     0.162 A 
ATOM     10  C   LIG d   1       9.665   8.895  -6.266  0.00  0.00    -0.007 A 
ATOM     11  C   LIG d   1       9.871   7.543  -6.503  0.00  0.00     0.007 A 
ATOM     12  C   LIG d   1       9.428   6.557  -5.456  0.00  0.00     0.006 C 
ATOM     13  H   LIG d   1       8.348   6.429  -5.523  0.00  0.00     0.090 H 
ATOM     14  C   LIG d   1       9.785   7.081  -4.063  0.00  0.00    -0.002 C 
ATOM     15  C   LIG d   1       9.300   6.078  -3.012  0.00  0.00    -0.023 C 
ATOM     16  H   LIG d   1       8.215   5.991  -3.064  0.00  0.00     0.031 H 
ATOM     17  H   LIG d   1      10.045   3.297  -4.909  0.00  0.00     0.082 H 
ATOM     18  H   LIG d   1       8.496   4.167  -4.797  0.00  0.00     0.082 H 
ATOM     19  H   LIG d   1       8.821   4.897  -7.324  0.00  0.00     0.082 H 
ATOM     20  H   LIG d   1      10.187   3.764  -7.145  0.00  0.00     0.082 H 
ATOM     21  H   LIG d   1      10.461   5.473  -9.012  0.00  0.00     0.036 H 
ATOM     22  H   LIG d   1      11.776   5.456  -7.814  0.00  0.00     0.036 H 
ATOM     23  H   LIG d   1      11.325   7.756  -9.538  0.00  0.00     0.066 H 
ATOM     24  H   LIG d   1       9.198   9.213  -5.346  0.00  0.00     0.066 H 
ATOM     25  H   LIG d   1       9.298   8.042  -3.901  0.00  0.00     0.033 H 
ATOM     26  H   LIG d   1      10.865   7.199  -3.983  0.00  0.00     0.033 H 
ATOM     27  N   LIG d   1      10.097   5.262  -5.665  0.00  0.00     0.241 N 
ATOM     28  H   LIG d   1      11.105   5.377  -5.511  0.00  0.00     0.204 HD
ENDROOT
BRANCH  15  29
ATOM     29  C   LIG d   1       9.708   6.560  -1.619  0.00  0.00    -0.002 C 
ATOM     30  H   LIG d   1       8.941   6.281  -0.898  0.00  0.00     0.033 H 
ATOM     31  H   LIG d   1      10.655   6.098  -1.339  0.00  0.00     0.033 H 
BRANCH  29  32
ATOM     32  C   LIG d   1       9.867   8.082  -1.632  0.00  0.00     0.004 C 
ATOM     33  H   LIG d   1      10.061   8.414  -2.653  0.00  0.00     0.090 H 
ATOM     34  C   LIG d   1      11.029   8.468  -0.755  0.00  0.00     0.007 A 
ATOM     35  C   LIG d   1      10.967   9.547   0.102  0.00  0.00    -0.030 A 
ATOM     36  C   LIG d   1      12.188   7.709  -0.825  0.00  0.00    -0.008 A 
ATOM     37  C   LIG d   1      12.062   9.870   0.889  0.00  0.00    -0.013 A 
ATOM     38  C   LIG d   1       9.728  10.397   0.214  0.00  0.00     0.013 C 
ATOM     39  C   LIG d   1      13.219   9.115   0.823  0.00  0.00     0.159 A 
ATOM     40  H   LIG d   1      12.011  10.716   1.559  0.00  0.00     0.066 H 
ATOM     41  C   LIG d   1      13.282   8.026  -0.042  0.00  0.00     0.162 A 
ATOM     42  C   LIG d   1       8.817  10.153  -0.990  0.00  0.00    -0.029 C 
ATOM     43  H   LIG d   1      10.011  11.448   0.245  0.00  0.00     0.036 H 
ATOM     44  H   LIG d   1       9.194  10.139   1.128  0.00  0.00     0.036 H 
ATOM     45  H   LIG d   1       9.279  10.563  -1.888  0.00  0.00     0.082 H 
ATOM     46  H   LIG d   1       7.851  10.631  -0.822  0.00  0.00     0.082 H 
ATOM     47  N   LIG d   1       8.626   8.699  -1.147  0.00  0.00     0.233 N 
ATOM     48  H   LIG d   1       8.373   8.289  -0.241  0.00  0.00     0.202 HD
ATOM     49  H   LIG d   1       7.873   8.526  -1.823  0.00  0.00     0.202 HD
ATOM     50  H   LIG d   1      12.236   6.863  -1.496  0.00  0.00     0.066 H 
BRANCH  39  51
ATOM     51  O   LIG d   1      14.290   9.437   1.596  0.00  0.00    -0.503 OA
ATOM     52  H   LIG d   1      14.067   9.631   2.517  0.00  0.00     0.292 HD
ENDBRANCH  39  51
BRANCH  41  53
ATOM     53  O   LIG d   1      14.415   7.277  -0.114  0.00  0.00    -0.491 OA
BRANCH  53  54
ATOM     54  C   LIG d   1      14.299   5.979  -0.703  0.00  0.00     0.079 C 
ATOM     55  H   LIG d   1      13.360   5.913  -1.252  0.00  0.00     0.066 H 
ATOM     56  H   LIG d   1      15.132   5.814  -1.385  0.00  0.00     0.066 H 
ATOM     57  H   LIG d   1      14.316   5.223   0.082  0.00  0.00     0.066 H 
ENDBRANCH  53  54
ENDBRANCH  41  53
ENDBRANCH  29  32
ENDBRANCH  15  29
BRANCH   1  58
ATOM     58  C   LIG d   1      11.454   4.818  -3.151  0.00  0.00    -0.048 C 
ATOM     59  H   LIG d   1      11.704   5.211  -2.165  0.00  0.00     0.027 H 
ATOM     60  H   LIG d   1      11.841   5.489  -3.918  0.00  0.00     0.027 H 
BRANCH  58  61
ATOM     61  C   LIG d   1      12.080   3.433  -3.322  0.00  0.00    -0.065 C 
ATOM     62  H   LIG d   1      11.471   2.841  -4.005  0.00  0.00     0.023 H 
ATOM     63  H   LIG d   1      12.129   2.933  -2.354  0.00  0.00     0.023 H 
ATOM     64  H   LIG d   1      13.086   3.536  -3.729  0.00  0.00     0.023 H 
ENDBRANCH  58  61
ENDBRANCH   1  58
BRANCH   9  65
ATOM     65  O   LIG d   1       9.846  11.161  -6.963  0.00  0.00    -0.491 OA
BRANCH  65  66
ATOM     66  C   LIG d   1       9.582  11.544  -5.612  0.00  0.00     0.079 C 
ATOM     67  H   LIG d   1       8.860  12.361  -5.600  0.00  0.00     0.066 H 
ATOM     68  H   LIG d   1       9.177  10.692  -5.066  0.00  0.00     0.066 H 
ATOM     69  H   LIG d   1      10.508  11.871  -5.140  0.00  0.00     0.066 H 
ENDBRANCH  65  66
ENDBRANCH   9  65
BRANCH   8  70
ATOM     70  O   LIG d   1      11.035  10.345  -9.315  0.00  0.00    -0.491 OA
BRANCH  70  71
ATOM     71  C   LIG d   1      11.849   9.879 -10.393  0.00  0.00     0.079 C 
ATOM     72  H   LIG d   1      12.798  10.414 -10.390  0.00  0.00     0.066 H 
ATOM     73  H   LIG d   1      12.033   8.811 -10.274  0.00  0.00     0.066 H 
ATOM     74  H   LIG d   1      11.336  10.055 -11.338  0.00  0.00     0.066 H 
ENDBRANCH  70  71
ENDBRANCH   8  70
TORSDOF 11
ENDMDL
MODEL 7
REMARK VINA RESULT:      -5.6      4.053      8.692
REMARK  11 active torsions:
REMARK  status: ('A' for Active; 'I' for Inactive)
REMARK    1  A    between atoms: C_1  and  C_2 
REMARK    2  A    between atoms: C_2  and  C_3 
REMARK    3  A    between atoms: C_10  and  O_35 
REMARK    4  A    between atoms: C_11  and  O_33 
REMARK    5  A    between atoms: C_17  and  C_19 
REMARK    6  A    between atoms: C_19  and  C_20 
REMARK    7  A    between atoms: C_24  and  O_31 
REMARK    8  A    between atoms: C_25  and  O_30 
REMARK    9  A    between atoms: O_31  and  C_32 
REMARK   10  A    between atoms: O_33  and  C_34 
REMARK   11  A    between atoms: O_35  and  C_36 
ROOT
ATOM      1  C   LIG d   1       7.762   0.557  -5.865  0.00  0.00     0.002 C 
ATOM      2  H   LIG d   1       6.905   0.038  -6.296  0.00  0.00     0.035 H 
ATOM      3  C   LIG d   1       8.082   1.797  -6.704  0.00  0.00    -0.028 C 
ATOM      4  C   LIG d   1       9.655   3.630  -6.948  0.00  0.00    -0.027 C 
ATOM      5  C   LIG d   1      11.039   4.080  -6.480  0.00  0.00     0.013 C 
ATOM      6  C   LIG d   1      11.036   4.293  -4.988  0.00  0.00    -0.030 A 
ATOM      7  C   LIG d   1      12.067   5.031  -4.425  0.00  0.00    -0.013 A 
ATOM      8  C   LIG d   1      12.107   5.248  -3.059  0.00  0.00     0.162 A 
ATOM      9  C   LIG d   1      11.107   4.721  -2.247  0.00  0.00     0.162 A 
ATOM     10  C   LIG d   1      10.081   3.987  -2.814  0.00  0.00    -0.007 A 
ATOM     11  C   LIG d   1      10.042   3.774  -4.185  0.00  0.00     0.007 A 
ATOM     12  C   LIG d   1       8.902   2.972  -4.752  0.00  0.00     0.006 C 
ATOM     13  H   LIG d   1       8.014   3.602  -4.800  0.00  0.00     0.090 H 
ATOM     14  C   LIG d   1       8.613   1.768  -3.853  0.00  0.00    -0.002 C 
ATOM     15  C   LIG d   1       7.432   0.983  -4.432  0.00  0.00    -0.023 C 
ATOM     16  H   LIG d   1       6.543   1.613  -4.435  0.00  0.00     0.031 H 
ATOM     17  H   LIG d   1       8.336   1.495  -7.720  0.00  0.00     0.082 H 
ATOM     18  H   LIG d   1       7.213   2.456  -6.727  0.00  0.00     0.082 H 
ATOM     19  H   LIG d   1       8.949   4.455  -6.853  0.00  0.00     0.082 H 
ATOM     20  H   LIG d   1       9.707   3.307  -7.987  0.00  0.00     0.082 H 
ATOM     21  H   LIG d   1      11.303   5.014  -6.977  0.00  0.00     0.036 H 
ATOM     22  H   LIG d   1      11.772   3.315  -6.734  0.00  0.00     0.036 H 
ATOM     23  H   LIG d   1      12.842   5.439  -5.056  0.00  0.00     0.066 H 
ATOM     24  H   LIG d   1       9.304   3.578  -2.185  0.00  0.00     0.066 H 
ATOM     25  H   LIG d   1       8.364   2.114  -2.850  0.00  0.00     0.033 H 
ATOM     26  H   LIG d   1       9.492   1.125  -3.810  0.00  0.00     0.033 H 
ATOM     27  N   LIG d   1       9.244   2.490  -6.101  0.00  0.00     0.241 N 
ATOM     28  H   LIG d   1      10.025   1.828  -6.031  0.00  0.00     0.204 HD
ENDROOT
BRANCH  15  29
ATOM     29  C   LIG d   1       7.176  -0.259  -3.577  0.00  0.00    -0.002 C 
ATOM     30  H   LIG d   1       7.371  -1.154  -4.167  0.00  0.00     0.033 H 
ATOM     31  H   LIG d   1       7.835  -0.245  -2.710  0.00  0.00     0.033 H 
BRANCH  29  32
ATOM     32  C   LIG d   1       5.718  -0.264  -3.109  0.00  0.00     0.004 C 
ATOM     33  H   LIG d   1       5.542  -1.144  -2.491  0.00  0.00     0.090 H 
ATOM     34  C   LIG d   1       4.811  -0.311  -4.311  0.00  0.00     0.007 A 
ATOM     35  C   LIG d   1       3.671   0.460  -4.392  0.00  0.00    -0.030 A 
ATOM     36  C   LIG d   1       5.145  -1.161  -5.355  0.00  0.00    -0.008 A 
ATOM     37  C   LIG d   1       2.861   0.383  -5.516  0.00  0.00    -0.013 A 
ATOM     38  C   LIG d   1       3.272   1.400  -3.284  0.00  0.00     0.013 C 
ATOM     39  C   LIG d   1       3.190  -0.463  -6.559  0.00  0.00     0.159 A 
ATOM     40  H   LIG d   1       1.968   0.987  -5.576  0.00  0.00     0.066 H 
ATOM     41  C   LIG d   1       4.342  -1.241  -6.478  0.00  0.00     0.162 A 
ATOM     42  C   LIG d   1       4.027   1.046  -2.002  0.00  0.00    -0.029 C 
ATOM     43  H   LIG d   1       2.200   1.317  -3.106  0.00  0.00     0.036 H 
ATOM     44  H   LIG d   1       3.512   2.423  -3.574  0.00  0.00     0.036 H 
ATOM     45  H   LIG d   1       3.667   0.093  -1.616  0.00  0.00     0.082 H 
ATOM     46  H   LIG d   1       3.871   1.828  -1.257  0.00  0.00     0.082 H 
ATOM     47  N   LIG d   1       5.464   0.946  -2.316  0.00  0.00     0.233 N 
ATOM     48  H   LIG d   1       5.754   1.772  -2.853  0.00  0.00     0.202 HD
ATOM     49  H   LIG d   1       6.001   0.900  -1.443  0.00  0.00     0.202 HD
ATOM     50  H   LIG d   1       6.040  -1.764  -5.292  0.00  0.00     0.066 H 
BRANCH  39  51
ATOM     51  O   LIG d   1       2.392  -0.536  -7.657  0.00  0.00    -0.503 OA
ATOM     52  H   LIG d   1       1.902   0.278  -7.842  0.00  0.00     0.292 HD
ENDBRANCH  39  51
BRANCH  41  53
ATOM     53  O   LIG d   1       4.675  -2.075  -7.499  0.00  0.00    -0.491 OA
BRANCH  53  54
ATOM     54  C   LIG d   1       4.389  -3.465  -7.321  0.00  0.00     0.079 C 
ATOM     55  H   LIG d   1       4.015  -3.632  -6.311  0.00  0.00     0.066 H 
ATOM     56  H   LIG d   1       3.636  -3.776  -8.044  0.00  0.00     0.066 H 
ATOM     57  H   LIG d   1       5.300  -4.044  -7.473  0.00  0.00     0.066 H 
ENDBRANCH  53  54
ENDBRANCH  41  53
ENDBRANCH  29  32
ENDBRANCH  15  29
BRANCH   1  58
ATOM     58  C   LIG d   1       8.972  -0.378  -5.854  0.00  0.00    -0.048 C 
ATOM     59  H   LIG d   1       9.175  -0.697  -4.832  0.00  0.00     0.027 H 
ATOM     60  H   LIG d   1       9.841   0.148  -6.250  0.00  0.00     0.027 H 
BRANCH  58  61
ATOM     61  C   LIG d   1       8.678  -1.603  -6.723  0.00  0.00    -0.065 C 
ATOM     62  H   LIG d   1       9.354  -1.612  -7.578  0.00  0.00     0.023 H 
ATOM     63  H   LIG d   1       7.648  -1.560  -7.075  0.00  0.00     0.023 H 
ATOM     64  H   LIG d   1       8.824  -2.509  -6.135  0.00  0.00     0.023 H 
ENDBRANCH  58  61
ENDBRANCH   1  58
BRANCH   9  65
ATOM     65  O   LIG d   1      11.139   4.926  -0.903  0.00  0.00    -0.491 OA
BRANCH  65  66
ATOM     66  C   LIG d   1      10.549   6.133  -0.417  0.00  0.00     0.079 C 
ATOM     67  H   LIG d   1      11.243   6.629   0.263  0.00  0.00     0.066 H 
ATOM     68  H   LIG d   1      10.328   6.793  -1.255  0.00  0.00     0.066 H 
ATOM     69  H   LIG d   1       9.627   5.898   0.114  0.00  0.00     0.066 H 
ENDBRANCH  65  66
ENDBRANCH   9  65
BRANCH   8  70
ATOM     70  O   LIG d   1      13.121   5.973  -2.512  0.00  0.00    -0.491 OA
BRANCH  70  71
ATOM     71  C   LIG d   1      13.192   7.356  -2.864  0.00  0.00     0.079 C 
ATOM     72  H   LIG d   1      12.309   7.872  -2.489  0.00  0.00     0.066 H 
ATOM     73  H   LIG d   1      14.086   7.798  -2.424  0.00  0.00     0.066 H 
ATOM     74  H   LIG d   1      13.236   7.453  -3.949  0.00  0.00     0.066 H 
ENDBRANCH  70  71
ENDBRANCH   8  70
TORSDOF 11
ENDMDL
MODEL 8
REMARK VINA RESULT:      -5.4      8.406     13.171
REMARK  11 active torsions:
REMARK  status: ('A' for Active; 'I' for Inactive)
REMARK    1  A    between atoms: C_1  and  C_2 
REMARK    2  A    between atoms: C_2  and  C_3 
REMARK    3  A    between atoms: C_10  and  O_35 
REMARK    4  A    between atoms: C_11  and  O_33 
REMARK    5  A    between atoms: C_17  and  C_19 
REMARK    6  A    between atoms: C_19  and  C_20 
REMARK    7  A    between atoms: C_24  and  O_31 
REMARK    8  A    between atoms: C_25  and  O_30 
REMARK    9  A    between atoms: O_31  and  C_32 
REMARK   10  A    between atoms: O_33  and  C_34 
REMARK   11  A    between atoms: O_35  and  C_36 
ROOT
ATOM      1  C   LIG d   1      10.954   4.520  -3.817  0.00  0.00     0.002 C 
ATOM      2  H   LIG d   1      11.291   3.718  -4.475  0.00  0.00     0.035 H 
ATOM      3  C   LIG d   1      12.021   4.788  -2.752  0.00  0.00    -0.028 C 
ATOM      4  C   LIG d   1      12.499   6.092  -0.761  0.00  0.00    -0.027 C 
ATOM      5  C   LIG d   1      11.805   6.963   0.286  0.00  0.00     0.013 C 
ATOM      6  C   LIG d   1      11.221   8.190  -0.367  0.00  0.00    -0.030 A 
ATOM      7  C   LIG d   1      10.871   9.262   0.441  0.00  0.00    -0.013 A 
ATOM      8  C   LIG d   1      10.327  10.407  -0.114  0.00  0.00     0.162 A 
ATOM      9  C   LIG d   1      10.131  10.481  -1.490  0.00  0.00     0.162 A 
ATOM     10  C   LIG d   1      10.484   9.409  -2.290  0.00  0.00    -0.007 A 
ATOM     11  C   LIG d   1      11.032   8.263  -1.731  0.00  0.00     0.007 A 
ATOM     12  C   LIG d   1      11.403   7.126  -2.645  0.00  0.00     0.006 C 
ATOM     13  H   LIG d   1      12.343   7.363  -3.142  0.00  0.00     0.090 H 
ATOM     14  C   LIG d   1      10.314   6.931  -3.702  0.00  0.00    -0.002 C 
ATOM     15  C   LIG d   1      10.724   5.791  -4.638  0.00  0.00    -0.023 C 
ATOM     16  H   LIG d   1      11.644   6.059  -5.159  0.00  0.00     0.031 H 
ATOM     17  H   LIG d   1      12.172   3.890  -2.154  0.00  0.00     0.082 H 
ATOM     18  H   LIG d   1      12.958   5.065  -3.236  0.00  0.00     0.082 H 
ATOM     19  H   LIG d   1      13.401   6.593  -1.116  0.00  0.00     0.082 H 
ATOM     20  H   LIG d   1      12.761   5.130  -0.322  0.00  0.00     0.082 H 
ATOM     21  H   LIG d   1      12.530   7.266   1.042  0.00  0.00     0.036 H 
ATOM     22  H   LIG d   1      11.008   6.391   0.759  0.00  0.00     0.036 H 
ATOM     23  H   LIG d   1      11.023   9.203   1.508  0.00  0.00     0.066 H 
ATOM     24  H   LIG d   1      10.334   9.465  -3.358  0.00  0.00     0.066 H 
ATOM     25  H   LIG d   1      10.195   7.850  -4.276  0.00  0.00     0.033 H 
ATOM     26  H   LIG d   1       9.372   6.681  -3.214  0.00  0.00     0.033 H 
ATOM     27  N   LIG d   1      11.547   5.881  -1.872  0.00  0.00     0.241 N 
ATOM     28  H   LIG d   1      10.633   5.621  -1.483  0.00  0.00     0.204 HD
ENDROOT
BRANCH  15  29
ATOM     29  C   LIG d   1       9.613   5.544  -5.660  0.00  0.00    -0.002 C 
ATOM     30  H   LIG d   1       8.874   4.864  -5.237  0.00  0.00     0.033 H 
ATOM     31  H   LIG d   1       9.134   6.490  -5.912  0.00  0.00     0.033 H 
BRANCH  29  32
ATOM     32  C   LIG d   1      10.212   4.923  -6.925  0.00  0.00     0.004 C 
ATOM     33  H   LIG d   1      11.279   4.757  -6.773  0.00  0.00     0.090 H 
ATOM     34  C   LIG d   1      10.015   5.866  -8.083  0.00  0.00     0.007 A 
ATOM     35  C   LIG d   1       9.628   5.418  -9.328  0.00  0.00    -0.030 A 
ATOM     36  C   LIG d   1      10.236   7.220  -7.874  0.00  0.00    -0.008 A 
ATOM     37  C   LIG d   1       9.463   6.321 -10.368  0.00  0.00    -0.013 A 
ATOM     38  C   LIG d   1       9.373   3.958  -9.599  0.00  0.00     0.013 C 
ATOM     39  C   LIG d   1       9.681   7.671 -10.165  0.00  0.00     0.159 A 
ATOM     40  H   LIG d   1       9.160   5.967 -11.343  0.00  0.00     0.066 H 
ATOM     41  C   LIG d   1      10.071   8.124  -8.907  0.00  0.00     0.162 A 
ATOM     42  C   LIG d   1       9.993   3.105  -8.491  0.00  0.00    -0.029 C 
ATOM     43  H   LIG d   1       9.816   3.684 -10.556  0.00  0.00     0.036 H 
ATOM     44  H   LIG d   1       8.298   3.779  -9.633  0.00  0.00     0.036 H 
ATOM     45  H   LIG d   1      11.080   3.151  -8.559  0.00  0.00     0.082 H 
ATOM     46  H   LIG d   1       9.660   2.072  -8.594  0.00  0.00     0.082 H 
ATOM     47  N   LIG d   1       9.553   3.637  -7.188  0.00  0.00     0.233 N 
ATOM     48  H   LIG d   1       8.536   3.772  -7.201  0.00  0.00     0.202 HD
ATOM     49  H   LIG d   1       9.800   2.970  -6.447  0.00  0.00     0.202 HD
ATOM     50  H   LIG d   1      10.538   7.571  -6.898  0.00  0.00     0.066 H 
BRANCH  39  51
ATOM     51  O   LIG d   1       9.519   8.552 -11.188  0.00  0.00    -0.503 OA
ATOM     52  H   LIG d   1      10.198   9.240 -11.227  0.00  0.00     0.292 HD
ENDBRANCH  39  51
BRANCH  41  53
ATOM     53  O   LIG d   1      10.288   9.450  -8.697  0.00  0.00    -0.491 OA
BRANCH  53  54
ATOM     54  C   LIG d   1       9.998   9.956  -7.391  0.00  0.00     0.079 C 
ATOM     55  H   LIG d   1       9.812  11.028  -7.451  0.00  0.00     0.066 H 
ATOM     56  H   LIG d   1       9.114   9.455  -6.996  0.00  0.00     0.066 H 
ATOM     57  H   LIG d   1      10.846   9.769  -6.733  0.00  0.00     0.066 H 
ENDBRANCH  53  54
ENDBRANCH  41  53
ENDBRANCH  29  32
ENDBRANCH  15  29
BRANCH   1  58
ATOM     58  C   LIG d   1       9.647   4.107  -3.138  0.00  0.00    -0.048 C 
ATOM     59  H   LIG d   1       8.835   4.736  -3.502  0.00  0.00     0.027 H 
ATOM     60  H   LIG d   1       9.745   4.228  -2.059  0.00  0.00     0.027 H 
BRANCH  58  61
ATOM     61  C   LIG d   1       9.344   2.643  -3.463  0.00  0.00    -0.065 C 
ATOM     62  H   LIG d   1       9.607   2.020  -2.608  0.00  0.00     0.023 H 
ATOM     63  H   LIG d   1       9.928   2.334  -4.330  0.00  0.00     0.023 H 
ATOM     64  H   LIG d   1       8.282   2.531  -3.681  0.00  0.00     0.023 H 
ENDBRANCH  58  61
ENDBRANCH   1  58
BRANCH   9  65
ATOM     65  O   LIG d   1       9.595  11.600  -2.045  0.00  0.00    -0.491 OA
BRANCH  65  66
ATOM     66  C   LIG d   1       8.789  11.425  -3.212  0.00  0.00     0.079 C 
ATOM     67  H   LIG d   1       8.877  12.304  -3.851  0.00  0.00     0.066 H 
ATOM     68  H   LIG d   1       9.127  10.544  -3.757  0.00  0.00     0.066 H 
ATOM     69  H   LIG d   1       7.748  11.293  -2.917  0.00  0.00     0.066 H 
ENDBRANCH  65  66
ENDBRANCH   9  65
BRANCH   8  70
ATOM     70  O   LIG d   1       9.985  11.456   0.682  0.00  0.00    -0.491 OA
BRANCH  70  71
ATOM     71  C   LIG d   1      11.014  12.397   0.993  0.00  0.00     0.079 C 
ATOM     72  H   LIG d   1      11.376  12.219   2.005  0.00  0.00     0.066 H 
ATOM     73  H   LIG d   1      11.837  12.282   0.287  0.00  0.00     0.066 H 
ATOM     74  H   LIG d   1      10.615  13.408   0.923  0.00  0.00     0.066 H 
ENDBRANCH  70  71
ENDBRANCH   8  70
TORSDOF 11
ENDMDL
MODEL 9
REMARK VINA RESULT:      -5.4      8.626     11.022
REMARK  11 active torsions:
REMARK  status: ('A' for Active; 'I' for Inactive)
REMARK    1  A    between atoms: C_1  and  C_2 
REMARK    2  A    between atoms: C_2  and  C_3 
REMARK    3  A    between atoms: C_10  and  O_35 
REMARK    4  A    between atoms: C_11  and  O_33 
REMARK    5  A    between atoms: C_17  and  C_19 
REMARK    6  A    between atoms: C_19  and  C_20 
REMARK    7  A    between atoms: C_24  and  O_31 
REMARK    8  A    between atoms: C_25  and  O_30 
REMARK    9  A    between atoms: O_31  and  C_32 
REMARK   10  A    between atoms: O_33  and  C_34 
REMARK   11  A    between atoms: O_35  and  C_36 
ROOT
ATOM      1  C   LIG d   1      10.977   3.986  -3.964  0.00  0.00     0.002 C 
ATOM      2  H   LIG d   1      10.868   3.397  -3.052  0.00  0.00     0.035 H 
ATOM      3  C   LIG d   1      10.053   3.422  -5.047  0.00  0.00    -0.028 C 
ATOM      4  C   LIG d   1       9.419   3.654  -7.379  0.00  0.00    -0.027 C 
ATOM      5  C   LIG d   1       9.886   4.308  -8.679  0.00  0.00     0.013 C 
ATOM      6  C   LIG d   1       9.874   5.809  -8.536  0.00  0.00    -0.030 A 
ATOM      7  C   LIG d   1       9.916   6.582  -9.688  0.00  0.00    -0.013 A 
ATOM      8  C   LIG d   1       9.911   7.962  -9.604  0.00  0.00     0.162 A 
ATOM      9  C   LIG d   1       9.864   8.578  -8.356  0.00  0.00     0.162 A 
ATOM     10  C   LIG d   1       9.821   7.803  -7.212  0.00  0.00    -0.007 A 
ATOM     11  C   LIG d   1       9.823   6.417  -7.299  0.00  0.00     0.007 A 
ATOM     12  C   LIG d   1       9.771   5.619  -6.025  0.00  0.00     0.006 C 
ATOM     13  H   LIG d   1       8.748   5.619  -5.648  0.00  0.00     0.090 H 
ATOM     14  C   LIG d   1      10.690   6.251  -4.976  0.00  0.00    -0.002 C 
ATOM     15  C   LIG d   1      10.599   5.442  -3.679  0.00  0.00    -0.023 C 
ATOM     16  H   LIG d   1       9.581   5.484  -3.293  0.00  0.00     0.031 H 
ATOM     17  H   LIG d   1      10.332   2.392  -5.265  0.00  0.00     0.082 H 
ATOM     18  H   LIG d   1       9.020   3.453  -4.697  0.00  0.00     0.082 H 
ATOM     19  H   LIG d   1       8.356   3.845  -7.233  0.00  0.00     0.082 H 
ATOM     20  H   LIG d   1       9.599   2.580  -7.424  0.00  0.00     0.082 H 
ATOM     21  H   LIG d   1       9.218   4.018  -9.490  0.00  0.00     0.036 H 
ATOM     22  H   LIG d   1      10.898   3.975  -8.907  0.00  0.00     0.036 H 
ATOM     23  H   LIG d   1       9.952   6.102 -10.654  0.00  0.00     0.066 H 
ATOM     24  H   LIG d   1       9.784   8.279  -6.243  0.00  0.00     0.066 H 
ATOM     25  H   LIG d   1      10.375   7.277  -4.788  0.00  0.00     0.033 H 
ATOM     26  H   LIG d   1      11.717   6.243  -5.339  0.00  0.00     0.033 H 
ATOM     27  N   LIG d   1      10.210   4.236  -6.274  0.00  0.00     0.241 N 
ATOM     28  H   LIG d   1      11.201   4.244  -6.542  0.00  0.00     0.204 HD
ENDROOT
BRANCH  15  29
ATOM     29  C   LIG d   1      11.563   6.025  -2.644  0.00  0.00    -0.002 C 
ATOM     30  H   LIG d   1      12.413   5.356  -2.521  0.00  0.00     0.033 H 
ATOM     31  H   LIG d   1      11.912   7.000  -2.983  0.00  0.00     0.033 H 
BRANCH  29  32
ATOM     32  C   LIG d   1      10.838   6.181  -1.305  0.00  0.00     0.004 C 
ATOM     33  H   LIG d   1       9.886   5.652  -1.347  0.00  0.00     0.090 H 
ATOM     34  C   LIG d   1      10.584   7.643  -1.044  0.00  0.00     0.007 A 
ATOM     35  C   LIG d   1      10.771   8.203   0.201  0.00  0.00    -0.030 A 
ATOM     36  C   LIG d   1      10.147   8.433  -2.098  0.00  0.00    -0.008 A 
ATOM     37  C   LIG d   1      10.521   9.554   0.399  0.00  0.00    -0.013 A 
ATOM     38  C   LIG d   1      11.249   7.384   1.373  0.00  0.00     0.013 C 
ATOM     39  C   LIG d   1      10.086  10.345  -0.649  0.00  0.00     0.159 A 
ATOM     40  H   LIG d   1      10.668   9.989   1.376  0.00  0.00     0.066 H 
ATOM     41  C   LIG d   1       9.897   9.780  -1.907  0.00  0.00     0.162 A 
ATOM     42  C   LIG d   1      11.069   5.895   1.077  0.00  0.00    -0.029 C 
ATOM     43  H   LIG d   1      10.672   7.648   2.259  0.00  0.00     0.036 H 
ATOM     44  H   LIG d   1      12.303   7.592   1.553  0.00  0.00     0.036 H 
ATOM     45  H   LIG d   1      10.007   5.650   1.061  0.00  0.00     0.082 H 
ATOM     46  H   LIG d   1      11.572   5.305   1.844  0.00  0.00     0.082 H 
ATOM     47  N   LIG d   1      11.668   5.603  -0.239  0.00  0.00     0.233 N 
ATOM     48  H   LIG d   1      12.609   6.010  -0.283  0.00  0.00     0.202 HD
ATOM     49  H   LIG d   1      11.727   4.586  -0.368  0.00  0.00     0.202 HD
ATOM     50  H   LIG d   1      10.001   7.994  -3.074  0.00  0.00     0.066 H 
BRANCH  39  51
ATOM     51  O   LIG d   1       9.841  11.667  -0.450  0.00  0.00    -0.503 OA
ATOM     52  H   LIG d   1      10.525  12.252  -0.806  0.00  0.00     0.292 HD
ENDBRANCH  39  51
BRANCH  41  53
ATOM     53  O   LIG d   1       9.471  10.549  -2.943  0.00  0.00    -0.491 OA
BRANCH  53  54
ATOM     54  C   LIG d   1      10.279  10.555  -4.123  0.00  0.00     0.079 C 
ATOM     55  H   LIG d   1      10.264   9.565  -4.578  0.00  0.00     0.066 H 
ATOM     56  H   LIG d   1       9.884  11.285  -4.830  0.00  0.00     0.066 H 
ATOM     57  H   LIG d   1      11.302  10.821  -3.860  0.00  0.00     0.066 H 
ENDBRANCH  53  54
ENDBRANCH  41  53
ENDBRANCH  29  32
ENDBRANCH  15  29
BRANCH   1  58
ATOM     58  C   LIG d   1      12.427   3.919  -4.445  0.00  0.00    -0.048 C 
ATOM     59  H   LIG d   1      13.009   4.696  -3.951  0.00  0.00     0.027 H 
ATOM     60  H   LIG d   1      12.459   4.072  -5.524  0.00  0.00     0.027 H 
BRANCH  58  61
ATOM     61  C   LIG d   1      13.014   2.548  -4.106  0.00  0.00    -0.065 C 
ATOM     62  H   LIG d   1      12.706   2.259  -3.101  0.00  0.00     0.023 H 
ATOM     63  H   LIG d   1      14.103   2.597  -4.152  0.00  0.00     0.023 H 
ATOM     64  H   LIG d   1      12.653   1.810  -4.823  0.00  0.00     0.023 H 
ENDBRANCH  58  61
ENDBRANCH   1  58
BRANCH   9  65
ATOM     65  O   LIG d   1       9.862   9.935  -8.263  0.00  0.00    -0.491 OA
BRANCH  65  66
ATOM     66  C   LIG d   1      11.056  10.554  -7.782  0.00  0.00     0.079 C 
ATOM     67  H   LIG d   1      11.905   9.893  -7.958  0.00  0.00     0.066 H 
ATOM     68  H   LIG d   1      11.214  11.496  -8.308  0.00  0.00     0.066 H 
ATOM     69  H   LIG d   1      10.960  10.746  -6.714  0.00  0.00     0.066 H 
ENDBRANCH  65  66
ENDBRANCH   9  65
BRANCH   8  70
ATOM     70  O   LIG d   1       9.952   8.715 -10.737  0.00  0.00    -0.491 OA
BRANCH  70  71
ATOM     71  C   LIG d   1      10.005   8.014 -11.980  0.00  0.00     0.079 C 
ATOM     72  H   LIG d   1       9.263   8.427 -12.662  0.00  0.00     0.066 H 
ATOM     73  H   LIG d   1      10.998   8.121 -12.416  0.00  0.00     0.066 H 
ATOM     74  H   LIG d   1       9.794   6.958 -11.811  0.00  0.00     0.066 H 
ENDBRANCH  70  71
ENDBRANCH   8  70
TORSDOF 11
ENDMDL
MODEL 10
REMARK VINA RESULT:      -5.3      8.623     14.134
REMARK  11 active torsions:
REMARK  status: ('A' for Active; 'I' for Inactive)
REMARK    1  A    between atoms: C_1  and  C_2 
REMARK    2  A    between atoms: C_2  and  C_3 
REMARK    3  A    between atoms: C_10  and  O_35 
REMARK    4  A    between atoms: C_11  and  O_33 
REMARK    5  A    between atoms: C_17  and  C_19 
REMARK    6  A    between atoms: C_19  and  C_20 
REMARK    7  A    between atoms: C_24  and  O_31 
REMARK    8  A    between atoms: C_25  and  O_30 
REMARK    9  A    between atoms: O_31  and  C_32 
REMARK   10  A    between atoms: O_33  and  C_34 
REMARK   11  A    between atoms: O_35  and  C_36 
ROOT
ATOM      1  C   LIG d   1      10.295   9.737  -5.156  0.00  0.00     0.002 C 
ATOM      2  H   LIG d   1       9.828   9.798  -6.139  0.00  0.00     0.035 H 
ATOM      3  C   LIG d   1       9.631  10.745  -4.214  0.00  0.00    -0.028 C 
ATOM      4  C   LIG d   1       9.740  11.681  -1.976  0.00  0.00    -0.027 C 
ATOM      5  C   LIG d   1      10.668  11.761  -0.763  0.00  0.00     0.013 C 
ATOM      6  C   LIG d   1      10.886  10.384  -0.189  0.00  0.00    -0.030 A 
ATOM      7  C   LIG d   1      11.393  10.281   1.099  0.00  0.00    -0.013 A 
ATOM      8  C   LIG d   1      11.614   9.038   1.665  0.00  0.00     0.162 A 
ATOM      9  C   LIG d   1      11.327   7.887   0.937  0.00  0.00     0.162 A 
ATOM     10  C   LIG d   1      10.820   7.997  -0.345  0.00  0.00    -0.007 A 
ATOM     11  C   LIG d   1      10.597   9.245  -0.910  0.00  0.00     0.007 A 
ATOM     12  C   LIG d   1      10.041   9.310  -2.306  0.00  0.00     0.006 C 
ATOM     13  H   LIG d   1       8.971   9.106  -2.272  0.00  0.00     0.090 H 
ATOM     14  C   LIG d   1      10.722   8.261  -3.188  0.00  0.00    -0.002 C 
ATOM     15  C   LIG d   1      10.122   8.324  -4.595  0.00  0.00    -0.023 C 
ATOM     16  H   LIG d   1       9.061   8.078  -4.551  0.00  0.00     0.031 H 
ATOM     17  H   LIG d   1       9.771  11.754  -4.601  0.00  0.00     0.082 H 
ATOM     18  H   LIG d   1       8.566  10.527  -4.139  0.00  0.00     0.082 H 
ATOM     19  H   LIG d   1       8.732  11.424  -1.651  0.00  0.00     0.082 H 
ATOM     20  H   LIG d   1       9.728  12.641  -2.492  0.00  0.00     0.082 H 
ATOM     21  H   LIG d   1      10.217  12.401  -0.005  0.00  0.00     0.036 H 
ATOM     22  H   LIG d   1      11.625  12.181  -1.069  0.00  0.00     0.036 H 
ATOM     23  H   LIG d   1      11.615  11.175   1.662  0.00  0.00     0.066 H 
ATOM     24  H   LIG d   1      10.596   7.104  -0.911  0.00  0.00     0.066 H 
ATOM     25  H   LIG d   1      10.558   7.269  -2.766  0.00  0.00     0.033 H 
ATOM     26  H   LIG d   1      11.791   8.464  -3.238  0.00  0.00     0.033 H 
ATOM     27  N   LIG d   1      10.276  10.644  -2.883  0.00  0.00     0.241 N 
ATOM     28  H   LIG d   1      11.287  10.787  -2.994  0.00  0.00     0.204 HD
ENDROOT
BRANCH  15  29
ATOM     29  C   LIG d   1      10.840   7.323  -5.503  0.00  0.00    -0.002 C 
ATOM     30  H   LIG d   1      11.650   7.826  -6.030  0.00  0.00     0.033 H 
ATOM     31  H   LIG d   1      11.247   6.513  -4.899  0.00  0.00     0.033 H 
BRANCH  29  32
ATOM     32  C   LIG d   1       9.847   6.753  -6.519  0.00  0.00     0.004 C 
ATOM     33  H   LIG d   1       8.876   7.228  -6.378  0.00  0.00     0.090 H 
ATOM     34  C   LIG d   1       9.711   5.268  -6.301  0.00  0.00     0.007 A 
ATOM     35  C   LIG d   1       9.667   4.380  -7.354  0.00  0.00    -0.030 A 
ATOM     36  C   LIG d   1       9.625   4.799  -4.998  0.00  0.00    -0.008 A 
ATOM     37  C   LIG d   1       9.536   3.021  -7.109  0.00  0.00    -0.013 A 
ATOM     38  C   LIG d   1       9.761   4.844  -8.785  0.00  0.00     0.013 C 
ATOM     39  C   LIG d   1       9.451   2.549  -5.812  0.00  0.00     0.159 A 
ATOM     40  H   LIG d   1       9.501   2.327  -7.936  0.00  0.00     0.066 H 
ATOM     41  C   LIG d   1       9.496   3.446  -4.748  0.00  0.00     0.162 A 
ATOM     42  C   LIG d   1       9.484   6.346  -8.866  0.00  0.00    -0.029 C 
ATOM     43  H   LIG d   1       9.029   4.309  -9.388  0.00  0.00     0.036 H 
ATOM     44  H   LIG d   1      10.762   4.641  -9.166  0.00  0.00     0.036 H 
ATOM     45  H   LIG d   1       8.434   6.537  -8.645  0.00  0.00     0.082 H 
ATOM     46  H   LIG d   1       9.723   6.710  -9.866  0.00  0.00     0.082 H 
ATOM     47  N   LIG d   1      10.334   7.034  -7.876  0.00  0.00     0.233 N 
ATOM     48  H   LIG d   1      11.301   6.700  -7.967  0.00  0.00     0.202 HD
ATOM     49  H   LIG d   1      10.304   8.046  -8.046  0.00  0.00     0.202 HD
ATOM     50  H   LIG d   1       9.661   5.496  -4.173  0.00  0.00     0.066 H 
BRANCH  39  51
ATOM     51  O   LIG d   1       9.322   1.216  -5.577  0.00  0.00    -0.503 OA
ATOM     52  H   LIG d   1       8.811   0.746  -6.250  0.00  0.00     0.292 HD
ENDBRANCH  39  51
BRANCH  41  53
ATOM     53  O   LIG d   1       9.414   2.992  -3.469  0.00  0.00    -0.491 OA
BRANCH  53  54
ATOM     54  C   LIG d   1      10.635   2.913  -2.728  0.00  0.00     0.079 C 
ATOM     55  H   LIG d   1      10.637   2.002  -2.130  0.00  0.00     0.066 H 
ATOM     56  H   LIG d   1      11.478   2.896  -3.418  0.00  0.00     0.066 H 
ATOM     57  H   LIG d   1      10.718   3.780  -2.074  0.00  0.00     0.066 H 
ENDBRANCH  53  54
ENDBRANCH  41  53
ENDBRANCH  29  32
ENDBRANCH  15  29
BRANCH   1  58
ATOM     58  C   LIG d   1      11.786  10.058  -5.279  0.00  0.00    -0.048 C 
ATOM     59  H   LIG d   1      12.309   9.200  -5.700  0.00  0.00     0.027 H 
ATOM     60  H   LIG d   1      12.191  10.283  -4.292  0.00  0.00     0.027 H 
BRANCH  58  61
ATOM     61  C   LIG d   1      11.973  11.270  -6.194  0.00  0.00    -0.065 C 
ATOM     62  H   LIG d   1      12.480  12.064  -5.646  0.00  0.00     0.023 H 
ATOM     63  H   LIG d   1      10.999  11.626  -6.531  0.00  0.00     0.023 H 
ATOM     64  H   LIG d   1      12.573  10.984  -7.058  0.00  0.00     0.023 H 
ENDBRANCH  58  61
ENDBRANCH   1  58
BRANCH   9  65
ATOM     65  O   LIG d   1      11.543   6.661   1.485  0.00  0.00    -0.491 OA
BRANCH  65  66
ATOM     66  C   LIG d   1      11.335   5.528   0.640  0.00  0.00     0.079 C 
ATOM     67  H   LIG d   1      10.466   4.969   0.988  0.00  0.00     0.066 H 
ATOM     68  H   LIG d   1      11.166   5.863  -0.383  0.00  0.00     0.066 H 
ATOM     69  H   LIG d   1      12.215   4.885   0.671  0.00  0.00     0.066 H 
ENDBRANCH  65  66
ENDBRANCH   9  65
BRANCH   8  70
ATOM     70  O   LIG d   1      12.111   8.942   2.928  0.00  0.00    -0.491 OA
BRANCH  70  71
ATOM     71  C   LIG d   1      12.606  10.143   3.524  0.00  0.00     0.079 C 
ATOM     72  H   LIG d   1      13.462  10.505   2.955  0.00  0.00     0.066 H 
ATOM     73  H   LIG d   1      11.822  10.900   3.522  0.00  0.00     0.066 H 
ATOM     74  H   LIG d   1      12.912   9.939   4.550  0.00  0.00     0.066 H 
ENDBRANCH  70  71
ENDBRANCH   8  70
TORSDOF 11
ENDMDL
