MODEL 1
REMARK VINA RESULT:      -7.0      0.000      0.000
REMARK  4 active torsions:
REMARK  status: ('A' for Active; 'I' for Inactive)
REMARK    1  A    between atoms: C_1  and  C_2 
REMARK    2  A    between atoms: C_17  and  C_25 
REMARK    3  A    between atoms: C_18  and  O_24 
REMARK    4  A    between atoms: C_21  and  O_23 
ROOT
ATOM      1  C   LIG d   1       4.295  -0.006  -7.715  0.00  0.00    -0.007 C 
ATOM      2  C   LIG d   1       3.342   0.847  -8.533  0.00  0.00    -0.037 C 
ATOM      3  C   LIG d   1       2.964   0.184  -9.857  0.00  0.00     0.011 C 
ATOM      4  C   LIG d   1       2.362  -1.168  -9.524  0.00  0.00     0.156 C 
ATOM      5  O   LIG d   1       1.281  -1.513  -9.949  0.00  0.00    -0.293 OA
ATOM      6  C   LIG d   1       3.168  -2.031  -8.653  0.00  0.00    -0.019 C 
ATOM      7  C   LIG d   1       4.055  -1.481  -7.824  0.00  0.00    -0.060 C 
ATOM      8  C   LIG d   1       4.862  -2.409  -6.934  0.00  0.00    -0.030 C 
ATOM      9  C   LIG d   1       4.727  -1.930  -5.482  0.00  0.00    -0.044 C 
ATOM     10  C   LIG d   1       5.154  -0.469  -5.388  0.00  0.00    -0.008 C 
ATOM     11  H   LIG d   1       6.185  -0.391  -5.770  0.00  0.00     0.033 H 
ATOM     12  C   LIG d   1       4.250   0.413  -6.244  0.00  0.00    -0.026 C 
ATOM     13  H   LIG d   1       4.577   1.453  -6.158  0.00  0.00     0.031 H 
ATOM     14  C   LIG d   1       2.824   0.290  -5.699  0.00  0.00    -0.048 C 
ATOM     15  C   LIG d   1       2.793   0.907  -4.305  0.00  0.00    -0.042 C 
ATOM     16  C   LIG d   1       3.789   0.291  -3.352  0.00  0.00     0.023 C 
ATOM     17  C   LIG d   1       5.174   0.016  -3.940  0.00  0.00     0.077 C 
ATOM     18  C   LIG d   1       5.727  -1.141  -3.062  0.00  0.00    -0.021 C 
ATOM     19  C   LIG d   1       4.493  -1.960  -2.642  0.00  0.00    -0.024 C 
ATOM     20  C   LIG d   1       3.287  -1.008  -2.714  0.00  0.00     0.063 C 
ATOM     21  H   LIG d   1       2.927  -0.797  -1.699  0.00  0.00     0.060 H 
ATOM     22  H   LIG d   1       3.827   1.802  -8.750  0.00  0.00     0.028 H 
ATOM     23  H   LIG d   1       2.434   1.040  -7.971  0.00  0.00     0.028 H 
ATOM     24  H   LIG d   1       3.782   0.082 -10.425  0.00  0.00     0.035 H 
ATOM     25  H   LIG d   1       2.228   0.796 -10.379  0.00  0.00     0.035 H 
ATOM     26  H   LIG d   1       3.043  -3.102  -8.685  0.00  0.00     0.065 H 
ATOM     27  H   LIG d   1       5.909  -2.392  -7.228  0.00  0.00     0.031 H 
ATOM     28  H   LIG d   1       4.475  -3.424  -7.016  0.00  0.00     0.031 H 
ATOM     29  H   LIG d   1       5.377  -2.550  -4.861  0.00  0.00     0.027 H 
ATOM     30  H   LIG d   1       3.696  -2.051  -5.161  0.00  0.00     0.027 H 
ATOM     31  H   LIG d   1       2.126   0.834  -6.339  0.00  0.00     0.027 H 
ATOM     32  H   LIG d   1       2.525  -0.756  -5.661  0.00  0.00     0.027 H 
ATOM     33  H   LIG d   1       3.008   1.977  -4.391  0.00  0.00     0.027 H 
ATOM     34  H   LIG d   1       1.789   0.799  -3.889  0.00  0.00     0.027 H 
ATOM     35  H   LIG d   1       6.430  -1.755  -3.626  0.00  0.00     0.029 H 
ATOM     36  H   LIG d   1       6.234  -0.737  -2.178  0.00  0.00     0.029 H 
ATOM     37  H   LIG d   1       4.618  -2.321  -1.617  0.00  0.00     0.029 H 
ATOM     38  H   LIG d   1       4.347  -2.810  -3.306  0.00  0.00     0.029 H 
ENDROOT
BRANCH   1  39
ATOM     39  C   LIG d   1       5.707   0.278  -8.245  0.00  0.00    -0.056 C 
ATOM     40  H   LIG d   1       6.348   0.595  -7.421  0.00  0.00     0.024 H 
ATOM     41  H   LIG d   1       6.116  -0.625  -8.696  0.00  0.00     0.024 H 
ATOM     42  H   LIG d   1       5.661   1.070  -8.994  0.00  0.00     0.024 H 
ENDBRANCH   1  39
BRANCH  17  43
ATOM     43  O   LIG d   1       6.015   1.186  -3.821  0.00  0.00    -0.388 OA
ATOM     44  H   LIG d   1       6.883   1.090  -4.237  0.00  0.00     0.210 HD
ENDBRANCH  17  43
BRANCH  16  45
ATOM     45  C   LIG d   1       3.979   1.308  -2.201  0.00  0.00    -0.055 C 
ATOM     46  H   LIG d   1       4.904   1.863  -2.357  0.00  0.00     0.024 H 
ATOM     47  H   LIG d   1       3.137   2.001  -2.185  0.00  0.00     0.024 H 
ATOM     48  H   LIG d   1       4.029   0.776  -1.252  0.00  0.00     0.024 H 
ENDBRANCH  16  45
BRANCH  20  49
ATOM     49  O   LIG d   1       2.228  -1.585  -3.475  0.00  0.00    -0.391 OA
ATOM     50  H   LIG d   1       1.415  -1.729  -2.971  0.00  0.00     0.210 HD
ENDBRANCH  20  49
TORSDOF 4
ENDMDL
MODEL 2
REMARK VINA RESULT:      -6.9      2.322      5.838
REMARK  4 active torsions:
REMARK  status: ('A' for Active; 'I' for Inactive)
REMARK    1  A    between atoms: C_1  and  C_2 
REMARK    2  A    between atoms: C_17  and  C_25 
REMARK    3  A    between atoms: C_18  and  O_24 
REMARK    4  A    between atoms: C_21  and  O_23 
ROOT
ATOM      1  C   LIG d   1       4.523  -1.523  -3.714  0.00  0.00    -0.007 C 
ATOM      2  C   LIG d   1       3.834  -0.170  -3.708  0.00  0.00    -0.037 C 
ATOM      3  C   LIG d   1       4.487   0.807  -2.730  0.00  0.00     0.011 C 
ATOM      4  C   LIG d   1       5.947   0.923  -3.122  0.00  0.00     0.156 C 
ATOM      5  O   LIG d   1       6.477   1.995  -3.319  0.00  0.00    -0.293 OA
ATOM      6  C   LIG d   1       6.679  -0.343  -3.251  0.00  0.00    -0.019 C 
ATOM      7  C   LIG d   1       6.008  -1.462  -3.525  0.00  0.00    -0.060 C 
ATOM      8  C   LIG d   1       6.803  -2.749  -3.658  0.00  0.00    -0.030 C 
ATOM      9  C   LIG d   1       6.440  -3.408  -4.995  0.00  0.00    -0.044 C 
ATOM     10  C   LIG d   1       4.930  -3.613  -5.067  0.00  0.00    -0.008 C 
ATOM     11  H   LIG d   1       4.628  -4.217  -4.195  0.00  0.00     0.033 H 
ATOM     12  C   LIG d   1       4.201  -2.274  -5.007  0.00  0.00    -0.026 C 
ATOM     13  H   LIG d   1       3.123  -2.449  -5.061  0.00  0.00     0.031 H 
ATOM     14  C   LIG d   1       4.636  -1.450  -6.223  0.00  0.00    -0.048 C 
ATOM     15  C   LIG d   1       4.114  -2.143  -7.478  0.00  0.00    -0.042 C 
ATOM     16  C   LIG d   1       4.569  -3.576  -7.607  0.00  0.00     0.023 C 
ATOM     17  C   LIG d   1       4.531  -4.395  -6.316  0.00  0.00     0.077 C 
ATOM     18  C   LIG d   1       5.599  -5.499  -6.545  0.00  0.00    -0.021 C 
ATOM     19  C   LIG d   1       6.670  -4.852  -7.442  0.00  0.00    -0.024 C 
ATOM     20  C   LIG d   1       5.975  -3.709  -8.201  0.00  0.00     0.063 C 
ATOM     21  H   LIG d   1       5.895  -3.972  -9.264  0.00  0.00     0.060 H 
ATOM     22  H   LIG d   1       2.791  -0.311  -3.413  0.00  0.00     0.028 H 
ATOM     23  H   LIG d   1       3.857   0.268  -4.701  0.00  0.00     0.028 H 
ATOM     24  H   LIG d   1       4.393   0.459  -1.797  0.00  0.00     0.035 H 
ATOM     25  H   LIG d   1       4.006   1.783  -2.808  0.00  0.00     0.035 H 
ATOM     26  H   LIG d   1       7.750  -0.366  -3.125  0.00  0.00     0.065 H 
ATOM     27  H   LIG d   1       6.562  -3.424  -2.841  0.00  0.00     0.031 H 
ATOM     28  H   LIG d   1       7.869  -2.523  -3.645  0.00  0.00     0.031 H 
ATOM     29  H   LIG d   1       6.951  -4.372  -5.045  0.00  0.00     0.027 H 
ATOM     30  H   LIG d   1       6.782  -2.776  -5.810  0.00  0.00     0.027 H 
ATOM     31  H   LIG d   1       4.207  -0.447  -6.173  0.00  0.00     0.027 H 
ATOM     32  H   LIG d   1       5.720  -1.370  -6.255  0.00  0.00     0.027 H 
ATOM     33  H   LIG d   1       3.019  -2.125  -7.457  0.00  0.00     0.027 H 
ATOM     34  H   LIG d   1       4.442  -1.584  -8.357  0.00  0.00     0.027 H 
ATOM     35  H   LIG d   1       6.030  -5.826  -5.597  0.00  0.00     0.029 H 
ATOM     36  H   LIG d   1       5.151  -6.362  -7.050  0.00  0.00     0.029 H 
ATOM     37  H   LIG d   1       7.053  -5.589  -8.154  0.00  0.00     0.029 H 
ATOM     38  H   LIG d   1       7.494  -4.466  -6.845  0.00  0.00     0.029 H 
ENDROOT
BRANCH   1  39
ATOM     39  C   LIG d   1       3.935  -2.322  -2.544  0.00  0.00    -0.056 C 
ATOM     40  H   LIG d   1       3.072  -2.892  -2.890  0.00  0.00     0.024 H 
ATOM     41  H   LIG d   1       4.688  -3.006  -2.154  0.00  0.00     0.024 H 
ATOM     42  H   LIG d   1       3.623  -1.636  -1.755  0.00  0.00     0.024 H 
ENDBRANCH   1  39
BRANCH  17  43
ATOM     43  O   LIG d   1       3.225  -4.988  -6.132  0.00  0.00    -0.388 OA
ATOM     44  H   LIG d   1       2.701  -5.044  -6.943  0.00  0.00     0.210 HD
ENDBRANCH  17  43
BRANCH  16  45
ATOM     45  C   LIG d   1       3.598  -4.255  -8.604  0.00  0.00    -0.055 C 
ATOM     46  H   LIG d   1       3.759  -5.333  -8.589  0.00  0.00     0.024 H 
ATOM     47  H   LIG d   1       2.570  -4.036  -8.315  0.00  0.00     0.024 H 
ATOM     48  H   LIG d   1       3.784  -3.873  -9.607  0.00  0.00     0.024 H 
ENDBRANCH  16  45
BRANCH  20  49
ATOM     49  O   LIG d   1       6.710  -2.494  -8.075  0.00  0.00    -0.391 OA
ATOM     50  H   LIG d   1       6.202  -1.702  -8.300  0.00  0.00     0.210 HD
ENDBRANCH  20  49
TORSDOF 4
ENDMDL
MODEL 3
REMARK VINA RESULT:      -6.6      1.727      5.664
REMARK  4 active torsions:
REMARK  status: ('A' for Active; 'I' for Inactive)
REMARK    1  A    between atoms: C_1  and  C_2 
REMARK    2  A    between atoms: C_17  and  C_25 
REMARK    3  A    between atoms: C_18  and  O_24 
REMARK    4  A    between atoms: C_21  and  O_23 
ROOT
ATOM      1  C   LIG d   1       4.612  -1.500  -4.362  0.00  0.00    -0.007 C 
ATOM      2  C   LIG d   1       3.613  -1.253  -3.246  0.00  0.00    -0.037 C 
ATOM      3  C   LIG d   1       4.293  -0.838  -1.942  0.00  0.00     0.011 C 
ATOM      4  C   LIG d   1       5.117   0.399  -2.240  0.00  0.00     0.156 C 
ATOM      5  O   LIG d   1       5.013   1.415  -1.589  0.00  0.00    -0.293 OA
ATOM      6  C   LIG d   1       6.048   0.292  -3.371  0.00  0.00    -0.019 C 
ATOM      7  C   LIG d   1       5.800  -0.588  -4.342  0.00  0.00    -0.060 C 
ATOM      8  C   LIG d   1       6.783  -0.662  -5.497  0.00  0.00    -0.030 C 
ATOM      9  C   LIG d   1       6.001  -0.526  -6.810  0.00  0.00    -0.044 C 
ATOM     10  C   LIG d   1       4.912  -1.592  -6.865  0.00  0.00    -0.008 C 
ATOM     11  H   LIG d   1       5.395  -2.577  -6.755  0.00  0.00     0.033 H 
ATOM     12  C   LIG d   1       3.918  -1.407  -5.722  0.00  0.00    -0.026 C 
ATOM     13  H   LIG d   1       3.149  -2.183  -5.786  0.00  0.00     0.031 H 
ATOM     14  C   LIG d   1       3.260  -0.035  -5.892  0.00  0.00    -0.048 C 
ATOM     15  C   LIG d   1       2.418  -0.065  -7.163  0.00  0.00    -0.042 C 
ATOM     16  C   LIG d   1       3.203  -0.442  -8.396  0.00  0.00     0.023 C 
ATOM     17  C   LIG d   1       4.197  -1.591  -8.214  0.00  0.00     0.077 C 
ATOM     18  C   LIG d   1       5.263  -1.338  -9.315  0.00  0.00    -0.021 C 
ATOM     19  C   LIG d   1       5.321   0.192  -9.483  0.00  0.00    -0.024 C 
ATOM     20  C   LIG d   1       3.963   0.738  -9.009  0.00  0.00     0.063 C 
ATOM     21  H   LIG d   1       3.402   1.121  -9.871  0.00  0.00     0.060 H 
ATOM     22  H   LIG d   1       3.053  -2.175  -3.067  0.00  0.00     0.028 H 
ATOM     23  H   LIG d   1       2.913  -0.474  -3.534  0.00  0.00     0.028 H 
ATOM     24  H   LIG d   1       4.874  -1.586  -1.615  0.00  0.00     0.035 H 
ATOM     25  H   LIG d   1       3.538  -0.605  -1.190  0.00  0.00     0.035 H 
ATOM     26  H   LIG d   1       6.924   0.920  -3.414  0.00  0.00     0.065 H 
ATOM     27  H   LIG d   1       7.308  -1.615  -5.481  0.00  0.00     0.031 H 
ATOM     28  H   LIG d   1       7.502   0.154  -5.418  0.00  0.00     0.031 H 
ATOM     29  H   LIG d   1       6.702  -0.664  -7.636  0.00  0.00     0.027 H 
ATOM     30  H   LIG d   1       5.568   0.469  -6.866  0.00  0.00     0.027 H 
ATOM     31  H   LIG d   1       2.606   0.178  -5.044  0.00  0.00     0.027 H 
ATOM     32  H   LIG d   1       4.020   0.741  -5.956  0.00  0.00     0.027 H 
ATOM     33  H   LIG d   1       1.608  -0.791  -7.029  0.00  0.00     0.027 H 
ATOM     34  H   LIG d   1       1.965   0.917  -7.315  0.00  0.00     0.027 H 
ATOM     35  H   LIG d   1       6.234  -1.734  -9.015  0.00  0.00     0.029 H 
ATOM     36  H   LIG d   1       4.958  -1.812 -10.255  0.00  0.00     0.029 H 
ATOM     37  H   LIG d   1       5.473   0.444 -10.536  0.00  0.00     0.029 H 
ATOM     38  H   LIG d   1       6.129   0.616  -8.891  0.00  0.00     0.029 H 
ENDROOT
BRANCH   1  39
ATOM     39  C   LIG d   1       5.121  -2.937  -4.187  0.00  0.00    -0.056 C 
ATOM     40  H   LIG d   1       5.701  -3.008  -3.266  0.00  0.00     0.024 H 
ATOM     41  H   LIG d   1       4.274  -3.620  -4.135  0.00  0.00     0.024 H 
ATOM     42  H   LIG d   1       5.752  -3.204  -5.036  0.00  0.00     0.024 H 
ENDBRANCH   1  39
BRANCH  17  43
ATOM     43  O   LIG d   1       3.543  -2.863  -8.429  0.00  0.00    -0.388 OA
ATOM     44  H   LIG d   1       3.023  -2.906  -9.243  0.00  0.00     0.210 HD
ENDBRANCH  17  43
BRANCH  16  45
ATOM     45  C   LIG d   1       2.167  -0.901  -9.450  0.00  0.00    -0.055 C 
ATOM     46  H   LIG d   1       2.303  -0.325 -10.366  0.00  0.00     0.024 H 
ATOM     47  H   LIG d   1       2.310  -1.961  -9.663  0.00  0.00     0.024 H 
ATOM     48  H   LIG d   1       1.162  -0.740  -9.064  0.00  0.00     0.024 H 
ENDBRANCH  16  45
BRANCH  20  49
ATOM     49  O   LIG d   1       4.140   1.790  -8.063  0.00  0.00    -0.391 OA
ATOM     50  H   LIG d   1       5.044   1.869  -7.728  0.00  0.00     0.210 HD
ENDBRANCH  20  49
TORSDOF 4
ENDMDL
MODEL 4
REMARK VINA RESULT:      -6.6      1.817      3.183
REMARK  4 active torsions:
REMARK  status: ('A' for Active; 'I' for Inactive)
REMARK    1  A    between atoms: C_1  and  C_2 
REMARK    2  A    between atoms: C_17  and  C_25 
REMARK    3  A    between atoms: C_18  and  O_24 
REMARK    4  A    between atoms: C_21  and  O_23 
ROOT
ATOM      1  C   LIG d   1       4.242  -0.587  -7.780  0.00  0.00    -0.007 C 
ATOM      2  C   LIG d   1       5.144  -0.166  -8.926  0.00  0.00    -0.037 C 
ATOM      3  C   LIG d   1       4.434   0.761  -9.912  0.00  0.00     0.011 C 
ATOM      4  C   LIG d   1       3.935   1.956  -9.123  0.00  0.00     0.156 C 
ATOM      5  O   LIG d   1       4.187   3.095  -9.451  0.00  0.00    -0.293 OA
ATOM      6  C   LIG d   1       3.131   1.648  -7.933  0.00  0.00    -0.019 C 
ATOM      7  C   LIG d   1       3.284   0.472  -7.325  0.00  0.00    -0.060 C 
ATOM      8  C   LIG d   1       2.440   0.197  -6.094  0.00  0.00    -0.030 C 
ATOM      9  C   LIG d   1       3.370  -0.239  -4.954  0.00  0.00    -0.044 C 
ATOM     10  C   LIG d   1       4.200  -1.435  -5.405  0.00  0.00    -0.008 C 
ATOM     11  H   LIG d   1       3.506  -2.232  -5.719  0.00  0.00     0.033 H 
ATOM     12  C   LIG d   1       5.081  -1.063  -6.594  0.00  0.00    -0.026 C 
ATOM     13  H   LIG d   1       5.666  -1.937  -6.895  0.00  0.00     0.031 H 
ATOM     14  C   LIG d   1       6.037   0.045  -6.139  0.00  0.00    -0.048 C 
ATOM     15  C   LIG d   1       6.984  -0.542  -5.098  0.00  0.00    -0.042 C 
ATOM     16  C   LIG d   1       6.273  -1.159  -3.917  0.00  0.00     0.023 C 
ATOM     17  C   LIG d   1       5.040  -1.997  -4.259  0.00  0.00     0.077 C 
ATOM     18  C   LIG d   1       4.179  -1.936  -2.968  0.00  0.00    -0.021 C 
ATOM     19  C   LIG d   1       4.474  -0.558  -2.346  0.00  0.00    -0.024 C 
ATOM     20  C   LIG d   1       5.859  -0.130  -2.861  0.00  0.00     0.063 C 
ATOM     21  H   LIG d   1       6.579  -0.151  -2.033  0.00  0.00     0.060 H 
ATOM     22  H   LIG d   1       5.467  -1.061  -9.464  0.00  0.00     0.028 H 
ATOM     23  H   LIG d   1       6.023   0.344  -8.544  0.00  0.00     0.028 H 
ATOM     24  H   LIG d   1       3.673   0.272 -10.341  0.00  0.00     0.035 H 
ATOM     25  H   LIG d   1       5.135   1.093 -10.678  0.00  0.00     0.035 H 
ATOM     26  H   LIG d   1       2.422   2.369  -7.556  0.00  0.00     0.065 H 
ATOM     27  H   LIG d   1       1.722  -0.594  -6.302  0.00  0.00     0.031 H 
ATOM     28  H   LIG d   1       1.911   1.104  -5.802  0.00  0.00     0.031 H 
ATOM     29  H   LIG d   1       2.748  -0.515  -4.099  0.00  0.00     0.027 H 
ATOM     30  H   LIG d   1       4.012   0.594  -4.679  0.00  0.00     0.027 H 
ATOM     31  H   LIG d   1       6.626   0.406  -6.984  0.00  0.00     0.027 H 
ATOM     32  H   LIG d   1       5.475   0.876  -5.718  0.00  0.00     0.027 H 
ATOM     33  H   LIG d   1       7.597  -1.313  -5.577  0.00  0.00     0.027 H 
ATOM     34  H   LIG d   1       7.653   0.244  -4.741  0.00  0.00     0.027 H 
ATOM     35  H   LIG d   1       3.119  -2.040  -3.202  0.00  0.00     0.029 H 
ATOM     36  H   LIG d   1       4.473  -2.735  -2.278  0.00  0.00     0.029 H 
ATOM     37  H   LIG d   1       4.494  -0.640  -1.255  0.00  0.00     0.029 H 
ATOM     38  H   LIG d   1       3.718   0.168  -2.637  0.00  0.00     0.029 H 
ENDROOT
BRANCH   1  39
ATOM     39  C   LIG d   1       3.416  -1.779  -8.284  0.00  0.00    -0.056 C 
ATOM     40  H   LIG d   1       2.746  -1.447  -9.078  0.00  0.00     0.024 H 
ATOM     41  H   LIG d   1       4.085  -2.547  -8.671  0.00  0.00     0.024 H 
ATOM     42  H   LIG d   1       2.829  -2.188  -7.461  0.00  0.00     0.024 H 
ENDBRANCH   1  39
BRANCH  17  43
ATOM     43  O   LIG d   1       5.421  -3.362  -4.548  0.00  0.00    -0.388 OA
ATOM     44  H   LIG d   1       6.187  -3.441  -5.132  0.00  0.00     0.210 HD
ENDBRANCH  17  43
BRANCH  16  45
ATOM     45  C   LIG d   1       7.292  -2.107  -3.240  0.00  0.00    -0.055 C 
ATOM     46  H   LIG d   1       6.757  -2.904  -2.723  0.00  0.00     0.024 H 
ATOM     47  H   LIG d   1       7.945  -2.539  -3.998  0.00  0.00     0.024 H 
ATOM     48  H   LIG d   1       7.889  -1.544  -2.524  0.00  0.00     0.024 H 
ENDBRANCH  16  45
BRANCH  20  49
ATOM     49  O   LIG d   1       5.813   1.186  -3.407  0.00  0.00    -0.391 OA
ATOM     50  H   LIG d   1       6.622   1.449  -3.867  0.00  0.00     0.210 HD
ENDBRANCH  20  49
TORSDOF 4
ENDMDL
MODEL 5
REMARK VINA RESULT:      -6.4      2.824      4.201
REMARK  4 active torsions:
REMARK  status: ('A' for Active; 'I' for Inactive)
REMARK    1  A    between atoms: C_1  and  C_2 
REMARK    2  A    between atoms: C_17  and  C_25 
REMARK    3  A    between atoms: C_18  and  O_24 
REMARK    4  A    between atoms: C_21  and  O_23 
ROOT
ATOM      1  C   LIG d   1       8.075  -0.758  -5.574  0.00  0.00    -0.007 C 
ATOM      2  C   LIG d   1       8.283  -0.678  -7.075  0.00  0.00    -0.037 C 
ATOM      3  C   LIG d   1       9.417  -1.585  -7.551  0.00  0.00     0.011 C 
ATOM      4  C   LIG d   1       9.080  -2.995  -7.105  0.00  0.00     0.156 C 
ATOM      5  O   LIG d   1       9.068  -3.928  -7.877  0.00  0.00    -0.293 OA
ATOM      6  C   LIG d   1       8.765  -3.158  -5.681  0.00  0.00    -0.019 C 
ATOM      7  C   LIG d   1       8.302  -2.117  -4.988  0.00  0.00    -0.060 C 
ATOM      8  C   LIG d   1       7.981  -2.331  -3.520  0.00  0.00    -0.030 C 
ATOM      9  C   LIG d   1       6.549  -1.847  -3.259  0.00  0.00    -0.044 C 
ATOM     10  C   LIG d   1       6.414  -0.396  -3.709  0.00  0.00    -0.008 C 
ATOM     11  H   LIG d   1       7.171   0.198  -3.172  0.00  0.00     0.033 H 
ATOM     12  C   LIG d   1       6.672  -0.270  -5.208  0.00  0.00    -0.026 C 
ATOM     13  H   LIG d   1       6.568   0.778  -5.503  0.00  0.00     0.031 H 
ATOM     14  C   LIG d   1       5.612  -1.103  -5.936  0.00  0.00    -0.048 C 
ATOM     15  C   LIG d   1       4.253  -0.453  -5.700  0.00  0.00    -0.042 C 
ATOM     16  C   LIG d   1       3.905  -0.298  -4.240  0.00  0.00     0.023 C 
ATOM     17  C   LIG d   1       5.048   0.178  -3.342  0.00  0.00     0.077 C 
ATOM     18  C   LIG d   1       4.668  -0.366  -1.937  0.00  0.00    -0.021 C 
ATOM     19  C   LIG d   1       3.908  -1.679  -2.200  0.00  0.00    -0.024 C 
ATOM     20  C   LIG d   1       3.327  -1.574  -3.621  0.00  0.00     0.063 C 
ATOM     21  H   LIG d   1       2.235  -1.485  -3.562  0.00  0.00     0.060 H 
ATOM     22  H   LIG d   1       8.530   0.353  -7.340  0.00  0.00     0.028 H 
ATOM     23  H   LIG d   1       7.373  -0.961  -7.596  0.00  0.00     0.028 H 
ATOM     24  H   LIG d   1      10.281  -1.279  -7.148  0.00  0.00     0.035 H 
ATOM     25  H   LIG d   1       9.486  -1.550  -8.638  0.00  0.00     0.035 H 
ATOM     26  H   LIG d   1       8.909  -4.113  -5.199  0.00  0.00     0.065 H 
ATOM     27  H   LIG d   1       8.675  -1.768  -2.899  0.00  0.00     0.031 H 
ATOM     28  H   LIG d   1       8.053  -3.392  -3.280  0.00  0.00     0.031 H 
ATOM     29  H   LIG d   1       6.356  -1.926  -2.187  0.00  0.00     0.027 H 
ATOM     30  H   LIG d   1       5.853  -2.484  -3.799  0.00  0.00     0.027 H 
ATOM     31  H   LIG d   1       5.813  -1.115  -7.009  0.00  0.00     0.027 H 
ATOM     32  H   LIG d   1       5.617  -2.125  -5.564  0.00  0.00     0.027 H 
ATOM     33  H   LIG d   1       4.253   0.538  -6.167  0.00  0.00     0.027 H 
ATOM     34  H   LIG d   1       3.481  -1.053  -6.189  0.00  0.00     0.027 H 
ATOM     35  H   LIG d   1       5.560  -0.545  -1.335  0.00  0.00     0.029 H 
ATOM     36  H   LIG d   1       4.022   0.349  -1.415  0.00  0.00     0.029 H 
ATOM     37  H   LIG d   1       3.096  -1.790  -1.476  0.00  0.00     0.029 H 
ATOM     38  H   LIG d   1       4.576  -2.535  -2.125  0.00  0.00     0.029 H 
ENDROOT
BRANCH   1  39
ATOM     39  C   LIG d   1       9.090   0.202  -4.937  0.00  0.00    -0.056 C 
ATOM     40  H   LIG d   1       8.560   0.965  -4.367  0.00  0.00     0.024 H 
ATOM     41  H   LIG d   1       9.750  -0.355  -4.272  0.00  0.00     0.024 H 
ATOM     42  H   LIG d   1       9.680   0.678  -5.721  0.00  0.00     0.024 H 
ENDBRANCH   1  39
BRANCH  17  43
ATOM     43  O   LIG d   1       5.107   1.623  -3.323  0.00  0.00    -0.388 OA
ATOM     44  H   LIG d   1       5.908   1.979  -2.914  0.00  0.00     0.210 HD
ENDBRANCH  17  43
BRANCH  16  45
ATOM     45  C   LIG d   1       2.793   0.776  -4.167  0.00  0.00    -0.055 C 
ATOM     46  H   LIG d   1       3.237   1.741  -3.920  0.00  0.00     0.024 H 
ATOM     47  H   LIG d   1       2.289   0.843  -5.132  0.00  0.00     0.024 H 
ATOM     48  H   LIG d   1       2.072   0.499  -3.399  0.00  0.00     0.024 H 
ENDBRANCH  16  45
BRANCH  20  49
ATOM     49  O   LIG d   1       3.661  -2.725  -4.393  0.00  0.00    -0.391 OA
ATOM     50  H   LIG d   1       4.468  -2.625  -4.917  0.00  0.00     0.210 HD
ENDBRANCH  20  49
TORSDOF 4
ENDMDL
MODEL 6
REMARK VINA RESULT:      -5.9      2.083      5.808
REMARK  4 active torsions:
REMARK  status: ('A' for Active; 'I' for Inactive)
REMARK    1  A    between atoms: C_1  and  C_2 
REMARK    2  A    between atoms: C_17  and  C_25 
REMARK    3  A    between atoms: C_18  and  O_24 
REMARK    4  A    between atoms: C_21  and  O_23 
ROOT
ATOM      1  C   LIG d   1       5.852  -1.448  -6.450  0.00  0.00    -0.007 C 
ATOM      2  C   LIG d   1       5.330  -2.098  -5.182  0.00  0.00    -0.037 C 
ATOM      3  C   LIG d   1       6.277  -1.902  -3.999  0.00  0.00     0.011 C 
ATOM      4  C   LIG d   1       6.472  -0.408  -3.824  0.00  0.00     0.156 C 
ATOM      5  O   LIG d   1       6.295   0.143  -2.760  0.00  0.00    -0.293 OA
ATOM      6  C   LIG d   1       6.883   0.329  -5.025  0.00  0.00    -0.019 C 
ATOM      7  C   LIG d   1       6.589  -0.163  -6.229  0.00  0.00    -0.060 C 
ATOM      8  C   LIG d   1       7.026   0.635  -7.444  0.00  0.00    -0.030 C 
ATOM      9  C   LIG d   1       5.807   0.844  -8.352  0.00  0.00    -0.044 C 
ATOM     10  C   LIG d   1       5.193  -0.509  -8.697  0.00  0.00    -0.008 C 
ATOM     11  H   LIG d   1       5.976  -1.127  -9.167  0.00  0.00     0.033 H 
ATOM     12  C   LIG d   1       4.706  -1.218  -7.437  0.00  0.00    -0.026 C 
ATOM     13  H   LIG d   1       4.271  -2.182  -7.713  0.00  0.00     0.031 H 
ATOM     14  C   LIG d   1       3.622  -0.344  -6.798  0.00  0.00    -0.048 C 
ATOM     15  C   LIG d   1       2.421  -0.313  -7.739  0.00  0.00    -0.042 C 
ATOM     16  C   LIG d   1       2.757   0.173  -9.128  0.00  0.00     0.023 C 
ATOM     17  C   LIG d   1       4.062  -0.367  -9.714  0.00  0.00     0.077 C 
ATOM     18  C   LIG d   1       4.485   0.717 -10.743  0.00  0.00    -0.021 C 
ATOM     19  C   LIG d   1       3.969   2.049 -10.168  0.00  0.00    -0.024 C 
ATOM     20  C   LIG d   1       2.795   1.700  -9.237  0.00  0.00     0.063 C 
ATOM     21  H   LIG d   1       1.857   2.055  -9.684  0.00  0.00     0.060 H 
ATOM     22  H   LIG d   1       5.216  -3.171  -5.361  0.00  0.00     0.028 H 
ATOM     23  H   LIG d   1       4.360  -1.686  -4.921  0.00  0.00     0.028 H 
ATOM     24  H   LIG d   1       7.149  -2.357  -4.189  0.00  0.00     0.035 H 
ATOM     25  H   LIG d   1       5.833  -2.323  -3.097  0.00  0.00     0.035 H 
ATOM     26  H   LIG d   1       7.419   1.261  -4.932  0.00  0.00     0.065 H 
ATOM     27  H   LIG d   1       7.798   0.096  -7.989  0.00  0.00     0.031 H 
ATOM     28  H   LIG d   1       7.410   1.605  -7.128  0.00  0.00     0.031 H 
ATOM     29  H   LIG d   1       6.146   1.344  -9.262  0.00  0.00     0.027 H 
ATOM     30  H   LIG d   1       5.085   1.474  -7.841  0.00  0.00     0.027 H 
ATOM     31  H   LIG d   1       3.308  -0.769  -5.843  0.00  0.00     0.027 H 
ATOM     32  H   LIG d   1       4.001   0.662  -6.630  0.00  0.00     0.027 H 
ATOM     33  H   LIG d   1       2.010  -1.326  -7.813  0.00  0.00     0.027 H 
ATOM     34  H   LIG d   1       1.650   0.331  -7.312  0.00  0.00     0.027 H 
ATOM     35  H   LIG d   1       5.568   0.737 -10.864  0.00  0.00     0.029 H 
ATOM     36  H   LIG d   1       4.020   0.518 -11.716  0.00  0.00     0.029 H 
ATOM     37  H   LIG d   1       3.619   2.693 -10.979  0.00  0.00     0.029 H 
ATOM     38  H   LIG d   1       4.754   2.561  -9.615  0.00  0.00     0.029 H 
ENDROOT
BRANCH   1  39
ATOM     39  C   LIG d   1       6.830  -2.445  -7.086  0.00  0.00    -0.056 C 
ATOM     40  H   LIG d   1       6.729  -2.412  -8.171  0.00  0.00     0.024 H 
ATOM     41  H   LIG d   1       7.851  -2.182  -6.809  0.00  0.00     0.024 H 
ATOM     42  H   LIG d   1       6.605  -3.452  -6.731  0.00  0.00     0.024 H 
ENDBRANCH   1  39
BRANCH  17  43
ATOM     43  O   LIG d   1       3.832  -1.631 -10.378  0.00  0.00    -0.388 OA
ATOM     44  H   LIG d   1       4.437  -1.805 -11.112  0.00  0.00     0.210 HD
ENDBRANCH  17  43
BRANCH  16  45
ATOM     45  C   LIG d   1       1.611  -0.311 -10.049  0.00  0.00    -0.055 C 
ATOM     46  H   LIG d   1       1.850  -0.064 -11.084  0.00  0.00     0.024 H 
ATOM     47  H   LIG d   1       1.497  -1.391  -9.950  0.00  0.00     0.024 H 
ATOM     48  H   LIG d   1       0.683   0.181  -9.762  0.00  0.00     0.024 H 
ENDBRANCH  16  45
BRANCH  20  49
ATOM     49  O   LIG d   1       2.962   2.309  -7.958  0.00  0.00    -0.391 OA
ATOM     50  H   LIG d   1       3.798   2.784  -7.856  0.00  0.00     0.210 HD
ENDBRANCH  20  49
TORSDOF 4
ENDMDL
MODEL 7
REMARK VINA RESULT:      -5.6      2.573      5.541
REMARK  4 active torsions:
REMARK  status: ('A' for Active; 'I' for Inactive)
REMARK    1  A    between atoms: C_1  and  C_2 
REMARK    2  A    between atoms: C_17  and  C_25 
REMARK    3  A    between atoms: C_18  and  O_24 
REMARK    4  A    between atoms: C_21  and  O_23 
ROOT
ATOM      1  C   LIG d   1       5.769  -0.958  -4.969  0.00  0.00    -0.007 C 
ATOM      2  C   LIG d   1       6.017  -0.876  -3.473  0.00  0.00    -0.037 C 
ATOM      3  C   LIG d   1       5.322   0.327  -2.836  0.00  0.00     0.011 C 
ATOM      4  C   LIG d   1       3.844   0.210  -3.154  0.00  0.00     0.156 C 
ATOM      5  O   LIG d   1       2.994   0.260  -2.292  0.00  0.00    -0.293 OA
ATOM      6  C   LIG d   1       3.505   0.027  -4.571  0.00  0.00    -0.019 C 
ATOM      7  C   LIG d   1       4.403  -0.513  -5.395  0.00  0.00    -0.060 C 
ATOM      8  C   LIG d   1       4.010  -0.691  -6.850  0.00  0.00    -0.030 C 
ATOM      9  C   LIG d   1       4.268  -2.151  -7.248  0.00  0.00    -0.044 C 
ATOM     10  C   LIG d   1       5.723  -2.506  -6.960  0.00  0.00    -0.008 C 
ATOM     11  H   LIG d   1       6.361  -1.794  -7.508  0.00  0.00     0.033 H 
ATOM     12  C   LIG d   1       6.024  -2.381  -5.469  0.00  0.00    -0.026 C 
ATOM     13  H   LIG d   1       7.071  -2.641  -5.291  0.00  0.00     0.031 H 
ATOM     14  C   LIG d   1       5.127  -3.375  -4.726  0.00  0.00    -0.048 C 
ATOM     15  C   LIG d   1       5.560  -4.786  -5.112  0.00  0.00    -0.042 C 
ATOM     16  C   LIG d   1       5.528  -5.039  -6.600  0.00  0.00     0.023 C 
ATOM     17  C   LIG d   1       6.069  -3.903  -7.470  0.00  0.00     0.077 C 
ATOM     18  C   LIG d   1       5.347  -4.102  -8.831  0.00  0.00    -0.021 C 
ATOM     19  C   LIG d   1       3.974  -4.703  -8.482  0.00  0.00    -0.024 C 
ATOM     20  C   LIG d   1       4.132  -5.399  -7.119  0.00  0.00     0.063 C 
ATOM     21  H   LIG d   1       4.066  -6.486  -7.254  0.00  0.00     0.060 H 
ATOM     22  H   LIG d   1       7.093  -0.785  -3.302  0.00  0.00     0.028 H 
ATOM     23  H   LIG d   1       5.663  -1.779  -2.984  0.00  0.00     0.028 H 
ATOM     24  H   LIG d   1       5.704   1.172  -3.214  0.00  0.00     0.035 H 
ATOM     25  H   LIG d   1       5.469   0.309  -1.756  0.00  0.00     0.035 H 
ATOM     26  H   LIG d   1       2.538   0.329  -4.940  0.00  0.00     0.065 H 
ATOM     27  H   LIG d   1       4.601  -0.031  -7.481  0.00  0.00     0.031 H 
ATOM     28  H   LIG d   1       2.951  -0.465  -6.974  0.00  0.00     0.031 H 
ATOM     29  H   LIG d   1       4.063  -2.250  -8.317  0.00  0.00     0.027 H 
ATOM     30  H   LIG d   1       3.596  -2.797  -6.690  0.00  0.00     0.027 H 
ATOM     31  H   LIG d   1       5.243  -3.256  -3.647  0.00  0.00     0.027 H 
ATOM     32  H   LIG d   1       4.084  -3.210  -4.990  0.00  0.00     0.027 H 
ATOM     33  H   LIG d   1       6.581  -4.949  -4.752  0.00  0.00     0.027 H 
ATOM     34  H   LIG d   1       4.909  -5.508  -4.613  0.00  0.00     0.027 H 
ATOM     35  H   LIG d   1       5.236  -3.152  -9.355  0.00  0.00     0.029 H 
ATOM     36  H   LIG d   1       5.915  -4.794  -9.464  0.00  0.00     0.029 H 
ATOM     37  H   LIG d   1       3.686  -5.437  -9.240  0.00  0.00     0.029 H 
ATOM     38  H   LIG d   1       3.214  -3.927  -8.426  0.00  0.00     0.029 H 
ENDROOT
BRANCH   1  39
ATOM     39  C   LIG d   1       6.793  -0.030  -5.636  0.00  0.00    -0.056 C 
ATOM     40  H   LIG d   1       7.049  -0.421  -6.622  0.00  0.00     0.024 H 
ATOM     41  H   LIG d   1       6.367   0.967  -5.742  0.00  0.00     0.024 H 
ATOM     42  H   LIG d   1       7.692   0.021  -5.021  0.00  0.00     0.024 H 
ENDBRANCH   1  39
BRANCH  17  43
ATOM     43  O   LIG d   1       7.500  -4.030  -7.634  0.00  0.00    -0.388 OA
ATOM     44  H   LIG d   1       7.763  -4.532  -8.418  0.00  0.00     0.210 HD
ENDBRANCH  17  43
BRANCH  16  45
ATOM     45  C   LIG d   1       6.428  -6.272  -6.853  0.00  0.00    -0.055 C 
ATOM     46  H   LIG d   1       5.926  -7.169  -6.489  0.00  0.00     0.024 H 
ATOM     47  H   LIG d   1       6.619  -6.371  -7.922  0.00  0.00     0.024 H 
ATOM     48  H   LIG d   1       7.373  -6.145  -6.326  0.00  0.00     0.024 H 
ENDBRANCH  16  45
BRANCH  20  49
ATOM     49  O   LIG d   1       3.116  -4.978  -6.212  0.00  0.00    -0.391 OA
ATOM     50  H   LIG d   1       2.255  -5.389  -6.368  0.00  0.00     0.210 HD
ENDBRANCH  20  49
TORSDOF 4
ENDMDL
MODEL 8
REMARK VINA RESULT:      -5.6      2.147      3.911
REMARK  4 active torsions:
REMARK  status: ('A' for Active; 'I' for Inactive)
REMARK    1  A    between atoms: C_1  and  C_2 
REMARK    2  A    between atoms: C_17  and  C_25 
REMARK    3  A    between atoms: C_18  and  O_24 
REMARK    4  A    between atoms: C_21  and  O_23 
ROOT
ATOM      1  C   LIG d   1       6.396  -1.612  -6.940  0.00  0.00    -0.007 C 
ATOM      2  C   LIG d   1       7.898  -1.804  -7.050  0.00  0.00    -0.037 C 
ATOM      3  C   LIG d   1       8.446  -1.320  -8.392  0.00  0.00     0.011 C 
ATOM      4  C   LIG d   1       8.055   0.138  -8.535  0.00  0.00     0.156 C 
ATOM      5  O   LIG d   1       8.868   1.001  -8.786  0.00  0.00    -0.293 OA
ATOM      6  C   LIG d   1       6.631   0.442  -8.347  0.00  0.00    -0.019 C 
ATOM      7  C   LIG d   1       5.880  -0.375  -7.608  0.00  0.00    -0.060 C 
ATOM      8  C   LIG d   1       4.414  -0.020  -7.431  0.00  0.00    -0.030 C 
ATOM      9  C   LIG d   1       4.092  -0.017  -5.931  0.00  0.00    -0.044 C 
ATOM     10  C   LIG d   1       4.471  -1.365  -5.328  0.00  0.00    -0.008 C 
ATOM     11  H   LIG d   1       3.929  -2.149  -5.880  0.00  0.00     0.033 H 
ATOM     12  C   LIG d   1       5.969  -1.617  -5.471  0.00  0.00    -0.026 C 
ATOM     13  H   LIG d   1       6.214  -2.588  -5.030  0.00  0.00     0.031 H 
ATOM     14  C   LIG d   1       6.705  -0.517  -4.699  0.00  0.00    -0.048 C 
ATOM     15  C   LIG d   1       6.401  -0.694  -3.215  0.00  0.00    -0.042 C 
ATOM     16  C   LIG d   1       4.926  -0.682  -2.896  0.00  0.00     0.023 C 
ATOM     17  C   LIG d   1       4.040  -1.464  -3.866  0.00  0.00     0.077 C 
ATOM     18  C   LIG d   1       2.651  -0.780  -3.736  0.00  0.00    -0.021 C 
ATOM     19  C   LIG d   1       2.952   0.696  -3.418  0.00  0.00    -0.024 C 
ATOM     20  C   LIG d   1       4.349   0.732  -2.775  0.00  0.00     0.063 C 
ATOM     21  H   LIG d   1       4.256   0.996  -1.714  0.00  0.00     0.060 H 
ATOM     22  H   LIG d   1       8.122  -2.869  -6.948  0.00  0.00     0.028 H 
ATOM     23  H   LIG d   1       8.405  -1.266  -6.255  0.00  0.00     0.028 H 
ATOM     24  H   LIG d   1       8.054  -1.870  -9.131  0.00  0.00     0.035 H 
ATOM     25  H   LIG d   1       9.532  -1.412  -8.402  0.00  0.00     0.035 H 
ATOM     26  H   LIG d   1       6.198   1.318  -8.803  0.00  0.00     0.065 H 
ATOM     27  H   LIG d   1       3.788  -0.752  -7.938  0.00  0.00     0.031 H 
ATOM     28  H   LIG d   1       4.225   0.971  -7.844  0.00  0.00     0.031 H 
ATOM     29  H   LIG d   1       3.019   0.156  -5.817  0.00  0.00     0.027 H 
ATOM     30  H   LIG d   1       4.640   0.788  -5.450  0.00  0.00     0.027 H 
ATOM     31  H   LIG d   1       7.782  -0.606  -4.849  0.00  0.00     0.027 H 
ATOM     32  H   LIG d   1       6.380   0.463  -5.041  0.00  0.00     0.027 H 
ATOM     33  H   LIG d   1       6.822  -1.650  -2.883  0.00  0.00     0.027 H 
ATOM     34  H   LIG d   1       6.895   0.102  -2.652  0.00  0.00     0.027 H 
ATOM     35  H   LIG d   1       2.083  -0.872  -4.662  0.00  0.00     0.029 H 
ATOM     36  H   LIG d   1       2.079  -1.235  -2.919  0.00  0.00     0.029 H 
ATOM     37  H   LIG d   1       2.211   1.083  -2.713  0.00  0.00     0.029 H 
ATOM     38  H   LIG d   1       2.934   1.299  -4.324  0.00  0.00     0.029 H 
ENDROOT
BRANCH   1  39
ATOM     39  C   LIG d   1       5.745  -2.820  -7.626  0.00  0.00    -0.056 C 
ATOM     40  H   LIG d   1       5.340  -2.516  -8.591  0.00  0.00     0.024 H 
ATOM     41  H   LIG d   1       6.492  -3.600  -7.776  0.00  0.00     0.024 H 
ATOM     42  H   LIG d   1       4.940  -3.204  -6.998  0.00  0.00     0.024 H 
ENDBRANCH   1  39
BRANCH  17  43
ATOM     43  O   LIG d   1       3.957  -2.852  -3.468  0.00  0.00    -0.388 OA
ATOM     44  H   LIG d   1       4.201  -3.012  -2.546  0.00  0.00     0.210 HD
ENDBRANCH  17  43
BRANCH  16  45
ATOM     45  C   LIG d   1       4.773  -1.345  -1.506  0.00  0.00    -0.055 C 
ATOM     46  H   LIG d   1       4.436  -0.601  -0.785  0.00  0.00     0.024 H 
ATOM     47  H   LIG d   1       4.041  -2.151  -1.567  0.00  0.00     0.024 H 
ATOM     48  H   LIG d   1       5.734  -1.749  -1.190  0.00  0.00     0.024 H 
ENDBRANCH  16  45
BRANCH  20  49
ATOM     49  O   LIG d   1       5.182   1.691  -3.424  0.00  0.00    -0.391 OA
ATOM     50  H   LIG d   1       6.083   1.729  -3.074  0.00  0.00     0.210 HD
ENDBRANCH  20  49
TORSDOF 4
ENDMDL
MODEL 9
REMARK VINA RESULT:      -5.6      2.046      3.333
REMARK  4 active torsions:
REMARK  status: ('A' for Active; 'I' for Inactive)
REMARK    1  A    between atoms: C_1  and  C_2 
REMARK    2  A    between atoms: C_17  and  C_25 
REMARK    3  A    between atoms: C_18  and  O_24 
REMARK    4  A    between atoms: C_21  and  O_23 
ROOT
ATOM      1  C   LIG d   1       4.319  -1.761  -7.943  0.00  0.00    -0.007 C 
ATOM      2  C   LIG d   1       4.085  -3.095  -8.628  0.00  0.00    -0.037 C 
ATOM      3  C   LIG d   1       4.739  -3.159 -10.008  0.00  0.00     0.011 C 
ATOM      4  C   LIG d   1       6.217  -2.878  -9.816  0.00  0.00     0.156 C 
ATOM      5  O   LIG d   1       7.074  -3.619 -10.245  0.00  0.00    -0.293 OA
ATOM      6  C   LIG d   1       6.546  -1.654  -9.075  0.00  0.00    -0.019 C 
ATOM      7  C   LIG d   1       5.660  -1.152  -8.214  0.00  0.00    -0.060 C 
ATOM      8  C   LIG d   1       6.043   0.110  -7.462  0.00  0.00    -0.030 C 
ATOM      9  C   LIG d   1       5.838  -0.137  -5.962  0.00  0.00    -0.044 C 
ATOM     10  C   LIG d   1       4.402  -0.585  -5.712  0.00  0.00    -0.008 C 
ATOM     11  H   LIG d   1       3.729   0.190  -6.114  0.00  0.00     0.033 H 
ATOM     12  C   LIG d   1       4.114  -1.899  -6.433  0.00  0.00    -0.026 C 
ATOM     13  H   LIG d   1       3.081  -2.197  -6.237  0.00  0.00     0.031 H 
ATOM     14  C   LIG d   1       5.059  -2.962  -5.864  0.00  0.00    -0.048 C 
ATOM     15  C   LIG d   1       4.678  -3.205  -4.407  0.00  0.00    -0.042 C 
ATOM     16  C   LIG d   1       4.702  -1.954  -3.562  0.00  0.00     0.023 C 
ATOM     17  C   LIG d   1       4.106  -0.708  -4.219  0.00  0.00     0.077 C 
ATOM     18  C   LIG d   1       4.818   0.469  -3.497  0.00  0.00    -0.021 C 
ATOM     19  C   LIG d   1       6.219  -0.060  -3.138  0.00  0.00    -0.024 C 
ATOM     20  C   LIG d   1       6.104  -1.593  -3.064  0.00  0.00     0.063 C 
ATOM     21  H   LIG d   1       6.213  -1.916  -2.021  0.00  0.00     0.060 H 
ATOM     22  H   LIG d   1       3.009  -3.243  -8.748  0.00  0.00     0.028 H 
ATOM     23  H   LIG d   1       4.480  -3.903  -8.021  0.00  0.00     0.028 H 
ATOM     24  H   LIG d   1       4.320  -2.477 -10.609  0.00  0.00     0.035 H 
ATOM     25  H   LIG d   1       4.606  -4.154 -10.434  0.00  0.00     0.035 H 
ATOM     26  H   LIG d   1       7.496  -1.167  -9.227  0.00  0.00     0.065 H 
ATOM     27  H   LIG d   1       5.418   0.941  -7.783  0.00  0.00     0.031 H 
ATOM     28  H   LIG d   1       7.090   0.345  -7.650  0.00  0.00     0.031 H 
ATOM     29  H   LIG d   1       6.035   0.800  -5.436  0.00  0.00     0.027 H 
ATOM     30  H   LIG d   1       6.542  -0.894  -5.626  0.00  0.00     0.027 H 
ATOM     31  H   LIG d   1       4.950  -3.898  -6.415  0.00  0.00     0.027 H 
ATOM     32  H   LIG d   1       6.091  -2.626  -5.937  0.00  0.00     0.027 H 
ATOM     33  H   LIG d   1       3.668  -3.628  -4.375  0.00  0.00     0.027 H 
ATOM     34  H   LIG d   1       5.362  -3.939  -3.977  0.00  0.00     0.027 H 
ATOM     35  H   LIG d   1       4.886   1.341  -4.149  0.00  0.00     0.029 H 
ATOM     36  H   LIG d   1       4.271   0.744  -2.589  0.00  0.00     0.029 H 
ATOM     37  H   LIG d   1       6.527   0.335  -2.166  0.00  0.00     0.029 H 
ATOM     38  H   LIG d   1       6.948   0.231  -3.891  0.00  0.00     0.029 H 
ENDROOT
BRANCH   1  39
ATOM     39  C   LIG d   1       3.251  -0.798  -8.479  0.00  0.00    -0.056 C 
ATOM     40  H   LIG d   1       2.561  -1.342  -9.124  0.00  0.00     0.024 H 
ATOM     41  H   LIG d   1       2.701  -0.363  -7.645  0.00  0.00     0.024 H 
ATOM     42  H   LIG d   1       3.732  -0.003  -9.050  0.00  0.00     0.024 H 
ENDBRANCH   1  39
BRANCH  17  43
ATOM     43  O   LIG d   1       2.679  -0.650  -3.991  0.00  0.00    -0.388 OA
ATOM     44  H   LIG d   1       2.150  -1.014  -4.714  0.00  0.00     0.210 HD
ENDBRANCH  17  43
BRANCH  16  45
ATOM     45  C   LIG d   1       3.848  -2.258  -2.307  0.00  0.00    -0.055 C 
ATOM     46  H   LIG d   1       2.811  -1.984  -2.500  0.00  0.00     0.024 H 
ATOM     47  H   LIG d   1       3.907  -3.322  -2.077  0.00  0.00     0.024 H 
ATOM     48  H   LIG d   1       4.226  -1.681  -1.464  0.00  0.00     0.024 H 
ENDBRANCH  16  45
BRANCH  20  49
ATOM     49  O   LIG d   1       7.114  -2.216  -3.854  0.00  0.00    -0.391 OA
ATOM     50  H   LIG d   1       6.830  -2.437  -4.752  0.00  0.00     0.210 HD
ENDBRANCH  20  49
TORSDOF 4
ENDMDL
