MODEL 1
REMARK VINA RESULT:      -7.6      0.000      0.000
REMARK  6 active torsions:
REMARK  status: ('A' for Active; 'I' for Inactive)
REMARK    1  A    between atoms: C_1  and  C_2 
REMARK    2  A    between atoms: C_4  and  O_19 
REMARK    3  A    between atoms: C_11  and  C_12 
REMARK    4  A    between atoms: O_19  and  C_20 
REMARK    5  A    between atoms: C_20  and  C_22 
REMARK    6  A    between atoms: C_23  and  C_24 
ROOT
ATOM      1  C   LIG d   1       2.916  -1.357 -12.416  0.00  0.00    -0.033 A 
ATOM      2  C   LIG d   1       3.543  -0.596 -11.470  0.00  0.00    -0.015 A 
ATOM      3  C   LIG d   1       3.192  -0.718 -10.129  0.00  0.00     0.136 A 
ATOM      4  C   LIG d   1       2.209  -1.613  -9.735  0.00  0.00     0.024 A 
ATOM      5  C   LIG d   1       1.558  -2.390 -10.684  0.00  0.00     0.143 A 
ATOM      6  C   LIG d   1       1.921  -2.258 -12.035  0.00  0.00     0.071 A 
ATOM      7  C   LIG d   1       1.073  -3.201 -12.787  0.00  0.00     0.232 A 
ATOM      8  O   LIG d   1       1.066  -3.403 -13.988  0.00  0.00    -0.283 OA
ATOM      9  C   LIG d   1       0.235  -3.844 -11.758  0.00  0.00     0.176 A 
ATOM     10  C   LIG d   1      -0.709  -4.792 -11.972  0.00  0.00    -0.008 C 
ATOM     11  O   LIG d   1       0.580  -3.315 -10.562  0.00  0.00    -0.451 OA
ATOM     12  H   LIG d   1       4.314   0.102 -11.764  0.00  0.00     0.066 H 
ATOM     13  H   LIG d   1       1.948  -1.703  -8.692  0.00  0.00     0.069 H 
ATOM     14  H   LIG d   1      -0.846  -5.204 -12.961  0.00  0.00     0.066 H 
ENDROOT
BRANCH   3  15
ATOM     15  O   LIG d   1       3.822   0.043  -9.197  0.00  0.00    -0.423 OA
BRANCH  15  16
ATOM     16  C   LIG d   1       3.061   0.735  -8.325  0.00  0.00     0.337 C 
ATOM     17  O   LIG d   1       2.480   1.740  -8.688  0.00  0.00    -0.245 OA
BRANCH  16  18
ATOM     18  C   LIG d   1       2.938   0.280  -6.940  0.00  0.00     0.024 C 
ATOM     19  C   LIG d   1       3.939  -0.422  -6.370  0.00  0.00    -0.048 C 
ATOM     20  H   LIG d   1       4.831  -0.647  -6.935  0.00  0.00     0.063 H 
ATOM     21  H   LIG d   1       2.046   0.505  -6.375  0.00  0.00     0.069 H 
BRANCH  19  22
ATOM     22  C   LIG d   1       3.815  -0.880  -4.976  0.00  0.00    -0.025 A 
ATOM     23  C   LIG d   1       2.973  -0.204  -4.087  0.00  0.00    -0.055 A 
ATOM     24  C   LIG d   1       2.862  -0.639  -2.783  0.00  0.00    -0.061 A 
ATOM     25  H   LIG d   1       2.411   0.655  -4.420  0.00  0.00     0.062 H 
ATOM     26  C   LIG d   1       3.582  -1.740  -2.353  0.00  0.00    -0.062 A 
ATOM     27  H   LIG d   1       2.213  -0.117  -2.095  0.00  0.00     0.062 H 
ATOM     28  C   LIG d   1       4.417  -2.414  -3.227  0.00  0.00    -0.061 A 
ATOM     29  H   LIG d   1       3.491  -2.076  -1.331  0.00  0.00     0.062 H 
ATOM     30  C   LIG d   1       4.534  -1.996  -4.536  0.00  0.00    -0.055 A 
ATOM     31  H   LIG d   1       4.974  -3.273  -2.885  0.00  0.00     0.062 H 
ATOM     32  H   LIG d   1       5.182  -2.526  -5.218  0.00  0.00     0.062 H 
ENDBRANCH  19  22
ENDBRANCH  16  18
ENDBRANCH  15  16
ENDBRANCH   3  15
BRANCH   1  33
ATOM     33  C   LIG d   1       3.297  -1.223 -13.867  0.00  0.00    -0.039 C 
ATOM     34  H   LIG d   1       2.876  -2.056 -14.432  0.00  0.00     0.028 H 
ATOM     35  H   LIG d   1       2.908  -0.284 -14.261  0.00  0.00     0.028 H 
ATOM     36  H   LIG d   1       4.383  -1.234 -13.960  0.00  0.00     0.028 H 
ENDBRANCH   1  33
BRANCH  10  37
ATOM     37  C   LIG d   1      -1.547  -5.259 -10.857  0.00  0.00    -0.019 A 
ATOM     38  C   LIG d   1      -1.108  -6.280 -10.000  0.00  0.00    -0.036 A 
ATOM     39  C   LIG d   1      -1.928  -6.684  -8.969  0.00  0.00     0.028 A 
ATOM     40  H   LIG d   1      -0.143  -6.741 -10.147  0.00  0.00     0.064 H 
ATOM     41  N   LIG d   1      -3.109  -6.127  -8.781  0.00  0.00    -0.263 NA
ATOM     42  H   LIG d   1      -1.599  -7.470  -8.304  0.00  0.00     0.083 H 
ATOM     43  C   LIG d   1      -3.562  -5.165  -9.561  0.00  0.00     0.028 A 
ATOM     44  C   LIG d   1      -2.808  -4.692 -10.616  0.00  0.00    -0.036 A 
ATOM     45  H   LIG d   1      -4.536  -4.738  -9.370  0.00  0.00     0.083 H 
ATOM     46  H   LIG d   1      -3.184  -3.901 -11.248  0.00  0.00     0.064 H 
ENDBRANCH  10  37
TORSDOF 6
ENDMDL
MODEL 2
REMARK VINA RESULT:      -7.3      8.760     12.516
REMARK  6 active torsions:
REMARK  status: ('A' for Active; 'I' for Inactive)
REMARK    1  A    between atoms: C_1  and  C_2 
REMARK    2  A    between atoms: C_4  and  O_19 
REMARK    3  A    between atoms: C_11  and  C_12 
REMARK    4  A    between atoms: O_19  and  C_20 
REMARK    5  A    between atoms: C_20  and  C_22 
REMARK    6  A    between atoms: C_23  and  C_24 
ROOT
ATOM      1  C   LIG d   1       9.685   5.849  -3.267  0.00  0.00    -0.033 A 
ATOM      2  C   LIG d   1       9.780   4.528  -2.931  0.00  0.00    -0.015 A 
ATOM      3  C   LIG d   1       9.892   3.560  -3.925  0.00  0.00     0.136 A 
ATOM      4  C   LIG d   1       9.915   3.922  -5.263  0.00  0.00     0.024 A 
ATOM      5  C   LIG d   1       9.814   5.260  -5.622  0.00  0.00     0.143 A 
ATOM      6  C   LIG d   1       9.701   6.227  -4.609  0.00  0.00     0.071 A 
ATOM      7  C   LIG d   1       9.620   7.533  -5.290  0.00  0.00     0.232 A 
ATOM      8  O   LIG d   1       9.514   8.634  -4.780  0.00  0.00    -0.283 OA
ATOM      9  C   LIG d   1       9.695   7.206  -6.726  0.00  0.00     0.176 A 
ATOM     10  C   LIG d   1       9.659   8.091  -7.752  0.00  0.00    -0.008 C 
ATOM     11  O   LIG d   1       9.806   5.862  -6.832  0.00  0.00    -0.451 OA
ATOM     12  H   LIG d   1       9.768   4.233  -1.892  0.00  0.00     0.066 H 
ATOM     13  H   LIG d   1      10.007   3.164  -6.026  0.00  0.00     0.069 H 
ATOM     14  H   LIG d   1       9.652   9.152  -7.550  0.00  0.00     0.066 H 
ENDROOT
BRANCH   3  15
ATOM     15  O   LIG d   1       9.986   2.250  -3.581  0.00  0.00    -0.423 OA
BRANCH  15  16
ATOM     16  C   LIG d   1       9.167   1.373  -4.198  0.00  0.00     0.337 C 
ATOM     17  O   LIG d   1       9.606   0.625  -5.051  0.00  0.00    -0.245 OA
BRANCH  16  18
ATOM     18  C   LIG d   1       7.748   1.325  -3.845  0.00  0.00     0.024 C 
ATOM     19  C   LIG d   1       7.189   0.161  -3.454  0.00  0.00    -0.048 C 
ATOM     20  H   LIG d   1       7.790  -0.735  -3.400  0.00  0.00     0.063 H 
ATOM     21  H   LIG d   1       7.148   2.222  -3.898  0.00  0.00     0.069 H 
BRANCH  19  22
ATOM     22  C   LIG d   1       5.762   0.114  -3.099  0.00  0.00    -0.025 A 
ATOM     23  C   LIG d   1       5.077  -1.106  -3.103  0.00  0.00    -0.055 A 
ATOM     24  C   LIG d   1       3.740  -1.143  -2.769  0.00  0.00    -0.061 A 
ATOM     25  H   LIG d   1       5.594  -2.016  -3.367  0.00  0.00     0.062 H 
ATOM     26  C   LIG d   1       3.075   0.023  -2.431  0.00  0.00    -0.062 A 
ATOM     27  H   LIG d   1       3.210  -2.084  -2.773  0.00  0.00     0.062 H 
ATOM     28  C   LIG d   1       3.746   1.234  -2.425  0.00  0.00    -0.061 A 
ATOM     29  H   LIG d   1       2.028  -0.012  -2.171  0.00  0.00     0.062 H 
ATOM     30  C   LIG d   1       5.085   1.286  -2.750  0.00  0.00    -0.055 A 
ATOM     31  H   LIG d   1       3.220   2.139  -2.159  0.00  0.00     0.062 H 
ATOM     32  H   LIG d   1       5.607   2.231  -2.740  0.00  0.00     0.062 H 
ENDBRANCH  19  22
ENDBRANCH  16  18
ENDBRANCH  15  16
ENDBRANCH   3  15
BRANCH   1  33
ATOM     33  C   LIG d   1       9.564   6.894  -2.189  0.00  0.00    -0.039 C 
ATOM     34  H   LIG d   1       9.451   6.407  -1.220  0.00  0.00     0.028 H 
ATOM     35  H   LIG d   1      10.462   7.514  -2.180  0.00  0.00     0.028 H 
ATOM     36  H   LIG d   1       8.693   7.520  -2.384  0.00  0.00     0.028 H 
ENDBRANCH   1  33
BRANCH  10  37
ATOM     37  C   LIG d   1       9.629   7.604  -9.140  0.00  0.00    -0.019 A 
ATOM     38  C   LIG d   1      10.393   8.224 -10.139  0.00  0.00    -0.036 A 
ATOM     39  C   LIG d   1      10.333   7.734 -11.427  0.00  0.00     0.028 A 
ATOM     40  H   LIG d   1      11.019   9.072  -9.904  0.00  0.00     0.064 H 
ATOM     41  N   LIG d   1       9.572   6.698 -11.723  0.00  0.00    -0.263 NA
ATOM     42  H   LIG d   1      10.917   8.205 -12.204  0.00  0.00     0.083 H 
ATOM     43  C   LIG d   1       8.838   6.084 -10.816  0.00  0.00     0.028 A 
ATOM     44  C   LIG d   1       8.839   6.502  -9.501  0.00  0.00    -0.036 A 
ATOM     45  H   LIG d   1       8.229   5.240 -11.105  0.00  0.00     0.083 H 
ATOM     46  H   LIG d   1       8.238   5.992  -8.762  0.00  0.00     0.064 H 
ENDBRANCH  10  37
TORSDOF 6
ENDMDL
MODEL 3
REMARK VINA RESULT:      -7.3      4.700      8.279
REMARK  6 active torsions:
REMARK  status: ('A' for Active; 'I' for Inactive)
REMARK    1  A    between atoms: C_1  and  C_2 
REMARK    2  A    between atoms: C_4  and  O_19 
REMARK    3  A    between atoms: C_11  and  C_12 
REMARK    4  A    between atoms: O_19  and  C_20 
REMARK    5  A    between atoms: C_20  and  C_22 
REMARK    6  A    between atoms: C_23  and  C_24 
ROOT
ATOM      1  C   LIG d   1       5.240  -1.547  -3.174  0.00  0.00    -0.033 A 
ATOM      2  C   LIG d   1       6.507  -2.052  -3.102  0.00  0.00    -0.015 A 
ATOM      3  C   LIG d   1       7.329  -2.041  -4.226  0.00  0.00     0.136 A 
ATOM      4  C   LIG d   1       6.876  -1.515  -5.426  0.00  0.00     0.024 A 
ATOM      5  C   LIG d   1       5.588  -1.003  -5.517  0.00  0.00     0.143 A 
ATOM      6  C   LIG d   1       4.769  -1.019  -4.376  0.00  0.00     0.071 A 
ATOM      7  C   LIG d   1       3.486  -0.413  -4.777  0.00  0.00     0.232 A 
ATOM      8  O   LIG d   1       2.498  -0.234  -4.088  0.00  0.00    -0.283 OA
ATOM      9  C   LIG d   1       3.668  -0.072  -6.200  0.00  0.00     0.176 A 
ATOM     10  C   LIG d   1       2.751   0.513  -7.008  0.00  0.00    -0.008 C 
ATOM     11  O   LIG d   1       4.919  -0.448  -6.552  0.00  0.00    -0.451 OA
ATOM     12  H   LIG d   1       6.873  -2.461  -2.172  0.00  0.00     0.066 H 
ATOM     13  H   LIG d   1       7.523  -1.507  -6.290  0.00  0.00     0.069 H 
ATOM     14  H   LIG d   1       1.808   0.848  -6.600  0.00  0.00     0.066 H 
ENDROOT
BRANCH   3  15
ATOM     15  O   LIG d   1       8.587  -2.545  -4.145  0.00  0.00    -0.423 OA
BRANCH  15  16
ATOM     16  C   LIG d   1       8.907  -3.582  -4.945  0.00  0.00     0.337 C 
ATOM     17  O   LIG d   1       9.683  -3.423  -5.868  0.00  0.00    -0.245 OA
BRANCH  16  18
ATOM     18  C   LIG d   1       8.315  -4.899  -4.707  0.00  0.00     0.024 C 
ATOM     19  C   LIG d   1       7.376  -5.378  -5.549  0.00  0.00    -0.048 C 
ATOM     20  H   LIG d   1       7.063  -4.791  -6.399  0.00  0.00     0.063 H 
ATOM     21  H   LIG d   1       8.629  -5.485  -3.856  0.00  0.00     0.069 H 
BRANCH  19  22
ATOM     22  C   LIG d   1       6.781  -6.703  -5.309  0.00  0.00    -0.025 A 
ATOM     23  C   LIG d   1       5.437  -6.936  -5.618  0.00  0.00    -0.055 A 
ATOM     24  C   LIG d   1       4.887  -8.180  -5.390  0.00  0.00    -0.061 A 
ATOM     25  H   LIG d   1       4.832  -6.144  -6.034  0.00  0.00     0.062 H 
ATOM     26  C   LIG d   1       5.660  -9.196  -4.857  0.00  0.00    -0.062 A 
ATOM     27  H   LIG d   1       3.849  -8.360  -5.628  0.00  0.00     0.062 H 
ATOM     28  C   LIG d   1       6.991  -8.973  -4.548  0.00  0.00    -0.061 A 
ATOM     29  H   LIG d   1       5.223 -10.167  -4.681  0.00  0.00     0.062 H 
ATOM     30  C   LIG d   1       7.558  -7.737  -4.776  0.00  0.00    -0.055 A 
ATOM     31  H   LIG d   1       7.588  -9.771  -4.133  0.00  0.00     0.062 H 
ATOM     32  H   LIG d   1       8.598  -7.566  -4.539  0.00  0.00     0.062 H 
ENDBRANCH  19  22
ENDBRANCH  16  18
ENDBRANCH  15  16
ENDBRANCH   3  15
BRANCH   1  33
ATOM     33  C   LIG d   1       4.353  -1.560  -1.956  0.00  0.00    -0.039 C 
ATOM     34  H   LIG d   1       3.893  -2.544  -1.852  0.00  0.00     0.028 H 
ATOM     35  H   LIG d   1       4.948  -1.342  -1.069  0.00  0.00     0.028 H 
ATOM     36  H   LIG d   1       3.574  -0.806  -2.065  0.00  0.00     0.028 H 
ENDBRANCH   1  33
BRANCH  10  37
ATOM     37  C   LIG d   1       3.038   0.688  -8.440  0.00  0.00    -0.019 A 
ATOM     38  C   LIG d   1       3.589   1.883  -8.926  0.00  0.00    -0.036 A 
ATOM     39  C   LIG d   1       3.841   2.001 -10.276  0.00  0.00     0.028 A 
ATOM     40  H   LIG d   1       3.811   2.697  -8.252  0.00  0.00     0.064 H 
ATOM     41  N   LIG d   1       3.573   1.012 -11.106  0.00  0.00    -0.263 NA
ATOM     42  H   LIG d   1       4.264   2.918 -10.660  0.00  0.00     0.083 H 
ATOM     43  C   LIG d   1       3.055  -0.128 -10.694  0.00  0.00     0.028 A 
ATOM     44  C   LIG d   1       2.774  -0.339  -9.359  0.00  0.00    -0.036 A 
ATOM     45  H   LIG d   1       2.851  -0.911 -11.410  0.00  0.00     0.083 H 
ATOM     46  H   LIG d   1       2.354  -1.278  -9.028  0.00  0.00     0.064 H 
ENDBRANCH  10  37
TORSDOF 6
ENDMDL
MODEL 4
REMARK VINA RESULT:      -7.2     10.143     14.601
REMARK  6 active torsions:
REMARK  status: ('A' for Active; 'I' for Inactive)
REMARK    1  A    between atoms: C_1  and  C_2 
REMARK    2  A    between atoms: C_4  and  O_19 
REMARK    3  A    between atoms: C_11  and  C_12 
REMARK    4  A    between atoms: O_19  and  C_20 
REMARK    5  A    between atoms: C_20  and  C_22 
REMARK    6  A    between atoms: C_23  and  C_24 
ROOT
ATOM      1  C   LIG d   1      10.151   5.880  -2.557  0.00  0.00    -0.033 A 
ATOM      2  C   LIG d   1       9.720   4.736  -3.167  0.00  0.00    -0.015 A 
ATOM      3  C   LIG d   1       9.432   4.736  -4.529  0.00  0.00     0.136 A 
ATOM      4  C   LIG d   1       9.583   5.890  -5.282  0.00  0.00     0.024 A 
ATOM      5  C   LIG d   1      10.015   7.062  -4.676  0.00  0.00     0.143 A 
ATOM      6  C   LIG d   1      10.302   7.050  -3.301  0.00  0.00     0.071 A 
ATOM      7  C   LIG d   1      10.736   8.416  -2.955  0.00  0.00     0.232 A 
ATOM      8  O   LIG d   1      11.078   8.836  -1.864  0.00  0.00    -0.283 OA
ATOM      9  C   LIG d   1      10.663   9.159  -4.227  0.00  0.00     0.176 A 
ATOM     10  C   LIG d   1      10.970  10.467  -4.409  0.00  0.00    -0.008 C 
ATOM     11  O   LIG d   1      10.235   8.298  -5.178  0.00  0.00    -0.451 OA
ATOM     12  H   LIG d   1       9.602   3.829  -2.592  0.00  0.00     0.066 H 
ATOM     13  H   LIG d   1       9.362   5.878  -6.339  0.00  0.00     0.069 H 
ATOM     14  H   LIG d   1      11.383  11.043  -3.594  0.00  0.00     0.066 H 
ENDROOT
BRANCH   3  15
ATOM     15  O   LIG d   1       9.005   3.594  -5.127  0.00  0.00    -0.423 OA
BRANCH  15  16
ATOM     16  C   LIG d   1       9.254   2.423  -4.506  0.00  0.00     0.337 C 
ATOM     17  O   LIG d   1      10.335   1.881  -4.639  0.00  0.00    -0.245 OA
BRANCH  16  18
ATOM     18  C   LIG d   1       8.222   1.801  -3.676  0.00  0.00     0.024 C 
ATOM     19  C   LIG d   1       7.296   0.999  -4.239  0.00  0.00    -0.048 C 
ATOM     20  H   LIG d   1       7.317   0.813  -5.303  0.00  0.00     0.063 H 
ATOM     21  H   LIG d   1       8.201   1.987  -2.612  0.00  0.00     0.069 H 
BRANCH  19  22
ATOM     22  C   LIG d   1       6.258   0.373  -3.404  0.00  0.00    -0.025 A 
ATOM     23  C   LIG d   1       5.423   1.166  -2.610  0.00  0.00    -0.055 A 
ATOM     24  C   LIG d   1       4.453   0.573  -1.830  0.00  0.00    -0.061 A 
ATOM     25  H   LIG d   1       5.537   2.240  -2.608  0.00  0.00     0.062 H 
ATOM     26  C   LIG d   1       4.305  -0.803  -1.831  0.00  0.00    -0.062 A 
ATOM     27  H   LIG d   1       3.808   1.184  -1.216  0.00  0.00     0.062 H 
ATOM     28  C   LIG d   1       5.127  -1.594  -2.614  0.00  0.00    -0.061 A 
ATOM     29  H   LIG d   1       3.543  -1.262  -1.218  0.00  0.00     0.062 H 
ATOM     30  C   LIG d   1       6.098  -1.016  -3.404  0.00  0.00    -0.055 A 
ATOM     31  H   LIG d   1       5.005  -2.667  -2.610  0.00  0.00     0.062 H 
ATOM     32  H   LIG d   1       6.736  -1.635  -4.018  0.00  0.00     0.062 H 
ENDBRANCH  19  22
ENDBRANCH  16  18
ENDBRANCH  15  16
ENDBRANCH   3  15
BRANCH   1  33
ATOM     33  C   LIG d   1      10.462   5.877  -1.083  0.00  0.00    -0.039 C 
ATOM     34  H   LIG d   1      10.934   6.821  -0.810  0.00  0.00     0.028 H 
ATOM     35  H   LIG d   1       9.538   5.757  -0.516  0.00  0.00     0.028 H 
ATOM     36  H   LIG d   1      11.138   5.054  -0.855  0.00  0.00     0.028 H 
ENDBRANCH   1  33
BRANCH  10  37
ATOM     37  C   LIG d   1      10.738  11.100  -5.716  0.00  0.00    -0.019 A 
ATOM     38  C   LIG d   1       9.668  11.986  -5.910  0.00  0.00    -0.036 A 
ATOM     39  C   LIG d   1       9.490  12.556  -7.153  0.00  0.00     0.028 A 
ATOM     40  H   LIG d   1       8.995  12.218  -5.099  0.00  0.00     0.064 H 
ATOM     41  N   LIG d   1      10.308  12.279  -8.151  0.00  0.00    -0.263 NA
ATOM     42  H   LIG d   1       8.669  13.239  -7.313  0.00  0.00     0.083 H 
ATOM     43  C   LIG d   1      11.326  11.452  -8.013  0.00  0.00     0.028 A 
ATOM     44  C   LIG d   1      11.585  10.839  -6.804  0.00  0.00    -0.036 A 
ATOM     45  H   LIG d   1      11.969  11.254  -8.858  0.00  0.00     0.083 H 
ATOM     46  H   LIG d   1      12.424  10.167  -6.698  0.00  0.00     0.064 H 
ENDBRANCH  10  37
TORSDOF 6
ENDMDL
MODEL 5
REMARK VINA RESULT:      -7.2      9.770     14.213
REMARK  6 active torsions:
REMARK  status: ('A' for Active; 'I' for Inactive)
REMARK    1  A    between atoms: C_1  and  C_2 
REMARK    2  A    between atoms: C_4  and  O_19 
REMARK    3  A    between atoms: C_11  and  C_12 
REMARK    4  A    between atoms: O_19  and  C_20 
REMARK    5  A    between atoms: C_20  and  C_22 
REMARK    6  A    between atoms: C_23  and  C_24 
ROOT
ATOM      1  C   LIG d   1       9.810   5.152  -5.717  0.00  0.00    -0.033 A 
ATOM      2  C   LIG d   1       9.742   3.878  -5.230  0.00  0.00    -0.015 A 
ATOM      3  C   LIG d   1       9.800   3.649  -3.858  0.00  0.00     0.136 A 
ATOM      4  C   LIG d   1       9.920   4.708  -2.971  0.00  0.00     0.024 A 
ATOM      5  C   LIG d   1       9.996   6.009  -3.450  0.00  0.00     0.143 A 
ATOM      6  C   LIG d   1       9.937   6.227  -4.836  0.00  0.00     0.071 A 
ATOM      7  C   LIG d   1      10.034   7.685  -5.032  0.00  0.00     0.232 A 
ATOM      8  O   LIG d   1      10.021   8.299  -6.084  0.00  0.00    -0.283 OA
ATOM      9  C   LIG d   1      10.149   8.234  -3.668  0.00  0.00     0.176 A 
ATOM     10  C   LIG d   1      10.263   9.543  -3.339  0.00  0.00    -0.008 C 
ATOM     11  O   LIG d   1      10.119   7.191  -2.806  0.00  0.00    -0.451 OA
ATOM     12  H   LIG d   1       9.644   3.045  -5.911  0.00  0.00     0.066 H 
ATOM     13  H   LIG d   1       9.959   4.520  -1.909  0.00  0.00     0.069 H 
ATOM     14  H   LIG d   1      10.193  10.301  -4.104  0.00  0.00     0.066 H 
ENDROOT
BRANCH   3  15
ATOM     15  O   LIG d   1       9.731   2.379  -3.384  0.00  0.00    -0.423 OA
BRANCH  15  16
ATOM     16  C   LIG d   1       8.996   1.484  -4.075  0.00  0.00     0.337 C 
ATOM     17  O   LIG d   1       9.523   0.785  -4.920  0.00  0.00    -0.245 OA
BRANCH  16  18
ATOM     18  C   LIG d   1       7.563   1.358  -3.813  0.00  0.00     0.024 C 
ATOM     19  C   LIG d   1       7.056   0.182  -3.388  0.00  0.00    -0.048 C 
ATOM     20  H   LIG d   1       7.708  -0.665  -3.238  0.00  0.00     0.063 H 
ATOM     21  H   LIG d   1       6.910   2.205  -3.963  0.00  0.00     0.069 H 
BRANCH  19  22
ATOM     22  C   LIG d   1       5.613   0.055  -3.125  0.00  0.00    -0.025 A 
ATOM     23  C   LIG d   1       4.877   1.164  -2.692  0.00  0.00    -0.055 A 
ATOM     24  C   LIG d   1       3.526   1.037  -2.448  0.00  0.00    -0.061 A 
ATOM     25  H   LIG d   1       5.366   2.116  -2.551  0.00  0.00     0.062 H 
ATOM     26  C   LIG d   1       2.898  -0.183  -2.628  0.00  0.00    -0.062 A 
ATOM     27  H   LIG d   1       2.957   1.892  -2.114  0.00  0.00     0.062 H 
ATOM     28  C   LIG d   1       3.619  -1.284  -3.055  0.00  0.00    -0.061 A 
ATOM     29  H   LIG d   1       1.840  -0.276  -2.435  0.00  0.00     0.062 H 
ATOM     30  C   LIG d   1       4.970  -1.172  -3.310  0.00  0.00    -0.055 A 
ATOM     31  H   LIG d   1       3.122  -2.233  -3.195  0.00  0.00     0.062 H 
ATOM     32  H   LIG d   1       5.530  -2.032  -3.648  0.00  0.00     0.062 H 
ENDBRANCH  19  22
ENDBRANCH  16  18
ENDBRANCH  15  16
ENDBRANCH   3  15
BRANCH   1  33
ATOM     33  C   LIG d   1       9.747   5.397  -7.202  0.00  0.00    -0.039 C 
ATOM     34  H   LIG d   1      10.560   6.062  -7.496  0.00  0.00     0.028 H 
ATOM     35  H   LIG d   1       9.844   4.449  -7.732  0.00  0.00     0.028 H 
ATOM     36  H   LIG d   1       8.792   5.858  -7.455  0.00  0.00     0.028 H 
ENDBRANCH   1  33
BRANCH  10  37
ATOM     37  C   LIG d   1      10.485   9.931  -1.937  0.00  0.00    -0.019 A 
ATOM     38  C   LIG d   1       9.406  10.152  -1.069  0.00  0.00    -0.036 A 
ATOM     39  C   LIG d   1       9.663  10.514   0.237  0.00  0.00     0.028 A 
ATOM     40  H   LIG d   1       8.390  10.041  -1.418  0.00  0.00     0.064 H 
ATOM     41  N   LIG d   1      10.900  10.652   0.673  0.00  0.00    -0.263 NA
ATOM     42  H   LIG d   1       8.838  10.688   0.913  0.00  0.00     0.083 H 
ATOM     43  C   LIG d   1      11.944  10.453  -0.108  0.00  0.00     0.028 A 
ATOM     44  C   LIG d   1      11.784  10.084  -1.428  0.00  0.00    -0.036 A 
ATOM     45  H   LIG d   1      12.940  10.579   0.292  0.00  0.00     0.083 H 
ATOM     46  H   LIG d   1      12.644   9.919  -2.060  0.00  0.00     0.064 H 
ENDBRANCH  10  37
TORSDOF 6
ENDMDL
MODEL 6
REMARK VINA RESULT:      -6.9      6.807     11.750
REMARK  6 active torsions:
REMARK  status: ('A' for Active; 'I' for Inactive)
REMARK    1  A    between atoms: C_1  and  C_2 
REMARK    2  A    between atoms: C_4  and  O_19 
REMARK    3  A    between atoms: C_11  and  C_12 
REMARK    4  A    between atoms: O_19  and  C_20 
REMARK    5  A    between atoms: C_20  and  C_22 
REMARK    6  A    between atoms: C_23  and  C_24 
ROOT
ATOM      1  C   LIG d   1       8.417  -0.674  -4.947  0.00  0.00    -0.033 A 
ATOM      2  C   LIG d   1       7.175  -1.127  -4.601  0.00  0.00    -0.015 A 
ATOM      3  C   LIG d   1       6.340  -0.344  -3.809  0.00  0.00     0.136 A 
ATOM      4  C   LIG d   1       6.753   0.904  -3.368  0.00  0.00     0.024 A 
ATOM      5  C   LIG d   1       8.014   1.377  -3.705  0.00  0.00     0.143 A 
ATOM      6  C   LIG d   1       8.847   0.578  -4.505  0.00  0.00     0.071 A 
ATOM      7  C   LIG d   1      10.095   1.340  -4.695  0.00  0.00     0.232 A 
ATOM      8  O   LIG d   1      11.083   1.008  -5.326  0.00  0.00    -0.283 OA
ATOM      9  C   LIG d   1       9.879   2.593  -3.949  0.00  0.00     0.176 A 
ATOM     10  C   LIG d   1      10.759   3.618  -3.833  0.00  0.00    -0.008 C 
ATOM     11  O   LIG d   1       8.643   2.534  -3.403  0.00  0.00    -0.451 OA
ATOM     12  H   LIG d   1       6.841  -2.096  -4.943  0.00  0.00     0.066 H 
ATOM     13  H   LIG d   1       6.095   1.505  -2.758  0.00  0.00     0.069 H 
ATOM     14  H   LIG d   1      11.689   3.596  -4.381  0.00  0.00     0.066 H 
ENDROOT
BRANCH   3  15
ATOM     15  O   LIG d   1       5.108  -0.804  -3.472  0.00  0.00    -0.423 OA
BRANCH  15  16
ATOM     16  C   LIG d   1       4.281  -1.189  -4.466  0.00  0.00     0.337 C 
ATOM     17  O   LIG d   1       3.791  -2.302  -4.453  0.00  0.00    -0.245 OA
BRANCH  16  18
ATOM     18  C   LIG d   1       3.980  -0.269  -5.563  0.00  0.00     0.024 C 
ATOM     19  C   LIG d   1       4.420  -0.539  -6.809  0.00  0.00    -0.048 C 
ATOM     20  H   LIG d   1       4.993  -1.434  -6.998  0.00  0.00     0.063 H 
ATOM     21  H   LIG d   1       3.406   0.626  -5.374  0.00  0.00     0.069 H 
BRANCH  19  22
ATOM     22  C   LIG d   1       4.116   0.387  -7.913  0.00  0.00    -0.025 A 
ATOM     23  C   LIG d   1       5.025   0.550  -8.963  0.00  0.00    -0.055 A 
ATOM     24  C   LIG d   1       4.733   1.419  -9.993  0.00  0.00    -0.061 A 
ATOM     25  H   LIG d   1       5.953  -0.002  -8.967  0.00  0.00     0.062 H 
ATOM     26  C   LIG d   1       3.545   2.128  -9.989  0.00  0.00    -0.062 A 
ATOM     27  H   LIG d   1       5.435   1.547 -10.804  0.00  0.00     0.062 H 
ATOM     28  C   LIG d   1       2.640   1.972  -8.954  0.00  0.00    -0.061 A 
ATOM     29  H   LIG d   1       3.322   2.807 -10.799  0.00  0.00     0.062 H 
ATOM     30  C   LIG d   1       2.914   1.102  -7.919  0.00  0.00    -0.055 A 
ATOM     31  H   LIG d   1       1.715   2.528  -8.959  0.00  0.00     0.062 H 
ATOM     32  H   LIG d   1       2.205   0.978  -7.115  0.00  0.00     0.062 H 
ENDBRANCH  19  22
ENDBRANCH  16  18
ENDBRANCH  15  16
ENDBRANCH   3  15
BRANCH   1  33
ATOM     33  C   LIG d   1       9.319  -1.523  -5.804  0.00  0.00    -0.039 C 
ATOM     34  H   LIG d   1      10.223  -1.769  -5.247  0.00  0.00     0.028 H 
ATOM     35  H   LIG d   1       8.801  -2.442  -6.078  0.00  0.00     0.028 H 
ATOM     36  H   LIG d   1       9.587  -0.973  -6.706  0.00  0.00     0.028 H 
ENDBRANCH   1  33
BRANCH  10  37
ATOM     37  C   LIG d   1      10.445   4.759  -2.959  0.00  0.00    -0.019 A 
ATOM     38  C   LIG d   1      10.913   4.807  -1.637  0.00  0.00    -0.036 A 
ATOM     39  C   LIG d   1      10.594   5.897  -0.855  0.00  0.00     0.028 A 
ATOM     40  H   LIG d   1      11.513   4.003  -1.239  0.00  0.00     0.064 H 
ATOM     41  N   LIG d   1       9.861   6.884  -1.333  0.00  0.00    -0.263 NA
ATOM     42  H   LIG d   1      10.949   5.943   0.164  0.00  0.00     0.083 H 
ATOM     43  C   LIG d   1       9.401   6.881  -2.569  0.00  0.00     0.028 A 
ATOM     44  C   LIG d   1       9.674   5.835  -3.426  0.00  0.00    -0.036 A 
ATOM     45  H   LIG d   1       8.804   7.711  -2.917  0.00  0.00     0.083 H 
ATOM     46  H   LIG d   1       9.297   5.841  -4.438  0.00  0.00     0.064 H 
ENDBRANCH  10  37
TORSDOF 6
ENDMDL
MODEL 7
REMARK VINA RESULT:      -6.8      1.709      2.440
REMARK  6 active torsions:
REMARK  status: ('A' for Active; 'I' for Inactive)
REMARK    1  A    between atoms: C_1  and  C_2 
REMARK    2  A    between atoms: C_4  and  O_19 
REMARK    3  A    between atoms: C_11  and  C_12 
REMARK    4  A    between atoms: O_19  and  C_20 
REMARK    5  A    between atoms: C_20  and  C_22 
REMARK    6  A    between atoms: C_23  and  C_24 
ROOT
ATOM      1  C   LIG d   1       3.759  -3.746  -9.884  0.00  0.00    -0.033 A 
ATOM      2  C   LIG d   1       4.187  -2.471  -9.647  0.00  0.00    -0.015 A 
ATOM      3  C   LIG d   1       3.277  -1.417  -9.644  0.00  0.00     0.136 A 
ATOM      4  C   LIG d   1       1.930  -1.648  -9.875  0.00  0.00     0.024 A 
ATOM      5  C   LIG d   1       1.479  -2.938 -10.123  0.00  0.00     0.143 A 
ATOM      6  C   LIG d   1       2.407  -3.992 -10.123  0.00  0.00     0.071 A 
ATOM      7  C   LIG d   1       1.640  -5.220 -10.406  0.00  0.00     0.232 A 
ATOM      8  O   LIG d   1       2.062  -6.359 -10.495  0.00  0.00    -0.283 OA
ATOM      9  C   LIG d   1       0.248  -4.758 -10.557  0.00  0.00     0.176 A 
ATOM     10  C   LIG d   1      -0.829  -5.536 -10.826  0.00  0.00    -0.008 C 
ATOM     11  O   LIG d   1       0.241  -3.418 -10.377  0.00  0.00    -0.451 OA
ATOM     12  H   LIG d   1       5.234  -2.279  -9.461  0.00  0.00     0.066 H 
ATOM     13  H   LIG d   1       1.232  -0.824  -9.865  0.00  0.00     0.069 H 
ATOM     14  H   LIG d   1      -0.723  -6.610 -10.868  0.00  0.00     0.066 H 
ENDROOT
BRANCH   3  15
ATOM     15  O   LIG d   1       3.712  -0.153  -9.407  0.00  0.00    -0.423 OA
BRANCH  15  16
ATOM     16  C   LIG d   1       3.079   0.567  -8.459  0.00  0.00     0.337 C 
ATOM     17  O   LIG d   1       2.630   1.666  -8.727  0.00  0.00    -0.245 OA
BRANCH  16  18
ATOM     18  C   LIG d   1       2.936   0.030  -7.106  0.00  0.00     0.024 C 
ATOM     19  C   LIG d   1       4.032  -0.293  -6.389  0.00  0.00    -0.048 C 
ATOM     20  H   LIG d   1       5.015  -0.153  -6.813  0.00  0.00     0.063 H 
ATOM     21  H   LIG d   1       1.952  -0.110  -6.682  0.00  0.00     0.069 H 
BRANCH  19  22
ATOM     22  C   LIG d   1       3.888  -0.834  -5.027  0.00  0.00    -0.025 A 
ATOM     23  C   LIG d   1       4.638  -1.945  -4.630  0.00  0.00    -0.055 A 
ATOM     24  C   LIG d   1       4.497  -2.446  -3.352  0.00  0.00    -0.061 A 
ATOM     25  H   LIG d   1       5.326  -2.409  -5.320  0.00  0.00     0.062 H 
ATOM     26  C   LIG d   1       3.616  -1.853  -2.466  0.00  0.00    -0.062 A 
ATOM     27  H   LIG d   1       5.076  -3.304  -3.044  0.00  0.00     0.062 H 
ATOM     28  C   LIG d   1       2.870  -0.753  -2.853  0.00  0.00    -0.061 A 
ATOM     29  H   LIG d   1       3.510  -2.250  -1.467  0.00  0.00     0.062 H 
ATOM     30  C   LIG d   1       3.004  -0.236  -4.124  0.00  0.00    -0.055 A 
ATOM     31  H   LIG d   1       2.184  -0.295  -2.154  0.00  0.00     0.062 H 
ATOM     32  H   LIG d   1       2.424   0.625  -4.422  0.00  0.00     0.062 H 
ENDBRANCH  19  22
ENDBRANCH  16  18
ENDBRANCH  15  16
ENDBRANCH   3  15
BRANCH   1  33
ATOM     33  C   LIG d   1       4.746  -4.885  -9.887  0.00  0.00    -0.039 C 
ATOM     34  H   LIG d   1       4.760  -5.356  -8.903  0.00  0.00     0.028 H 
ATOM     35  H   LIG d   1       4.451  -5.620 -10.636  0.00  0.00     0.028 H 
ATOM     36  H   LIG d   1       5.740  -4.505 -10.122  0.00  0.00     0.028 H 
ENDBRANCH   1  33
BRANCH  10  37
ATOM     37  C   LIG d   1      -2.142  -4.916 -11.061  0.00  0.00    -0.019 A 
ATOM     38  C   LIG d   1      -2.434  -4.281 -12.278  0.00  0.00    -0.036 A 
ATOM     39  C   LIG d   1      -3.678  -3.713 -12.453  0.00  0.00     0.028 A 
ATOM     40  H   LIG d   1      -1.695  -4.238 -13.064  0.00  0.00     0.064 H 
ATOM     41  N   LIG d   1      -4.587  -3.762 -11.498  0.00  0.00    -0.263 NA
ATOM     42  H   LIG d   1      -3.912  -3.222 -13.386  0.00  0.00     0.083 H 
ATOM     43  C   LIG d   1      -4.356  -4.348 -10.340  0.00  0.00     0.028 A 
ATOM     44  C   LIG d   1      -3.142  -4.947 -10.077  0.00  0.00    -0.036 A 
ATOM     45  H   LIG d   1      -5.131  -4.363  -9.587  0.00  0.00     0.083 H 
ATOM     46  H   LIG d   1      -2.962  -5.429  -9.127  0.00  0.00     0.064 H 
ENDBRANCH  10  37
TORSDOF 6
ENDMDL
MODEL 8
REMARK VINA RESULT:      -6.8      7.091     11.865
REMARK  6 active torsions:
REMARK  status: ('A' for Active; 'I' for Inactive)
REMARK    1  A    between atoms: C_1  and  C_2 
REMARK    2  A    between atoms: C_4  and  O_19 
REMARK    3  A    between atoms: C_11  and  C_12 
REMARK    4  A    between atoms: O_19  and  C_20 
REMARK    5  A    between atoms: C_20  and  C_22 
REMARK    6  A    between atoms: C_23  and  C_24 
ROOT
ATOM      1  C   LIG d   1       8.373   1.078  -6.254  0.00  0.00    -0.033 A 
ATOM      2  C   LIG d   1       7.380   0.239  -5.834  0.00  0.00    -0.015 A 
ATOM      3  C   LIG d   1       6.796   0.420  -4.583  0.00  0.00     0.136 A 
ATOM      4  C   LIG d   1       7.208   1.452  -3.754  0.00  0.00     0.024 A 
ATOM      5  C   LIG d   1       8.220   2.309  -4.164  0.00  0.00     0.143 A 
ATOM      6  C   LIG d   1       8.802   2.117  -5.428  0.00  0.00     0.071 A 
ATOM      7  C   LIG d   1       9.824   3.170  -5.579  0.00  0.00     0.232 A 
ATOM      8  O   LIG d   1      10.560   3.363  -6.529  0.00  0.00    -0.283 OA
ATOM      9  C   LIG d   1       9.753   3.935  -4.320  0.00  0.00     0.176 A 
ATOM     10  C   LIG d   1      10.510   5.010  -3.993  0.00  0.00    -0.008 C 
ATOM     11  O   LIG d   1       8.794   3.369  -3.552  0.00  0.00    -0.451 OA
ATOM     12  H   LIG d   1       7.048  -0.566  -6.473  0.00  0.00     0.066 H 
ATOM     13  H   LIG d   1       6.744   1.585  -2.789  0.00  0.00     0.069 H 
ATOM     14  H   LIG d   1      11.192   5.432  -4.718  0.00  0.00     0.066 H 
ENDROOT
BRANCH   3  15
ATOM     15  O   LIG d   1       5.809  -0.419  -4.175  0.00  0.00    -0.423 OA
BRANCH  15  16
ATOM     16  C   LIG d   1       4.541  -0.123  -4.525  0.00  0.00     0.337 C 
ATOM     17  O   LIG d   1       3.905   0.690  -3.881  0.00  0.00    -0.245 OA
BRANCH  16  18
ATOM     18  C   LIG d   1       3.928  -0.783  -5.678  0.00  0.00     0.024 C 
ATOM     19  C   LIG d   1       3.776  -0.112  -6.838  0.00  0.00    -0.048 C 
ATOM     20  H   LIG d   1       4.109   0.913  -6.917  0.00  0.00     0.063 H 
ATOM     21  H   LIG d   1       3.595  -1.807  -5.599  0.00  0.00     0.069 H 
BRANCH  19  22
ATOM     22  C   LIG d   1       3.159  -0.776  -7.997  0.00  0.00    -0.025 A 
ATOM     23  C   LIG d   1       2.194  -0.109  -8.759  0.00  0.00    -0.055 A 
ATOM     24  C   LIG d   1       1.620  -0.738  -9.843  0.00  0.00    -0.061 A 
ATOM     25  H   LIG d   1       1.899   0.897  -8.498  0.00  0.00     0.062 H 
ATOM     26  C   LIG d   1       1.997  -2.027 -10.179  0.00  0.00    -0.062 A 
ATOM     27  H   LIG d   1       0.875  -0.224 -10.432  0.00  0.00     0.062 H 
ATOM     28  C   LIG d   1       2.950  -2.694  -9.430  0.00  0.00    -0.061 A 
ATOM     29  H   LIG d   1       1.544  -2.514 -11.029  0.00  0.00     0.062 H 
ATOM     30  C   LIG d   1       3.538  -2.076  -8.346  0.00  0.00    -0.055 A 
ATOM     31  H   LIG d   1       3.239  -3.699  -9.699  0.00  0.00     0.062 H 
ATOM     32  H   LIG d   1       4.286  -2.597  -7.766  0.00  0.00     0.062 H 
ENDBRANCH  19  22
ENDBRANCH  16  18
ENDBRANCH  15  16
ENDBRANCH   3  15
BRANCH   1  33
ATOM     33  C   LIG d   1       9.005   0.881  -7.608  0.00  0.00    -0.039 C 
ATOM     34  H   LIG d   1       8.325   0.316  -8.247  0.00  0.00     0.028 H 
ATOM     35  H   LIG d   1       9.204   1.853  -8.062  0.00  0.00     0.028 H 
ATOM     36  H   LIG d   1       9.940   0.333  -7.497  0.00  0.00     0.028 H 
ENDBRANCH   1  33
BRANCH  10  37
ATOM     37  C   LIG d   1      10.405   5.601  -2.650  0.00  0.00    -0.019 A 
ATOM     38  C   LIG d   1       9.611   6.734  -2.420  0.00  0.00    -0.036 A 
ATOM     39  C   LIG d   1       9.543   7.253  -1.144  0.00  0.00     0.028 A 
ATOM     40  H   LIG d   1       9.061   7.192  -3.229  0.00  0.00     0.064 H 
ATOM     41  N   LIG d   1      10.210   6.701  -0.149  0.00  0.00    -0.263 NA
ATOM     42  H   LIG d   1       8.934   8.126  -0.956  0.00  0.00     0.083 H 
ATOM     43  C   LIG d   1      10.968   5.635  -0.321  0.00  0.00     0.028 A 
ATOM     44  C   LIG d   1      11.093   5.044  -1.561  0.00  0.00    -0.036 A 
ATOM     45  H   LIG d   1      11.497   5.217   0.523  0.00  0.00     0.083 H 
ATOM     46  H   LIG d   1      11.712   4.169  -1.693  0.00  0.00     0.064 H 
ENDBRANCH  10  37
TORSDOF 6
ENDMDL
MODEL 9
REMARK VINA RESULT:      -6.7      9.779     14.231
REMARK  6 active torsions:
REMARK  status: ('A' for Active; 'I' for Inactive)
REMARK    1  A    between atoms: C_1  and  C_2 
REMARK    2  A    between atoms: C_4  and  O_19 
REMARK    3  A    between atoms: C_11  and  C_12 
REMARK    4  A    between atoms: O_19  and  C_20 
REMARK    5  A    between atoms: C_20  and  C_22 
REMARK    6  A    between atoms: C_23  and  C_24 
ROOT
ATOM      1  C   LIG d   1      12.270   3.842  -3.478  0.00  0.00    -0.033 A 
ATOM      2  C   LIG d   1      11.312   2.877  -3.339  0.00  0.00    -0.015 A 
ATOM      3  C   LIG d   1       9.970   3.232  -3.247  0.00  0.00     0.136 A 
ATOM      4  C   LIG d   1       9.587   4.563  -3.300  0.00  0.00     0.024 A 
ATOM      5  C   LIG d   1      10.547   5.557  -3.435  0.00  0.00     0.143 A 
ATOM      6  C   LIG d   1      11.899   5.186  -3.527  0.00  0.00     0.071 A 
ATOM      7  C   LIG d   1      12.665   6.438  -3.666  0.00  0.00     0.232 A 
ATOM      8  O   LIG d   1      13.871   6.567  -3.776  0.00  0.00    -0.283 OA
ATOM      9  C   LIG d   1      11.642   7.500  -3.643  0.00  0.00     0.176 A 
ATOM     10  C   LIG d   1      11.868   8.833  -3.741  0.00  0.00    -0.008 C 
ATOM     11  O   LIG d   1      10.437   6.902  -3.505  0.00  0.00    -0.451 OA
ATOM     12  H   LIG d   1      11.598   1.835  -3.301  0.00  0.00     0.066 H 
ATOM     13  H   LIG d   1       8.542   4.827  -3.233  0.00  0.00     0.069 H 
ATOM     14  H   LIG d   1      12.866   9.198  -3.932  0.00  0.00     0.066 H 
ENDROOT
BRANCH   3  15
ATOM     15  O   LIG d   1       9.026   2.265  -3.111  0.00  0.00    -0.423 OA
BRANCH  15  16
ATOM     16  C   LIG d   1       8.307   1.923  -4.199  0.00  0.00     0.337 C 
ATOM     17  O   LIG d   1       8.595   2.384  -5.288  0.00  0.00    -0.245 OA
BRANCH  16  18
ATOM     18  C   LIG d   1       7.177   1.004  -4.071  0.00  0.00     0.024 C 
ATOM     19  C   LIG d   1       6.245   1.210  -3.118  0.00  0.00    -0.048 C 
ATOM     20  H   LIG d   1       6.331   2.055  -2.451  0.00  0.00     0.063 H 
ATOM     21  H   LIG d   1       7.090   0.158  -4.737  0.00  0.00     0.069 H 
BRANCH  19  22
ATOM     22  C   LIG d   1       5.107   0.284  -2.988  0.00  0.00    -0.025 A 
ATOM     23  C   LIG d   1       3.823   0.692  -3.363  0.00  0.00    -0.055 A 
ATOM     24  C   LIG d   1       2.763  -0.181  -3.239  0.00  0.00    -0.061 A 
ATOM     25  H   LIG d   1       3.662   1.688  -3.749  0.00  0.00     0.062 H 
ATOM     26  C   LIG d   1       2.967  -1.457  -2.744  0.00  0.00    -0.062 A 
ATOM     27  H   LIG d   1       1.771   0.133  -3.527  0.00  0.00     0.062 H 
ATOM     28  C   LIG d   1       4.235  -1.868  -2.371  0.00  0.00    -0.061 A 
ATOM     29  H   LIG d   1       2.133  -2.136  -2.649  0.00  0.00     0.062 H 
ATOM     30  C   LIG d   1       5.307  -1.009  -2.495  0.00  0.00    -0.055 A 
ATOM     31  H   LIG d   1       4.386  -2.866  -1.986  0.00  0.00     0.062 H 
ATOM     32  H   LIG d   1       6.296  -1.333  -2.208  0.00  0.00     0.062 H 
ENDBRANCH  19  22
ENDBRANCH  16  18
ENDBRANCH  15  16
ENDBRANCH   3  15
BRANCH   1  33
ATOM     33  C   LIG d   1      13.722   3.455  -3.577  0.00  0.00    -0.039 C 
ATOM     34  H   LIG d   1      14.125   3.798  -4.531  0.00  0.00     0.028 H 
ATOM     35  H   LIG d   1      14.279   3.918  -2.762  0.00  0.00     0.028 H 
ATOM     36  H   LIG d   1      13.816   2.371  -3.512  0.00  0.00     0.028 H 
ENDBRANCH   1  33
BRANCH  10  37
ATOM     37  C   LIG d   1      10.754   9.780  -3.587  0.00  0.00    -0.019 A 
ATOM     38  C   LIG d   1      10.081  10.294  -4.705  0.00  0.00    -0.036 A 
ATOM     39  C   LIG d   1       9.043  11.180  -4.511  0.00  0.00     0.028 A 
ATOM     40  H   LIG d   1      10.373  10.000  -5.702  0.00  0.00     0.064 H 
ATOM     41  N   LIG d   1       8.678  11.544  -3.297  0.00  0.00    -0.263 NA
ATOM     42  H   LIG d   1       8.519  11.581  -5.367  0.00  0.00     0.083 H 
ATOM     43  C   LIG d   1       9.282  11.086  -2.217  0.00  0.00     0.028 A 
ATOM     44  C   LIG d   1      10.328  10.192  -2.314  0.00  0.00    -0.036 A 
ATOM     45  H   LIG d   1       8.950  11.414  -1.243  0.00  0.00     0.083 H 
ATOM     46  H   LIG d   1      10.815   9.818  -1.425  0.00  0.00     0.064 H 
ENDBRANCH  10  37
TORSDOF 6
ENDMDL
MODEL 10
REMARK VINA RESULT:      -6.7      9.356     13.425
REMARK  6 active torsions:
REMARK  status: ('A' for Active; 'I' for Inactive)
REMARK    1  A    between atoms: C_1  and  C_2 
REMARK    2  A    between atoms: C_4  and  O_19 
REMARK    3  A    between atoms: C_11  and  C_12 
REMARK    4  A    between atoms: O_19  and  C_20 
REMARK    5  A    between atoms: C_20  and  C_22 
REMARK    6  A    between atoms: C_23  and  C_24 
ROOT
ATOM      1  C   LIG d   1       9.710   4.967  -7.681  0.00  0.00    -0.033 A 
ATOM      2  C   LIG d   1       9.848   3.784  -7.011  0.00  0.00    -0.015 A 
ATOM      3  C   LIG d   1       9.974   3.776  -5.625  0.00  0.00     0.136 A 
ATOM      4  C   LIG d   1       9.956   4.962  -4.908  0.00  0.00     0.024 A 
ATOM      5  C   LIG d   1       9.822   6.174  -5.574  0.00  0.00     0.143 A 
ATOM      6  C   LIG d   1       9.696   6.169  -6.973  0.00  0.00     0.071 A 
ATOM      7  C   LIG d   1       9.567   7.579  -7.384  0.00  0.00     0.232 A 
ATOM      8  O   LIG d   1       9.435   8.019  -8.512  0.00  0.00    -0.283 OA
ATOM      9  C   LIG d   1       9.632   8.338  -6.121  0.00  0.00     0.176 A 
ATOM     10  C   LIG d   1       9.556   9.685  -5.991  0.00  0.00    -0.008 C 
ATOM     11  O   LIG d   1       9.782   7.445  -5.116  0.00  0.00    -0.451 OA
ATOM     12  H   LIG d   1       9.859   2.852  -7.559  0.00  0.00     0.066 H 
ATOM     13  H   LIG d   1      10.050   4.944  -3.833  0.00  0.00     0.069 H 
ATOM     14  H   LIG d   1       9.352  10.300  -6.855  0.00  0.00     0.066 H 
ENDROOT
BRANCH   3  15
ATOM     15  O   LIG d   1      10.110   2.595  -4.969  0.00  0.00    -0.423 OA
BRANCH  15  16
ATOM     16  C   LIG d   1       9.242   1.605  -5.260  0.00  0.00     0.337 C 
ATOM     17  O   LIG d   1       9.465   0.853  -6.189  0.00  0.00    -0.245 OA
BRANCH  16  18
ATOM     18  C   LIG d   1       8.027   1.440  -4.462  0.00  0.00     0.024 C 
ATOM     19  C   LIG d   1       7.580   0.204  -4.161  0.00  0.00    -0.048 C 
ATOM     20  H   LIG d   1       8.120  -0.665  -4.508  0.00  0.00     0.063 H 
ATOM     21  H   LIG d   1       7.487   2.309  -4.115  0.00  0.00     0.069 H 
BRANCH  19  22
ATOM     22  C   LIG d   1       6.358   0.038  -3.358  0.00  0.00    -0.025 A 
ATOM     23  C   LIG d   1       5.853  -1.241  -3.102  0.00  0.00    -0.055 A 
ATOM     24  C   LIG d   1       4.707  -1.388  -2.349  0.00  0.00    -0.061 A 
ATOM     25  H   LIG d   1       6.359  -2.111  -3.493  0.00  0.00     0.062 H 
ATOM     26  C   LIG d   1       4.057  -0.274  -1.847  0.00  0.00    -0.062 A 
ATOM     27  H   LIG d   1       4.316  -2.375  -2.151  0.00  0.00     0.062 H 
ATOM     28  C   LIG d   1       4.551   0.995  -2.096  0.00  0.00    -0.061 A 
ATOM     29  H   LIG d   1       3.160  -0.396  -1.258  0.00  0.00     0.062 H 
ATOM     30  C   LIG d   1       5.699   1.158  -2.842  0.00  0.00    -0.055 A 
ATOM     31  H   LIG d   1       4.038   1.859  -1.700  0.00  0.00     0.062 H 
ATOM     32  H   LIG d   1       6.085   2.149  -3.031  0.00  0.00     0.062 H 
ENDBRANCH  19  22
ENDBRANCH  16  18
ENDBRANCH  15  16
ENDBRANCH   3  15
BRANCH   1  33
ATOM     33  C   LIG d   1       9.574   4.973  -9.182  0.00  0.00    -0.039 C 
ATOM     34  H   LIG d   1      10.003   4.057  -9.589  0.00  0.00     0.028 H 
ATOM     35  H   LIG d   1       8.519   5.030  -9.451  0.00  0.00     0.028 H 
ATOM     36  H   LIG d   1      10.100   5.835  -9.592  0.00  0.00     0.028 H 
ENDBRANCH   1  33
BRANCH  10  37
ATOM     37  C   LIG d   1       9.752  10.307  -4.672  0.00  0.00    -0.019 A 
ATOM     38  C   LIG d   1       8.823  11.226  -4.162  0.00  0.00    -0.036 A 
ATOM     39  C   LIG d   1       9.049  11.784  -2.922  0.00  0.00     0.028 A 
ATOM     40  H   LIG d   1       7.946  11.492  -4.732  0.00  0.00     0.064 H 
ATOM     41  N   LIG d   1      10.118  11.465  -2.218  0.00  0.00    -0.263 NA
ATOM     42  H   LIG d   1       8.340  12.494  -2.520  0.00  0.00     0.083 H 
ATOM     43  C   LIG d   1      11.017  10.606  -2.658  0.00  0.00     0.028 A 
ATOM     44  C   LIG d   1      10.871   9.994  -3.886  0.00  0.00    -0.036 A 
ATOM     45  H   LIG d   1      11.877  10.376  -2.047  0.00  0.00     0.083 H 
ATOM     46  H   LIG d   1      11.609   9.288  -4.238  0.00  0.00     0.064 H 
ENDBRANCH  10  37
TORSDOF 6
ENDMDL
