MODEL 1
REMARK VINA RESULT:      -5.6      0.000      0.000
REMARK  8 active torsions:
REMARK  status: ('A' for Active; 'I' for Inactive)
REMARK    1  A    between atoms: C_1  and  C_2 
REMARK    2  A    between atoms: C_2  and  C_20 
REMARK    3  A    between atoms: C_3  and  C_4 
REMARK    4  A    between atoms: C_4  and  O_5 
REMARK    5  A    between atoms: O_5  and  C_6 
REMARK    6  A    between atoms: C_7  and  O_18 
REMARK    7  A    between atoms: C_16  and  O_17 
REMARK    8  A    between atoms: O_18  and  C_19 
ROOT
ATOM      1  C   LIG d   1       5.505  -1.659  -6.597  0.00  0.00     0.208 A 
ATOM      2  C   LIG d   1       4.995  -2.888  -6.172  0.00  0.00     0.166 A 
ATOM      3  C   LIG d   1       4.568  -3.050  -4.871  0.00  0.00    -0.005 A 
ATOM      4  C   LIG d   1       4.647  -1.976  -3.975  0.00  0.00     0.025 A 
ATOM      5  C   LIG d   1       4.202  -2.119  -2.587  0.00  0.00    -0.044 A 
ATOM      6  C   LIG d   1       4.305  -1.042  -1.767  0.00  0.00     0.024 A 
ATOM      7  C   LIG d   1       4.829   0.170  -2.261  0.00  0.00     0.337 A 
ATOM      8  O   LIG d   1       4.915   1.128  -1.514  0.00  0.00    -0.245 OA
ATOM      9  O   LIG d   1       5.235   0.294  -3.534  0.00  0.00    -0.418 OA
ATOM     10  C   LIG d   1       5.160  -0.738  -4.402  0.00  0.00     0.184 A 
ATOM     11  C   LIG d   1       5.592  -0.591  -5.717  0.00  0.00     0.206 A 
ATOM     12  H   LIG d   1       4.174  -4.001  -4.543  0.00  0.00     0.066 H 
ATOM     13  H   LIG d   1       3.803  -3.056  -2.227  0.00  0.00     0.063 H 
ATOM     14  H   LIG d   1       3.986  -1.113  -0.737  0.00  0.00     0.069 H 
ENDROOT
BRANCH   1  15
ATOM     15  O   LIG d   1       5.922  -1.511  -7.882  0.00  0.00    -0.481 OA
BRANCH  15  16
ATOM     16  C   LIG d   1       4.914  -1.289  -8.870  0.00  0.00     0.108 C 
ATOM     17  H   LIG d   1       3.939  -1.558  -8.460  0.00  0.00     0.074 H 
ATOM     18  H   LIG d   1       5.121  -1.903  -9.746  0.00  0.00     0.074 H 
BRANCH  16  19
ATOM     19  C   LIG d   1       4.907   0.165  -9.263  0.00  0.00    -0.048 C 
ATOM     20  C   LIG d   1       3.915   0.939  -8.894  0.00  0.00    -0.076 C 
ATOM     21  H   LIG d   1       5.718   0.570  -9.849  0.00  0.00     0.060 H 
BRANCH  20  22
ATOM     22  C   LIG d   1       2.783   0.374  -8.075  0.00  0.00    -0.044 C 
ATOM     23  H   LIG d   1       2.085  -0.145  -8.731  0.00  0.00     0.027 H 
ATOM     24  H   LIG d   1       3.180  -0.326  -7.340  0.00  0.00     0.027 H 
ATOM     25  H   LIG d   1       2.266   1.185  -7.562  0.00  0.00     0.027 H 
ENDBRANCH  20  22
BRANCH  20  26
ATOM     26  C   LIG d   1       3.907   2.393  -9.287  0.00  0.00    -0.044 C 
ATOM     27  H   LIG d   1       4.146   3.006  -8.418  0.00  0.00     0.027 H 
ATOM     28  H   LIG d   1       4.652   2.563 -10.066  0.00  0.00     0.027 H 
ATOM     29  H   LIG d   1       2.920   2.663  -9.663  0.00  0.00     0.027 H 
ENDBRANCH  20  26
ENDBRANCH  16  19
ENDBRANCH  15  16
ENDBRANCH   1  15
BRANCH  11  30
ATOM     30  O   LIG d   1       6.095   0.600  -6.140  0.00  0.00    -0.501 OA
ATOM     31  H   LIG d   1       5.431   1.298  -6.230  0.00  0.00     0.292 HD
ENDBRANCH  11  30
BRANCH   2  32
ATOM     32  O   LIG d   1       4.918  -3.928  -7.045  0.00  0.00    -0.491 OA
BRANCH  32  33
ATOM     33  C   LIG d   1       3.873  -4.880  -6.830  0.00  0.00     0.079 C 
ATOM     34  H   LIG d   1       3.669  -5.411  -7.760  0.00  0.00     0.066 H 
ATOM     35  H   LIG d   1       4.183  -5.593  -6.065  0.00  0.00     0.066 H 
ATOM     36  H   LIG d   1       2.972  -4.362  -6.502  0.00  0.00     0.066 H 
ENDBRANCH  32  33
ENDBRANCH   2  32
TORSDOF 8
ENDMDL
MODEL 2
REMARK VINA RESULT:      -5.6      1.670      5.098
REMARK  8 active torsions:
REMARK  status: ('A' for Active; 'I' for Inactive)
REMARK    1  A    between atoms: C_1  and  C_2 
REMARK    2  A    between atoms: C_2  and  C_20 
REMARK    3  A    between atoms: C_3  and  C_4 
REMARK    4  A    between atoms: C_4  and  O_5 
REMARK    5  A    between atoms: O_5  and  C_6 
REMARK    6  A    between atoms: C_7  and  O_18 
REMARK    7  A    between atoms: C_16  and  O_17 
REMARK    8  A    between atoms: O_18  and  C_19 
ROOT
ATOM      1  C   LIG d   1       4.994  -1.930  -6.189  0.00  0.00     0.208 A 
ATOM      2  C   LIG d   1       4.307  -2.787  -7.050  0.00  0.00     0.166 A 
ATOM      3  C   LIG d   1       3.720  -2.295  -8.198  0.00  0.00    -0.005 A 
ATOM      4  C   LIG d   1       3.818  -0.931  -8.497  0.00  0.00     0.025 A 
ATOM      5  C   LIG d   1       3.205  -0.380  -9.707  0.00  0.00    -0.044 A 
ATOM      6  C   LIG d   1       3.333   0.952  -9.942  0.00  0.00     0.024 A 
ATOM      7  C   LIG d   1       4.042   1.760  -9.031  0.00  0.00     0.337 A 
ATOM      8  O   LIG d   1       4.149   2.953  -9.254  0.00  0.00    -0.245 OA
ATOM      9  O   LIG d   1       4.601   1.249  -7.923  0.00  0.00    -0.418 OA
ATOM     10  C   LIG d   1       4.510  -0.067  -7.630  0.00  0.00     0.184 A 
ATOM     11  C   LIG d   1       5.093  -0.577  -6.474  0.00  0.00     0.206 A 
ATOM     12  H   LIG d   1       3.188  -2.959  -8.863  0.00  0.00     0.066 H 
ATOM     13  H   LIG d   1       2.666  -1.016 -10.394  0.00  0.00     0.063 H 
ATOM     14  H   LIG d   1       2.893   1.390 -10.826  0.00  0.00     0.069 H 
ENDROOT
BRANCH   1  15
ATOM     15  O   LIG d   1       5.569  -2.426  -5.061  0.00  0.00    -0.481 OA
BRANCH  15  16
ATOM     16  C   LIG d   1       4.727  -2.572  -3.916  0.00  0.00     0.108 C 
ATOM     17  H   LIG d   1       4.892  -3.552  -3.466  0.00  0.00     0.074 H 
ATOM     18  H   LIG d   1       3.684  -2.481  -4.216  0.00  0.00     0.074 H 
BRANCH  16  19
ATOM     19  C   LIG d   1       5.057  -1.499  -2.911  0.00  0.00    -0.048 C 
ATOM     20  C   LIG d   1       4.147  -0.617  -2.573  0.00  0.00    -0.076 C 
ATOM     21  H   LIG d   1       6.041  -1.454  -2.470  0.00  0.00     0.060 H 
BRANCH  20  22
ATOM     22  C   LIG d   1       2.773  -0.678  -3.188  0.00  0.00    -0.044 C 
ATOM     23  H   LIG d   1       2.545   0.274  -3.664  0.00  0.00     0.027 H 
ATOM     24  H   LIG d   1       2.743  -1.474  -3.932  0.00  0.00     0.027 H 
ATOM     25  H   LIG d   1       2.036  -0.881  -2.410  0.00  0.00     0.027 H 
ENDBRANCH  20  22
BRANCH  20  26
ATOM     26  C   LIG d   1       4.476   0.457  -1.568  0.00  0.00    -0.044 C 
ATOM     27  H   LIG d   1       5.423   0.223  -1.083  0.00  0.00     0.027 H 
ATOM     28  H   LIG d   1       4.558   1.418  -2.077  0.00  0.00     0.027 H 
ATOM     29  H   LIG d   1       3.685   0.509  -0.819  0.00  0.00     0.027 H 
ENDBRANCH  20  26
ENDBRANCH  16  19
ENDBRANCH  15  16
ENDBRANCH   1  15
BRANCH  11  30
ATOM     30  O   LIG d   1       5.761   0.251  -5.625  0.00  0.00    -0.501 OA
ATOM     31  H   LIG d   1       5.643   1.191  -5.818  0.00  0.00     0.292 HD
ENDBRANCH  11  30
BRANCH   2  32
ATOM     32  O   LIG d   1       4.215  -4.112  -6.758  0.00  0.00    -0.491 OA
BRANCH  32  33
ATOM     33  C   LIG d   1       3.705  -4.970  -7.782  0.00  0.00     0.079 C 
ATOM     34  H   LIG d   1       4.453  -5.082  -8.567  0.00  0.00     0.066 H 
ATOM     35  H   LIG d   1       3.477  -5.947  -7.356  0.00  0.00     0.066 H 
ATOM     36  H   LIG d   1       2.799  -4.535  -8.202  0.00  0.00     0.066 H 
ENDBRANCH  32  33
ENDBRANCH   2  32
TORSDOF 8
ENDMDL
MODEL 3
REMARK VINA RESULT:      -5.3      2.880      6.933
REMARK  8 active torsions:
REMARK  status: ('A' for Active; 'I' for Inactive)
REMARK    1  A    between atoms: C_1  and  C_2 
REMARK    2  A    between atoms: C_2  and  C_20 
REMARK    3  A    between atoms: C_3  and  C_4 
REMARK    4  A    between atoms: C_4  and  O_5 
REMARK    5  A    between atoms: O_5  and  C_6 
REMARK    6  A    between atoms: C_7  and  O_18 
REMARK    7  A    between atoms: C_16  and  O_17 
REMARK    8  A    between atoms: O_18  and  C_19 
ROOT
ATOM      1  C   LIG d   1       3.630  -0.537  -7.960  0.00  0.00     0.208 A 
ATOM      2  C   LIG d   1       3.184   0.578  -8.673  0.00  0.00     0.166 A 
ATOM      3  C   LIG d   1       2.393   0.416  -9.791  0.00  0.00    -0.005 A 
ATOM      4  C   LIG d   1       2.039  -0.872 -10.211  0.00  0.00     0.025 A 
ATOM      5  C   LIG d   1       1.202  -1.074 -11.395  0.00  0.00    -0.044 A 
ATOM      6  C   LIG d   1       0.892  -2.347 -11.752  0.00  0.00     0.024 A 
ATOM      7  C   LIG d   1       1.375  -3.428 -10.987  0.00  0.00     0.337 A 
ATOM      8  O   LIG d   1       1.090  -4.565 -11.318  0.00  0.00    -0.245 OA
ATOM      9  O   LIG d   1       2.143  -3.236  -9.903  0.00  0.00    -0.418 OA
ATOM     10  C   LIG d   1       2.487  -1.995  -9.494  0.00  0.00     0.184 A 
ATOM     11  C   LIG d   1       3.288  -1.817  -8.369  0.00  0.00     0.206 A 
ATOM     12  H   LIG d   1       2.049   1.279 -10.342  0.00  0.00     0.066 H 
ATOM     13  H   LIG d   1       0.840  -0.233 -11.968  0.00  0.00     0.063 H 
ATOM     14  H   LIG d   1       0.276  -2.532 -12.620  0.00  0.00     0.069 H 
ENDROOT
BRANCH   1  15
ATOM     15  O   LIG d   1       4.408  -0.366  -6.859  0.00  0.00    -0.481 OA
BRANCH  15  16
ATOM     16  C   LIG d   1       3.736  -0.156  -5.616  0.00  0.00     0.108 C 
ATOM     17  H   LIG d   1       2.659  -0.257  -5.764  0.00  0.00     0.074 H 
ATOM     18  H   LIG d   1       3.959   0.844  -5.245  0.00  0.00     0.074 H 
BRANCH  16  19
ATOM     19  C   LIG d   1       4.201  -1.181  -4.614  0.00  0.00    -0.048 C 
ATOM     20  C   LIG d   1       3.565  -1.319  -3.476  0.00  0.00    -0.076 C 
ATOM     21  H   LIG d   1       5.058  -1.800  -4.832  0.00  0.00     0.060 H 
BRANCH  20  22
ATOM     22  C   LIG d   1       2.369  -0.455  -3.171  0.00  0.00    -0.044 C 
ATOM     23  H   LIG d   1       2.282  -0.322  -2.093  0.00  0.00     0.027 H 
ATOM     24  H   LIG d   1       2.491   0.516  -3.649  0.00  0.00     0.027 H 
ATOM     25  H   LIG d   1       1.468  -0.937  -3.551  0.00  0.00     0.027 H 
ENDBRANCH  20  22
BRANCH  20  26
ATOM     26  C   LIG d   1       4.031  -2.343  -2.473  0.00  0.00    -0.044 C 
ATOM     27  H   LIG d   1       4.981  -2.766  -2.800  0.00  0.00     0.027 H 
ATOM     28  H   LIG d   1       4.161  -1.867  -1.501  0.00  0.00     0.027 H 
ATOM     29  H   LIG d   1       3.288  -3.137  -2.392  0.00  0.00     0.027 H 
ENDBRANCH  20  26
ENDBRANCH  16  19
ENDBRANCH  15  16
ENDBRANCH   1  15
BRANCH  11  30
ATOM     30  O   LIG d   1       3.733  -2.896  -7.671  0.00  0.00    -0.501 OA
ATOM     31  H   LIG d   1       3.736  -3.719  -8.179  0.00  0.00     0.292 HD
ENDBRANCH  11  30
BRANCH   2  32
ATOM     32  O   LIG d   1       3.529   1.828  -8.262  0.00  0.00    -0.491 OA
BRANCH  32  33
ATOM     33  C   LIG d   1       4.217   2.654  -9.204  0.00  0.00     0.079 C 
ATOM     34  H   LIG d   1       5.043   3.162  -8.706  0.00  0.00     0.066 H 
ATOM     35  H   LIG d   1       4.606   2.035 -10.013  0.00  0.00     0.066 H 
ATOM     36  H   LIG d   1       3.528   3.394  -9.610  0.00  0.00     0.066 H 
ENDBRANCH  32  33
ENDBRANCH   2  32
TORSDOF 8
ENDMDL
MODEL 4
REMARK VINA RESULT:      -5.3      3.416      5.081
REMARK  8 active torsions:
REMARK  status: ('A' for Active; 'I' for Inactive)
REMARK    1  A    between atoms: C_1  and  C_2 
REMARK    2  A    between atoms: C_2  and  C_20 
REMARK    3  A    between atoms: C_3  and  C_4 
REMARK    4  A    between atoms: C_4  and  O_5 
REMARK    5  A    between atoms: O_5  and  C_6 
REMARK    6  A    between atoms: C_7  and  O_18 
REMARK    7  A    between atoms: C_16  and  O_17 
REMARK    8  A    between atoms: O_18  and  C_19 
ROOT
ATOM      1  C   LIG d   1       6.801  -3.293  -4.816  0.00  0.00     0.208 A 
ATOM      2  C   LIG d   1       5.556  -3.916  -4.918  0.00  0.00     0.166 A 
ATOM      3  C   LIG d   1       4.449  -3.359  -4.312  0.00  0.00    -0.005 A 
ATOM      4  C   LIG d   1       4.578  -2.164  -3.594  0.00  0.00     0.025 A 
ATOM      5  C   LIG d   1       3.421  -1.550  -2.939  0.00  0.00    -0.044 A 
ATOM      6  C   LIG d   1       3.610  -0.392  -2.256  0.00  0.00     0.024 A 
ATOM      7  C   LIG d   1       4.894   0.185  -2.194  0.00  0.00     0.337 A 
ATOM      8  O   LIG d   1       5.050   1.225  -1.578  0.00  0.00    -0.245 OA
ATOM      9  O   LIG d   1       5.951  -0.383  -2.796  0.00  0.00    -0.418 OA
ATOM     10  C   LIG d   1       5.832  -1.535  -3.491  0.00  0.00     0.184 A 
ATOM     11  C   LIG d   1       6.941  -2.111  -4.103  0.00  0.00     0.206 A 
ATOM     12  H   LIG d   1       3.486  -3.842  -4.391  0.00  0.00     0.066 H 
ATOM     13  H   LIG d   1       2.444  -2.007  -2.999  0.00  0.00     0.063 H 
ATOM     14  H   LIG d   1       2.777   0.088  -1.762  0.00  0.00     0.069 H 
ENDROOT
BRANCH   1  15
ATOM     15  O   LIG d   1       7.885  -3.850  -5.418  0.00  0.00    -0.481 OA
BRANCH  15  16
ATOM     16  C   LIG d   1       8.565  -4.882  -4.701  0.00  0.00     0.108 C 
ATOM     17  H   LIG d   1       8.426  -5.834  -5.215  0.00  0.00     0.074 H 
ATOM     18  H   LIG d   1       8.160  -4.952  -3.691  0.00  0.00     0.074 H 
BRANCH  16  19
ATOM     19  C   LIG d   1      10.036  -4.561  -4.632  0.00  0.00    -0.048 C 
ATOM     20  C   LIG d   1      10.588  -4.267  -3.480  0.00  0.00    -0.076 C 
ATOM     21  H   LIG d   1      10.634  -4.572  -5.530  0.00  0.00     0.060 H 
BRANCH  20  22
ATOM     22  C   LIG d   1       9.753  -4.251  -2.226  0.00  0.00    -0.044 C 
ATOM     23  H   LIG d   1       8.697  -4.244  -2.492  0.00  0.00     0.027 H 
ATOM     24  H   LIG d   1       9.973  -5.139  -1.632  0.00  0.00     0.027 H 
ATOM     25  H   LIG d   1       9.988  -3.359  -1.645  0.00  0.00     0.027 H 
ENDBRANCH  20  22
BRANCH  20  26
ATOM     26  C   LIG d   1      12.059  -3.945  -3.411  0.00  0.00    -0.044 C 
ATOM     27  H   LIG d   1      12.526  -4.171  -4.369  0.00  0.00     0.027 H 
ATOM     28  H   LIG d   1      12.189  -2.886  -3.185  0.00  0.00     0.027 H 
ATOM     29  H   LIG d   1      12.525  -4.543  -2.628  0.00  0.00     0.027 H 
ENDBRANCH  20  26
ENDBRANCH  16  19
ENDBRANCH  15  16
ENDBRANCH   1  15
BRANCH  11  30
ATOM     30  O   LIG d   1       8.160  -1.515  -4.006  0.00  0.00    -0.501 OA
ATOM     31  H   LIG d   1       8.637  -1.726  -3.192  0.00  0.00     0.292 HD
ENDBRANCH  11  30
BRANCH   2  32
ATOM     32  O   LIG d   1       5.433  -5.076  -5.618  0.00  0.00    -0.491 OA
BRANCH  32  33
ATOM     33  C   LIG d   1       4.190  -5.303  -6.286  0.00  0.00     0.079 C 
ATOM     34  H   LIG d   1       4.176  -6.315  -6.692  0.00  0.00     0.066 H 
ATOM     35  H   LIG d   1       3.370  -5.185  -5.577  0.00  0.00     0.066 H 
ATOM     36  H   LIG d   1       4.077  -4.584  -7.097  0.00  0.00     0.066 H 
ENDBRANCH  32  33
ENDBRANCH   2  32
TORSDOF 8
ENDMDL
MODEL 5
REMARK VINA RESULT:      -5.1      3.251      6.288
REMARK  8 active torsions:
REMARK  status: ('A' for Active; 'I' for Inactive)
REMARK    1  A    between atoms: C_1  and  C_2 
REMARK    2  A    between atoms: C_2  and  C_20 
REMARK    3  A    between atoms: C_3  and  C_4 
REMARK    4  A    between atoms: C_4  and  O_5 
REMARK    5  A    between atoms: O_5  and  C_6 
REMARK    6  A    between atoms: C_7  and  O_18 
REMARK    7  A    between atoms: C_16  and  O_17 
REMARK    8  A    between atoms: O_18  and  C_19 
ROOT
ATOM      1  C   LIG d   1       5.314  -3.943  -5.646  0.00  0.00     0.208 A 
ATOM      2  C   LIG d   1       6.671  -4.062  -5.340  0.00  0.00     0.166 A 
ATOM      3  C   LIG d   1       7.259  -5.308  -5.259  0.00  0.00    -0.005 A 
ATOM      4  C   LIG d   1       6.488  -6.454  -5.487  0.00  0.00     0.025 A 
ATOM      5  C   LIG d   1       7.084  -7.790  -5.407  0.00  0.00    -0.044 A 
ATOM      6  C   LIG d   1       6.285  -8.864  -5.638  0.00  0.00     0.024 A 
ATOM      7  C   LIG d   1       4.923  -8.672  -5.943  0.00  0.00     0.337 A 
ATOM      8  O   LIG d   1       4.217  -9.644  -6.147  0.00  0.00    -0.245 OA
ATOM      9  O   LIG d   1       4.382  -7.446  -6.014  0.00  0.00    -0.418 OA
ATOM     10  C   LIG d   1       5.121  -6.336  -5.795  0.00  0.00     0.184 A 
ATOM     11  C   LIG d   1       4.541  -5.073  -5.868  0.00  0.00     0.206 A 
ATOM     12  H   LIG d   1       8.308  -5.398  -5.022  0.00  0.00     0.066 H 
ATOM     13  H   LIG d   1       8.131  -7.916  -5.173  0.00  0.00     0.063 H 
ATOM     14  H   LIG d   1       6.693  -9.863  -5.587  0.00  0.00     0.069 H 
ENDROOT
BRANCH   1  15
ATOM     15  O   LIG d   1       4.746  -2.711  -5.723  0.00  0.00    -0.481 OA
BRANCH  15  16
ATOM     16  C   LIG d   1       4.135  -2.204  -4.535  0.00  0.00     0.108 C 
ATOM     17  H   LIG d   1       4.368  -2.862  -3.697  0.00  0.00     0.074 H 
ATOM     18  H   LIG d   1       3.055  -2.158  -4.672  0.00  0.00     0.074 H 
BRANCH  16  19
ATOM     19  C   LIG d   1       4.665  -0.823  -4.248  0.00  0.00    -0.048 C 
ATOM     20  C   LIG d   1       4.804  -0.419  -3.009  0.00  0.00    -0.076 C 
ATOM     21  H   LIG d   1       4.928  -0.165  -5.063  0.00  0.00     0.060 H 
BRANCH  20  22
ATOM     22  C   LIG d   1       4.437  -1.337  -1.872  0.00  0.00    -0.044 C 
ATOM     23  H   LIG d   1       3.506  -1.852  -2.107  0.00  0.00     0.027 H 
ATOM     24  H   LIG d   1       5.230  -2.070  -1.725  0.00  0.00     0.027 H 
ATOM     25  H   LIG d   1       4.309  -0.752  -0.960  0.00  0.00     0.027 H 
ENDBRANCH  20  22
BRANCH  20  26
ATOM     26  C   LIG d   1       5.333   0.962  -2.721  0.00  0.00    -0.044 C 
ATOM     27  H   LIG d   1       4.509   1.676  -2.732  0.00  0.00     0.027 H 
ATOM     28  H   LIG d   1       5.809   0.972  -1.740  0.00  0.00     0.027 H 
ATOM     29  H   LIG d   1       6.063   1.238  -3.483  0.00  0.00     0.027 H 
ENDBRANCH  20  26
ENDBRANCH  16  19
ENDBRANCH  15  16
ENDBRANCH   1  15
BRANCH  11  30
ATOM     30  O   LIG d   1       3.219  -4.946  -6.161  0.00  0.00    -0.501 OA
ATOM     31  H   LIG d   1       2.924  -4.031  -6.259  0.00  0.00     0.292 HD
ENDBRANCH  11  30
BRANCH   2  32
ATOM     32  O   LIG d   1       7.417  -2.946  -5.121  0.00  0.00    -0.491 OA
BRANCH  32  33
ATOM     33  C   LIG d   1       7.800  -2.675  -3.770  0.00  0.00     0.079 C 
ATOM     34  H   LIG d   1       8.786  -3.098  -3.580  0.00  0.00     0.066 H 
ATOM     35  H   LIG d   1       7.830  -1.597  -3.611  0.00  0.00     0.066 H 
ATOM     36  H   LIG d   1       7.075  -3.124  -3.091  0.00  0.00     0.066 H 
ENDBRANCH  32  33
ENDBRANCH   2  32
TORSDOF 8
ENDMDL
MODEL 6
REMARK VINA RESULT:      -5.0      3.813      4.881
REMARK  8 active torsions:
REMARK  status: ('A' for Active; 'I' for Inactive)
REMARK    1  A    between atoms: C_1  and  C_2 
REMARK    2  A    between atoms: C_2  and  C_20 
REMARK    3  A    between atoms: C_3  and  C_4 
REMARK    4  A    between atoms: C_4  and  O_5 
REMARK    5  A    between atoms: O_5  and  C_6 
REMARK    6  A    between atoms: C_7  and  O_18 
REMARK    7  A    between atoms: C_16  and  O_17 
REMARK    8  A    between atoms: O_18  and  C_19 
ROOT
ATOM      1  C   LIG d   1       8.189  -0.181  -4.856  0.00  0.00     0.208 A 
ATOM      2  C   LIG d   1       8.099  -1.534  -4.521  0.00  0.00     0.166 A 
ATOM      3  C   LIG d   1       7.062  -1.987  -3.732  0.00  0.00    -0.005 A 
ATOM      4  C   LIG d   1       6.098  -1.084  -3.268  0.00  0.00     0.025 A 
ATOM      5  C   LIG d   1       4.986  -1.536  -2.428  0.00  0.00    -0.044 A 
ATOM      6  C   LIG d   1       4.083  -0.613  -2.008  0.00  0.00     0.024 A 
ATOM      7  C   LIG d   1       4.233   0.737  -2.384  0.00  0.00     0.337 A 
ATOM      8  O   LIG d   1       3.415   1.555  -2.000  0.00  0.00    -0.245 OA
ATOM      9  O   LIG d   1       5.253   1.145  -3.153  0.00  0.00    -0.418 OA
ATOM     10  C   LIG d   1       6.187   0.279  -3.605  0.00  0.00     0.184 A 
ATOM     11  C   LIG d   1       7.241   0.722  -4.398  0.00  0.00     0.206 A 
ATOM     12  H   LIG d   1       6.994  -3.033  -3.474  0.00  0.00     0.066 H 
ATOM     13  H   LIG d   1       4.888  -2.575  -2.151  0.00  0.00     0.063 H 
ATOM     14  H   LIG d   1       3.251  -0.913  -1.387  0.00  0.00     0.069 H 
ENDROOT
BRANCH   1  15
ATOM     15  O   LIG d   1       9.214   0.254  -5.635  0.00  0.00    -0.481 OA
BRANCH  15  16
ATOM     16  C   LIG d   1      10.421   0.627  -4.967  0.00  0.00     0.108 C 
ATOM     17  H   LIG d   1      11.220  -0.060  -5.251  0.00  0.00     0.074 H 
ATOM     18  H   LIG d   1      10.270   0.582  -3.889  0.00  0.00     0.074 H 
BRANCH  16  19
ATOM     19  C   LIG d   1      10.802   2.029  -5.364  0.00  0.00    -0.048 C 
ATOM     20  C   LIG d   1      10.776   2.992  -4.474  0.00  0.00    -0.076 C 
ATOM     21  H   LIG d   1      11.095   2.243  -6.381  0.00  0.00     0.060 H 
BRANCH  20  22
ATOM     22  C   LIG d   1      10.367   2.694  -3.055  0.00  0.00    -0.044 C 
ATOM     23  H   LIG d   1      10.803   3.437  -2.388  0.00  0.00     0.027 H 
ATOM     24  H   LIG d   1       9.281   2.727  -2.976  0.00  0.00     0.027 H 
ATOM     25  H   LIG d   1      10.722   1.702  -2.775  0.00  0.00     0.027 H 
ENDBRANCH  20  22
BRANCH  20  26
ATOM     26  C   LIG d   1      11.156   4.395  -4.871  0.00  0.00    -0.044 C 
ATOM     27  H   LIG d   1      10.296   4.891  -5.319  0.00  0.00     0.027 H 
ATOM     28  H   LIG d   1      11.474   4.949  -3.987  0.00  0.00     0.027 H 
ATOM     29  H   LIG d   1      11.974   4.360  -5.592  0.00  0.00     0.027 H 
ENDBRANCH  20  26
ENDBRANCH  16  19
ENDBRANCH  15  16
ENDBRANCH   1  15
BRANCH  11  30
ATOM     30  O   LIG d   1       7.340   2.038  -4.725  0.00  0.00    -0.501 OA
ATOM     31  H   LIG d   1       8.037   2.511  -4.249  0.00  0.00     0.292 HD
ENDBRANCH  11  30
BRANCH   2  32
ATOM     32  O   LIG d   1       9.036  -2.408  -4.975  0.00  0.00    -0.491 OA
BRANCH  32  33
ATOM     33  C   LIG d   1       9.257  -3.586  -4.196  0.00  0.00     0.079 C 
ATOM     34  H   LIG d   1       8.853  -4.451  -4.723  0.00  0.00     0.066 H 
ATOM     35  H   LIG d   1      10.327  -3.723  -4.040  0.00  0.00     0.066 H 
ATOM     36  H   LIG d   1       8.758  -3.483  -3.233  0.00  0.00     0.066 H 
ENDBRANCH  32  33
ENDBRANCH   2  32
TORSDOF 8
ENDMDL
MODEL 7
REMARK VINA RESULT:      -5.0      3.074      3.558
REMARK  8 active torsions:
REMARK  status: ('A' for Active; 'I' for Inactive)
REMARK    1  A    between atoms: C_1  and  C_2 
REMARK    2  A    between atoms: C_2  and  C_20 
REMARK    3  A    between atoms: C_3  and  C_4 
REMARK    4  A    between atoms: C_4  and  O_5 
REMARK    5  A    between atoms: O_5  and  C_6 
REMARK    6  A    between atoms: C_7  and  O_18 
REMARK    7  A    between atoms: C_16  and  O_17 
REMARK    8  A    between atoms: O_18  and  C_19 
ROOT
ATOM      1  C   LIG d   1       8.235  -0.097  -4.857  0.00  0.00     0.208 A 
ATOM      2  C   LIG d   1       8.137  -1.461  -4.571  0.00  0.00     0.166 A 
ATOM      3  C   LIG d   1       7.093  -1.937  -3.805  0.00  0.00    -0.005 A 
ATOM      4  C   LIG d   1       6.129  -1.047  -3.315  0.00  0.00     0.025 A 
ATOM      5  C   LIG d   1       5.010  -1.523  -2.500  0.00  0.00    -0.044 A 
ATOM      6  C   LIG d   1       4.108  -0.612  -2.053  0.00  0.00     0.024 A 
ATOM      7  C   LIG d   1       4.266   0.750  -2.379  0.00  0.00     0.337 A 
ATOM      8  O   LIG d   1       3.449   1.557  -1.972  0.00  0.00    -0.245 OA
ATOM      9  O   LIG d   1       5.294   1.180  -3.127  0.00  0.00    -0.418 OA
ATOM     10  C   LIG d   1       6.226   0.326  -3.603  0.00  0.00     0.184 A 
ATOM     11  C   LIG d   1       7.288   0.793  -4.372  0.00  0.00     0.206 A 
ATOM     12  H   LIG d   1       7.019  -2.991  -3.585  0.00  0.00     0.066 H 
ATOM     13  H   LIG d   1       4.906  -2.572  -2.260  0.00  0.00     0.063 H 
ATOM     14  H   LIG d   1       3.271  -0.930  -1.449  0.00  0.00     0.069 H 
ENDROOT
BRANCH   1  15
ATOM     15  O   LIG d   1       9.267   0.361  -5.612  0.00  0.00    -0.481 OA
BRANCH  15  16
ATOM     16  C   LIG d   1       9.072   0.390  -7.027  0.00  0.00     0.108 C 
ATOM     17  H   LIG d   1       8.025   0.183  -7.254  0.00  0.00     0.074 H 
ATOM     18  H   LIG d   1       9.702  -0.365  -7.498  0.00  0.00     0.074 H 
BRANCH  16  19
ATOM     19  C   LIG d   1       9.439   1.752  -7.557  0.00  0.00    -0.048 C 
ATOM     20  C   LIG d   1       8.567   2.441  -8.253  0.00  0.00    -0.076 C 
ATOM     21  H   LIG d   1      10.419   2.161  -7.365  0.00  0.00     0.060 H 
BRANCH  20  22
ATOM     22  C   LIG d   1       7.198   1.871  -8.522  0.00  0.00    -0.044 C 
ATOM     23  H   LIG d   1       6.925   2.055  -9.560  0.00  0.00     0.027 H 
ATOM     24  H   LIG d   1       7.209   0.797  -8.334  0.00  0.00     0.027 H 
ATOM     25  H   LIG d   1       6.471   2.348  -7.864  0.00  0.00     0.027 H 
ENDBRANCH  20  22
BRANCH  20  26
ATOM     26  C   LIG d   1       8.933   3.803  -8.783  0.00  0.00    -0.044 C 
ATOM     27  H   LIG d   1       8.890   4.532  -7.974  0.00  0.00     0.027 H 
ATOM     28  H   LIG d   1       9.944   3.774  -9.192  0.00  0.00     0.027 H 
ATOM     29  H   LIG d   1       8.232   4.088  -9.568  0.00  0.00     0.027 H 
ENDBRANCH  20  26
ENDBRANCH  16  19
ENDBRANCH  15  16
ENDBRANCH   1  15
BRANCH  11  30
ATOM     30  O   LIG d   1       7.395   2.120  -4.653  0.00  0.00    -0.501 OA
ATOM     31  H   LIG d   1       7.574   2.312  -5.583  0.00  0.00     0.292 HD
ENDBRANCH  11  30
BRANCH   2  32
ATOM     32  O   LIG d   1       9.074  -2.323  -5.049  0.00  0.00    -0.491 OA
BRANCH  32  33
ATOM     33  C   LIG d   1       8.601  -3.453  -5.786  0.00  0.00     0.079 C 
ATOM     34  H   LIG d   1       9.332  -4.259  -5.722  0.00  0.00     0.066 H 
ATOM     35  H   LIG d   1       7.652  -3.788  -5.366  0.00  0.00     0.066 H 
ATOM     36  H   LIG d   1       8.459  -3.172  -6.829  0.00  0.00     0.066 H 
ENDBRANCH  32  33
ENDBRANCH   2  32
TORSDOF 8
ENDMDL
MODEL 8
REMARK VINA RESULT:      -4.8      2.246      5.928
REMARK  8 active torsions:
REMARK  status: ('A' for Active; 'I' for Inactive)
REMARK    1  A    between atoms: C_1  and  C_2 
REMARK    2  A    between atoms: C_2  and  C_20 
REMARK    3  A    between atoms: C_3  and  C_4 
REMARK    4  A    between atoms: C_4  and  O_5 
REMARK    5  A    between atoms: O_5  and  C_6 
REMARK    6  A    between atoms: C_7  and  O_18 
REMARK    7  A    between atoms: C_16  and  O_17 
REMARK    8  A    between atoms: O_18  and  C_19 
ROOT
ATOM      1  C   LIG d   1       4.119  -0.171  -6.442  0.00  0.00     0.208 A 
ATOM      2  C   LIG d   1       5.451  -0.485  -6.164  0.00  0.00     0.166 A 
ATOM      3  C   LIG d   1       6.120  -1.415  -6.932  0.00  0.00    -0.005 A 
ATOM      4  C   LIG d   1       5.458  -2.044  -7.994  0.00  0.00     0.025 A 
ATOM      5  C   LIG d   1       6.143  -3.036  -8.826  0.00  0.00    -0.044 A 
ATOM      6  C   LIG d   1       5.448  -3.612  -9.840  0.00  0.00     0.024 A 
ATOM      7  C   LIG d   1       4.105  -3.248 -10.067  0.00  0.00     0.337 A 
ATOM      8  O   LIG d   1       3.493  -3.773 -10.981  0.00  0.00    -0.245 OA
ATOM      9  O   LIG d   1       3.483  -2.338  -9.301  0.00  0.00    -0.418 OA
ATOM     10  C   LIG d   1       4.117  -1.728  -8.275  0.00  0.00     0.184 A 
ATOM     11  C   LIG d   1       3.453  -0.791  -7.489  0.00  0.00     0.206 A 
ATOM     12  H   LIG d   1       7.150  -1.658  -6.716  0.00  0.00     0.066 H 
ATOM     13  H   LIG d   1       7.172  -3.302  -8.637  0.00  0.00     0.063 H 
ATOM     14  H   LIG d   1       5.923  -4.348 -10.473  0.00  0.00     0.069 H 
ENDROOT
BRANCH   1  15
ATOM     15  O   LIG d   1       3.469   0.748  -5.679  0.00  0.00    -0.481 OA
BRANCH  15  16
ATOM     16  C   LIG d   1       2.488   0.254  -4.766  0.00  0.00     0.108 C 
ATOM     17  H   LIG d   1       1.676  -0.215  -5.323  0.00  0.00     0.074 H 
ATOM     18  H   LIG d   1       2.094   1.079  -4.173  0.00  0.00     0.074 H 
BRANCH  16  19
ATOM     19  C   LIG d   1       3.120  -0.764  -3.852  0.00  0.00    -0.048 C 
ATOM     20  C   LIG d   1       3.678  -0.380  -2.730  0.00  0.00    -0.076 C 
ATOM     21  H   LIG d   1       3.116  -1.809  -4.122  0.00  0.00     0.060 H 
BRANCH  20  22
ATOM     22  C   LIG d   1       3.684   1.079  -2.353  0.00  0.00    -0.044 C 
ATOM     23  H   LIG d   1       2.662   1.417  -2.188  0.00  0.00     0.027 H 
ATOM     24  H   LIG d   1       4.264   1.216  -1.440  0.00  0.00     0.027 H 
ATOM     25  H   LIG d   1       4.134   1.660  -3.159  0.00  0.00     0.027 H 
ENDBRANCH  20  22
BRANCH  20  26
ATOM     26  C   LIG d   1       4.311  -1.397  -1.816  0.00  0.00    -0.044 C 
ATOM     27  H   LIG d   1       5.357  -1.139  -1.654  0.00  0.00     0.027 H 
ATOM     28  H   LIG d   1       3.787  -1.403  -0.860  0.00  0.00     0.027 H 
ATOM     29  H   LIG d   1       4.246  -2.386  -2.272  0.00  0.00     0.027 H 
ENDBRANCH  20  26
ENDBRANCH  16  19
ENDBRANCH  15  16
ENDBRANCH   1  15
BRANCH  11  30
ATOM     30  O   LIG d   1       2.154  -0.482  -7.748  0.00  0.00    -0.501 OA
ATOM     31  H   LIG d   1       1.807  -0.884  -8.556  0.00  0.00     0.292 HD
ENDBRANCH  11  30
BRANCH   2  32
ATOM     32  O   LIG d   1       6.091   0.128  -5.133  0.00  0.00    -0.491 OA
BRANCH  32  33
ATOM     33  C   LIG d   1       7.033  -0.654  -4.396  0.00  0.00     0.079 C 
ATOM     34  H   LIG d   1       8.037  -0.260  -4.556  0.00  0.00     0.066 H 
ATOM     35  H   LIG d   1       6.790  -0.609  -3.334  0.00  0.00     0.066 H 
ATOM     36  H   LIG d   1       6.991  -1.689  -4.735  0.00  0.00     0.066 H 
ENDBRANCH  32  33
ENDBRANCH   2  32
TORSDOF 8
ENDMDL
MODEL 9
REMARK VINA RESULT:      -4.8      2.588      5.714
REMARK  8 active torsions:
REMARK  status: ('A' for Active; 'I' for Inactive)
REMARK    1  A    between atoms: C_1  and  C_2 
REMARK    2  A    between atoms: C_2  and  C_20 
REMARK    3  A    between atoms: C_3  and  C_4 
REMARK    4  A    between atoms: C_4  and  O_5 
REMARK    5  A    between atoms: O_5  and  C_6 
REMARK    6  A    between atoms: C_7  and  O_18 
REMARK    7  A    between atoms: C_16  and  O_17 
REMARK    8  A    between atoms: O_18  and  C_19 
ROOT
ATOM      1  C   LIG d   1       5.070  -2.417  -5.881  0.00  0.00     0.208 A 
ATOM      2  C   LIG d   1       5.860  -3.098  -4.953  0.00  0.00     0.166 A 
ATOM      3  C   LIG d   1       5.959  -4.473  -5.001  0.00  0.00    -0.005 A 
ATOM      4  C   LIG d   1       5.264  -5.185  -5.986  0.00  0.00     0.025 A 
ATOM      5  C   LIG d   1       5.349  -6.645  -6.061  0.00  0.00    -0.044 A 
ATOM      6  C   LIG d   1       4.651  -7.279  -7.038  0.00  0.00     0.024 A 
ATOM      7  C   LIG d   1       3.873  -6.530  -7.943  0.00  0.00     0.337 A 
ATOM      8  O   LIG d   1       3.252  -7.112  -8.815  0.00  0.00    -0.245 OA
ATOM      9  O   LIG d   1       3.799  -5.192  -7.869  0.00  0.00    -0.418 OA
ATOM     10  C   LIG d   1       4.468  -4.500  -6.921  0.00  0.00     0.184 A 
ATOM     11  C   LIG d   1       4.374  -3.113  -6.858  0.00  0.00     0.206 A 
ATOM     12  H   LIG d   1       6.570  -4.998  -4.282  0.00  0.00     0.066 H 
ATOM     13  H   LIG d   1       5.951  -7.201  -5.358  0.00  0.00     0.063 H 
ATOM     14  H   LIG d   1       4.692  -8.355  -7.121  0.00  0.00     0.069 H 
ENDROOT
BRANCH   1  15
ATOM     15  O   LIG d   1       4.980  -1.062  -5.825  0.00  0.00    -0.481 OA
BRANCH  15  16
ATOM     16  C   LIG d   1       3.838  -0.515  -5.162  0.00  0.00     0.108 C 
ATOM     17  H   LIG d   1       3.202  -1.327  -4.806  0.00  0.00     0.074 H 
ATOM     18  H   LIG d   1       3.277   0.108  -5.858  0.00  0.00     0.074 H 
BRANCH  16  19
ATOM     19  C   LIG d   1       4.289   0.318  -3.991  0.00  0.00    -0.048 C 
ATOM     20  C   LIG d   1       4.115  -0.122  -2.768  0.00  0.00    -0.076 C 
ATOM     21  H   LIG d   1       4.753   1.278  -4.157  0.00  0.00     0.060 H 
BRANCH  20  22
ATOM     22  C   LIG d   1       3.466  -1.463  -2.536  0.00  0.00    -0.044 C 
ATOM     23  H   LIG d   1       3.442  -2.022  -3.470  0.00  0.00     0.027 H 
ATOM     24  H   LIG d   1       4.038  -2.019  -1.793  0.00  0.00     0.027 H 
ATOM     25  H   LIG d   1       2.448  -1.315  -2.174  0.00  0.00     0.027 H 
ENDBRANCH  20  22
BRANCH  20  26
ATOM     26  C   LIG d   1       4.564   0.711  -1.596  0.00  0.00    -0.044 C 
ATOM     27  H   LIG d   1       5.517   0.332  -1.225  0.00  0.00     0.027 H 
ATOM     28  H   LIG d   1       4.685   1.747  -1.912  0.00  0.00     0.027 H 
ATOM     29  H   LIG d   1       3.817   0.657  -0.804  0.00  0.00     0.027 H 
ENDBRANCH  20  26
ENDBRANCH  16  19
ENDBRANCH  15  16
ENDBRANCH   1  15
BRANCH  11  30
ATOM     30  O   LIG d   1       3.603  -2.440  -7.754  0.00  0.00    -0.501 OA
ATOM     31  H   LIG d   1       3.839  -2.604  -8.677  0.00  0.00     0.292 HD
ENDBRANCH  11  30
BRANCH   2  32
ATOM     32  O   LIG d   1       6.535  -2.403  -3.998  0.00  0.00    -0.491 OA
BRANCH  32  33
ATOM     33  C   LIG d   1       7.912  -2.736  -3.804  0.00  0.00     0.079 C 
ATOM     34  H   LIG d   1       8.403  -1.939  -3.246  0.00  0.00     0.066 H 
ATOM     35  H   LIG d   1       7.985  -3.669  -3.245  0.00  0.00     0.066 H 
ATOM     36  H   LIG d   1       8.397  -2.853  -4.773  0.00  0.00     0.066 H 
ENDBRANCH  32  33
ENDBRANCH   2  32
TORSDOF 8
ENDMDL
MODEL 10
REMARK VINA RESULT:      -4.7      2.155      5.430
REMARK  8 active torsions:
REMARK  status: ('A' for Active; 'I' for Inactive)
REMARK    1  A    between atoms: C_1  and  C_2 
REMARK    2  A    between atoms: C_2  and  C_20 
REMARK    3  A    between atoms: C_3  and  C_4 
REMARK    4  A    between atoms: C_4  and  O_5 
REMARK    5  A    between atoms: O_5  and  C_6 
REMARK    6  A    between atoms: C_7  and  O_18 
REMARK    7  A    between atoms: C_16  and  O_17 
REMARK    8  A    between atoms: O_18  and  C_19 
ROOT
ATOM      1  C   LIG d   1       4.551  -1.963  -6.498  0.00  0.00     0.208 A 
ATOM      2  C   LIG d   1       4.069  -2.130  -7.798  0.00  0.00     0.166 A 
ATOM      3  C   LIG d   1       3.895  -3.396  -8.317  0.00  0.00    -0.005 A 
ATOM      4  C   LIG d   1       4.202  -4.515  -7.534  0.00  0.00     0.025 A 
ATOM      5  C   LIG d   1       4.028  -5.871  -8.058  0.00  0.00    -0.044 A 
ATOM      6  C   LIG d   1       4.344  -6.917  -7.251  0.00  0.00     0.024 A 
ATOM      7  C   LIG d   1       4.824  -6.678  -5.948  0.00  0.00     0.337 A 
ATOM      8  O   LIG d   1       5.104  -7.624  -5.235  0.00  0.00    -0.245 OA
ATOM      9  O   LIG d   1       4.982  -5.432  -5.473  0.00  0.00    -0.418 OA
ATOM     10  C   LIG d   1       4.687  -4.348  -6.224  0.00  0.00     0.184 A 
ATOM     11  C   LIG d   1       4.863  -3.065  -5.716  0.00  0.00     0.206 A 
ATOM     12  H   LIG d   1       3.522  -3.524  -9.323  0.00  0.00     0.066 H 
ATOM     13  H   LIG d   1       3.657  -6.035  -9.060  0.00  0.00     0.063 H 
ATOM     14  H   LIG d   1       4.227  -7.930  -7.607  0.00  0.00     0.069 H 
ENDROOT
BRANCH   1  15
ATOM     15  O   LIG d   1       4.719  -0.710  -5.997  0.00  0.00    -0.481 OA
BRANCH  15  16
ATOM     16  C   LIG d   1       3.651  -0.179  -5.210  0.00  0.00     0.108 C 
ATOM     17  H   LIG d   1       2.990  -0.989  -4.900  0.00  0.00     0.074 H 
ATOM     18  H   LIG d   1       3.088   0.544  -5.801  0.00  0.00     0.074 H 
BRANCH  16  19
ATOM     19  C   LIG d   1       4.217   0.500  -3.990  0.00  0.00    -0.048 C 
ATOM     20  C   LIG d   1       3.924   0.049  -2.794  0.00  0.00    -0.076 C 
ATOM     21  H   LIG d   1       4.862   1.358  -4.099  0.00  0.00     0.060 H 
BRANCH  20  22
ATOM     22  C   LIG d   1       3.023  -1.150  -2.641  0.00  0.00    -0.044 C 
ATOM     23  H   LIG d   1       2.009  -0.816  -2.420  0.00  0.00     0.027 H 
ATOM     24  H   LIG d   1       3.022  -1.724  -3.567  0.00  0.00     0.027 H 
ATOM     25  H   LIG d   1       3.386  -1.775  -1.826  0.00  0.00     0.027 H 
ENDBRANCH  20  22
BRANCH  20  26
ATOM     26  C   LIG d   1       4.488   0.727  -1.573  0.00  0.00    -0.044 C 
ATOM     27  H   LIG d   1       4.140   1.760  -1.538  0.00  0.00     0.027 H 
ATOM     28  H   LIG d   1       4.155   0.202  -0.678  0.00  0.00     0.027 H 
ATOM     29  H   LIG d   1       5.578   0.712  -1.619  0.00  0.00     0.027 H 
ENDBRANCH  20  26
ENDBRANCH  16  19
ENDBRANCH  15  16
ENDBRANCH   1  15
BRANCH  11  30
ATOM     30  O   LIG d   1       5.336  -2.891  -4.453  0.00  0.00    -0.501 OA
ATOM     31  H   LIG d   1       4.693  -3.096  -3.760  0.00  0.00     0.292 HD
ENDBRANCH  11  30
BRANCH   2  32
ATOM     32  O   LIG d   1       3.770  -1.041  -8.556  0.00  0.00    -0.491 OA
BRANCH  32  33
ATOM     33  C   LIG d   1       2.385  -0.741  -8.745  0.00  0.00     0.079 C 
ATOM     34  H   LIG d   1       1.782  -1.411  -8.132  0.00  0.00     0.066 H 
ATOM     35  H   LIG d   1       2.194   0.291  -8.452  0.00  0.00     0.066 H 
ATOM     36  H   LIG d   1       2.125  -0.876  -9.795  0.00  0.00     0.066 H 
ENDBRANCH  32  33
ENDBRANCH   2  32
TORSDOF 8
ENDMDL
