MODEL 1
REMARK VINA RESULT:      -6.8      0.000      0.000
REMARK  6 active torsions:
REMARK  status: ('A' for Active; 'I' for Inactive)
REMARK    1  A    between atoms: C_1  and  O_2 
REMARK    2  A    between atoms: O_2  and  C_3 
REMARK    3  A    between atoms: C_3  and  C_5 
REMARK    4  A    between atoms: C_9  and  N_11 
REMARK    5  A    between atoms: N_11  and  C_12 
REMARK    6  A    between atoms: C_20  and  N_22 
ROOT
ATOM      1  N   LIG d   1       2.504  -0.113  -5.714  0.00  0.00    -0.244 N 
ATOM      2  H   LIG d   1       1.629  -0.470  -5.498  0.00  0.00     0.159 HD
ENDROOT
BRANCH   1   3
ATOM      3  C   LIG d   1       3.423   0.150  -4.693  0.00  0.00     0.038 A 
ATOM      4  C   LIG d   1       3.074   0.995  -3.645  0.00  0.00    -0.040 A 
ATOM      5  C   LIG d   1       3.978   1.258  -2.633  0.00  0.00    -0.059 A 
ATOM      6  H   LIG d   1       2.094   1.447  -3.623  0.00  0.00     0.064 H 
ATOM      7  C   LIG d   1       5.231   0.682  -2.654  0.00  0.00    -0.048 A 
ATOM      8  H   LIG d   1       3.701   1.915  -1.822  0.00  0.00     0.062 H 
ATOM      9  C   LIG d   1       5.592  -0.168  -3.702  0.00  0.00     0.061 A 
ATOM     10  H   LIG d   1       5.935   0.890  -1.861  0.00  0.00     0.063 H 
ATOM     11  C   LIG d   1       4.683  -0.429  -4.727  0.00  0.00    -0.026 A 
ATOM     12  H   LIG d   1       4.957  -1.083  -5.542  0.00  0.00     0.064 H 
BRANCH   9  13
ATOM     13  C   LIG d   1       6.935  -0.786  -3.727  0.00  0.00     0.339 C 
ATOM     14  O   LIG d   1       7.860  -0.205  -4.258  0.00  0.00    -0.245 OA
BRANCH  13  15
ATOM     15  O   LIG d   1       7.131  -1.992  -3.161  0.00  0.00    -0.464 OA
BRANCH  15  16
ATOM     16  C   LIG d   1       7.956  -2.915  -3.874  0.00  0.00     0.082 C 
ATOM     17  H   LIG d   1       7.369  -3.794  -4.145  0.00  0.00     0.066 H 
ATOM     18  H   LIG d   1       8.335  -2.439  -4.778  0.00  0.00     0.066 H 
ATOM     19  H   LIG d   1       8.793  -3.217  -3.244  0.00  0.00     0.066 H 
ENDBRANCH  15  16
ENDBRANCH  13  15
ENDBRANCH   9  13
ENDBRANCH   1   3
BRANCH   1  20
ATOM     20  C   LIG d   1       2.844   0.137  -7.032  0.00  0.00     0.379 A 
ATOM     21  N   LIG d   1       3.253   1.359  -7.363  0.00  0.00    -0.156 NA
ATOM     22  C   LIG d   1       3.597   1.658  -8.607  0.00  0.00     0.138 A 
ATOM     23  C   LIG d   1       3.509   0.644  -9.592  0.00  0.00     0.086 A 
ATOM     24  C   LIG d   1       3.063  -0.640  -9.194  0.00  0.00     0.219 A 
ATOM     25  C   LIG d   1       3.848   0.876 -10.929  0.00  0.00    -0.045 A 
ATOM     26  N   LIG d   1       2.743  -0.844  -7.908  0.00  0.00    -0.174 N 
ATOM     27  C   LIG d   1       2.969  -1.661 -10.151  0.00  0.00     0.011 A 
ATOM     28  H   LIG d   1       2.436  -1.718  -7.620  0.00  0.00     0.457 HD
ATOM     29  C   LIG d   1       3.306  -1.402 -11.447  0.00  0.00    -0.056 A 
ATOM     30  H   LIG d   1       2.631  -2.645  -9.865  0.00  0.00     0.068 H 
ATOM     31  C   LIG d   1       3.744  -0.139 -11.835  0.00  0.00    -0.061 A 
ATOM     32  H   LIG d   1       3.233  -2.188 -12.183  0.00  0.00     0.062 H 
ATOM     33  H   LIG d   1       4.006   0.041 -12.868  0.00  0.00     0.062 H 
ATOM     34  H   LIG d   1       4.189   1.852 -11.242  0.00  0.00     0.063 H 
BRANCH  22  35
ATOM     35  N   LIG d   1       4.024   2.927  -8.935  0.00  0.00    -0.342 N 
ATOM     36  H   LIG d   1       3.513   3.701  -8.649  0.00  0.00     0.144 HD
ATOM     37  H   LIG d   1       4.836   3.047  -9.454  0.00  0.00     0.144 HD
ENDBRANCH  22  35
ENDBRANCH   1  20
TORSDOF 6
ENDMDL
MODEL 2
REMARK VINA RESULT:      -6.8      3.268      7.139
REMARK  6 active torsions:
REMARK  status: ('A' for Active; 'I' for Inactive)
REMARK    1  A    between atoms: C_1  and  O_2 
REMARK    2  A    between atoms: O_2  and  C_3 
REMARK    3  A    between atoms: C_3  and  C_5 
REMARK    4  A    between atoms: C_9  and  N_11 
REMARK    5  A    between atoms: N_11  and  C_12 
REMARK    6  A    between atoms: C_20  and  N_22 
ROOT
ATOM      1  N   LIG d   1       2.342  -0.172  -7.405  0.00  0.00    -0.244 N 
ATOM      2  H   LIG d   1       1.447  -0.546  -7.400  0.00  0.00     0.159 HD
ENDROOT
BRANCH   1   3
ATOM      3  C   LIG d   1       2.842   0.424  -8.567  0.00  0.00     0.038 A 
ATOM      4  C   LIG d   1       3.218   1.763  -8.555  0.00  0.00    -0.040 A 
ATOM      5  C   LIG d   1       3.714   2.357  -9.701  0.00  0.00    -0.059 A 
ATOM      6  H   LIG d   1       3.120   2.340  -7.648  0.00  0.00     0.064 H 
ATOM      7  C   LIG d   1       3.842   1.625 -10.863  0.00  0.00    -0.048 A 
ATOM      8  H   LIG d   1       4.004   3.397  -9.686  0.00  0.00     0.062 H 
ATOM      9  C   LIG d   1       3.467   0.279 -10.886  0.00  0.00     0.061 A 
ATOM     10  H   LIG d   1       4.230   2.092 -11.756  0.00  0.00     0.063 H 
ATOM     11  C   LIG d   1       2.961  -0.319  -9.732  0.00  0.00    -0.026 A 
ATOM     12  H   LIG d   1       2.667  -1.358  -9.745  0.00  0.00     0.064 H 
BRANCH   9  13
ATOM     13  C   LIG d   1       3.604  -0.507 -12.130  0.00  0.00     0.339 C 
ATOM     14  O   LIG d   1       4.557  -0.326 -12.861  0.00  0.00    -0.245 OA
BRANCH  13  15
ATOM     15  O   LIG d   1       2.671  -1.424 -12.453  0.00  0.00    -0.464 OA
BRANCH  15  16
ATOM     16  C   LIG d   1       2.681  -1.913 -13.795  0.00  0.00     0.082 C 
ATOM     17  H   LIG d   1       3.506  -2.615 -13.921  0.00  0.00     0.066 H 
ATOM     18  H   LIG d   1       1.738  -2.420 -14.003  0.00  0.00     0.066 H 
ATOM     19  H   LIG d   1       2.804  -1.079 -14.485  0.00  0.00     0.066 H 
ENDBRANCH  15  16
ENDBRANCH  13  15
ENDBRANCH   9  13
ENDBRANCH   1   3
BRANCH   1  20
ATOM     20  C   LIG d   1       3.123  -0.228  -6.264  0.00  0.00     0.379 A 
ATOM     21  N   LIG d   1       4.147  -1.077  -6.235  0.00  0.00    -0.156 NA
ATOM     22  C   LIG d   1       4.934  -1.173  -5.174  0.00  0.00     0.138 A 
ATOM     23  C   LIG d   1       4.655  -0.352  -4.053  0.00  0.00     0.086 A 
ATOM     24  C   LIG d   1       3.552   0.532  -4.128  0.00  0.00     0.219 A 
ATOM     25  C   LIG d   1       5.433  -0.394  -2.891  0.00  0.00    -0.045 A 
ATOM     26  N   LIG d   1       2.818   0.558  -5.250  0.00  0.00    -0.174 N 
ATOM     27  C   LIG d   1       3.256   1.354  -3.031  0.00  0.00     0.011 A 
ATOM     28  H   LIG d   1       2.059   1.158  -5.316  0.00  0.00     0.457 HD
ATOM     29  C   LIG d   1       4.033   1.290  -1.912  0.00  0.00    -0.056 A 
ATOM     30  H   LIG d   1       2.418   2.034  -3.071  0.00  0.00     0.068 H 
ATOM     31  C   LIG d   1       5.117   0.419  -1.842  0.00  0.00    -0.061 A 
ATOM     32  H   LIG d   1       3.805   1.923  -1.069  0.00  0.00     0.062 H 
ATOM     33  H   LIG d   1       5.718   0.387  -0.945  0.00  0.00     0.062 H 
ATOM     34  H   LIG d   1       6.277  -1.065  -2.825  0.00  0.00     0.063 H 
BRANCH  22  35
ATOM     35  N   LIG d   1       5.995  -2.052  -5.159  0.00  0.00    -0.342 N 
ATOM     36  H   LIG d   1       6.795  -1.857  -5.674  0.00  0.00     0.144 HD
ATOM     37  H   LIG d   1       5.943  -2.867  -4.634  0.00  0.00     0.144 HD
ENDBRANCH  22  35
ENDBRANCH   1  20
TORSDOF 6
ENDMDL
MODEL 3
REMARK VINA RESULT:      -6.6      3.451      6.963
REMARK  6 active torsions:
REMARK  status: ('A' for Active; 'I' for Inactive)
REMARK    1  A    between atoms: C_1  and  O_2 
REMARK    2  A    between atoms: O_2  and  C_3 
REMARK    3  A    between atoms: C_3  and  C_5 
REMARK    4  A    between atoms: C_9  and  N_11 
REMARK    5  A    between atoms: N_11  and  C_12 
REMARK    6  A    between atoms: C_20  and  N_22 
ROOT
ATOM      1  N   LIG d   1       2.990   1.283  -7.678  0.00  0.00    -0.244 N 
ATOM      2  H   LIG d   1       2.552   2.126  -7.482  0.00  0.00     0.159 HD
ENDROOT
BRANCH   1   3
ATOM      3  C   LIG d   1       3.022   0.802  -8.991  0.00  0.00     0.038 A 
ATOM      4  C   LIG d   1       3.903   1.356  -9.912  0.00  0.00    -0.040 A 
ATOM      5  C   LIG d   1       3.939   0.884 -11.211  0.00  0.00    -0.059 A 
ATOM      6  H   LIG d   1       4.560   2.158  -9.613  0.00  0.00     0.064 H 
ATOM      7  C   LIG d   1       3.102  -0.142 -11.601  0.00  0.00    -0.048 A 
ATOM      8  H   LIG d   1       4.626   1.317 -11.923  0.00  0.00     0.062 H 
ATOM      9  C   LIG d   1       2.213  -0.705 -10.683  0.00  0.00     0.061 A 
ATOM     10  H   LIG d   1       3.134  -0.508 -12.616  0.00  0.00     0.063 H 
ATOM     11  C   LIG d   1       2.172  -0.225  -9.374  0.00  0.00    -0.026 A 
ATOM     12  H   LIG d   1       1.484  -0.653  -8.661  0.00  0.00     0.064 H 
BRANCH   9  13
ATOM     13  C   LIG d   1       1.315  -1.803 -11.098  0.00  0.00     0.339 C 
ATOM     14  O   LIG d   1       0.775  -1.767 -12.186  0.00  0.00    -0.245 OA
BRANCH  13  15
ATOM     15  O   LIG d   1       1.096  -2.843 -10.271  0.00  0.00    -0.464 OA
BRANCH  15  16
ATOM     16  C   LIG d   1       2.079  -3.880 -10.260  0.00  0.00     0.082 C 
ATOM     17  H   LIG d   1       2.001  -4.465 -11.177  0.00  0.00     0.066 H 
ATOM     18  H   LIG d   1       3.073  -3.437 -10.196  0.00  0.00     0.066 H 
ATOM     19  H   LIG d   1       1.915  -4.528  -9.399  0.00  0.00     0.066 H 
ENDBRANCH  15  16
ENDBRANCH  13  15
ENDBRANCH   9  13
ENDBRANCH   1   3
BRANCH   1  20
ATOM     20  C   LIG d   1       3.581   0.555  -6.659  0.00  0.00     0.379 A 
ATOM     21  N   LIG d   1       4.837   0.149  -6.814  0.00  0.00    -0.156 NA
ATOM     22  C   LIG d   1       5.459  -0.545  -5.872  0.00  0.00     0.138 A 
ATOM     23  C   LIG d   1       4.747  -0.860  -4.688  0.00  0.00     0.086 A 
ATOM     24  C   LIG d   1       3.409  -0.411  -4.571  0.00  0.00     0.219 A 
ATOM     25  C   LIG d   1       5.326  -1.594  -3.647  0.00  0.00    -0.045 A 
ATOM     26  N   LIG d   1       2.872   0.290  -5.579  0.00  0.00    -0.174 N 
ATOM     27  C   LIG d   1       2.685  -0.711  -3.408  0.00  0.00     0.011 A 
ATOM     28  H   LIG d   1       1.956   0.605  -5.513  0.00  0.00     0.457 HD
ATOM     29  C   LIG d   1       3.277  -1.428  -2.411  0.00  0.00    -0.056 A 
ATOM     30  H   LIG d   1       1.663  -0.376  -3.302  0.00  0.00     0.068 H 
ATOM     31  C   LIG d   1       4.593  -1.868  -2.530  0.00  0.00    -0.061 A 
ATOM     32  H   LIG d   1       2.718  -1.658  -1.517  0.00  0.00     0.062 H 
ATOM     33  H   LIG d   1       5.040  -2.434  -1.725  0.00  0.00     0.062 H 
ATOM     34  H   LIG d   1       6.346  -1.940  -3.727  0.00  0.00     0.063 H 
BRANCH  22  35
ATOM     35  N   LIG d   1       6.764  -0.956  -6.042  0.00  0.00    -0.342 N 
ATOM     36  H   LIG d   1       7.000  -1.524  -6.793  0.00  0.00     0.144 HD
ATOM     37  H   LIG d   1       7.447  -0.677  -5.411  0.00  0.00     0.144 HD
ENDBRANCH  22  35
ENDBRANCH   1  20
TORSDOF 6
ENDMDL
MODEL 4
REMARK VINA RESULT:      -6.6      3.442      7.106
REMARK  6 active torsions:
REMARK  status: ('A' for Active; 'I' for Inactive)
REMARK    1  A    between atoms: C_1  and  O_2 
REMARK    2  A    between atoms: O_2  and  C_3 
REMARK    3  A    between atoms: C_3  and  C_5 
REMARK    4  A    between atoms: C_9  and  N_11 
REMARK    5  A    between atoms: N_11  and  C_12 
REMARK    6  A    between atoms: C_20  and  N_22 
ROOT
ATOM      1  N   LIG d   1       6.056  -0.359  -7.668  0.00  0.00    -0.244 N 
ATOM      2  H   LIG d   1       6.977  -0.527  -7.919  0.00  0.00     0.159 HD
ENDROOT
BRANCH   1   3
ATOM      3  C   LIG d   1       5.194   0.285  -8.562  0.00  0.00     0.038 A 
ATOM      4  C   LIG d   1       5.249   1.667  -8.706  0.00  0.00    -0.040 A 
ATOM      5  C   LIG d   1       4.400   2.308  -9.589  0.00  0.00    -0.059 A 
ATOM      6  H   LIG d   1       5.955   2.240  -8.125  0.00  0.00     0.064 H 
ATOM      7  C   LIG d   1       3.495   1.582 -10.335  0.00  0.00    -0.048 A 
ATOM      8  H   LIG d   1       4.447   3.382  -9.696  0.00  0.00     0.062 H 
ATOM      9  C   LIG d   1       3.433   0.193 -10.198  0.00  0.00     0.061 A 
ATOM     10  H   LIG d   1       2.835   2.086 -11.024  0.00  0.00     0.063 H 
ATOM     11  C   LIG d   1       4.284  -0.454  -9.303  0.00  0.00    -0.026 A 
ATOM     12  H   LIG d   1       4.238  -1.527  -9.190  0.00  0.00     0.064 H 
BRANCH   9  13
ATOM     13  C   LIG d   1       2.464  -0.588 -10.996  0.00  0.00     0.339 C 
ATOM     14  O   LIG d   1       2.652  -0.753 -12.185  0.00  0.00    -0.245 OA
BRANCH  13  15
ATOM     15  O   LIG d   1       1.375  -1.115 -10.405  0.00  0.00    -0.464 OA
BRANCH  15  16
ATOM     16  C   LIG d   1       1.326  -2.538 -10.288  0.00  0.00     0.082 C 
ATOM     17  H   LIG d   1       0.610  -2.938 -11.007  0.00  0.00     0.066 H 
ATOM     18  H   LIG d   1       2.314  -2.953 -10.490  0.00  0.00     0.066 H 
ATOM     19  H   LIG d   1       1.018  -2.810  -9.279  0.00  0.00     0.066 H 
ENDBRANCH  15  16
ENDBRANCH  13  15
ENDBRANCH   9  13
ENDBRANCH   1   3
BRANCH   1  20
ATOM     20  C   LIG d   1       5.594  -0.754  -6.424  0.00  0.00     0.379 A 
ATOM     21  N   LIG d   1       5.139  -1.995  -6.279  0.00  0.00    -0.156 NA
ATOM     22  C   LIG d   1       4.690  -2.434  -5.113  0.00  0.00     0.138 A 
ATOM     23  C   LIG d   1       4.692  -1.541  -4.012  0.00  0.00     0.086 A 
ATOM     24  C   LIG d   1       5.180  -0.227  -4.216  0.00  0.00     0.219 A 
ATOM     25  C   LIG d   1       4.230  -1.921  -2.748  0.00  0.00    -0.045 A 
ATOM     26  N   LIG d   1       5.618   0.118  -5.435  0.00  0.00    -0.174 N 
ATOM     27  C   LIG d   1       5.192   0.674  -3.141  0.00  0.00     0.011 A 
ATOM     28  H   LIG d   1       5.956   1.014  -5.590  0.00  0.00     0.457 HD
ATOM     29  C   LIG d   1       4.735   0.273  -1.921  0.00  0.00    -0.056 A 
ATOM     30  H   LIG d   1       5.561   1.679  -3.279  0.00  0.00     0.068 H 
ATOM     31  C   LIG d   1       4.256  -1.019  -1.724  0.00  0.00    -0.061 A 
ATOM     32  H   LIG d   1       4.745   0.968  -1.095  0.00  0.00     0.062 H 
ATOM     33  H   LIG d   1       3.899  -1.312  -0.747  0.00  0.00     0.062 H 
ATOM     34  H   LIG d   1       3.856  -2.921  -2.583  0.00  0.00     0.063 H 
BRANCH  22  35
ATOM     35  N   LIG d   1       4.226  -3.724  -4.974  0.00  0.00    -0.342 N 
ATOM     36  H   LIG d   1       3.886  -4.029  -4.117  0.00  0.00     0.144 HD
ATOM     37  H   LIG d   1       4.240  -4.330  -5.733  0.00  0.00     0.144 HD
ENDBRANCH  22  35
ENDBRANCH   1  20
TORSDOF 6
ENDMDL
MODEL 5
REMARK VINA RESULT:      -6.5      5.654      7.778
REMARK  6 active torsions:
REMARK  status: ('A' for Active; 'I' for Inactive)
REMARK    1  A    between atoms: C_1  and  O_2 
REMARK    2  A    between atoms: O_2  and  C_3 
REMARK    3  A    between atoms: C_3  and  C_5 
REMARK    4  A    between atoms: C_9  and  N_11 
REMARK    5  A    between atoms: N_11  and  C_12 
REMARK    6  A    between atoms: C_20  and  N_22 
ROOT
ATOM      1  N   LIG d   1       8.692   2.043  -5.100  0.00  0.00    -0.244 N 
ATOM      2  H   LIG d   1       8.851   2.002  -6.056  0.00  0.00     0.159 HD
ENDROOT
BRANCH   1   3
ATOM      3  C   LIG d   1       9.321   3.025  -4.328  0.00  0.00     0.038 A 
ATOM      4  C   LIG d   1      10.111   2.657  -3.245  0.00  0.00    -0.040 A 
ATOM      5  C   LIG d   1      10.735   3.624  -2.480  0.00  0.00    -0.059 A 
ATOM      6  H   LIG d   1      10.235   1.613  -3.000  0.00  0.00     0.064 H 
ATOM      7  C   LIG d   1      10.581   4.960  -2.787  0.00  0.00    -0.048 A 
ATOM      8  H   LIG d   1      11.347   3.332  -1.639  0.00  0.00     0.062 H 
ATOM      9  C   LIG d   1       9.790   5.340  -3.873  0.00  0.00     0.061 A 
ATOM     10  H   LIG d   1      11.071   5.712  -2.187  0.00  0.00     0.063 H 
ATOM     11  C   LIG d   1       9.155   4.366  -4.642  0.00  0.00    -0.026 A 
ATOM     12  H   LIG d   1       8.539   4.653  -5.482  0.00  0.00     0.064 H 
BRANCH   9  13
ATOM     13  C   LIG d   1       9.624   6.771  -4.204  0.00  0.00     0.339 C 
ATOM     14  O   LIG d   1       9.894   7.620  -3.379  0.00  0.00    -0.245 OA
BRANCH  13  15
ATOM     15  O   LIG d   1       9.173   7.132  -5.421  0.00  0.00    -0.464 OA
BRANCH  15  16
ATOM     16  C   LIG d   1       9.383   8.490  -5.813  0.00  0.00     0.082 C 
ATOM     17  H   LIG d   1      10.444   8.653  -6.007  0.00  0.00     0.066 H 
ATOM     18  H   LIG d   1       8.812   8.699  -6.718  0.00  0.00     0.066 H 
ATOM     19  H   LIG d   1       9.053   9.154  -5.014  0.00  0.00     0.066 H 
ENDBRANCH  15  16
ENDBRANCH  13  15
ENDBRANCH   9  13
ENDBRANCH   1   3
BRANCH   1  20
ATOM     20  C   LIG d   1       7.844   1.128  -4.500  0.00  0.00     0.379 A 
ATOM     21  N   LIG d   1       8.094  -0.169  -4.656  0.00  0.00    -0.156 NA
ATOM     22  C   LIG d   1       7.322  -1.092  -4.101  0.00  0.00     0.138 A 
ATOM     23  C   LIG d   1       6.206  -0.666  -3.339  0.00  0.00     0.086 A 
ATOM     24  C   LIG d   1       5.976   0.725  -3.205  0.00  0.00     0.219 A 
ATOM     25  C   LIG d   1       5.338  -1.574  -2.724  0.00  0.00    -0.045 A 
ATOM     26  N   LIG d   1       6.820   1.579  -3.802  0.00  0.00    -0.174 N 
ATOM     27  C   LIG d   1       4.878   1.170  -2.456  0.00  0.00     0.011 A 
ATOM     28  H   LIG d   1       6.676   2.535  -3.720  0.00  0.00     0.457 HD
ATOM     29  C   LIG d   1       4.050   0.259  -1.869  0.00  0.00    -0.056 A 
ATOM     30  H   LIG d   1       4.688   2.227  -2.344  0.00  0.00     0.068 H 
ATOM     31  C   LIG d   1       4.278  -1.107  -2.002  0.00  0.00    -0.061 A 
ATOM     32  H   LIG d   1       3.205   0.603  -1.292  0.00  0.00     0.062 H 
ATOM     33  H   LIG d   1       3.607  -1.808  -1.527  0.00  0.00     0.062 H 
ATOM     34  H   LIG d   1       5.505  -2.637  -2.820  0.00  0.00     0.063 H 
BRANCH  22  35
ATOM     35  N   LIG d   1       7.595  -2.433  -4.265  0.00  0.00    -0.342 N 
ATOM     36  H   LIG d   1       6.882  -3.049  -4.499  0.00  0.00     0.144 HD
ATOM     37  H   LIG d   1       8.500  -2.763  -4.147  0.00  0.00     0.144 HD
ENDBRANCH  22  35
ENDBRANCH   1  20
TORSDOF 6
ENDMDL
MODEL 6
REMARK VINA RESULT:      -6.4      5.032      7.341
REMARK  6 active torsions:
REMARK  status: ('A' for Active; 'I' for Inactive)
REMARK    1  A    between atoms: C_1  and  O_2 
REMARK    2  A    between atoms: O_2  and  C_3 
REMARK    3  A    between atoms: C_3  and  C_5 
REMARK    4  A    between atoms: C_9  and  N_11 
REMARK    5  A    between atoms: N_11  and  C_12 
REMARK    6  A    between atoms: C_20  and  N_22 
ROOT
ATOM      1  N   LIG d   1       8.559  -2.583  -3.886  0.00  0.00    -0.244 N 
ATOM      2  H   LIG d   1       9.218  -1.991  -4.281  0.00  0.00     0.159 HD
ENDROOT
BRANCH   1   3
ATOM      3  C   LIG d   1       8.943  -3.847  -3.426  0.00  0.00     0.038 A 
ATOM      4  C   LIG d   1       9.362  -4.010  -2.111  0.00  0.00    -0.040 A 
ATOM      5  C   LIG d   1       9.742  -5.256  -1.651  0.00  0.00    -0.059 A 
ATOM      6  H   LIG d   1       9.392  -3.159  -1.447  0.00  0.00     0.064 H 
ATOM      7  C   LIG d   1       9.705  -6.349  -2.493  0.00  0.00    -0.048 A 
ATOM      8  H   LIG d   1      10.067  -5.377  -0.628  0.00  0.00     0.062 H 
ATOM      9  C   LIG d   1       9.286  -6.196  -3.816  0.00  0.00     0.061 A 
ATOM     10  H   LIG d   1      10.002  -7.321  -2.130  0.00  0.00     0.063 H 
ATOM     11  C   LIG d   1       8.908  -4.937  -4.283  0.00  0.00    -0.026 A 
ATOM     12  H   LIG d   1       8.586  -4.812  -5.306  0.00  0.00     0.064 H 
BRANCH   9  13
ATOM     13  C   LIG d   1       9.245  -7.364  -4.721  0.00  0.00     0.339 C 
ATOM     14  O   LIG d   1       9.490  -7.225  -5.902  0.00  0.00    -0.245 OA
BRANCH  13  15
ATOM     15  O   LIG d   1       8.937  -8.582  -4.235  0.00  0.00    -0.464 OA
BRANCH  15  16
ATOM     16  C   LIG d   1       7.552  -8.929  -4.188  0.00  0.00     0.082 C 
ATOM     17  H   LIG d   1       6.978  -8.219  -4.784  0.00  0.00     0.066 H 
ATOM     18  H   LIG d   1       7.416  -9.934  -4.589  0.00  0.00     0.066 H 
ATOM     19  H   LIG d   1       7.205  -8.901  -3.155  0.00  0.00     0.066 H 
ENDBRANCH  15  16
ENDBRANCH  13  15
ENDBRANCH   9  13
ENDBRANCH   1   3
BRANCH   1  20
ATOM     20  C   LIG d   1       7.240  -2.178  -3.779  0.00  0.00     0.379 A 
ATOM     21  N   LIG d   1       6.299  -2.911  -4.369  0.00  0.00    -0.156 NA
ATOM     22  C   LIG d   1       5.019  -2.578  -4.297  0.00  0.00     0.138 A 
ATOM     23  C   LIG d   1       4.667  -1.407  -3.581  0.00  0.00     0.086 A 
ATOM     24  C   LIG d   1       5.703  -0.656  -2.974  0.00  0.00     0.219 A 
ATOM     25  C   LIG d   1       3.341  -0.982  -3.460  0.00  0.00    -0.045 A 
ATOM     26  N   LIG d   1       6.969  -1.080  -3.101  0.00  0.00    -0.174 N 
ATOM     27  C   LIG d   1       5.380   0.507  -2.260  0.00  0.00     0.011 A 
ATOM     28  H   LIG d   1       7.690  -0.576  -2.691  0.00  0.00     0.457 HD
ATOM     29  C   LIG d   1       4.076   0.896  -2.162  0.00  0.00    -0.056 A 
ATOM     30  H   LIG d   1       6.157   1.092  -1.792  0.00  0.00     0.068 H 
ATOM     31  C   LIG d   1       3.060   0.155  -2.759  0.00  0.00    -0.061 A 
ATOM     32  H   LIG d   1       3.828   1.791  -1.612  0.00  0.00     0.062 H 
ATOM     33  H   LIG d   1       2.035   0.484  -2.666  0.00  0.00     0.062 H 
ATOM     34  H   LIG d   1       2.543  -1.548  -3.919  0.00  0.00     0.063 H 
BRANCH  22  35
ATOM     35  N   LIG d   1       4.054  -3.349  -4.908  0.00  0.00    -0.342 N 
ATOM     36  H   LIG d   1       3.168  -3.417  -4.517  0.00  0.00     0.144 HD
ATOM     37  H   LIG d   1       4.259  -3.825  -5.729  0.00  0.00     0.144 HD
ENDBRANCH  22  35
ENDBRANCH   1  20
TORSDOF 6
ENDMDL
MODEL 7
REMARK VINA RESULT:      -6.3      3.603      6.988
REMARK  6 active torsions:
REMARK  status: ('A' for Active; 'I' for Inactive)
REMARK    1  A    between atoms: C_1  and  O_2 
REMARK    2  A    between atoms: O_2  and  C_3 
REMARK    3  A    between atoms: C_3  and  C_5 
REMARK    4  A    between atoms: C_9  and  N_11 
REMARK    5  A    between atoms: N_11  and  C_12 
REMARK    6  A    between atoms: C_20  and  N_22 
ROOT
ATOM      1  N   LIG d   1       4.588  -4.352  -5.239  0.00  0.00    -0.244 N 
ATOM      2  H   LIG d   1       4.658  -5.202  -4.777  0.00  0.00     0.159 HD
ENDROOT
BRANCH   1   3
ATOM      3  C   LIG d   1       4.223  -4.319  -6.589  0.00  0.00     0.038 A 
ATOM      4  C   LIG d   1       3.825  -5.486  -7.230  0.00  0.00    -0.040 A 
ATOM      5  C   LIG d   1       3.462  -5.459  -8.564  0.00  0.00    -0.059 A 
ATOM      6  H   LIG d   1       3.800  -6.417  -6.684  0.00  0.00     0.064 H 
ATOM      7  C   LIG d   1       3.492  -4.272  -9.267  0.00  0.00    -0.048 A 
ATOM      8  H   LIG d   1       3.154  -6.369  -9.057  0.00  0.00     0.062 H 
ATOM      9  C   LIG d   1       3.890  -3.094  -8.633  0.00  0.00     0.061 A 
ATOM     10  H   LIG d   1       3.207  -4.255 -10.309  0.00  0.00     0.063 H 
ATOM     11  C   LIG d   1       4.262  -3.122  -7.289  0.00  0.00    -0.026 A 
ATOM     12  H   LIG d   1       4.575  -2.214  -6.794  0.00  0.00     0.064 H 
BRANCH   9  13
ATOM     13  C   LIG d   1       3.922  -1.821  -9.385  0.00  0.00     0.339 C 
ATOM     14  O   LIG d   1       4.108  -1.830 -10.585  0.00  0.00    -0.245 OA
BRANCH  13  15
ATOM     15  O   LIG d   1       3.746  -0.653  -8.738  0.00  0.00    -0.464 OA
BRANCH  15  16
ATOM     16  C   LIG d   1       2.403  -0.188  -8.594  0.00  0.00     0.082 C 
ATOM     17  H   LIG d   1       2.383   0.661  -7.911  0.00  0.00     0.066 H 
ATOM     18  H   LIG d   1       2.019   0.119  -9.567  0.00  0.00     0.066 H 
ATOM     19  H   LIG d   1       1.782  -0.990  -8.196  0.00  0.00     0.066 H 
ENDBRANCH  15  16
ENDBRANCH  13  15
ENDBRANCH   9  13
ENDBRANCH   1   3
BRANCH   1  20
ATOM     20  C   LIG d   1       4.852  -3.173  -4.564  0.00  0.00     0.379 A 
ATOM     21  N   LIG d   1       6.120  -2.828  -4.357  0.00  0.00    -0.156 NA
ATOM     22  C   LIG d   1       6.436  -1.709  -3.722  0.00  0.00     0.138 A 
ATOM     23  C   LIG d   1       5.385  -0.882  -3.254  0.00  0.00     0.086 A 
ATOM     24  C   LIG d   1       4.051  -1.292  -3.492  0.00  0.00     0.219 A 
ATOM     25  C   LIG d   1       5.631   0.313  -2.570  0.00  0.00    -0.045 A 
ATOM     26  N   LIG d   1       3.836  -2.441  -4.149  0.00  0.00    -0.174 N 
ATOM     27  C   LIG d   1       2.995  -0.490  -3.038  0.00  0.00     0.011 A 
ATOM     28  H   LIG d   1       2.928  -2.736  -4.321  0.00  0.00     0.457 HD
ATOM     29  C   LIG d   1       3.267   0.670  -2.374  0.00  0.00    -0.056 A 
ATOM     30  H   LIG d   1       1.972  -0.788  -3.212  0.00  0.00     0.068 H 
ATOM     31  C   LIG d   1       4.580   1.070  -2.141  0.00  0.00    -0.061 A 
ATOM     32  H   LIG d   1       2.453   1.286  -2.024  0.00  0.00     0.062 H 
ATOM     33  H   LIG d   1       4.769   1.994  -1.613  0.00  0.00     0.062 H 
ATOM     34  H   LIG d   1       6.645   0.635  -2.383  0.00  0.00     0.063 H 
BRANCH  22  35
ATOM     35  N   LIG d   1       7.754  -1.360  -3.519  0.00  0.00    -0.342 N 
ATOM     36  H   LIG d   1       7.989  -0.436  -3.338  0.00  0.00     0.144 HD
ATOM     37  H   LIG d   1       8.447  -2.039  -3.557  0.00  0.00     0.144 HD
ENDBRANCH  22  35
ENDBRANCH   1  20
TORSDOF 6
ENDMDL
MODEL 8
REMARK VINA RESULT:      -6.2      3.469      7.165
REMARK  6 active torsions:
REMARK  status: ('A' for Active; 'I' for Inactive)
REMARK    1  A    between atoms: C_1  and  O_2 
REMARK    2  A    between atoms: O_2  and  C_3 
REMARK    3  A    between atoms: C_3  and  C_5 
REMARK    4  A    between atoms: C_9  and  N_11 
REMARK    5  A    between atoms: N_11  and  C_12 
REMARK    6  A    between atoms: C_20  and  N_22 
ROOT
ATOM      1  N   LIG d   1       4.427  -0.473  -7.769  0.00  0.00    -0.244 N 
ATOM      2  H   LIG d   1       5.115   0.107  -8.131  0.00  0.00     0.159 HD
ENDROOT
BRANCH   1   3
ATOM      3  C   LIG d   1       3.415  -0.960  -8.601  0.00  0.00     0.038 A 
ATOM      4  C   LIG d   1       2.382  -0.122  -9.002  0.00  0.00    -0.040 A 
ATOM      5  C   LIG d   1       1.379  -0.598  -9.826  0.00  0.00    -0.059 A 
ATOM      6  H   LIG d   1       2.362   0.905  -8.668  0.00  0.00     0.064 H 
ATOM      7  C   LIG d   1       1.397  -1.908 -10.256  0.00  0.00    -0.048 A 
ATOM      8  H   LIG d   1       0.578   0.058 -10.134  0.00  0.00     0.062 H 
ATOM      9  C   LIG d   1       2.431  -2.760  -9.859  0.00  0.00     0.061 A 
ATOM     10  H   LIG d   1       0.612  -2.277 -10.900  0.00  0.00     0.063 H 
ATOM     11  C   LIG d   1       3.440  -2.281  -9.023  0.00  0.00    -0.026 A 
ATOM     12  H   LIG d   1       4.240  -2.936  -8.710  0.00  0.00     0.064 H 
BRANCH   9  13
ATOM     13  C   LIG d   1       2.453  -4.164 -10.320  0.00  0.00     0.339 C 
ATOM     14  O   LIG d   1       2.255  -4.422 -11.490  0.00  0.00    -0.245 OA
BRANCH  13  15
ATOM     15  O   LIG d   1       2.692  -5.157  -9.441  0.00  0.00    -0.464 OA
BRANCH  15  16
ATOM     16  C   LIG d   1       2.448  -6.491  -9.890  0.00  0.00     0.082 C 
ATOM     17  H   LIG d   1       3.303  -7.120  -9.643  0.00  0.00     0.066 H 
ATOM     18  H   LIG d   1       1.556  -6.881  -9.398  0.00  0.00     0.066 H 
ATOM     19  H   LIG d   1       2.296  -6.490 -10.969  0.00  0.00     0.066 H 
ENDBRANCH  15  16
ENDBRANCH  13  15
ENDBRANCH   9  13
ENDBRANCH   1   3
BRANCH   1  20
ATOM     20  C   LIG d   1       4.447  -0.817  -6.428  0.00  0.00     0.379 A 
ATOM     21  N   LIG d   1       4.510  -2.105  -6.102  0.00  0.00    -0.156 NA
ATOM     22  C   LIG d   1       4.538  -2.496  -4.836  0.00  0.00     0.138 A 
ATOM     23  C   LIG d   1       4.488  -1.505  -3.825  0.00  0.00     0.086 A 
ATOM     24  C   LIG d   1       4.416  -0.147  -4.219  0.00  0.00     0.219 A 
ATOM     25  C   LIG d   1       4.508  -1.832  -2.465  0.00  0.00    -0.045 A 
ATOM     26  N   LIG d   1       4.398   0.146  -5.528  0.00  0.00    -0.174 N 
ATOM     27  C   LIG d   1       4.365   0.851  -3.236  0.00  0.00     0.011 A 
ATOM     28  H   LIG d   1       4.349   1.072  -5.814  0.00  0.00     0.457 HD
ATOM     29  C   LIG d   1       4.386   0.500  -1.918  0.00  0.00    -0.056 A 
ATOM     30  H   LIG d   1       4.310   1.891  -3.519  0.00  0.00     0.068 H 
ATOM     31  C   LIG d   1       4.457  -0.836  -1.534  0.00  0.00    -0.061 A 
ATOM     32  H   LIG d   1       4.347   1.269  -1.163  0.00  0.00     0.062 H 
ATOM     33  H   LIG d   1       4.472  -1.088  -0.483  0.00  0.00     0.062 H 
ATOM     34  H   LIG d   1       4.563  -2.865  -2.154  0.00  0.00     0.063 H 
BRANCH  22  35
ATOM     35  N   LIG d   1       4.609  -3.834  -4.512  0.00  0.00    -0.342 N 
ATOM     36  H   LIG d   1       5.407  -4.344  -4.726  0.00  0.00     0.144 HD
ATOM     37  H   LIG d   1       3.861  -4.267  -4.070  0.00  0.00     0.144 HD
ENDBRANCH  22  35
ENDBRANCH   1  20
TORSDOF 6
ENDMDL
MODEL 9
REMARK VINA RESULT:      -6.2      3.454      7.159
REMARK  6 active torsions:
REMARK  status: ('A' for Active; 'I' for Inactive)
REMARK    1  A    between atoms: C_1  and  O_2 
REMARK    2  A    between atoms: O_2  and  C_3 
REMARK    3  A    between atoms: C_3  and  C_5 
REMARK    4  A    between atoms: C_9  and  N_11 
REMARK    5  A    between atoms: N_11  and  C_12 
REMARK    6  A    between atoms: C_20  and  N_22 
ROOT
ATOM      1  N   LIG d   1       4.045   0.629  -8.060  0.00  0.00    -0.244 N 
ATOM      2  H   LIG d   1       4.403   1.531  -8.054  0.00  0.00     0.159 HD
ENDROOT
BRANCH   1   3
ATOM      3  C   LIG d   1       3.409   0.138  -9.205  0.00  0.00     0.038 A 
ATOM      4  C   LIG d   1       2.062  -0.200  -9.160  0.00  0.00    -0.040 A 
ATOM      5  C   LIG d   1       1.428  -0.686 -10.289  0.00  0.00    -0.059 A 
ATOM      6  H   LIG d   1       1.509  -0.085  -8.240  0.00  0.00     0.064 H 
ATOM      7  C   LIG d   1       2.128  -0.836 -11.468  0.00  0.00    -0.048 A 
ATOM      8  H   LIG d   1       0.381  -0.948 -10.248  0.00  0.00     0.062 H 
ATOM      9  C   LIG d   1       3.482  -0.499 -11.524  0.00  0.00     0.061 A 
ATOM     10  H   LIG d   1       1.630  -1.214 -12.348  0.00  0.00     0.063 H 
ATOM     11  C   LIG d   1       4.124  -0.015 -10.384  0.00  0.00    -0.026 A 
ATOM     12  H   LIG d   1       5.172   0.245 -10.420  0.00  0.00     0.064 H 
BRANCH   9  13
ATOM     13  C   LIG d   1       4.235  -0.658 -12.786  0.00  0.00     0.339 C 
ATOM     14  O   LIG d   1       3.640  -0.869 -13.824  0.00  0.00    -0.245 OA
BRANCH  13  15
ATOM     15  O   LIG d   1       5.579  -0.570 -12.785  0.00  0.00    -0.464 OA
BRANCH  15  16
ATOM     16  C   LIG d   1       6.308  -1.796 -12.860  0.00  0.00     0.082 C 
ATOM     17  H   LIG d   1       6.415  -2.093 -13.903  0.00  0.00     0.066 H 
ATOM     18  H   LIG d   1       7.296  -1.658 -12.419  0.00  0.00     0.066 H 
ATOM     19  H   LIG d   1       5.772  -2.572 -12.314  0.00  0.00     0.066 H 
ENDBRANCH  15  16
ENDBRANCH  13  15
ENDBRANCH   9  13
ENDBRANCH   1   3
BRANCH   1  20
ATOM     20  C   LIG d   1       4.162  -0.170  -6.936  0.00  0.00     0.379 A 
ATOM     21  N   LIG d   1       4.809  -1.327  -7.042  0.00  0.00    -0.156 NA
ATOM     22  C   LIG d   1       4.959  -2.132  -6.001  0.00  0.00     0.138 A 
ATOM     23  C   LIG d   1       4.401  -1.737  -4.760  0.00  0.00     0.086 A 
ATOM     24  C   LIG d   1       3.715  -0.500  -4.696  0.00  0.00     0.219 A 
ATOM     25  C   LIG d   1       4.508  -2.530  -3.612  0.00  0.00    -0.045 A 
ATOM     26  N   LIG d   1       3.623   0.246  -5.807  0.00  0.00    -0.174 N 
ATOM     27  C   LIG d   1       3.154  -0.088  -3.478  0.00  0.00     0.011 A 
ATOM     28  H   LIG d   1       3.156   1.097  -5.779  0.00  0.00     0.457 HD
ATOM     29  C   LIG d   1       3.276  -0.883  -2.378  0.00  0.00    -0.056 A 
ATOM     30  H   LIG d   1       2.629   0.853  -3.412  0.00  0.00     0.068 H 
ATOM     31  C   LIG d   1       3.950  -2.100  -2.443  0.00  0.00    -0.061 A 
ATOM     32  H   LIG d   1       2.844  -0.565  -1.441  0.00  0.00     0.062 H 
ATOM     33  H   LIG d   1       4.034  -2.711  -1.557  0.00  0.00     0.062 H 
ATOM     34  H   LIG d   1       5.029  -3.475  -3.651  0.00  0.00     0.063 H 
BRANCH  22  35
ATOM     35  N   LIG d   1       5.637  -3.326  -6.122  0.00  0.00    -0.342 N 
ATOM     36  H   LIG d   1       6.478  -3.456  -5.656  0.00  0.00     0.144 HD
ATOM     37  H   LIG d   1       5.273  -4.037  -6.674  0.00  0.00     0.144 HD
ENDBRANCH  22  35
ENDBRANCH   1  20
TORSDOF 6
ENDMDL
MODEL 10
REMARK VINA RESULT:      -6.2      4.801      7.029
REMARK  6 active torsions:
REMARK  status: ('A' for Active; 'I' for Inactive)
REMARK    1  A    between atoms: C_1  and  O_2 
REMARK    2  A    between atoms: O_2  and  C_3 
REMARK    3  A    between atoms: C_3  and  C_5 
REMARK    4  A    between atoms: C_9  and  N_11 
REMARK    5  A    between atoms: N_11  and  C_12 
REMARK    6  A    between atoms: C_20  and  N_22 
ROOT
ATOM      1  N   LIG d   1       9.001   1.064  -4.132  0.00  0.00    -0.244 N 
ATOM      2  H   LIG d   1       9.717   0.437  -3.945  0.00  0.00     0.159 HD
ENDROOT
BRANCH   1   3
ATOM      3  C   LIG d   1       9.294   2.413  -4.356  0.00  0.00     0.038 A 
ATOM      4  C   LIG d   1       9.375   2.900  -5.655  0.00  0.00    -0.040 A 
ATOM      5  C   LIG d   1       9.664   4.232  -5.882  0.00  0.00    -0.059 A 
ATOM      6  H   LIG d   1       9.213   2.234  -6.490  0.00  0.00     0.064 H 
ATOM      7  C   LIG d   1       9.872   5.089  -4.820  0.00  0.00    -0.048 A 
ATOM      8  H   LIG d   1       9.726   4.605  -6.894  0.00  0.00     0.062 H 
ATOM      9  C   LIG d   1       9.792   4.610  -3.511  0.00  0.00     0.061 A 
ATOM     10  H   LIG d   1      10.096   6.129  -5.002  0.00  0.00     0.063 H 
ATOM     11  C   LIG d   1       9.507   3.264  -3.281  0.00  0.00    -0.026 A 
ATOM     12  H   LIG d   1       9.448   2.887  -2.271  0.00  0.00     0.064 H 
BRANCH   9  13
ATOM     13  C   LIG d   1      10.014   5.525  -2.372  0.00  0.00     0.339 C 
ATOM     14  O   LIG d   1       9.440   6.595  -2.332  0.00  0.00    -0.245 OA
BRANCH  13  15
ATOM     15  O   LIG d   1      10.853   5.173  -1.379  0.00  0.00    -0.464 OA
BRANCH  15  16
ATOM     16  C   LIG d   1      10.831   5.975  -0.197  0.00  0.00     0.082 C 
ATOM     17  H   LIG d   1      10.768   5.331   0.680  0.00  0.00     0.066 H 
ATOM     18  H   LIG d   1      11.743   6.571  -0.145  0.00  0.00     0.066 H 
ATOM     19  H   LIG d   1       9.966   6.639  -0.224  0.00  0.00     0.066 H 
ENDBRANCH  15  16
ENDBRANCH  13  15
ENDBRANCH   9  13
ENDBRANCH   1   3
BRANCH   1  20
ATOM     20  C   LIG d   1       7.689   0.624  -4.175  0.00  0.00     0.379 A 
ATOM     21  N   LIG d   1       7.323  -0.192  -5.159  0.00  0.00    -0.156 NA
ATOM     22  C   LIG d   1       6.083  -0.651  -5.251  0.00  0.00     0.138 A 
ATOM     23  C   LIG d   1       5.142  -0.243  -4.274  0.00  0.00     0.086 A 
ATOM     24  C   LIG d   1       5.575   0.630  -3.247  0.00  0.00     0.219 A 
ATOM     25  C   LIG d   1       3.812  -0.677  -4.299  0.00  0.00    -0.045 A 
ATOM     26  N   LIG d   1       6.854   1.035  -3.240  0.00  0.00    -0.174 N 
ATOM     27  C   LIG d   1       4.661   1.048  -2.269  0.00  0.00     0.011 A 
ATOM     28  H   LIG d   1       7.166   1.634  -2.543  0.00  0.00     0.457 HD
ATOM     29  C   LIG d   1       3.371   0.607  -2.322  0.00  0.00    -0.056 A 
ATOM     30  H   LIG d   1       4.975   1.713  -1.480  0.00  0.00     0.068 H 
ATOM     31  C   LIG d   1       2.948  -0.251  -3.332  0.00  0.00    -0.061 A 
ATOM     32  H   LIG d   1       2.669   0.929  -1.569  0.00  0.00     0.062 H 
ATOM     33  H   LIG d   1       1.921  -0.586  -3.351  0.00  0.00     0.062 H 
ATOM     34  H   LIG d   1       3.471  -1.343  -5.078  0.00  0.00     0.063 H 
BRANCH  22  35
ATOM     35  N   LIG d   1       5.718  -1.500  -6.273  0.00  0.00    -0.342 N 
ATOM     36  H   LIG d   1       4.982  -1.264  -6.860  0.00  0.00     0.144 HD
ATOM     37  H   LIG d   1       6.196  -2.334  -6.406  0.00  0.00     0.144 HD
ENDBRANCH  22  35
ENDBRANCH   1  20
TORSDOF 6
ENDMDL
