MODEL 1
REMARK VINA RESULT:      -6.9      0.000      0.000
REMARK  6 active torsions:
REMARK  status: ('A' for Active; 'I' for Inactive)
REMARK    1  A    between atoms: C_1  and  C_2 
REMARK    2  A    between atoms: C_2  and  C_3 
REMARK    3  A    between atoms: C_6  and  C_9 
REMARK    4  A    between atoms: N_15  and  C_30 
REMARK    5  A    between atoms: C_18  and  C_29 
REMARK    6  A    between atoms: C_33  and  N_36 
ROOT
ATOM      1  C   LIG d   1       8.188  -7.445  -4.540  0.00  0.00     0.027 C 
ATOM      2  H   LIG d   1       8.306  -7.062  -3.526  0.00  0.00     0.041 H 
ATOM      3  C   LIG d   1       8.435  -6.306  -5.541  0.00  0.00     0.028 C 
ATOM      4  N   LIG d   1       7.202  -5.522  -5.635  0.00  0.00    -0.265 N 
ATOM      5  C   LIG d   1       6.942  -4.267  -5.266  0.00  0.00     0.317 C 
ATOM      6  O   LIG d   1       7.796  -3.442  -5.010  0.00  0.00    -0.252 OA
ATOM      7  N   LIG d   1       5.622  -4.027  -5.210  0.00  0.00    -0.192 N 
ATOM      8  C   LIG d   1       4.895  -5.092  -5.655  0.00  0.00     0.257 C 
ATOM      9  O   LIG d   1       3.689  -5.212  -5.679  0.00  0.00    -0.272 OA
ATOM     10  C   LIG d   1       5.923  -6.099  -6.113  0.00  0.00     0.153 C 
ATOM     11  C   LIG d   1       5.778  -7.412  -5.381  0.00  0.00     0.054 A 
ATOM     12  C   LIG d   1       6.795  -7.994  -4.707  0.00  0.00    -0.008 A 
ATOM     13  C   LIG d   1       6.277  -9.245  -4.177  0.00  0.00     0.004 A 
ATOM     14  C   LIG d   1       6.863 -10.259  -3.415  0.00  0.00    -0.052 A 
ATOM     15  C   LIG d   1       6.061 -11.323  -3.078  0.00  0.00    -0.061 A 
ATOM     16  C   LIG d   1       4.734 -11.396  -3.469  0.00  0.00    -0.060 A 
ATOM     17  C   LIG d   1       4.130 -10.406  -4.225  0.00  0.00    -0.038 A 
ATOM     18  C   LIG d   1       4.921  -9.315  -4.581  0.00  0.00     0.047 A 
ATOM     19  N   LIG d   1       4.654  -8.189  -5.305  0.00  0.00    -0.356 N 
ATOM     20  H   LIG d   1       3.797  -7.973  -5.706  0.00  0.00     0.166 HD
ATOM     21  H   LIG d   1       9.249  -5.673  -5.187  0.00  0.00     0.048 H 
ATOM     22  H   LIG d   1       8.686  -6.719  -6.517  0.00  0.00     0.048 H 
ATOM     23  H   LIG d   1       7.897 -10.210  -3.105  0.00  0.00     0.062 H 
ATOM     24  H   LIG d   1       6.478 -12.127  -2.491  0.00  0.00     0.062 H 
ATOM     25  H   LIG d   1       4.150 -12.256  -3.174  0.00  0.00     0.062 H 
ATOM     26  H   LIG d   1       3.095 -10.475  -4.522  0.00  0.00     0.064 H 
ENDROOT
BRANCH   1  27
ATOM     27  C   LIG d   1       9.190  -8.545  -4.779  0.00  0.00    -0.038 A 
ATOM     28  C   LIG d   1      10.039  -8.939  -3.760  0.00  0.00    -0.058 A 
ATOM     29  C   LIG d   1      10.956  -9.950  -3.977  0.00  0.00    -0.058 A 
ATOM     30  H   LIG d   1       9.984  -8.458  -2.795  0.00  0.00     0.062 H 
ATOM     31  C   LIG d   1      11.029 -10.562  -5.215  0.00  0.00    -0.048 A 
ATOM     32  H   LIG d   1      11.617 -10.261  -3.181  0.00  0.00     0.062 H 
ATOM     33  C   LIG d   1      10.181 -10.169  -6.232  0.00  0.00    -0.058 A 
ATOM     34  C   LIG d   1       9.261  -9.161  -6.014  0.00  0.00    -0.058 A 
ATOM     35  H   LIG d   1      10.236 -10.650  -7.198  0.00  0.00     0.062 H 
ATOM     36  H   LIG d   1       8.597  -8.853  -6.809  0.00  0.00     0.062 H 
BRANCH  31  37
ATOM     37  C   LIG d   1      12.033 -11.662  -5.453  0.00  0.00    -0.030 C 
ATOM     38  H   LIG d   1      12.387 -12.043  -4.494  0.00  0.00     0.031 H 
ATOM     39  H   LIG d   1      12.875 -11.268  -6.021  0.00  0.00     0.031 H 
BRANCH  37  40
ATOM     40  C   LIG d   1      11.371 -12.795  -6.239  0.00  0.00    -0.061 C 
ATOM     41  H   LIG d   1      11.522 -13.739  -5.715  0.00  0.00     0.023 H 
ATOM     42  H   LIG d   1      10.303 -12.598  -6.332  0.00  0.00     0.023 H 
ATOM     43  H   LIG d   1      11.816 -12.856  -7.233  0.00  0.00     0.023 H 
ENDBRANCH  37  40
ENDBRANCH  31  37
ENDBRANCH   1  27
BRANCH  10  44
ATOM     44  C   LIG d   1       5.906  -6.287  -7.631  0.00  0.00    -0.029 C 
ATOM     45  H   LIG d   1       6.054  -7.341  -7.869  0.00  0.00     0.026 H 
ATOM     46  H   LIG d   1       4.945  -5.957  -8.026  0.00  0.00     0.026 H 
ATOM     47  H   LIG d   1       6.706  -5.698  -8.079  0.00  0.00     0.026 H 
ENDBRANCH  10  44
BRANCH   7  48
ATOM     48  C   LIG d   1       5.058  -2.827  -4.757  0.00  0.00     0.046 A 
ATOM     49  C   LIG d   1       4.881  -1.766  -5.636  0.00  0.00    -0.033 A 
ATOM     50  C   LIG d   1       4.325  -0.585  -5.186  0.00  0.00     0.017 A 
ATOM     51  H   LIG d   1       5.179  -1.865  -6.669  0.00  0.00     0.064 H 
ATOM     52  C   LIG d   1       3.945  -0.457  -3.863  0.00  0.00     0.273 A 
ATOM     53  H   LIG d   1       4.187   0.241  -5.869  0.00  0.00     0.069 H 
ATOM     54  C   LIG d   1       4.120  -1.511  -2.986  0.00  0.00     0.017 A 
ATOM     55  C   LIG d   1       4.669  -2.697  -3.430  0.00  0.00    -0.033 A 
ATOM     56  H   LIG d   1       3.821  -1.409  -1.953  0.00  0.00     0.069 H 
ATOM     57  H   LIG d   1       4.802  -3.522  -2.746  0.00  0.00     0.064 H 
BRANCH  52  58
ATOM     58  N   LIG d   1       3.349   0.812  -3.384  0.00  0.00     0.080 N 
ATOM     59  O   LIG d   1       3.231   1.016  -2.190  0.00  0.00     0.041 OA
ATOM     60  O   LIG d   1       2.979   1.650  -4.185  0.00  0.00    -0.576 OA
ENDBRANCH  52  58
ENDBRANCH   7  48
TORSDOF 6
ENDMDL
MODEL 2
REMARK VINA RESULT:      -6.8      4.732      8.518
REMARK  6 active torsions:
REMARK  status: ('A' for Active; 'I' for Inactive)
REMARK    1  A    between atoms: C_1  and  C_2 
REMARK    2  A    between atoms: C_2  and  C_3 
REMARK    3  A    between atoms: C_6  and  C_9 
REMARK    4  A    between atoms: N_15  and  C_30 
REMARK    5  A    between atoms: C_18  and  C_29 
REMARK    6  A    between atoms: C_33  and  N_36 
ROOT
ATOM      1  C   LIG d   1       6.463  -1.278  -6.636  0.00  0.00     0.027 C 
ATOM      2  H   LIG d   1       5.812  -0.606  -7.196  0.00  0.00     0.041 H 
ATOM      3  C   LIG d   1       6.981  -2.377  -7.576  0.00  0.00     0.028 C 
ATOM      4  N   LIG d   1       5.935  -3.396  -7.688  0.00  0.00    -0.265 N 
ATOM      5  C   LIG d   1       5.190  -3.761  -8.732  0.00  0.00     0.317 C 
ATOM      6  O   LIG d   1       5.442  -3.471  -9.885  0.00  0.00    -0.252 OA
ATOM      7  N   LIG d   1       4.125  -4.488  -8.354  0.00  0.00    -0.192 N 
ATOM      8  C   LIG d   1       4.147  -4.759  -7.017  0.00  0.00     0.257 C 
ATOM      9  O   LIG d   1       3.310  -5.341  -6.362  0.00  0.00    -0.272 OA
ATOM     10  C   LIG d   1       5.448  -4.172  -6.524  0.00  0.00     0.153 C 
ATOM     11  C   LIG d   1       5.218  -3.154  -5.432  0.00  0.00     0.054 A 
ATOM     12  C   LIG d   1       5.688  -1.888  -5.496  0.00  0.00    -0.008 A 
ATOM     13  C   LIG d   1       5.296  -1.238  -4.257  0.00  0.00     0.004 A 
ATOM     14  C   LIG d   1       5.507   0.053  -3.763  0.00  0.00    -0.052 A 
ATOM     15  C   LIG d   1       4.980   0.335  -2.525  0.00  0.00    -0.061 A 
ATOM     16  C   LIG d   1       4.273  -0.605  -1.795  0.00  0.00    -0.060 A 
ATOM     17  C   LIG d   1       4.052  -1.890  -2.260  0.00  0.00    -0.038 A 
ATOM     18  C   LIG d   1       4.575  -2.205  -3.513  0.00  0.00     0.047 A 
ATOM     19  N   LIG d   1       4.546  -3.350  -4.256  0.00  0.00    -0.356 N 
ATOM     20  H   LIG d   1       4.116  -4.177  -3.989  0.00  0.00     0.166 HD
ATOM     21  H   LIG d   1       7.192  -1.955  -8.558  0.00  0.00     0.048 H 
ATOM     22  H   LIG d   1       7.886  -2.821  -7.162  0.00  0.00     0.048 H 
ATOM     23  H   LIG d   1       6.056   0.792  -4.326  0.00  0.00     0.062 H 
ATOM     24  H   LIG d   1       5.123   1.321  -2.109  0.00  0.00     0.062 H 
ATOM     25  H   LIG d   1       3.881  -0.327  -0.827  0.00  0.00     0.062 H 
ATOM     26  H   LIG d   1       3.499  -2.613  -1.680  0.00  0.00     0.064 H 
ENDROOT
BRANCH   1  27
ATOM     27  C   LIG d   1       7.630  -0.500  -6.087  0.00  0.00    -0.038 A 
ATOM     28  C   LIG d   1       7.647   0.879  -6.181  0.00  0.00    -0.058 A 
ATOM     29  C   LIG d   1       8.716   1.594  -5.674  0.00  0.00    -0.058 A 
ATOM     30  H   LIG d   1       6.823   1.399  -6.650  0.00  0.00     0.062 H 
ATOM     31  C   LIG d   1       9.771   0.929  -5.079  0.00  0.00    -0.048 A 
ATOM     32  H   LIG d   1       8.727   2.672  -5.744  0.00  0.00     0.062 H 
ATOM     33  C   LIG d   1       9.754  -0.449  -4.983  0.00  0.00    -0.058 A 
ATOM     34  C   LIG d   1       8.684  -1.164  -5.487  0.00  0.00    -0.058 A 
ATOM     35  H   LIG d   1      10.578  -0.969  -4.515  0.00  0.00     0.062 H 
ATOM     36  H   LIG d   1       8.670  -2.241  -5.412  0.00  0.00     0.062 H 
BRANCH  31  37
ATOM     37  C   LIG d   1      10.939   1.709  -4.530  0.00  0.00    -0.030 C 
ATOM     38  H   LIG d   1      11.299   2.405  -5.288  0.00  0.00     0.031 H 
ATOM     39  H   LIG d   1      11.739   1.021  -4.259  0.00  0.00     0.031 H 
BRANCH  37  40
ATOM     40  C   LIG d   1      10.495   2.489  -3.291  0.00  0.00    -0.061 C 
ATOM     41  H   LIG d   1       9.624   2.005  -2.849  0.00  0.00     0.023 H 
ATOM     42  H   LIG d   1      11.308   2.508  -2.564  0.00  0.00     0.023 H 
ATOM     43  H   LIG d   1      10.239   3.510  -3.576  0.00  0.00     0.023 H 
ENDBRANCH  37  40
ENDBRANCH  31  37
ENDBRANCH   1  27
BRANCH  10  44
ATOM     44  C   LIG d   1       6.440  -5.254  -6.095  0.00  0.00    -0.029 C 
ATOM     45  H   LIG d   1       6.056  -5.772  -5.215  0.00  0.00     0.026 H 
ATOM     46  H   LIG d   1       6.571  -5.969  -6.907  0.00  0.00     0.026 H 
ATOM     47  H   LIG d   1       7.398  -4.795  -5.856  0.00  0.00     0.026 H 
ENDBRANCH  10  44
BRANCH   7  48
ATOM     48  C   LIG d   1       3.118  -4.922  -9.226  0.00  0.00     0.046 A 
ATOM     49  C   LIG d   1       3.010  -6.268  -9.548  0.00  0.00    -0.033 A 
ATOM     50  C   LIG d   1       2.017  -6.693 -10.408  0.00  0.00     0.017 A 
ATOM     51  H   LIG d   1       3.703  -6.983  -9.128  0.00  0.00     0.064 H 
ATOM     52  C   LIG d   1       1.130  -5.780 -10.949  0.00  0.00     0.273 A 
ATOM     53  H   LIG d   1       1.932  -7.741 -10.660  0.00  0.00     0.069 H 
ATOM     54  C   LIG d   1       1.235  -4.439 -10.629  0.00  0.00     0.017 A 
ATOM     55  C   LIG d   1       2.222  -4.009  -9.765  0.00  0.00    -0.033 A 
ATOM     56  H   LIG d   1       0.540  -3.729 -11.051  0.00  0.00     0.069 H 
ATOM     57  H   LIG d   1       2.301  -2.962  -9.513  0.00  0.00     0.064 H 
BRANCH  52  58
ATOM     58  N   LIG d   1       0.066  -6.239 -11.870  0.00  0.00     0.080 N 
ATOM     59  O   LIG d   1      -0.219  -7.422 -11.930  0.00  0.00     0.041 OA
ATOM     60  O   LIG d   1      -0.525  -5.435 -12.568  0.00  0.00    -0.576 OA
ENDBRANCH  52  58
ENDBRANCH   7  48
TORSDOF 6
ENDMDL
MODEL 3
REMARK VINA RESULT:      -6.7      5.978      9.316
REMARK  6 active torsions:
REMARK  status: ('A' for Active; 'I' for Inactive)
REMARK    1  A    between atoms: C_1  and  C_2 
REMARK    2  A    between atoms: C_2  and  C_3 
REMARK    3  A    between atoms: C_6  and  C_9 
REMARK    4  A    between atoms: N_15  and  C_30 
REMARK    5  A    between atoms: C_18  and  C_29 
REMARK    6  A    between atoms: C_33  and  N_36 
ROOT
ATOM      1  C   LIG d   1       7.876  -1.838  -5.174  0.00  0.00     0.027 C 
ATOM      2  H   LIG d   1       8.502  -2.381  -4.466  0.00  0.00     0.041 H 
ATOM      3  C   LIG d   1       8.726  -1.421  -6.382  0.00  0.00     0.028 C 
ATOM      4  N   LIG d   1       9.457  -0.206  -6.014  0.00  0.00    -0.265 N 
ATOM      5  C   LIG d   1      10.763   0.002  -5.846  0.00  0.00     0.317 C 
ATOM      6  O   LIG d   1      11.630  -0.754  -6.238  0.00  0.00    -0.252 OA
ATOM      7  N   LIG d   1      11.005   1.149  -5.190  0.00  0.00    -0.192 N 
ATOM      8  C   LIG d   1       9.860   1.856  -4.969  0.00  0.00     0.257 C 
ATOM      9  O   LIG d   1       9.733   2.896  -4.359  0.00  0.00    -0.272 OA
ATOM     10  C   LIG d   1       8.774   1.057  -5.649  0.00  0.00     0.153 C 
ATOM     11  C   LIG d   1       7.688   0.660  -4.678  0.00  0.00     0.054 A 
ATOM     12  C   LIG d   1       7.297  -0.622  -4.497  0.00  0.00    -0.008 A 
ATOM     13  C   LIG d   1       6.219  -0.592  -3.522  0.00  0.00     0.004 A 
ATOM     14  C   LIG d   1       5.432  -1.599  -2.958  0.00  0.00    -0.052 A 
ATOM     15  C   LIG d   1       4.484  -1.205  -2.043  0.00  0.00    -0.061 A 
ATOM     16  C   LIG d   1       4.311   0.123  -1.691  0.00  0.00    -0.060 A 
ATOM     17  C   LIG d   1       5.075   1.140  -2.236  0.00  0.00    -0.038 A 
ATOM     18  C   LIG d   1       6.044   0.769  -3.167  0.00  0.00     0.047 A 
ATOM     19  N   LIG d   1       6.951   1.496  -3.884  0.00  0.00    -0.356 N 
ATOM     20  H   LIG d   1       7.055   2.459  -3.838  0.00  0.00     0.166 HD
ATOM     21  H   LIG d   1       9.431  -2.214  -6.630  0.00  0.00     0.048 H 
ATOM     22  H   LIG d   1       8.081  -1.218  -7.237  0.00  0.00     0.048 H 
ATOM     23  H   LIG d   1       5.561  -2.637  -3.226  0.00  0.00     0.062 H 
ATOM     24  H   LIG d   1       3.856  -1.954  -1.586  0.00  0.00     0.062 H 
ATOM     25  H   LIG d   1       3.551   0.375  -0.965  0.00  0.00     0.062 H 
ATOM     26  H   LIG d   1       4.930   2.171  -1.952  0.00  0.00     0.064 H 
ENDROOT
BRANCH   1  27
ATOM     27  C   LIG d   1       6.755  -2.732  -5.637  0.00  0.00    -0.038 A 
ATOM     28  C   LIG d   1       5.852  -2.276  -6.579  0.00  0.00    -0.058 A 
ATOM     29  C   LIG d   1       4.825  -3.097  -7.007  0.00  0.00    -0.058 A 
ATOM     30  H   LIG d   1       5.949  -1.279  -6.982  0.00  0.00     0.062 H 
ATOM     31  C   LIG d   1       4.698  -4.372  -6.488  0.00  0.00    -0.048 A 
ATOM     32  H   LIG d   1       4.122  -2.743  -7.746  0.00  0.00     0.062 H 
ATOM     33  C   LIG d   1       5.602  -4.828  -5.547  0.00  0.00    -0.058 A 
ATOM     34  C   LIG d   1       6.630  -4.009  -5.121  0.00  0.00    -0.058 A 
ATOM     35  H   LIG d   1       5.504  -5.826  -5.143  0.00  0.00     0.062 H 
ATOM     36  H   LIG d   1       7.337  -4.365  -4.386  0.00  0.00     0.062 H 
BRANCH  31  37
ATOM     37  C   LIG d   1       3.577  -5.266  -6.951  0.00  0.00    -0.030 C 
ATOM     38  H   LIG d   1       2.624  -4.858  -6.611  0.00  0.00     0.031 H 
ATOM     39  H   LIG d   1       3.713  -6.264  -6.537  0.00  0.00     0.031 H 
BRANCH  37  40
ATOM     40  C   LIG d   1       3.582  -5.342  -8.479  0.00  0.00    -0.061 C 
ATOM     41  H   LIG d   1       3.332  -4.365  -8.893  0.00  0.00     0.023 H 
ATOM     42  H   LIG d   1       4.573  -5.640  -8.824  0.00  0.00     0.023 H 
ATOM     43  H   LIG d   1       2.847  -6.076  -8.809  0.00  0.00     0.023 H 
ENDBRANCH  37  40
ENDBRANCH  31  37
ENDBRANCH   1  27
BRANCH  10  44
ATOM     44  C   LIG d   1       8.209   1.782  -6.872  0.00  0.00    -0.029 C 
ATOM     45  H   LIG d   1       8.998   1.912  -7.614  0.00  0.00     0.026 H 
ATOM     46  H   LIG d   1       7.399   1.192  -7.302  0.00  0.00     0.026 H 
ATOM     47  H   LIG d   1       7.828   2.758  -6.572  0.00  0.00     0.026 H 
ENDBRANCH  10  44
BRANCH   7  48
ATOM     48  C   LIG d   1      12.279   1.574  -4.788  0.00  0.00     0.046 A 
ATOM     49  C   LIG d   1      12.915   0.951  -3.722  0.00  0.00    -0.033 A 
ATOM     50  C   LIG d   1      14.170   1.372  -3.328  0.00  0.00     0.017 A 
ATOM     51  H   LIG d   1      12.429   0.138  -3.202  0.00  0.00     0.064 H 
ATOM     52  C   LIG d   1      14.793   2.413  -3.992  0.00  0.00     0.273 A 
ATOM     53  H   LIG d   1      14.666   0.888  -2.499  0.00  0.00     0.069 H 
ATOM     54  C   LIG d   1      14.161   3.034  -5.053  0.00  0.00     0.017 A 
ATOM     55  C   LIG d   1      12.909   2.614  -5.457  0.00  0.00    -0.033 A 
ATOM     56  H   LIG d   1      14.650   3.846  -5.571  0.00  0.00     0.069 H 
ATOM     57  H   LIG d   1      12.418   3.098  -6.288  0.00  0.00     0.064 H 
BRANCH  52  58
ATOM     58  N   LIG d   1      16.138   2.861  -3.567  0.00  0.00     0.080 N 
ATOM     59  O   LIG d   1      16.846   2.121  -2.908  0.00  0.00     0.041 OA
ATOM     60  O   LIG d   1      16.536   3.970  -3.875  0.00  0.00    -0.576 OA
ENDBRANCH  52  58
ENDBRANCH   7  48
TORSDOF 6
ENDMDL
MODEL 4
REMARK VINA RESULT:      -6.6      3.541      9.506
REMARK  6 active torsions:
REMARK  status: ('A' for Active; 'I' for Inactive)
REMARK    1  A    between atoms: C_1  and  C_2 
REMARK    2  A    between atoms: C_2  and  C_3 
REMARK    3  A    between atoms: C_6  and  C_9 
REMARK    4  A    between atoms: N_15  and  C_30 
REMARK    5  A    between atoms: C_18  and  C_29 
REMARK    6  A    between atoms: C_33  and  N_36 
ROOT
ATOM      1  C   LIG d   1       5.804  -2.609  -6.468  0.00  0.00     0.027 C 
ATOM      2  H   LIG d   1       5.188  -3.507  -6.424  0.00  0.00     0.041 H 
ATOM      3  C   LIG d   1       7.160  -2.957  -7.100  0.00  0.00     0.028 C 
ATOM      4  N   LIG d   1       8.000  -3.547  -6.055  0.00  0.00    -0.265 N 
ATOM      5  C   LIG d   1       8.478  -4.784  -5.922  0.00  0.00     0.317 C 
ATOM      6  O   LIG d   1       8.509  -5.603  -6.820  0.00  0.00    -0.252 OA
ATOM      7  N   LIG d   1       8.919  -5.017  -4.675  0.00  0.00    -0.192 N 
ATOM      8  C   LIG d   1       8.869  -3.894  -3.903  0.00  0.00     0.257 C 
ATOM      9  O   LIG d   1       9.142  -3.786  -2.727  0.00  0.00    -0.272 OA
ATOM     10  C   LIG d   1       8.394  -2.804  -4.835  0.00  0.00     0.153 C 
ATOM     11  C   LIG d   1       7.126  -2.158  -4.331  0.00  0.00     0.054 A 
ATOM     12  C   LIG d   1       6.000  -2.069  -5.075  0.00  0.00    -0.008 A 
ATOM     13  C   LIG d   1       5.025  -1.358  -4.265  0.00  0.00     0.004 A 
ATOM     14  C   LIG d   1       3.704  -0.970  -4.508  0.00  0.00    -0.052 A 
ATOM     15  C   LIG d   1       3.060  -0.300  -3.495  0.00  0.00    -0.061 A 
ATOM     16  C   LIG d   1       3.680  -0.019  -2.289  0.00  0.00    -0.060 A 
ATOM     17  C   LIG d   1       4.987  -0.391  -2.024  0.00  0.00    -0.038 A 
ATOM     18  C   LIG d   1       5.665  -1.072  -3.034  0.00  0.00     0.047 A 
ATOM     19  N   LIG d   1       6.933  -1.572  -3.109  0.00  0.00    -0.356 N 
ATOM     20  H   LIG d   1       7.596  -1.519  -2.404  0.00  0.00     0.166 HD
ATOM     21  H   LIG d   1       7.018  -3.676  -7.908  0.00  0.00     0.048 H 
ATOM     22  H   LIG d   1       7.632  -2.054  -7.487  0.00  0.00     0.048 H 
ATOM     23  H   LIG d   1       3.213  -1.186  -5.445  0.00  0.00     0.062 H 
ATOM     24  H   LIG d   1       2.039   0.017  -3.645  0.00  0.00     0.062 H 
ATOM     25  H   LIG d   1       3.125   0.510  -1.528  0.00  0.00     0.062 H 
ATOM     26  H   LIG d   1       5.458  -0.166  -1.079  0.00  0.00     0.064 H 
ENDROOT
BRANCH   1  27
ATOM     27  C   LIG d   1       5.112  -1.571  -7.313  0.00  0.00    -0.038 A 
ATOM     28  C   LIG d   1       3.869  -1.838  -7.856  0.00  0.00    -0.058 A 
ATOM     29  C   LIG d   1       3.232  -0.885  -8.628  0.00  0.00    -0.058 A 
ATOM     30  H   LIG d   1       3.395  -2.791  -7.675  0.00  0.00     0.062 H 
ATOM     31  C   LIG d   1       3.842   0.334  -8.863  0.00  0.00    -0.048 A 
ATOM     32  H   LIG d   1       2.259  -1.092  -9.049  0.00  0.00     0.062 H 
ATOM     33  C   LIG d   1       5.084   0.602  -8.320  0.00  0.00    -0.058 A 
ATOM     34  C   LIG d   1       5.719  -0.350  -7.545  0.00  0.00    -0.058 A 
ATOM     35  H   LIG d   1       5.559   1.555  -8.501  0.00  0.00     0.062 H 
ATOM     36  H   LIG d   1       6.690  -0.141  -7.120  0.00  0.00     0.062 H 
BRANCH  31  37
ATOM     37  C   LIG d   1       3.149   1.371  -9.709  0.00  0.00    -0.030 C 
ATOM     38  H   LIG d   1       2.088   1.393  -9.460  0.00  0.00     0.031 H 
ATOM     39  H   LIG d   1       3.271   1.121 -10.762  0.00  0.00     0.031 H 
BRANCH  37  40
ATOM     40  C   LIG d   1       3.764   2.746  -9.437  0.00  0.00    -0.061 C 
ATOM     41  H   LIG d   1       4.223   3.127 -10.349  0.00  0.00     0.023 H 
ATOM     42  H   LIG d   1       2.985   3.434  -9.107  0.00  0.00     0.023 H 
ATOM     43  H   LIG d   1       4.523   2.657  -8.658  0.00  0.00     0.023 H 
ENDBRANCH  37  40
ENDBRANCH  31  37
ENDBRANCH   1  27
BRANCH  10  44
ATOM     44  C   LIG d   1       9.488  -1.772  -5.115  0.00  0.00    -0.029 C 
ATOM     45  H   LIG d   1       9.368  -0.923  -4.442  0.00  0.00     0.026 H 
ATOM     46  H   LIG d   1      10.466  -2.227  -4.955  0.00  0.00     0.026 H 
ATOM     47  H   LIG d   1       9.410  -1.431  -6.147  0.00  0.00     0.026 H 
ENDBRANCH  10  44
BRANCH   7  48
ATOM     48  C   LIG d   1       9.381  -6.260  -4.222  0.00  0.00     0.046 A 
ATOM     49  C   LIG d   1       8.476  -7.247  -3.854  0.00  0.00    -0.033 A 
ATOM     50  C   LIG d   1       8.935  -8.470  -3.407  0.00  0.00     0.017 A 
ATOM     51  H   LIG d   1       7.415  -7.058  -3.917  0.00  0.00     0.064 H 
ATOM     52  C   LIG d   1      10.294  -8.713  -3.325  0.00  0.00     0.273 A 
ATOM     53  H   LIG d   1       8.232  -9.239  -3.121  0.00  0.00     0.069 H 
ATOM     54  C   LIG d   1      11.197  -7.732  -3.690  0.00  0.00     0.017 A 
ATOM     55  C   LIG d   1      10.745  -6.509  -4.144  0.00  0.00    -0.033 A 
ATOM     56  H   LIG d   1      12.258  -7.925  -3.626  0.00  0.00     0.069 H 
ATOM     57  H   LIG d   1      11.451  -5.745  -4.432  0.00  0.00     0.064 H 
BRANCH  52  58
ATOM     58  N   LIG d   1      10.783 -10.026  -2.845  0.00  0.00     0.080 N 
ATOM     59  O   LIG d   1      10.057 -10.737  -2.174  0.00  0.00     0.041 OA
ATOM     60  O   LIG d   1      11.909 -10.395  -3.123  0.00  0.00    -0.576 OA
ENDBRANCH  52  58
ENDBRANCH   7  48
TORSDOF 6
ENDMDL
MODEL 5
REMARK VINA RESULT:      -6.5      7.058     10.167
REMARK  6 active torsions:
REMARK  status: ('A' for Active; 'I' for Inactive)
REMARK    1  A    between atoms: C_1  and  C_2 
REMARK    2  A    between atoms: C_2  and  C_3 
REMARK    3  A    between atoms: C_6  and  C_9 
REMARK    4  A    between atoms: N_15  and  C_30 
REMARK    5  A    between atoms: C_18  and  C_29 
REMARK    6  A    between atoms: C_33  and  N_36 
ROOT
ATOM      1  C   LIG d   1       6.716  -0.876  -6.640  0.00  0.00     0.027 C 
ATOM      2  H   LIG d   1       6.994  -1.899  -6.383  0.00  0.00     0.041 H 
ATOM      3  C   LIG d   1       7.799  -0.272  -7.546  0.00  0.00     0.028 C 
ATOM      4  N   LIG d   1       8.894   0.185  -6.686  0.00  0.00    -0.265 N 
ATOM      5  C   LIG d   1      10.149  -0.252  -6.576  0.00  0.00     0.317 C 
ATOM      6  O   LIG d   1      10.695  -0.970  -7.390  0.00  0.00    -0.252 OA
ATOM      7  N   LIG d   1      10.736   0.196  -5.454  0.00  0.00    -0.192 N 
ATOM      8  C   LIG d   1       9.936   1.072  -4.780  0.00  0.00     0.257 C 
ATOM      9  O   LIG d   1      10.150   1.607  -3.714  0.00  0.00    -0.272 OA
ATOM     10  C   LIG d   1       8.714   1.233  -5.654  0.00  0.00     0.153 C 
ATOM     11  C   LIG d   1       7.452   0.857  -4.916  0.00  0.00     0.054 A 
ATOM     12  C   LIG d   1       6.577  -0.065  -5.377  0.00  0.00    -0.008 A 
ATOM     13  C   LIG d   1       5.487  -0.118  -4.417  0.00  0.00     0.004 A 
ATOM     14  C   LIG d   1       4.310  -0.870  -4.370  0.00  0.00    -0.052 A 
ATOM     15  C   LIG d   1       3.488  -0.665  -3.288  0.00  0.00    -0.061 A 
ATOM     16  C   LIG d   1       3.801   0.239  -2.287  0.00  0.00    -0.060 A 
ATOM     17  C   LIG d   1       4.959   0.998  -2.311  0.00  0.00    -0.038 A 
ATOM     18  C   LIG d   1       5.812   0.810  -3.397  0.00  0.00     0.047 A 
ATOM     19  N   LIG d   1       7.007   1.379  -3.732  0.00  0.00    -0.356 N 
ATOM     20  H   LIG d   1       7.471   2.052  -3.209  0.00  0.00     0.166 HD
ATOM     21  H   LIG d   1       8.166  -1.028  -8.239  0.00  0.00     0.048 H 
ATOM     22  H   LIG d   1       7.389   0.572  -8.100  0.00  0.00     0.048 H 
ATOM     23  H   LIG d   1       4.059  -1.578  -5.145  0.00  0.00     0.062 H 
ATOM     24  H   LIG d   1       2.569  -1.227  -3.216  0.00  0.00     0.062 H 
ATOM     25  H   LIG d   1       3.118   0.359  -1.459  0.00  0.00     0.062 H 
ATOM     26  H   LIG d   1       5.191   1.699  -1.524  0.00  0.00     0.064 H 
ENDROOT
BRANCH   1  27
ATOM     27  C   LIG d   1       5.400  -0.886  -7.374  0.00  0.00    -0.038 A 
ATOM     28  C   LIG d   1       4.766  -2.086  -7.638  0.00  0.00    -0.058 A 
ATOM     29  C   LIG d   1       3.557  -2.096  -8.309  0.00  0.00    -0.058 A 
ATOM     30  H   LIG d   1       5.214  -3.016  -7.319  0.00  0.00     0.062 H 
ATOM     31  C   LIG d   1       2.986  -0.906  -8.721  0.00  0.00    -0.048 A 
ATOM     32  H   LIG d   1       3.059  -3.033  -8.512  0.00  0.00     0.062 H 
ATOM     33  C   LIG d   1       3.620   0.293  -8.456  0.00  0.00    -0.058 A 
ATOM     34  C   LIG d   1       4.826   0.303  -7.782  0.00  0.00    -0.058 A 
ATOM     35  H   LIG d   1       3.172   1.223  -8.775  0.00  0.00     0.062 H 
ATOM     36  H   LIG d   1       5.322   1.240  -7.575  0.00  0.00     0.062 H 
BRANCH  31  37
ATOM     37  C   LIG d   1       1.670  -0.917  -9.456  0.00  0.00    -0.030 C 
ATOM     38  H   LIG d   1       1.065  -0.070  -9.130  0.00  0.00     0.031 H 
ATOM     39  H   LIG d   1       1.142  -1.845  -9.241  0.00  0.00     0.031 H 
BRANCH  37  40
ATOM     40  C   LIG d   1       1.925  -0.813 -10.961  0.00  0.00    -0.061 C 
ATOM     41  H   LIG d   1       2.985  -0.628 -11.138  0.00  0.00     0.023 H 
ATOM     42  H   LIG d   1       1.633  -1.745 -11.445  0.00  0.00     0.023 H 
ATOM     43  H   LIG d   1       1.339   0.009 -11.373  0.00  0.00     0.023 H 
ENDBRANCH  37  40
ENDBRANCH  31  37
ENDBRANCH   1  27
BRANCH  10  44
ATOM     44  C   LIG d   1       8.624   2.633  -6.263  0.00  0.00    -0.029 C 
ATOM     45  H   LIG d   1       8.760   3.380  -5.479  0.00  0.00     0.026 H 
ATOM     46  H   LIG d   1       9.403   2.752  -7.016  0.00  0.00     0.026 H 
ATOM     47  H   LIG d   1       7.647   2.766  -6.725  0.00  0.00     0.026 H 
ENDBRANCH  10  44
BRANCH   7  48
ATOM     48  C   LIG d   1      12.017  -0.182  -5.029  0.00  0.00     0.046 A 
ATOM     49  C   LIG d   1      12.193  -1.359  -4.315  0.00  0.00    -0.033 A 
ATOM     50  C   LIG d   1      13.456  -1.729  -3.898  0.00  0.00     0.017 A 
ATOM     51  H   LIG d   1      11.343  -1.985  -4.086  0.00  0.00     0.064 H 
ATOM     52  C   LIG d   1      14.545  -0.928  -4.189  0.00  0.00     0.273 A 
ATOM     53  H   LIG d   1      13.595  -2.645  -3.342  0.00  0.00     0.069 H 
ATOM     54  C   LIG d   1      14.372   0.245  -4.900  0.00  0.00     0.017 A 
ATOM     55  C   LIG d   1      13.113   0.617  -5.326  0.00  0.00    -0.033 A 
ATOM     56  H   LIG d   1      15.224   0.868  -5.128  0.00  0.00     0.069 H 
ATOM     57  H   LIG d   1      12.979   1.532  -5.885  0.00  0.00     0.064 H 
BRANCH  52  58
ATOM     58  N   LIG d   1      15.898  -1.327  -3.740  0.00  0.00     0.080 N 
ATOM     59  O   LIG d   1      16.503  -0.636  -2.940  0.00  0.00     0.041 OA
ATOM     60  O   LIG d   1      16.406  -2.347  -4.170  0.00  0.00    -0.576 OA
ENDBRANCH  52  58
ENDBRANCH   7  48
TORSDOF 6
ENDMDL
MODEL 6
REMARK VINA RESULT:      -6.5      5.927      8.940
REMARK  6 active torsions:
REMARK  status: ('A' for Active; 'I' for Inactive)
REMARK    1  A    between atoms: C_1  and  C_2 
REMARK    2  A    between atoms: C_2  and  C_3 
REMARK    3  A    between atoms: C_6  and  C_9 
REMARK    4  A    between atoms: N_15  and  C_30 
REMARK    5  A    between atoms: C_18  and  C_29 
REMARK    6  A    between atoms: C_33  and  N_36 
ROOT
ATOM      1  C   LIG d   1       6.583   0.192  -6.642  0.00  0.00     0.027 C 
ATOM      2  H   LIG d   1       5.937   1.038  -6.881  0.00  0.00     0.041 H 
ATOM      3  C   LIG d   1       7.107  -0.426  -7.947  0.00  0.00     0.028 C 
ATOM      4  N   LIG d   1       6.061  -1.305  -8.474  0.00  0.00    -0.265 N 
ATOM      5  C   LIG d   1       5.323  -1.206  -9.581  0.00  0.00     0.317 C 
ATOM      6  O   LIG d   1       5.585  -0.469 -10.511  0.00  0.00    -0.252 OA
ATOM      7  N   LIG d   1       4.255  -2.019  -9.541  0.00  0.00    -0.192 N 
ATOM      8  C   LIG d   1       4.266  -2.815  -8.434  0.00  0.00     0.257 C 
ATOM      9  O   LIG d   1       3.422  -3.611  -8.081  0.00  0.00    -0.272 OA
ATOM     10  C   LIG d   1       5.563  -2.488  -7.734  0.00  0.00     0.153 C 
ATOM     11  C   LIG d   1       5.325  -2.007  -6.322  0.00  0.00     0.054 A 
ATOM     12  C   LIG d   1       5.798  -0.828  -5.858  0.00  0.00    -0.008 A 
ATOM     13  C   LIG d   1       5.397  -0.743  -4.464  0.00  0.00     0.004 A 
ATOM     14  C   LIG d   1       5.606   0.231  -3.482  0.00  0.00    -0.052 A 
ATOM     15  C   LIG d   1       5.070  -0.017  -2.241  0.00  0.00    -0.061 A 
ATOM     16  C   LIG d   1       4.355  -1.171  -1.966  0.00  0.00    -0.060 A 
ATOM     17  C   LIG d   1       4.136  -2.151  -2.919  0.00  0.00    -0.038 A 
ATOM     18  C   LIG d   1       4.669  -1.926  -4.187  0.00  0.00     0.047 A 
ATOM     19  N   LIG d   1       4.645  -2.665  -5.335  0.00  0.00    -0.356 N 
ATOM     20  H   LIG d   1       4.211  -3.527  -5.434  0.00  0.00     0.166 HD
ATOM     21  H   LIG d   1       7.326   0.361  -8.668  0.00  0.00     0.048 H 
ATOM     22  H   LIG d   1       8.008  -1.005  -7.746  0.00  0.00     0.048 H 
ATOM     23  H   LIG d   1       6.161   1.134  -3.689  0.00  0.00     0.062 H 
ATOM     24  H   LIG d   1       5.210   0.711  -1.456  0.00  0.00     0.062 H 
ATOM     25  H   LIG d   1       3.956  -1.313  -0.972  0.00  0.00     0.062 H 
ATOM     26  H   LIG d   1       3.577  -3.046  -2.691  0.00  0.00     0.064 H 
ENDROOT
BRANCH   1  27
ATOM     27  C   LIG d   1       7.746   0.671  -5.814  0.00  0.00    -0.038 A 
ATOM     28  C   LIG d   1       7.720   1.934  -5.250  0.00  0.00    -0.058 A 
ATOM     29  C   LIG d   1       8.786   2.372  -4.487  0.00  0.00    -0.058 A 
ATOM     30  H   LIG d   1       6.866   2.576  -5.404  0.00  0.00     0.062 H 
ATOM     31  C   LIG d   1       9.881   1.551  -4.294  0.00  0.00    -0.048 A 
ATOM     32  H   LIG d   1       8.765   3.357  -4.044  0.00  0.00     0.062 H 
ATOM     33  C   LIG d   1       9.907   0.289  -4.856  0.00  0.00    -0.058 A 
ATOM     34  C   LIG d   1       8.840  -0.151  -5.616  0.00  0.00    -0.058 A 
ATOM     35  H   LIG d   1      10.762  -0.354  -4.702  0.00  0.00     0.062 H 
ATOM     36  H   LIG d   1       8.859  -1.137  -6.056  0.00  0.00     0.062 H 
BRANCH  31  37
ATOM     37  C   LIG d   1      11.046   2.031  -3.466  0.00  0.00    -0.030 C 
ATOM     38  H   LIG d   1      11.887   2.260  -4.121  0.00  0.00     0.031 H 
ATOM     39  H   LIG d   1      11.335   1.253  -2.761  0.00  0.00     0.031 H 
BRANCH  37  40
ATOM     40  C   LIG d   1      10.641   3.291  -2.698  0.00  0.00    -0.061 C 
ATOM     41  H   LIG d   1       9.709   3.683  -3.106  0.00  0.00     0.023 H 
ATOM     42  H   LIG d   1      10.500   3.045  -1.644  0.00  0.00     0.023 H 
ATOM     43  H   LIG d   1      11.425   4.043  -2.793  0.00  0.00     0.023 H 
ENDBRANCH  37  40
ENDBRANCH  31  37
ENDBRANCH   1  27
BRANCH  10  44
ATOM     44  C   LIG d   1       6.550  -3.656  -7.781  0.00  0.00    -0.029 C 
ATOM     45  H   LIG d   1       7.137  -3.673  -6.861  0.00  0.00     0.026 H 
ATOM     46  H   LIG d   1       6.001  -4.592  -7.878  0.00  0.00     0.026 H 
ATOM     47  H   LIG d   1       7.216  -3.534  -8.634  0.00  0.00     0.026 H 
ENDBRANCH  10  44
BRANCH   7  48
ATOM     48  C   LIG d   1       3.253  -2.053 -10.522  0.00  0.00     0.046 A 
ATOM     49  C   LIG d   1       3.325  -2.975 -11.557  0.00  0.00    -0.033 A 
ATOM     50  C   LIG d   1       2.337  -3.006 -12.521  0.00  0.00     0.017 A 
ATOM     51  H   LIG d   1       4.151  -3.668 -11.608  0.00  0.00     0.064 H 
ATOM     52  C   LIG d   1       1.278  -2.119 -12.458  0.00  0.00     0.273 A 
ATOM     53  H   LIG d   1       2.391  -3.724 -13.327  0.00  0.00     0.069 H 
ATOM     54  C   LIG d   1       1.205  -1.199 -11.428  0.00  0.00     0.017 A 
ATOM     55  C   LIG d   1       2.186  -1.168 -10.457  0.00  0.00    -0.033 A 
ATOM     56  H   LIG d   1       0.376  -0.508 -11.380  0.00  0.00     0.069 H 
ATOM     57  H   LIG d   1       2.126  -0.451  -9.651  0.00  0.00     0.064 H 
BRANCH  52  58
ATOM     58  N   LIG d   1       0.221  -2.154 -13.493  0.00  0.00     0.080 N 
ATOM     59  O   LIG d   1      -0.925  -1.857 -13.205  0.00  0.00     0.041 OA
ATOM     60  O   LIG d   1       0.496  -2.480 -14.634  0.00  0.00    -0.576 OA
ENDBRANCH  52  58
ENDBRANCH   7  48
TORSDOF 6
ENDMDL
MODEL 7
REMARK VINA RESULT:      -6.4      8.371     13.565
REMARK  6 active torsions:
REMARK  status: ('A' for Active; 'I' for Inactive)
REMARK    1  A    between atoms: C_1  and  C_2 
REMARK    2  A    between atoms: C_2  and  C_3 
REMARK    3  A    between atoms: C_6  and  C_9 
REMARK    4  A    between atoms: N_15  and  C_30 
REMARK    5  A    between atoms: C_18  and  C_29 
REMARK    6  A    between atoms: C_33  and  N_36 
ROOT
ATOM      1  C   LIG d   1       9.511   5.455  -6.968  0.00  0.00     0.027 C 
ATOM      2  H   LIG d   1       8.432   5.581  -7.070  0.00  0.00     0.041 H 
ATOM      3  C   LIG d   1       9.886   4.012  -7.336  0.00  0.00     0.028 C 
ATOM      4  N   LIG d   1       9.623   3.172  -6.164  0.00  0.00    -0.265 N 
ATOM      5  C   LIG d   1       8.727   2.202  -5.977  0.00  0.00     0.317 C 
ATOM      6  O   LIG d   1       8.120   1.652  -6.875  0.00  0.00    -0.252 OA
ATOM      7  N   LIG d   1       8.576   1.907  -4.676  0.00  0.00    -0.192 N 
ATOM      8  C   LIG d   1       9.460   2.594  -3.896  0.00  0.00     0.257 C 
ATOM      9  O   LIG d   1       9.543   2.593  -2.687  0.00  0.00    -0.272 OA
ATOM     10  C   LIG d   1      10.317   3.367  -4.870  0.00  0.00     0.153 C 
ATOM     11  C   LIG d   1      10.260   4.852  -4.603  0.00  0.00     0.054 A 
ATOM     12  C   LIG d   1       9.917   5.756  -5.548  0.00  0.00    -0.008 A 
ATOM     13  C   LIG d   1      10.013   7.064  -4.923  0.00  0.00     0.004 A 
ATOM     14  C   LIG d   1       9.789   8.357  -5.406  0.00  0.00    -0.052 A 
ATOM     15  C   LIG d   1       9.975   9.389  -4.518  0.00  0.00    -0.061 A 
ATOM     16  C   LIG d   1      10.364   9.171  -3.207  0.00  0.00    -0.060 A 
ATOM     17  C   LIG d   1      10.594   7.901  -2.705  0.00  0.00    -0.038 A 
ATOM     18  C   LIG d   1      10.413   6.834  -3.584  0.00  0.00     0.047 A 
ATOM     19  N   LIG d   1      10.551   5.485  -3.426  0.00  0.00    -0.356 N 
ATOM     20  H   LIG d   1      10.816   5.044  -2.604  0.00  0.00     0.166 HD
ATOM     21  H   LIG d   1       9.279   3.674  -8.175  0.00  0.00     0.048 H 
ATOM     22  H   LIG d   1      10.942   3.959  -7.597  0.00  0.00     0.048 H 
ATOM     23  H   LIG d   1       9.484   8.536  -6.426  0.00  0.00     0.062 H 
ATOM     24  H   LIG d   1       9.813  10.403  -4.853  0.00  0.00     0.062 H 
ATOM     25  H   LIG d   1      10.495  10.021  -2.553  0.00  0.00     0.062 H 
ATOM     26  H   LIG d   1      10.897   7.745  -1.681  0.00  0.00     0.064 H 
ENDROOT
BRANCH   1  27
ATOM     27  C   LIG d   1      10.215   6.406  -7.901  0.00  0.00    -0.038 A 
ATOM     28  C   LIG d   1       9.480   7.288  -8.672  0.00  0.00    -0.058 A 
ATOM     29  C   LIG d   1      10.126   8.163  -9.525  0.00  0.00    -0.058 A 
ATOM     30  H   LIG d   1       8.402   7.294  -8.607  0.00  0.00     0.062 H 
ATOM     31  C   LIG d   1      11.506   8.152  -9.612  0.00  0.00    -0.048 A 
ATOM     32  H   LIG d   1       9.553   8.855 -10.125  0.00  0.00     0.062 H 
ATOM     33  C   LIG d   1      12.240   7.271  -8.841  0.00  0.00    -0.058 A 
ATOM     34  C   LIG d   1      11.595   6.399  -7.985  0.00  0.00    -0.058 A 
ATOM     35  H   LIG d   1      13.318   7.265  -8.906  0.00  0.00     0.062 H 
ATOM     36  H   LIG d   1      12.168   5.710  -7.381  0.00  0.00     0.062 H 
BRANCH  31  37
ATOM     37  C   LIG d   1      12.209   9.103 -10.546  0.00  0.00    -0.030 C 
ATOM     38  H   LIG d   1      13.184   8.694 -10.814  0.00  0.00     0.031 H 
ATOM     39  H   LIG d   1      12.342  10.065 -10.052  0.00  0.00     0.031 H 
BRANCH  37  40
ATOM     40  C   LIG d   1      11.370   9.291 -11.811  0.00  0.00    -0.061 C 
ATOM     41  H   LIG d   1      10.617   8.505 -11.869  0.00  0.00     0.023 H 
ATOM     42  H   LIG d   1      10.878  10.264 -11.780  0.00  0.00     0.023 H 
ATOM     43  H   LIG d   1      12.017   9.240 -12.688  0.00  0.00     0.023 H 
ENDBRANCH  37  40
ENDBRANCH  31  37
ENDBRANCH   1  27
BRANCH  10  44
ATOM     44  C   LIG d   1      11.756   2.848  -4.904  0.00  0.00    -0.029 C 
ATOM     45  H   LIG d   1      11.755   1.764  -4.782  0.00  0.00     0.026 H 
ATOM     46  H   LIG d   1      12.213   3.105  -5.860  0.00  0.00     0.026 H 
ATOM     47  H   LIG d   1      12.325   3.304  -4.095  0.00  0.00     0.026 H 
ENDBRANCH  10  44
BRANCH   7  48
ATOM     48  C   LIG d   1       7.633   0.999  -4.177  0.00  0.00     0.046 A 
ATOM     49  C   LIG d   1       7.827  -0.366  -4.342  0.00  0.00    -0.033 A 
ATOM     50  C   LIG d   1       6.895  -1.259  -3.850  0.00  0.00     0.017 A 
ATOM     51  H   LIG d   1       8.705  -0.730  -4.855  0.00  0.00     0.064 H 
ATOM     52  C   LIG d   1       5.769  -0.795  -3.195  0.00  0.00     0.273 A 
ATOM     53  H   LIG d   1       7.045  -2.321  -3.978  0.00  0.00     0.069 H 
ATOM     54  C   LIG d   1       5.573   0.563  -3.030  0.00  0.00     0.017 A 
ATOM     55  C   LIG d   1       6.504   1.461  -3.514  0.00  0.00    -0.033 A 
ATOM     56  H   LIG d   1       4.694   0.922  -2.517  0.00  0.00     0.069 H 
ATOM     57  H   LIG d   1       6.352   2.522  -3.381  0.00  0.00     0.064 H 
BRANCH  52  58
ATOM     58  N   LIG d   1       4.772  -1.755  -2.670  0.00  0.00     0.080 N 
ATOM     59  O   LIG d   1       4.293  -1.590  -1.562  0.00  0.00     0.041 OA
ATOM     60  O   LIG d   1       4.431  -2.710  -3.344  0.00  0.00    -0.576 OA
ENDBRANCH  52  58
ENDBRANCH   7  48
TORSDOF 6
ENDMDL
MODEL 8
REMARK VINA RESULT:      -6.4      5.607      8.236
REMARK  6 active torsions:
REMARK  status: ('A' for Active; 'I' for Inactive)
REMARK    1  A    between atoms: C_1  and  C_2 
REMARK    2  A    between atoms: C_2  and  C_3 
REMARK    3  A    between atoms: C_6  and  C_9 
REMARK    4  A    between atoms: N_15  and  C_30 
REMARK    5  A    between atoms: C_18  and  C_29 
REMARK    6  A    between atoms: C_33  and  N_36 
ROOT
ATOM      1  C   LIG d   1       8.125  -2.042  -4.623  0.00  0.00     0.027 C 
ATOM      2  H   LIG d   1       8.643  -2.184  -3.674  0.00  0.00     0.041 H 
ATOM      3  C   LIG d   1       9.115  -1.495  -5.661  0.00  0.00     0.028 C 
ATOM      4  N   LIG d   1       9.231  -0.050  -5.447  0.00  0.00    -0.265 N 
ATOM      5  C   LIG d   1      10.265   0.684  -5.033  0.00  0.00     0.317 C 
ATOM      6  O   LIG d   1      11.414   0.289  -5.006  0.00  0.00    -0.252 OA
ATOM      7  N   LIG d   1       9.881   1.911  -4.647  0.00  0.00    -0.192 N 
ATOM      8  C   LIG d   1       8.555   2.125  -4.887  0.00  0.00     0.257 C 
ATOM      9  O   LIG d   1       7.896   3.103  -4.605  0.00  0.00    -0.272 OA
ATOM     10  C   LIG d   1       8.080   0.872  -5.582  0.00  0.00     0.153 C 
ATOM     11  C   LIG d   1       6.949   0.215  -4.828  0.00  0.00     0.054 A 
ATOM     12  C   LIG d   1       6.984  -1.076  -4.429  0.00  0.00    -0.008 A 
ATOM     13  C   LIG d   1       5.713  -1.342  -3.776  0.00  0.00     0.004 A 
ATOM     14  C   LIG d   1       5.182  -2.490  -3.180  0.00  0.00    -0.052 A 
ATOM     15  C   LIG d   1       3.921  -2.383  -2.644  0.00  0.00    -0.061 A 
ATOM     16  C   LIG d   1       3.203  -1.199  -2.687  0.00  0.00    -0.060 A 
ATOM     17  C   LIG d   1       3.704  -0.050  -3.273  0.00  0.00    -0.038 A 
ATOM     18  C   LIG d   1       4.981  -0.130  -3.825  0.00  0.00     0.047 A 
ATOM     19  N   LIG d   1       5.761   0.790  -4.466  0.00  0.00    -0.356 N 
ATOM     20  H   LIG d   1       5.510   1.710  -4.639  0.00  0.00     0.166 HD
ATOM     21  H   LIG d   1      10.089  -1.967  -5.529  0.00  0.00     0.048 H 
ATOM     22  H   LIG d   1       8.743  -1.690  -6.667  0.00  0.00     0.048 H 
ATOM     23  H   LIG d   1       5.736  -3.416  -3.142  0.00  0.00     0.062 H 
ATOM     24  H   LIG d   1       3.477  -3.248  -2.176  0.00  0.00     0.062 H 
ATOM     25  H   LIG d   1       2.215  -1.172  -2.249  0.00  0.00     0.062 H 
ATOM     26  H   LIG d   1       3.133   0.866  -3.298  0.00  0.00     0.064 H 
ENDROOT
BRANCH   1  27
ATOM     27  C   LIG d   1       7.583  -3.365  -5.099  0.00  0.00    -0.038 A 
ATOM     28  C   LIG d   1       6.680  -3.406  -6.145  0.00  0.00    -0.058 A 
ATOM     29  C   LIG d   1       6.186  -4.620  -6.585  0.00  0.00    -0.058 A 
ATOM     30  H   LIG d   1       6.362  -2.490  -6.621  0.00  0.00     0.062 H 
ATOM     31  C   LIG d   1       6.589  -5.792  -5.973  0.00  0.00    -0.048 A 
ATOM     32  H   LIG d   1       5.483  -4.653  -7.404  0.00  0.00     0.062 H 
ATOM     33  C   LIG d   1       7.493  -5.752  -4.928  0.00  0.00    -0.058 A 
ATOM     34  C   LIG d   1       7.990  -4.538  -4.491  0.00  0.00    -0.058 A 
ATOM     35  H   LIG d   1       7.810  -6.668  -4.452  0.00  0.00     0.062 H 
ATOM     36  H   LIG d   1       8.696  -4.506  -3.674  0.00  0.00     0.062 H 
BRANCH  31  37
ATOM     37  C   LIG d   1       6.047  -7.116  -6.449  0.00  0.00    -0.030 C 
ATOM     38  H   LIG d   1       6.875  -7.771  -6.721  0.00  0.00     0.031 H 
ATOM     39  H   LIG d   1       5.409  -6.955  -7.318  0.00  0.00     0.031 H 
BRANCH  37  40
ATOM     40  C   LIG d   1       5.230  -7.765  -5.330  0.00  0.00    -0.061 C 
ATOM     41  H   LIG d   1       4.792  -8.695  -5.692  0.00  0.00     0.023 H 
ATOM     42  H   LIG d   1       5.881  -7.976  -4.481  0.00  0.00     0.023 H 
ATOM     43  H   LIG d   1       4.436  -7.085  -5.018  0.00  0.00     0.023 H 
ENDBRANCH  37  40
ENDBRANCH  31  37
ENDBRANCH   1  27
BRANCH  10  44
ATOM     44  C   LIG d   1       7.716   1.131  -7.045  0.00  0.00    -0.029 C 
ATOM     45  H   LIG d   1       7.125   2.044  -7.117  0.00  0.00     0.026 H 
ATOM     46  H   LIG d   1       8.628   1.242  -7.632  0.00  0.00     0.026 H 
ATOM     47  H   LIG d   1       7.136   0.292  -7.429  0.00  0.00     0.026 H 
ENDBRANCH  10  44
BRANCH   7  48
ATOM     48  C   LIG d   1      10.737   2.862  -4.074  0.00  0.00     0.046 A 
ATOM     49  C   LIG d   1      10.684   3.113  -2.710  0.00  0.00    -0.033 A 
ATOM     50  C   LIG d   1      11.529   4.050  -2.149  0.00  0.00     0.017 A 
ATOM     51  H   LIG d   1       9.984   2.576  -2.088  0.00  0.00     0.064 H 
ATOM     52  C   LIG d   1      12.427   4.739  -2.944  0.00  0.00     0.273 A 
ATOM     53  H   LIG d   1      11.489   4.246  -1.087  0.00  0.00     0.069 H 
ATOM     54  C   LIG d   1      12.481   4.491  -4.303  0.00  0.00     0.017 A 
ATOM     55  C   LIG d   1      11.643   3.550  -4.869  0.00  0.00    -0.033 A 
ATOM     56  H   LIG d   1      13.183   5.029  -4.921  0.00  0.00     0.069 H 
ATOM     57  H   LIG d   1      11.689   3.355  -5.930  0.00  0.00     0.064 H 
BRANCH  52  58
ATOM     58  N   LIG d   1      13.331   5.743  -2.339  0.00  0.00     0.080 N 
ATOM     59  O   LIG d   1      13.997   6.471  -3.053  0.00  0.00     0.041 OA
ATOM     60  O   LIG d   1      13.408   5.841  -1.128  0.00  0.00    -0.576 OA
ENDBRANCH  52  58
ENDBRANCH   7  48
TORSDOF 6
ENDMDL
MODEL 9
REMARK VINA RESULT:      -6.3      8.883     14.254
REMARK  6 active torsions:
REMARK  status: ('A' for Active; 'I' for Inactive)
REMARK    1  A    between atoms: C_1  and  C_2 
REMARK    2  A    between atoms: C_2  and  C_3 
REMARK    3  A    between atoms: C_6  and  C_9 
REMARK    4  A    between atoms: N_15  and  C_30 
REMARK    5  A    between atoms: C_18  and  C_29 
REMARK    6  A    between atoms: C_33  and  N_36 
ROOT
ATOM      1  C   LIG d   1       9.650   6.392  -5.917  0.00  0.00     0.027 C 
ATOM      2  H   LIG d   1       8.564   6.467  -5.870  0.00  0.00     0.041 H 
ATOM      3  C   LIG d   1      10.036   5.147  -6.729  0.00  0.00     0.028 C 
ATOM      4  N   LIG d   1       9.941   3.988  -5.838  0.00  0.00    -0.265 N 
ATOM      5  C   LIG d   1       9.110   2.945  -5.858  0.00  0.00     0.317 C 
ATOM      6  O   LIG d   1       8.425   2.637  -6.814  0.00  0.00    -0.252 OA
ATOM      7  N   LIG d   1       9.121   2.276  -4.693  0.00  0.00    -0.192 N 
ATOM      8  C   LIG d   1      10.061   2.769  -3.837  0.00  0.00     0.257 C 
ATOM      9  O   LIG d   1      10.283   2.423  -2.696  0.00  0.00    -0.272 OA
ATOM     10  C   LIG d   1      10.772   3.848  -4.619  0.00  0.00     0.153 C 
ATOM     11  C   LIG d   1      10.688   5.184  -3.921  0.00  0.00     0.054 A 
ATOM     12  C   LIG d   1      10.205   6.297  -4.519  0.00  0.00    -0.008 A 
ATOM     13  C   LIG d   1      10.322   7.372  -3.547  0.00  0.00     0.004 A 
ATOM     14  C   LIG d   1       9.996   8.730  -3.602  0.00  0.00    -0.052 A 
ATOM     15  C   LIG d   1      10.243   9.472  -2.472  0.00  0.00    -0.061 A 
ATOM     16  C   LIG d   1      10.788   8.911  -1.329  0.00  0.00    -0.060 A 
ATOM     17  C   LIG d   1      11.122   7.570  -1.250  0.00  0.00    -0.038 A 
ATOM     18  C   LIG d   1      10.882   6.793  -2.382  0.00  0.00     0.047 A 
ATOM     19  N   LIG d   1      11.089   5.469  -2.644  0.00  0.00    -0.356 N 
ATOM     20  H   LIG d   1      11.462   4.828  -2.019  0.00  0.00     0.166 HD
ATOM     21  H   LIG d   1       9.350   5.024  -7.567  0.00  0.00     0.048 H 
ATOM     22  H   LIG d   1      11.056   5.246  -7.097  0.00  0.00     0.048 H 
ATOM     23  H   LIG d   1       9.569   9.174  -4.489  0.00  0.00     0.062 H 
ATOM     24  H   LIG d   1      10.005  10.525  -2.476  0.00  0.00     0.062 H 
ATOM     25  H   LIG d   1      10.960   9.543  -0.470  0.00  0.00     0.062 H 
ATOM     26  H   LIG d   1      11.546   7.146  -0.352  0.00  0.00     0.064 H 
ENDROOT
BRANCH   1  27
ATOM     27  C   LIG d   1      10.206   7.619  -6.592  0.00  0.00    -0.038 A 
ATOM     28  C   LIG d   1      11.561   7.711  -6.850  0.00  0.00    -0.058 A 
ATOM     29  C   LIG d   1      12.071   8.835  -7.473  0.00  0.00    -0.058 A 
ATOM     30  H   LIG d   1      12.221   6.904  -6.568  0.00  0.00     0.062 H 
ATOM     31  C   LIG d   1      11.227   9.870  -7.830  0.00  0.00    -0.048 A 
ATOM     32  H   LIG d   1      13.129   8.906  -7.679  0.00  0.00     0.062 H 
ATOM     33  C   LIG d   1       9.873   9.778  -7.572  0.00  0.00    -0.058 A 
ATOM     34  C   LIG d   1       9.362   8.652  -6.954  0.00  0.00    -0.058 A 
ATOM     35  H   LIG d   1       9.212  10.585  -7.854  0.00  0.00     0.062 H 
ATOM     36  H   LIG d   1       8.303   8.579  -6.752  0.00  0.00     0.062 H 
BRANCH  31  37
ATOM     37  C   LIG d   1      11.784  11.098  -8.504  0.00  0.00    -0.030 C 
ATOM     38  H   LIG d   1      11.693  10.991  -9.586  0.00  0.00     0.031 H 
ATOM     39  H   LIG d   1      12.834  11.213  -8.238  0.00  0.00     0.031 H 
BRANCH  37  40
ATOM     40  C   LIG d   1      11.002  12.331  -8.046  0.00  0.00    -0.061 C 
ATOM     41  H   LIG d   1      11.664  13.197  -8.032  0.00  0.00     0.023 H 
ATOM     42  H   LIG d   1      10.178  12.515  -8.735  0.00  0.00     0.023 H 
ATOM     43  H   LIG d   1      10.607  12.159  -7.045  0.00  0.00     0.023 H 
ENDBRANCH  37  40
ENDBRANCH  31  37
ENDBRANCH   1  27
BRANCH  10  44
ATOM     44  C   LIG d   1      12.216   3.463  -4.946  0.00  0.00    -0.029 C 
ATOM     45  H   LIG d   1      12.244   2.437  -5.315  0.00  0.00     0.026 H 
ATOM     46  H   LIG d   1      12.606   4.135  -5.710  0.00  0.00     0.026 H 
ATOM     47  H   LIG d   1      12.825   3.543  -4.046  0.00  0.00     0.026 H 
ENDBRANCH  10  44
BRANCH   7  48
ATOM     48  C   LIG d   1       8.276   1.199  -4.395  0.00  0.00     0.046 A 
ATOM     49  C   LIG d   1       7.118   1.407  -3.657  0.00  0.00    -0.033 A 
ATOM     50  C   LIG d   1       6.288   0.343  -3.365  0.00  0.00     0.017 A 
ATOM     51  H   LIG d   1       6.867   2.399  -3.313  0.00  0.00     0.064 H 
ATOM     52  C   LIG d   1       6.608  -0.929  -3.804  0.00  0.00     0.273 A 
ATOM     53  H   LIG d   1       5.386   0.504  -2.791  0.00  0.00     0.069 H 
ATOM     54  C   LIG d   1       7.761  -1.138  -4.538  0.00  0.00     0.017 A 
ATOM     55  C   LIG d   1       8.592  -0.078  -4.840  0.00  0.00    -0.033 A 
ATOM     56  H   LIG d   1       8.008  -2.132  -4.881  0.00  0.00     0.069 H 
ATOM     57  H   LIG d   1       9.490  -0.242  -5.417  0.00  0.00     0.064 H 
BRANCH  52  58
ATOM     58  N   LIG d   1       5.716  -2.067  -3.488  0.00  0.00     0.080 N 
ATOM     59  O   LIG d   1       4.910  -1.974  -2.579  0.00  0.00     0.041 OA
ATOM     60  O   LIG d   1       5.788  -3.095  -4.136  0.00  0.00    -0.576 OA
ENDBRANCH  52  58
ENDBRANCH   7  48
TORSDOF 6
ENDMDL
MODEL 10
REMARK VINA RESULT:      -6.2     12.505     15.490
REMARK  6 active torsions:
REMARK  status: ('A' for Active; 'I' for Inactive)
REMARK    1  A    between atoms: C_1  and  C_2 
REMARK    2  A    between atoms: C_2  and  C_3 
REMARK    3  A    between atoms: C_6  and  C_9 
REMARK    4  A    between atoms: N_15  and  C_30 
REMARK    5  A    between atoms: C_18  and  C_29 
REMARK    6  A    between atoms: C_33  and  N_36 
ROOT
ATOM      1  C   LIG d   1      10.483   7.043  -4.864  0.00  0.00     0.027 C 
ATOM      2  H   LIG d   1      10.514   8.104  -4.612  0.00  0.00     0.041 H 
ATOM      3  C   LIG d   1       9.515   6.327  -3.910  0.00  0.00     0.028 C 
ATOM      4  N   LIG d   1      10.234   6.065  -2.661  0.00  0.00    -0.265 N 
ATOM      5  C   LIG d   1      10.050   6.556  -1.435  0.00  0.00     0.317 C 
ATOM      6  O   LIG d   1       9.045   7.139  -1.078  0.00  0.00    -0.252 OA
ATOM      7  N   LIG d   1      11.111   6.330  -0.643  0.00  0.00    -0.192 N 
ATOM      8  C   LIG d   1      12.050   5.558  -1.263  0.00  0.00     0.257 C 
ATOM      9  O   LIG d   1      13.136   5.226  -0.842  0.00  0.00    -0.272 OA
ATOM     10  C   LIG d   1      11.441   5.207  -2.600  0.00  0.00     0.153 C 
ATOM     11  C   LIG d   1      12.315   5.663  -3.744  0.00  0.00     0.054 A 
ATOM     12  C   LIG d   1      11.867   6.460  -4.740  0.00  0.00    -0.008 A 
ATOM     13  C   LIG d   1      12.980   6.643  -5.656  0.00  0.00     0.004 A 
ATOM     14  C   LIG d   1      13.106   7.352  -6.854  0.00  0.00    -0.052 A 
ATOM     15  C   LIG d   1      14.334   7.311  -7.471  0.00  0.00    -0.061 A 
ATOM     16  C   LIG d   1      15.400   6.605  -6.939  0.00  0.00    -0.060 A 
ATOM     17  C   LIG d   1      15.301   5.894  -5.756  0.00  0.00    -0.038 A 
ATOM     18  C   LIG d   1      14.067   5.918  -5.109  0.00  0.00     0.047 A 
ATOM     19  N   LIG d   1      13.629   5.340  -3.952  0.00  0.00    -0.356 N 
ATOM     20  H   LIG d   1      14.167   4.785  -3.367  0.00  0.00     0.166 HD
ATOM     21  H   LIG d   1       8.652   6.963  -3.712  0.00  0.00     0.048 H 
ATOM     22  H   LIG d   1       9.188   5.387  -4.352  0.00  0.00     0.048 H 
ATOM     23  H   LIG d   1      12.280   7.905  -7.275  0.00  0.00     0.062 H 
ATOM     24  H   LIG d   1      14.470   7.845  -8.399  0.00  0.00     0.062 H 
ATOM     25  H   LIG d   1      16.343   6.609  -7.467  0.00  0.00     0.062 H 
ATOM     26  H   LIG d   1      16.141   5.349  -5.353  0.00  0.00     0.064 H 
ENDROOT
BRANCH   1  27
ATOM     27  C   LIG d   1       9.998   6.881  -6.281  0.00  0.00    -0.038 A 
ATOM     28  C   LIG d   1       9.584   7.987  -7.001  0.00  0.00    -0.058 A 
ATOM     29  C   LIG d   1       9.143   7.839  -8.302  0.00  0.00    -0.058 A 
ATOM     30  H   LIG d   1       9.609   8.967  -6.547  0.00  0.00     0.062 H 
ATOM     31  C   LIG d   1       9.108   6.585  -8.882  0.00  0.00    -0.048 A 
ATOM     32  H   LIG d   1       8.823   8.703  -8.866  0.00  0.00     0.062 H 
ATOM     33  C   LIG d   1       9.521   5.479  -8.162  0.00  0.00    -0.058 A 
ATOM     34  C   LIG d   1       9.967   5.627  -6.863  0.00  0.00    -0.058 A 
ATOM     35  H   LIG d   1       9.497   4.499  -8.616  0.00  0.00     0.062 H 
ATOM     36  H   LIG d   1      10.290   4.764  -6.300  0.00  0.00     0.062 H 
BRANCH  31  37
ATOM     37  C   LIG d   1       8.621   6.423 -10.299  0.00  0.00    -0.030 C 
ATOM     38  H   LIG d   1       8.675   7.383 -10.813  0.00  0.00     0.031 H 
ATOM     39  H   LIG d   1       7.590   6.073 -10.291  0.00  0.00     0.031 H 
BRANCH  37  40
ATOM     40  C   LIG d   1       9.501   5.405 -11.027  0.00  0.00    -0.061 C 
ATOM     41  H   LIG d   1       9.488   4.459 -10.485  0.00  0.00     0.023 H 
ATOM     42  H   LIG d   1       9.118   5.250 -12.037  0.00  0.00     0.023 H 
ATOM     43  H   LIG d   1      10.523   5.780 -11.081  0.00  0.00     0.023 H 
ENDBRANCH  37  40
ENDBRANCH  31  37
ENDBRANCH   1  27
BRANCH  10  44
ATOM     44  C   LIG d   1      11.098   3.720  -2.701  0.00  0.00    -0.029 C 
ATOM     45  H   LIG d   1      11.423   3.209  -1.794  0.00  0.00     0.026 H 
ATOM     46  H   LIG d   1      10.021   3.603  -2.818  0.00  0.00     0.026 H 
ATOM     47  H   LIG d   1      11.606   3.288  -3.563  0.00  0.00     0.026 H 
ENDBRANCH  10  44
BRANCH   7  48
ATOM     48  C   LIG d   1      11.237   6.819   0.664  0.00  0.00     0.046 A 
ATOM     49  C   LIG d   1      10.982   5.987   1.746  0.00  0.00    -0.033 A 
ATOM     50  C   LIG d   1      11.107   6.472   3.032  0.00  0.00     0.017 A 
ATOM     51  H   LIG d   1      10.685   4.962   1.581  0.00  0.00     0.064 H 
ATOM     52  C   LIG d   1      11.485   7.785   3.245  0.00  0.00     0.273 A 
ATOM     53  H   LIG d   1      10.908   5.826   3.875  0.00  0.00     0.069 H 
ATOM     54  C   LIG d   1      11.740   8.616   2.170  0.00  0.00     0.017 A 
ATOM     55  C   LIG d   1      11.623   8.135   0.880  0.00  0.00    -0.033 A 
ATOM     56  H   LIG d   1      12.036   9.640   2.338  0.00  0.00     0.069 H 
ATOM     57  H   LIG d   1      11.826   8.784   0.041  0.00  0.00     0.064 H 
BRANCH  52  58
ATOM     58  N   LIG d   1      11.618   8.302   4.626  0.00  0.00     0.080 N 
ATOM     59  O   LIG d   1      11.453   7.555   5.574  0.00  0.00     0.041 OA
ATOM     60  O   LIG d   1      11.891   9.474   4.814  0.00  0.00    -0.576 OA
ENDBRANCH  52  58
ENDBRANCH   7  48
TORSDOF 6
ENDMDL
