MODEL 1
REMARK VINA RESULT:      -5.2      0.000      0.000
REMARK  7 active torsions:
REMARK  status: ('A' for Active; 'I' for Inactive)
REMARK    1  A    between atoms: C_1  and  C_2 
REMARK    2  A    between atoms: C_2  and  C_3 
REMARK    3  A    between atoms: C_2  and  C_12 
REMARK    4  A    between atoms: C_2  and  N_15 
REMARK    5  A    between atoms: C_3  and  C_4 
REMARK    6  A    between atoms: C_7  and  O_11 
REMARK    7  A    between atoms: C_8  and  O_10 
ROOT
ATOM      1  C   LIG d   1       4.577  -1.145  -2.351  0.00  0.00     0.024 C 
ATOM      2  H   LIG d   1       5.078  -0.994  -1.396  0.00  0.00     0.037 H 
ATOM      3  H   LIG d   1       3.622  -1.645  -2.187  0.00  0.00     0.037 H 
ENDROOT
BRANCH   1   4
ATOM      4  C   LIG d   1       4.336   0.210  -3.020  0.00  0.00     0.028 C 
BRANCH   4   5
ATOM      5  C   LIG d   1       4.197   1.292  -1.947  0.00  0.00    -0.013 C 
ATOM      6  H   LIG d   1       4.063   0.821  -0.973  0.00  0.00     0.029 H 
ATOM      7  H   LIG d   1       5.096   1.907  -1.933  0.00  0.00     0.029 H 
ATOM      8  H   LIG d   1       3.332   1.916  -2.171  0.00  0.00     0.029 H 
ENDBRANCH   4   5
BRANCH   4   9
ATOM      9  C   LIG d   1       3.071   0.148  -3.838  0.00  0.00     0.093 C 
ATOM     10  O   LIG d   1       2.173  -0.610  -3.514  0.00  0.00    -0.544 OA
ATOM     11  O   LIG d   1       2.948   0.855  -4.824  0.00  0.00    -0.544 OA
ENDBRANCH   4   9
BRANCH   4  12
ATOM     12  N   LIG d   1       5.471   0.532  -3.896  0.00  0.00     0.227 N 
ATOM     13  H   LIG d   1       5.130   0.948  -4.749  0.00  0.00     0.200 HD
ATOM     14  H   LIG d   1       6.084   1.182  -3.427  0.00  0.00     0.200 HD
ATOM     15  H   LIG d   1       5.979  -0.312  -4.113  0.00  0.00     0.200 HD
ENDBRANCH   4  12
ENDBRANCH   1   4
BRANCH   1  16
ATOM     16  C   LIG d   1       5.443  -1.998  -3.243  0.00  0.00    -0.038 A 
ATOM     17  C   LIG d   1       6.820  -1.895  -3.171  0.00  0.00    -0.013 A 
ATOM     18  C   LIG d   1       7.616  -2.682  -3.987  0.00  0.00     0.159 A 
ATOM     19  H   LIG d   1       7.273  -1.203  -2.477  0.00  0.00     0.066 H 
ATOM     20  C   LIG d   1       7.029  -3.568  -4.883  0.00  0.00     0.158 A 
ATOM     21  C   LIG d   1       5.648  -3.664  -4.954  0.00  0.00    -0.016 A 
ATOM     22  C   LIG d   1       4.858  -2.878  -4.134  0.00  0.00    -0.055 A 
ATOM     23  H   LIG d   1       5.188  -4.351  -5.649  0.00  0.00     0.066 H 
ATOM     24  H   LIG d   1       3.782  -2.954  -4.190  0.00  0.00     0.062 H 
BRANCH  18  25
ATOM     25  O   LIG d   1       8.971  -2.584  -3.914  0.00  0.00    -0.503 OA
ATOM     26  H   LIG d   1       9.404  -2.474  -4.772  0.00  0.00     0.292 HD
ENDBRANCH  18  25
BRANCH  20  27
ATOM     27  O   LIG d   1       7.806  -4.340  -5.689  0.00  0.00    -0.503 OA
ATOM     28  H   LIG d   1       7.413  -5.196  -5.911  0.00  0.00     0.292 HD
ENDBRANCH  20  27
ENDBRANCH   1  16
TORSDOF 7
ENDMDL
MODEL 2
REMARK VINA RESULT:      -5.1      0.960      1.877
REMARK  7 active torsions:
REMARK  status: ('A' for Active; 'I' for Inactive)
REMARK    1  A    between atoms: C_1  and  C_2 
REMARK    2  A    between atoms: C_2  and  C_3 
REMARK    3  A    between atoms: C_2  and  C_12 
REMARK    4  A    between atoms: C_2  and  N_15 
REMARK    5  A    between atoms: C_3  and  C_4 
REMARK    6  A    between atoms: C_7  and  O_11 
REMARK    7  A    between atoms: C_8  and  O_10 
ROOT
ATOM      1  C   LIG d   1       4.606  -1.089  -2.231  0.00  0.00     0.024 C 
ATOM      2  H   LIG d   1       5.250  -0.953  -1.362  0.00  0.00     0.037 H 
ATOM      3  H   LIG d   1       3.653  -1.512  -1.915  0.00  0.00     0.037 H 
ENDROOT
BRANCH   1   4
ATOM      4  C   LIG d   1       4.366   0.265  -2.904  0.00  0.00     0.028 C 
BRANCH   4   5
ATOM      5  C   LIG d   1       4.306   1.361  -1.838  0.00  0.00    -0.013 C 
ATOM      6  H   LIG d   1       3.363   1.287  -1.294  0.00  0.00     0.029 H 
ATOM      7  H   LIG d   1       5.137   1.239  -1.143  0.00  0.00     0.029 H 
ATOM      8  H   LIG d   1       4.373   2.337  -2.318  0.00  0.00     0.029 H 
ENDBRANCH   4   5
BRANCH   4   9
ATOM      9  C   LIG d   1       3.062   0.226  -3.659  0.00  0.00     0.093 C 
ATOM     10  O   LIG d   1       2.168  -0.518  -3.292  0.00  0.00    -0.544 OA
ATOM     11  O   LIG d   1       2.903   0.936  -4.637  0.00  0.00    -0.544 OA
ENDBRANCH   4   9
BRANCH   4  12
ATOM     12  N   LIG d   1       5.465   0.549  -3.837  0.00  0.00     0.227 N 
ATOM     13  H   LIG d   1       6.143  -0.196  -3.796  0.00  0.00     0.200 HD
ATOM     14  H   LIG d   1       5.099   0.620  -4.775  0.00  0.00     0.200 HD
ATOM     15  H   LIG d   1       5.906   1.420  -3.582  0.00  0.00     0.200 HD
ENDBRANCH   4  12
ENDBRANCH   1   4
BRANCH   1  16
ATOM     16  C   LIG d   1       5.272  -2.024  -3.208  0.00  0.00    -0.038 A 
ATOM     17  C   LIG d   1       4.505  -2.886  -3.970  0.00  0.00    -0.013 A 
ATOM     18  C   LIG d   1       5.115  -3.742  -4.872  0.00  0.00     0.159 A 
ATOM     19  H   LIG d   1       3.430  -2.888  -3.864  0.00  0.00     0.066 H 
ATOM     20  C   LIG d   1       6.500  -3.740  -5.002  0.00  0.00     0.158 A 
ATOM     21  C   LIG d   1       7.263  -2.877  -4.232  0.00  0.00    -0.016 A 
ATOM     22  C   LIG d   1       6.648  -2.021  -3.336  0.00  0.00    -0.055 A 
ATOM     23  H   LIG d   1       8.339  -2.872  -4.331  0.00  0.00     0.066 H 
ATOM     24  H   LIG d   1       7.244  -1.349  -2.737  0.00  0.00     0.062 H 
BRANCH  18  25
ATOM     25  O   LIG d   1       4.361  -4.587  -5.625  0.00  0.00    -0.503 OA
ATOM     26  H   LIG d   1       4.496  -4.492  -6.578  0.00  0.00     0.292 HD
ENDBRANCH  18  25
BRANCH  20  27
ATOM     27  O   LIG d   1       7.103  -4.581  -5.883  0.00  0.00    -0.503 OA
ATOM     28  H   LIG d   1       6.928  -5.517  -5.715  0.00  0.00     0.292 HD
ENDBRANCH  20  27
ENDBRANCH   1  16
TORSDOF 7
ENDMDL
MODEL 3
REMARK VINA RESULT:      -4.8      2.559      4.748
REMARK  7 active torsions:
REMARK  status: ('A' for Active; 'I' for Inactive)
REMARK    1  A    between atoms: C_1  and  C_2 
REMARK    2  A    between atoms: C_2  and  C_3 
REMARK    3  A    between atoms: C_2  and  C_12 
REMARK    4  A    between atoms: C_2  and  N_15 
REMARK    5  A    between atoms: C_3  and  C_4 
REMARK    6  A    between atoms: C_7  and  O_11 
REMARK    7  A    between atoms: C_8  and  O_10 
ROOT
ATOM      1  C   LIG d   1       5.937  -3.107  -4.388  0.00  0.00     0.024 C 
ATOM      2  H   LIG d   1       5.665  -4.018  -3.856  0.00  0.00     0.037 H 
ATOM      3  H   LIG d   1       7.020  -2.987  -4.373  0.00  0.00     0.037 H 
ENDROOT
BRANCH   1   4
ATOM      4  C   LIG d   1       5.453  -3.199  -5.837  0.00  0.00     0.028 C 
BRANCH   4   5
ATOM      5  C   LIG d   1       4.765  -1.890  -6.230  0.00  0.00    -0.013 C 
ATOM      6  H   LIG d   1       3.698  -1.962  -6.013  0.00  0.00     0.029 H 
ATOM      7  H   LIG d   1       5.197  -1.067  -5.661  0.00  0.00     0.029 H 
ATOM      8  H   LIG d   1       4.907  -1.711  -7.295  0.00  0.00     0.029 H 
ENDBRANCH   4   5
BRANCH   4   9
ATOM      9  C   LIG d   1       4.477  -4.340  -5.968  0.00  0.00     0.093 C 
ATOM     10  O   LIG d   1       3.862  -4.499  -7.009  0.00  0.00    -0.544 OA
ATOM     11  O   LIG d   1       4.301  -5.102  -5.034  0.00  0.00    -0.544 OA
ENDBRANCH   4   9
BRANCH   4  12
ATOM     12  N   LIG d   1       6.602  -3.433  -6.723  0.00  0.00     0.227 N 
ATOM     13  H   LIG d   1       6.284  -3.853  -7.582  0.00  0.00     0.200 HD
ATOM     14  H   LIG d   1       7.055  -2.554  -6.925  0.00  0.00     0.200 HD
ATOM     15  H   LIG d   1       7.257  -4.051  -6.268  0.00  0.00     0.200 HD
ENDBRANCH   4  12
ENDBRANCH   1   4
BRANCH   1  16
ATOM     16  C   LIG d   1       5.291  -1.921  -3.718  0.00  0.00    -0.038 A 
ATOM     17  C   LIG d   1       5.941  -0.702  -3.696  0.00  0.00    -0.013 A 
ATOM     18  C   LIG d   1       5.346   0.390  -3.085  0.00  0.00     0.159 A 
ATOM     19  H   LIG d   1       6.912  -0.600  -4.159  0.00  0.00     0.066 H 
ATOM     20  C   LIG d   1       4.098   0.253  -2.485  0.00  0.00     0.158 A 
ATOM     21  C   LIG d   1       3.453  -0.974  -2.506  0.00  0.00    -0.016 A 
ATOM     22  C   LIG d   1       4.051  -2.058  -3.121  0.00  0.00    -0.055 A 
ATOM     23  H   LIG d   1       2.484  -1.083  -2.041  0.00  0.00     0.066 H 
ATOM     24  H   LIG d   1       3.547  -3.013  -3.137  0.00  0.00     0.062 H 
BRANCH  18  25
ATOM     25  O   LIG d   1       5.983   1.591  -3.067  0.00  0.00    -0.503 OA
ATOM     26  H   LIG d   1       6.303   1.880  -3.933  0.00  0.00     0.292 HD
ENDBRANCH  18  25
BRANCH  20  27
ATOM     27  O   LIG d   1       3.511   1.321  -1.880  0.00  0.00    -0.503 OA
ATOM     28  H   LIG d   1       4.119   2.050  -1.694  0.00  0.00     0.292 HD
ENDBRANCH  20  27
ENDBRANCH   1  16
TORSDOF 7
ENDMDL
MODEL 4
REMARK VINA RESULT:      -4.5      1.897      5.025
REMARK  7 active torsions:
REMARK  status: ('A' for Active; 'I' for Inactive)
REMARK    1  A    between atoms: C_1  and  C_2 
REMARK    2  A    between atoms: C_2  and  C_3 
REMARK    3  A    between atoms: C_2  and  C_12 
REMARK    4  A    between atoms: C_2  and  N_15 
REMARK    5  A    between atoms: C_3  and  C_4 
REMARK    6  A    between atoms: C_7  and  O_11 
REMARK    7  A    between atoms: C_8  and  O_10 
ROOT
ATOM      1  C   LIG d   1       7.146  -1.624  -3.210  0.00  0.00     0.024 C 
ATOM      2  H   LIG d   1       7.278  -1.980  -2.190  0.00  0.00     0.037 H 
ATOM      3  H   LIG d   1       7.733  -0.717  -3.359  0.00  0.00     0.037 H 
ENDROOT
BRANCH   1   4
ATOM      4  C   LIG d   1       7.614  -2.701  -4.191  0.00  0.00     0.028 C 
BRANCH   4   5
ATOM      5  C   LIG d   1       8.636  -3.609  -3.504  0.00  0.00    -0.013 C 
ATOM      6  H   LIG d   1       8.860  -4.457  -4.150  0.00  0.00     0.029 H 
ATOM      7  H   LIG d   1       9.549  -3.046  -3.311  0.00  0.00     0.029 H 
ATOM      8  H   LIG d   1       8.224  -3.969  -2.561  0.00  0.00     0.029 H 
ENDBRANCH   4   5
BRANCH   4   9
ATOM      9  C   LIG d   1       8.250  -2.046  -5.390  0.00  0.00     0.093 C 
ATOM     10  O   LIG d   1       7.800  -2.247  -6.506  0.00  0.00    -0.544 OA
ATOM     11  O   LIG d   1       9.216  -1.315  -5.245  0.00  0.00    -0.544 OA
ENDBRANCH   4   9
BRANCH   4  12
ATOM     12  N   LIG d   1       6.461  -3.503  -4.626  0.00  0.00     0.227 N 
ATOM     13  H   LIG d   1       6.760  -4.175  -5.315  0.00  0.00     0.200 HD
ATOM     14  H   LIG d   1       6.070  -3.987  -3.831  0.00  0.00     0.200 HD
ATOM     15  H   LIG d   1       5.762  -2.896  -5.027  0.00  0.00     0.200 HD
ENDBRANCH   4  12
ENDBRANCH   1   4
BRANCH   1  16
ATOM     16  C   LIG d   1       5.688  -1.324  -3.452  0.00  0.00    -0.038 A 
ATOM     17  C   LIG d   1       5.312  -0.569  -4.548  0.00  0.00    -0.013 A 
ATOM     18  C   LIG d   1       3.972  -0.298  -4.774  0.00  0.00     0.159 A 
ATOM     19  H   LIG d   1       6.062  -0.196  -5.229  0.00  0.00     0.066 H 
ATOM     20  C   LIG d   1       3.009  -0.776  -3.892  0.00  0.00     0.158 A 
ATOM     21  C   LIG d   1       3.394  -1.528  -2.793  0.00  0.00    -0.016 A 
ATOM     22  C   LIG d   1       4.732  -1.800  -2.575  0.00  0.00    -0.055 A 
ATOM     23  H   LIG d   1       2.648  -1.902  -2.106  0.00  0.00     0.066 H 
ATOM     24  H   LIG d   1       5.030  -2.386  -1.718  0.00  0.00     0.062 H 
BRANCH  18  25
ATOM     25  O   LIG d   1       3.601   0.441  -5.854  0.00  0.00    -0.503 OA
ATOM     26  H   LIG d   1       2.775   0.929  -5.732  0.00  0.00     0.292 HD
ENDBRANCH  18  25
BRANCH  20  27
ATOM     27  O   LIG d   1       1.694  -0.509  -4.107  0.00  0.00    -0.503 OA
ATOM     28  H   LIG d   1       1.132  -1.296  -4.136  0.00  0.00     0.292 HD
ENDBRANCH  20  27
ENDBRANCH   1  16
TORSDOF 7
ENDMDL
MODEL 5
REMARK VINA RESULT:      -4.5      3.216      3.865
REMARK  7 active torsions:
REMARK  status: ('A' for Active; 'I' for Inactive)
REMARK    1  A    between atoms: C_1  and  C_2 
REMARK    2  A    between atoms: C_2  and  C_3 
REMARK    3  A    between atoms: C_2  and  C_12 
REMARK    4  A    between atoms: C_2  and  N_15 
REMARK    5  A    between atoms: C_3  and  C_4 
REMARK    6  A    between atoms: C_7  and  O_11 
REMARK    7  A    between atoms: C_8  and  O_10 
ROOT
ATOM      1  C   LIG d   1       5.961  -0.677  -3.208  0.00  0.00     0.024 C 
ATOM      2  H   LIG d   1       6.455  -0.723  -2.238  0.00  0.00     0.037 H 
ATOM      3  H   LIG d   1       5.890  -1.680  -3.629  0.00  0.00     0.037 H 
ENDROOT
BRANCH   1   4
ATOM      4  C   LIG d   1       4.557  -0.093  -3.039  0.00  0.00     0.028 C 
BRANCH   4   5
ATOM      5  C   LIG d   1       4.487   0.697  -1.731  0.00  0.00    -0.013 C 
ATOM      6  H   LIG d   1       3.916   0.132  -0.994  0.00  0.00     0.029 H 
ATOM      7  H   LIG d   1       5.496   0.869  -1.355  0.00  0.00     0.029 H 
ATOM      8  H   LIG d   1       3.999   1.655  -1.911  0.00  0.00     0.029 H 
ENDBRANCH   4   5
BRANCH   4   9
ATOM      9  C   LIG d   1       3.549  -1.213  -3.003  0.00  0.00     0.093 C 
ATOM     10  O   LIG d   1       3.927  -2.372  -2.970  0.00  0.00    -0.544 OA
ATOM     11  O   LIG d   1       2.356  -0.961  -3.009  0.00  0.00    -0.544 OA
ENDBRANCH   4   9
BRANCH   4  12
ATOM     12  N   LIG d   1       4.257   0.799  -4.167  0.00  0.00     0.227 N 
ATOM     13  H   LIG d   1       3.547   1.460  -3.893  0.00  0.00     0.200 HD
ATOM     14  H   LIG d   1       5.095   1.296  -4.433  0.00  0.00     0.200 HD
ATOM     15  H   LIG d   1       3.927   0.254  -4.948  0.00  0.00     0.200 HD
ENDBRANCH   4  12
ENDBRANCH   1   4
BRANCH   1  16
ATOM     16  C   LIG d   1       6.761   0.201  -4.137  0.00  0.00    -0.038 A 
ATOM     17  C   LIG d   1       6.886  -0.140  -5.471  0.00  0.00    -0.013 A 
ATOM     18  C   LIG d   1       7.616   0.669  -6.327  0.00  0.00     0.159 A 
ATOM     19  H   LIG d   1       6.411  -1.035  -5.846  0.00  0.00     0.066 H 
ATOM     20  C   LIG d   1       8.230   1.818  -5.839  0.00  0.00     0.158 A 
ATOM     21  C   LIG d   1       8.105   2.151  -4.500  0.00  0.00    -0.016 A 
ATOM     22  C   LIG d   1       7.371   1.342  -3.652  0.00  0.00    -0.055 A 
ATOM     23  H   LIG d   1       8.580   3.043  -4.118  0.00  0.00     0.066 H 
ATOM     24  H   LIG d   1       7.274   1.604  -2.609  0.00  0.00     0.062 H 
BRANCH  18  25
ATOM     25  O   LIG d   1       7.736   0.336  -7.640  0.00  0.00    -0.503 OA
ATOM     26  H   LIG d   1       7.347   0.982  -8.247  0.00  0.00     0.292 HD
ENDBRANCH  18  25
BRANCH  20  27
ATOM     27  O   LIG d   1       8.951   2.613  -6.674  0.00  0.00    -0.503 OA
ATOM     28  H   LIG d   1       9.839   2.820  -6.351  0.00  0.00     0.292 HD
ENDBRANCH  20  27
ENDBRANCH   1  16
TORSDOF 7
ENDMDL
MODEL 6
REMARK VINA RESULT:      -4.5      2.490      3.309
REMARK  7 active torsions:
REMARK  status: ('A' for Active; 'I' for Inactive)
REMARK    1  A    between atoms: C_1  and  C_2 
REMARK    2  A    between atoms: C_2  and  C_3 
REMARK    3  A    between atoms: C_2  and  C_12 
REMARK    4  A    between atoms: C_2  and  N_15 
REMARK    5  A    between atoms: C_3  and  C_4 
REMARK    6  A    between atoms: C_7  and  O_11 
REMARK    7  A    between atoms: C_8  and  O_10 
ROOT
ATOM      1  C   LIG d   1       5.220  -0.839  -2.851  0.00  0.00     0.024 C 
ATOM      2  H   LIG d   1       5.106  -0.418  -1.853  0.00  0.00     0.037 H 
ATOM      3  H   LIG d   1       5.335  -1.920  -2.779  0.00  0.00     0.037 H 
ENDROOT
BRANCH   1   4
ATOM      4  C   LIG d   1       3.982  -0.511  -3.688  0.00  0.00     0.028 C 
BRANCH   4   5
ATOM      5  C   LIG d   1       4.359  -0.488  -5.171  0.00  0.00    -0.013 C 
ATOM      6  H   LIG d   1       3.912   0.386  -5.645  0.00  0.00     0.029 H 
ATOM      7  H   LIG d   1       5.443  -0.442  -5.270  0.00  0.00     0.029 H 
ATOM      8  H   LIG d   1       3.987  -1.392  -5.654  0.00  0.00     0.029 H 
ENDBRANCH   4   5
BRANCH   4   9
ATOM      9  C   LIG d   1       3.446   0.839  -3.285  0.00  0.00     0.093 C 
ATOM     10  O   LIG d   1       3.349   1.128  -2.104  0.00  0.00    -0.544 OA
ATOM     11  O   LIG d   1       3.109   1.641  -4.139  0.00  0.00    -0.544 OA
ENDBRANCH   4   9
BRANCH   4  12
ATOM     12  N   LIG d   1       2.952  -1.534  -3.460  0.00  0.00     0.227 N 
ATOM     13  H   LIG d   1       2.269  -1.184  -2.807  0.00  0.00     0.200 HD
ATOM     14  H   LIG d   1       2.499  -1.755  -4.335  0.00  0.00     0.200 HD
ATOM     15  H   LIG d   1       3.382  -2.366  -3.085  0.00  0.00     0.200 HD
ENDBRANCH   4  12
ENDBRANCH   1   4
BRANCH   1  16
ATOM     16  C   LIG d   1       6.441  -0.247  -3.509  0.00  0.00    -0.038 A 
ATOM     17  C   LIG d   1       7.290  -1.056  -4.241  0.00  0.00    -0.013 A 
ATOM     18  C   LIG d   1       8.410  -0.512  -4.850  0.00  0.00     0.159 A 
ATOM     19  H   LIG d   1       7.078  -2.110  -4.341  0.00  0.00     0.066 H 
ATOM     20  C   LIG d   1       8.682   0.845  -4.715  0.00  0.00     0.158 A 
ATOM     21  C   LIG d   1       7.829   1.649  -3.976  0.00  0.00    -0.016 A 
ATOM     22  C   LIG d   1       6.711   1.102  -3.373  0.00  0.00    -0.055 A 
ATOM     23  H   LIG d   1       8.038   2.704  -3.869  0.00  0.00     0.066 H 
ATOM     24  H   LIG d   1       6.048   1.729  -2.798  0.00  0.00     0.062 H 
BRANCH  18  25
ATOM     25  O   LIG d   1       9.243  -1.306  -5.575  0.00  0.00    -0.503 OA
ATOM     26  H   LIG d   1       9.264  -1.097  -6.519  0.00  0.00     0.292 HD
ENDBRANCH  18  25
BRANCH  20  27
ATOM     27  O   LIG d   1       9.782   1.382  -5.308  0.00  0.00    -0.503 OA
ATOM     28  H   LIG d   1      10.617   0.995  -5.011  0.00  0.00     0.292 HD
ENDBRANCH  20  27
ENDBRANCH   1  16
TORSDOF 7
ENDMDL
MODEL 7
REMARK VINA RESULT:      -4.5      9.536     11.727
REMARK  7 active torsions:
REMARK  status: ('A' for Active; 'I' for Inactive)
REMARK    1  A    between atoms: C_1  and  C_2 
REMARK    2  A    between atoms: C_2  and  C_3 
REMARK    3  A    between atoms: C_2  and  C_12 
REMARK    4  A    between atoms: C_2  and  N_15 
REMARK    5  A    between atoms: C_3  and  C_4 
REMARK    6  A    between atoms: C_7  and  O_11 
REMARK    7  A    between atoms: C_8  and  O_10 
ROOT
ATOM      1  C   LIG d   1      10.526   6.045  -0.425  0.00  0.00     0.024 C 
ATOM      2  H   LIG d   1       9.565   5.535  -0.375  0.00  0.00     0.037 H 
ATOM      3  H   LIG d   1      11.170   5.688   0.378  0.00  0.00     0.037 H 
ENDROOT
BRANCH   1   4
ATOM      4  C   LIG d   1      11.186   5.755  -1.775  0.00  0.00     0.028 C 
BRANCH   4   5
ATOM      5  C   LIG d   1      11.812   7.039  -2.324  0.00  0.00    -0.013 C 
ATOM      6  H   LIG d   1      11.061   7.599  -2.883  0.00  0.00     0.029 H 
ATOM      7  H   LIG d   1      12.177   7.648  -1.496  0.00  0.00     0.029 H 
ATOM      8  H   LIG d   1      12.641   6.786  -2.983  0.00  0.00     0.029 H 
ENDBRANCH   4   5
BRANCH   4   9
ATOM      9  C   LIG d   1      10.148   5.249  -2.743  0.00  0.00     0.093 C 
ATOM     10  O   LIG d   1       9.661   4.141  -2.591  0.00  0.00    -0.544 OA
ATOM     11  O   LIG d   1       9.795   5.946  -3.679  0.00  0.00    -0.544 OA
ENDBRANCH   4   9
BRANCH   4  12
ATOM     12  N   LIG d   1      12.232   4.737  -1.601  0.00  0.00     0.227 N 
ATOM     13  H   LIG d   1      11.804   3.848  -1.394  0.00  0.00     0.200 HD
ATOM     14  H   LIG d   1      12.771   4.661  -2.450  0.00  0.00     0.200 HD
ATOM     15  H   LIG d   1      12.837   5.004  -0.840  0.00  0.00     0.200 HD
ENDBRANCH   4  12
ENDBRANCH   1   4
BRANCH   1  16
ATOM     16  C   LIG d   1      10.315   7.530  -0.278  0.00  0.00    -0.038 A 
ATOM     17  C   LIG d   1       9.263   8.145  -0.929  0.00  0.00    -0.013 A 
ATOM     18  C   LIG d   1       9.065   9.509  -0.790  0.00  0.00     0.159 A 
ATOM     19  H   LIG d   1       8.593   7.561  -1.543  0.00  0.00     0.066 H 
ATOM     20  C   LIG d   1       9.932  10.259  -0.003  0.00  0.00     0.158 A 
ATOM     21  C   LIG d   1      10.989   9.637   0.644  0.00  0.00    -0.016 A 
ATOM     22  C   LIG d   1      11.179   8.274   0.504  0.00  0.00    -0.055 A 
ATOM     23  H   LIG d   1      11.664  10.216   1.256  0.00  0.00     0.066 H 
ATOM     24  H   LIG d   1      12.002   7.791   1.009  0.00  0.00     0.062 H 
BRANCH  18  25
ATOM     25  O   LIG d   1       8.027  10.115  -1.427  0.00  0.00    -0.503 OA
ATOM     26  H   LIG d   1       7.807   9.722  -2.284  0.00  0.00     0.292 HD
ENDBRANCH  18  25
BRANCH  20  27
ATOM     27  O   LIG d   1       9.745  11.599   0.133  0.00  0.00    -0.503 OA
ATOM     28  H   LIG d   1      10.509  12.131  -0.128  0.00  0.00     0.292 HD
ENDBRANCH  20  27
ENDBRANCH   1  16
TORSDOF 7
ENDMDL
MODEL 8
REMARK VINA RESULT:      -4.4      3.906      5.258
REMARK  7 active torsions:
REMARK  status: ('A' for Active; 'I' for Inactive)
REMARK    1  A    between atoms: C_1  and  C_2 
REMARK    2  A    between atoms: C_2  and  C_3 
REMARK    3  A    between atoms: C_2  and  C_12 
REMARK    4  A    between atoms: C_2  and  N_15 
REMARK    5  A    between atoms: C_3  and  C_4 
REMARK    6  A    between atoms: C_7  and  O_11 
REMARK    7  A    between atoms: C_8  and  O_10 
ROOT
ATOM      1  C   LIG d   1       4.347  -1.301  -6.139  0.00  0.00     0.024 C 
ATOM      2  H   LIG d   1       5.321  -1.774  -6.257  0.00  0.00     0.037 H 
ATOM      3  H   LIG d   1       3.566  -2.059  -6.187  0.00  0.00     0.037 H 
ENDROOT
BRANCH   1   4
ATOM      4  C   LIG d   1       4.287  -0.591  -4.784  0.00  0.00     0.028 C 
BRANCH   4   5
ATOM      5  C   LIG d   1       5.704  -0.219  -4.340  0.00  0.00    -0.013 C 
ATOM      6  H   LIG d   1       5.976   0.747  -4.767  0.00  0.00     0.029 H 
ATOM      7  H   LIG d   1       5.739  -0.159  -3.252  0.00  0.00     0.029 H 
ATOM      8  H   LIG d   1       6.404  -0.979  -4.686  0.00  0.00     0.029 H 
ENDBRANCH   4   5
BRANCH   4   9
ATOM      9  C   LIG d   1       3.666  -1.509  -3.763  0.00  0.00     0.093 C 
ATOM     10  O   LIG d   1       4.029  -2.671  -3.687  0.00  0.00    -0.544 OA
ATOM     11  O   LIG d   1       2.798  -1.091  -3.015  0.00  0.00    -0.544 OA
ENDBRANCH   4   9
BRANCH   4  12
ATOM     12  N   LIG d   1       3.476   0.628  -4.906  0.00  0.00     0.227 N 
ATOM     13  H   LIG d   1       2.517   0.418  -4.672  0.00  0.00     0.200 HD
ATOM     14  H   LIG d   1       3.830   1.331  -4.274  0.00  0.00     0.200 HD
ATOM     15  H   LIG d   1       3.524   0.971  -5.853  0.00  0.00     0.200 HD
ENDBRANCH   4  12
ENDBRANCH   1   4
BRANCH   1  16
ATOM     16  C   LIG d   1       4.140  -0.295  -7.242  0.00  0.00    -0.038 A 
ATOM     17  C   LIG d   1       5.228   0.348  -7.804  0.00  0.00    -0.013 A 
ATOM     18  C   LIG d   1       5.039   1.268  -8.821  0.00  0.00     0.159 A 
ATOM     19  H   LIG d   1       6.225   0.128  -7.451  0.00  0.00     0.066 H 
ATOM     20  C   LIG d   1       3.753   1.552  -9.269  0.00  0.00     0.158 A 
ATOM     21  C   LIG d   1       2.666   0.908  -8.699  0.00  0.00    -0.016 A 
ATOM     22  C   LIG d   1       2.861  -0.013  -7.686  0.00  0.00    -0.055 A 
ATOM     23  H   LIG d   1       1.666   1.126  -9.045  0.00  0.00     0.066 H 
ATOM     24  H   LIG d   1       2.014  -0.515  -7.243  0.00  0.00     0.062 H 
BRANCH  18  25
ATOM     25  O   LIG d   1       6.109   1.897  -9.377  0.00  0.00    -0.503 OA
ATOM     26  H   LIG d   1       6.817   2.097  -8.750  0.00  0.00     0.292 HD
ENDBRANCH  18  25
BRANCH  20  27
ATOM     27  O   LIG d   1       3.562   2.458 -10.265  0.00  0.00    -0.503 OA
ATOM     28  H   LIG d   1       3.427   3.363  -9.952  0.00  0.00     0.292 HD
ENDBRANCH  20  27
ENDBRANCH   1  16
TORSDOF 7
ENDMDL
MODEL 9
REMARK VINA RESULT:      -4.3     11.120     12.388
REMARK  7 active torsions:
REMARK  status: ('A' for Active; 'I' for Inactive)
REMARK    1  A    between atoms: C_1  and  C_2 
REMARK    2  A    between atoms: C_2  and  C_3 
REMARK    3  A    between atoms: C_2  and  C_12 
REMARK    4  A    between atoms: C_2  and  N_15 
REMARK    5  A    between atoms: C_3  and  C_4 
REMARK    6  A    between atoms: C_7  and  O_11 
REMARK    7  A    between atoms: C_8  and  O_10 
ROOT
ATOM      1  C   LIG d   1      10.766  10.053  -2.039  0.00  0.00     0.024 C 
ATOM      2  H   LIG d   1      11.150  11.068  -1.931  0.00  0.00     0.037 H 
ATOM      3  H   LIG d   1      11.555   9.339  -1.802  0.00  0.00     0.037 H 
ENDROOT
BRANCH   1   4
ATOM      4  C   LIG d   1       9.589   9.849  -1.084  0.00  0.00     0.028 C 
BRANCH   4   5
ATOM      5  C   LIG d   1       9.862  10.587   0.229  0.00  0.00    -0.013 C 
ATOM      6  H   LIG d   1       9.007  10.471   0.895  0.00  0.00     0.029 H 
ATOM      7  H   LIG d   1      10.751  10.169   0.702  0.00  0.00     0.029 H 
ATOM      8  H   LIG d   1      10.022  11.645   0.023  0.00  0.00     0.029 H 
ENDBRANCH   4   5
BRANCH   4   9
ATOM      9  C   LIG d   1       9.416   8.378  -0.807  0.00  0.00     0.093 C 
ATOM     10  O   LIG d   1      10.378   7.702  -0.483  0.00  0.00    -0.544 OA
ATOM     11  O   LIG d   1       8.315   7.863  -0.909  0.00  0.00    -0.544 OA
ENDBRANCH   4   9
BRANCH   4  12
ATOM     12  N   LIG d   1       8.363  10.379  -1.697  0.00  0.00     0.227 N 
ATOM     13  H   LIG d   1       8.601  11.122  -2.337  0.00  0.00     0.200 HD
ATOM     14  H   LIG d   1       7.892   9.641  -2.199  0.00  0.00     0.200 HD
ATOM     15  H   LIG d   1       7.754  10.738  -0.977  0.00  0.00     0.200 HD
ENDBRANCH   4  12
ENDBRANCH   1   4
BRANCH   1  16
ATOM     16  C   LIG d   1      10.305   9.839  -3.458  0.00  0.00    -0.038 A 
ATOM     17  C   LIG d   1      10.006  10.926  -4.258  0.00  0.00    -0.013 A 
ATOM     18  C   LIG d   1       9.586  10.731  -5.564  0.00  0.00     0.159 A 
ATOM     19  H   LIG d   1      10.103  11.928  -3.865  0.00  0.00     0.066 H 
ATOM     20  C   LIG d   1       9.457   9.439  -6.064  0.00  0.00     0.158 A 
ATOM     21  C   LIG d   1       9.754   8.353  -5.256  0.00  0.00    -0.016 A 
ATOM     22  C   LIG d   1      10.176   8.555  -3.955  0.00  0.00    -0.055 A 
ATOM     23  H   LIG d   1       9.655   7.349  -5.642  0.00  0.00     0.066 H 
ATOM     24  H   LIG d   1      10.407   7.708  -3.326  0.00  0.00     0.062 H 
BRANCH  18  25
ATOM     25  O   LIG d   1       9.297  11.800  -6.353  0.00  0.00    -0.503 OA
ATOM     26  H   LIG d   1       9.387  11.626  -7.300  0.00  0.00     0.292 HD
ENDBRANCH  18  25
BRANCH  20  27
ATOM     27  O   LIG d   1       9.042   9.242  -7.344  0.00  0.00    -0.503 OA
ATOM     28  H   LIG d   1       8.084   9.305  -7.460  0.00  0.00     0.292 HD
ENDBRANCH  20  27
ENDBRANCH   1  16
TORSDOF 7
ENDMDL
MODEL 10
REMARK VINA RESULT:      -4.3     10.140     11.641
REMARK  7 active torsions:
REMARK  status: ('A' for Active; 'I' for Inactive)
REMARK    1  A    between atoms: C_1  and  C_2 
REMARK    2  A    between atoms: C_2  and  C_3 
REMARK    3  A    between atoms: C_2  and  C_12 
REMARK    4  A    between atoms: C_2  and  N_15 
REMARK    5  A    between atoms: C_3  and  C_4 
REMARK    6  A    between atoms: C_7  and  O_11 
REMARK    7  A    between atoms: C_8  and  O_10 
ROOT
ATOM      1  C   LIG d   1       8.731   9.283  -0.845  0.00  0.00     0.024 C 
ATOM      2  H   LIG d   1       8.682   9.638   0.184  0.00  0.00     0.037 H 
ATOM      3  H   LIG d   1       7.721   9.124  -1.223  0.00  0.00     0.037 H 
ENDROOT
BRANCH   1   4
ATOM      4  C   LIG d   1       9.442  10.325  -1.711  0.00  0.00     0.028 C 
BRANCH   4   5
ATOM      5  C   LIG d   1      10.364   9.619  -2.707  0.00  0.00    -0.013 C 
ATOM      6  H   LIG d   1      11.371   9.563  -2.293  0.00  0.00     0.029 H 
ATOM      7  H   LIG d   1       9.991   8.612  -2.896  0.00  0.00     0.029 H 
ATOM      8  H   LIG d   1      10.386  10.179  -3.641  0.00  0.00     0.029 H 
ENDBRANCH   4   5
BRANCH   4   9
ATOM      9  C   LIG d   1      10.258  11.237  -0.831  0.00  0.00     0.093 C 
ATOM     10  O   LIG d   1      11.139  11.925  -1.317  0.00  0.00    -0.544 OA
ATOM     11  O   LIG d   1      10.037  11.285   0.367  0.00  0.00    -0.544 OA
ENDBRANCH   4   9
BRANCH   4  12
ATOM     12  N   LIG d   1       8.443  11.116  -2.444  0.00  0.00     0.227 N 
ATOM     13  H   LIG d   1       8.390  12.042  -2.047  0.00  0.00     0.200 HD
ATOM     14  H   LIG d   1       8.713  11.181  -3.415  0.00  0.00     0.200 HD
ATOM     15  H   LIG d   1       7.543  10.668  -2.375  0.00  0.00     0.200 HD
ENDBRANCH   4  12
ENDBRANCH   1   4
BRANCH   1  16
ATOM     16  C   LIG d   1       9.495   7.985  -0.893  0.00  0.00    -0.038 A 
ATOM     17  C   LIG d   1      10.483   7.731   0.041  0.00  0.00    -0.013 A 
ATOM     18  C   LIG d   1      11.183   6.536   0.002  0.00  0.00     0.159 A 
ATOM     19  H   LIG d   1      10.705   8.463   0.804  0.00  0.00     0.066 H 
ATOM     20  C   LIG d   1      10.897   5.598  -0.985  0.00  0.00     0.158 A 
ATOM     21  C   LIG d   1       9.909   5.860  -1.921  0.00  0.00    -0.016 A 
ATOM     22  C   LIG d   1       9.211   7.053  -1.874  0.00  0.00    -0.055 A 
ATOM     23  H   LIG d   1       9.685   5.134  -2.688  0.00  0.00     0.066 H 
ATOM     24  H   LIG d   1       8.442   7.256  -2.603  0.00  0.00     0.062 H 
BRANCH  18  25
ATOM     25  O   LIG d   1      12.151   6.284   0.923  0.00  0.00    -0.503 OA
ATOM     26  H   LIG d   1      11.979   6.674   1.791  0.00  0.00     0.292 HD
ENDBRANCH  18  25
BRANCH  20  27
ATOM     27  O   LIG d   1      11.584   4.425  -1.030  0.00  0.00    -0.503 OA
ATOM     28  H   LIG d   1      11.764   4.110  -1.927  0.00  0.00     0.292 HD
ENDBRANCH  20  27
ENDBRANCH   1  16
TORSDOF 7
ENDMDL
