MODEL 1
REMARK VINA RESULT:      -6.3      0.000      0.000
REMARK  6 active torsions:
REMARK  status: ('A' for Active; 'I' for Inactive)
REMARK    1  A    between atoms: C_1  and  C_2 
REMARK    2  A    between atoms: C_2  and  C_4 
REMARK    3  A    between atoms: C_5  and  O_18 
REMARK    4  A    between atoms: C_9  and  O_10 
REMARK    5  A    between atoms: O_10  and  C_11 
REMARK    6  A    between atoms: C_11  and  C_12 
ROOT
ATOM      1  C   LIG d   1       4.792   0.300  -7.712  0.00  0.00     0.100 A 
ATOM      2  C   LIG d   1       5.376   1.034  -8.760  0.00  0.00     0.131 A 
ATOM      3  C   LIG d   1       4.644   2.018  -9.400  0.00  0.00    -0.019 A 
ATOM      4  C   LIG d   1       3.346   2.288  -9.008  0.00  0.00    -0.055 A 
ATOM      5  C   LIG d   1       2.761   1.577  -7.976  0.00  0.00    -0.019 A 
ATOM      6  C   LIG d   1       3.471   0.584  -7.322  0.00  0.00     0.135 A 
ATOM      7  H   LIG d   1       5.088   2.580 -10.208  0.00  0.00     0.065 H 
ATOM      8  H   LIG d   1       2.783   3.061  -9.511  0.00  0.00     0.062 H 
ATOM      9  H   LIG d   1       1.746   1.798  -7.678  0.00  0.00     0.065 H 
ENDROOT
BRANCH   6  10
ATOM     10  O   LIG d   1       2.896  -0.111  -6.311  0.00  0.00    -0.487 OA
BRANCH  10  11
ATOM     11  C   LIG d   1       2.402   0.644  -5.202  0.00  0.00     0.115 C 
ATOM     12  H   LIG d   1       2.578   1.705  -5.379  0.00  0.00     0.075 H 
ATOM     13  H   LIG d   1       1.332   0.466  -5.090  0.00  0.00     0.075 H 
BRANCH  11  14
ATOM     14  C   LIG d   1       3.117   0.219  -3.946  0.00  0.00    -0.010 A 
ATOM     15  C   LIG d   1       3.688   1.169  -3.120  0.00  0.00    -0.055 A 
ATOM     16  C   LIG d   1       4.343   0.778  -1.967  0.00  0.00    -0.061 A 
ATOM     17  H   LIG d   1       3.620   2.216  -3.374  0.00  0.00     0.062 H 
ATOM     18  C   LIG d   1       4.429  -0.562  -1.641  0.00  0.00    -0.062 A 
ATOM     19  H   LIG d   1       4.789   1.520  -1.322  0.00  0.00     0.062 H 
ATOM     20  C   LIG d   1       3.858  -1.513  -2.468  0.00  0.00    -0.061 A 
ATOM     21  H   LIG d   1       4.942  -0.867  -0.741  0.00  0.00     0.062 H 
ATOM     22  C   LIG d   1       3.198  -1.121  -3.617  0.00  0.00    -0.055 A 
ATOM     23  H   LIG d   1       3.925  -2.559  -2.213  0.00  0.00     0.062 H 
ATOM     24  H   LIG d   1       2.748  -1.864  -4.260  0.00  0.00     0.062 H 
ENDBRANCH  11  14
ENDBRANCH  10  11
ENDBRANCH   6  10
BRANCH   1  25
ATOM     25  C   LIG d   1       5.553  -0.748  -7.029  0.00  0.00     0.167 C 
ATOM     26  O   LIG d   1       5.627  -1.857  -7.514  0.00  0.00    -0.292 OA
BRANCH  25  27
ATOM     27  C   LIG d   1       6.246  -0.447  -5.726  0.00  0.00    -0.001 C 
ATOM     28  H   LIG d   1       6.436  -1.303  -5.243  0.00  0.00     0.031 H 
ATOM     29  H   LIG d   1       5.606   0.184  -5.110  0.00  0.00     0.031 H 
ATOM     30  H   LIG d   1       7.185   0.073  -5.924  0.00  0.00     0.031 H 
ENDBRANCH  25  27
ENDBRANCH   1  25
BRANCH   2  31
ATOM     31  O   LIG d   1       6.651   0.774  -9.143  0.00  0.00    -0.506 OA
ATOM     32  H   LIG d   1       7.296   0.829  -8.426  0.00  0.00     0.292 HD
ENDBRANCH   2  31
TORSDOF 6
ENDMDL
MODEL 2
REMARK VINA RESULT:      -6.2      1.335      1.388
REMARK  6 active torsions:
REMARK  status: ('A' for Active; 'I' for Inactive)
REMARK    1  A    between atoms: C_1  and  C_2 
REMARK    2  A    between atoms: C_2  and  C_4 
REMARK    3  A    between atoms: C_5  and  O_18 
REMARK    4  A    between atoms: C_9  and  O_10 
REMARK    5  A    between atoms: O_10  and  C_11 
REMARK    6  A    between atoms: C_11  and  C_12 
ROOT
ATOM      1  C   LIG d   1       3.617  -0.370  -8.370  0.00  0.00     0.100 A 
ATOM      2  C   LIG d   1       4.009   0.157  -9.613  0.00  0.00     0.131 A 
ATOM      3  C   LIG d   1       3.770   1.490  -9.900  0.00  0.00    -0.019 A 
ATOM      4  C   LIG d   1       3.156   2.304  -8.966  0.00  0.00    -0.055 A 
ATOM      5  C   LIG d   1       2.771   1.800  -7.738  0.00  0.00    -0.019 A 
ATOM      6  C   LIG d   1       2.995   0.469  -7.428  0.00  0.00     0.135 A 
ATOM      7  H   LIG d   1       4.065   1.896 -10.855  0.00  0.00     0.065 H 
ATOM      8  H   LIG d   1       2.977   3.344  -9.198  0.00  0.00     0.062 H 
ATOM      9  H   LIG d   1       2.293   2.446  -7.016  0.00  0.00     0.065 H 
ENDROOT
BRANCH   6  10
ATOM     10  O   LIG d   1       2.616  -0.024  -6.224  0.00  0.00    -0.487 OA
BRANCH  10  11
ATOM     11  C   LIG d   1       2.480   0.913  -5.153  0.00  0.00     0.115 C 
ATOM     12  H   LIG d   1       2.942   1.859  -5.437  0.00  0.00     0.075 H 
ATOM     13  H   LIG d   1       1.422   1.074  -4.943  0.00  0.00     0.075 H 
BRANCH  11  14
ATOM     14  C   LIG d   1       3.160   0.373  -3.922  0.00  0.00    -0.010 A 
ATOM     15  C   LIG d   1       3.742   1.240  -3.016  0.00  0.00    -0.055 A 
ATOM     16  C   LIG d   1       4.366   0.744  -1.886  0.00  0.00    -0.061 A 
ATOM     17  H   LIG d   1       3.707   2.305  -3.189  0.00  0.00     0.062 H 
ATOM     18  C   LIG d   1       4.409  -0.620  -1.664  0.00  0.00    -0.062 A 
ATOM     19  H   LIG d   1       4.820   1.420  -1.179  0.00  0.00     0.062 H 
ATOM     20  C   LIG d   1       3.828  -1.487  -2.571  0.00  0.00    -0.061 A 
ATOM     21  H   LIG d   1       4.898  -1.008  -0.782  0.00  0.00     0.062 H 
ATOM     22  C   LIG d   1       3.199  -0.990  -3.697  0.00  0.00    -0.055 A 
ATOM     23  H   LIG d   1       3.862  -2.552  -2.397  0.00  0.00     0.062 H 
ATOM     24  H   LIG d   1       2.741  -1.668  -4.403  0.00  0.00     0.062 H 
ENDBRANCH  11  14
ENDBRANCH  10  11
ENDBRANCH   6  10
BRANCH   1  25
ATOM     25  C   LIG d   1       3.860  -1.780  -8.055  0.00  0.00     0.167 C 
ATOM     26  O   LIG d   1       3.235  -2.645  -8.630  0.00  0.00    -0.292 OA
BRANCH  25  27
ATOM     27  C   LIG d   1       4.886  -2.154  -7.018  0.00  0.00    -0.001 C 
ATOM     28  H   LIG d   1       4.539  -1.927  -6.107  0.00  0.00     0.031 H 
ATOM     29  H   LIG d   1       5.808  -1.603  -7.204  0.00  0.00     0.031 H 
ATOM     30  H   LIG d   1       5.085  -3.225  -7.073  0.00  0.00     0.031 H 
ENDBRANCH  25  27
ENDBRANCH   1  25
BRANCH   2  31
ATOM     31  O   LIG d   1       4.615  -0.639 -10.529  0.00  0.00    -0.506 OA
ATOM     32  H   LIG d   1       5.160  -1.337 -10.143  0.00  0.00     0.292 HD
ENDBRANCH   2  31
TORSDOF 6
ENDMDL
MODEL 3
REMARK VINA RESULT:      -6.1      1.835      5.490
REMARK  6 active torsions:
REMARK  status: ('A' for Active; 'I' for Inactive)
REMARK    1  A    between atoms: C_1  and  C_2 
REMARK    2  A    between atoms: C_2  and  C_4 
REMARK    3  A    between atoms: C_5  and  O_18 
REMARK    4  A    between atoms: C_9  and  O_10 
REMARK    5  A    between atoms: O_10  and  C_11 
REMARK    6  A    between atoms: C_11  and  C_12 
ROOT
ATOM      1  C   LIG d   1       5.067  -0.555  -4.506  0.00  0.00     0.100 A 
ATOM      2  C   LIG d   1       5.370  -1.364  -3.397  0.00  0.00     0.131 A 
ATOM      3  C   LIG d   1       4.368  -1.717  -2.510  0.00  0.00    -0.019 A 
ATOM      4  C   LIG d   1       3.071  -1.284  -2.716  0.00  0.00    -0.055 A 
ATOM      5  C   LIG d   1       2.758  -0.493  -3.805  0.00  0.00    -0.019 A 
ATOM      6  C   LIG d   1       3.744  -0.122  -4.705  0.00  0.00     0.135 A 
ATOM      7  H   LIG d   1       4.600  -2.334  -1.655  0.00  0.00     0.065 H 
ATOM      8  H   LIG d   1       2.295  -1.568  -2.020  0.00  0.00     0.062 H 
ATOM      9  H   LIG d   1       1.741  -0.162  -3.956  0.00  0.00     0.065 H 
ENDROOT
BRANCH   6  10
ATOM     10  O   LIG d   1       3.435   0.654  -5.772  0.00  0.00    -0.487 OA
BRANCH  10  11
ATOM     11  C   LIG d   1       2.615   0.069  -6.786  0.00  0.00     0.115 C 
ATOM     12  H   LIG d   1       2.721  -1.016  -6.757  0.00  0.00     0.075 H 
ATOM     13  H   LIG d   1       1.573   0.337  -6.610  0.00  0.00     0.075 H 
BRANCH  11  14
ATOM     14  C   LIG d   1       3.044   0.578  -8.137  0.00  0.00    -0.010 A 
ATOM     15  C   LIG d   1       3.150   1.938  -8.362  0.00  0.00    -0.055 A 
ATOM     16  C   LIG d   1       3.545   2.405  -9.602  0.00  0.00    -0.061 A 
ATOM     17  H   LIG d   1       2.926   2.636  -7.569  0.00  0.00     0.062 H 
ATOM     18  C   LIG d   1       3.833   1.513 -10.617  0.00  0.00    -0.062 A 
ATOM     19  H   LIG d   1       3.628   3.467  -9.778  0.00  0.00     0.062 H 
ATOM     20  C   LIG d   1       3.727   0.152 -10.392  0.00  0.00    -0.061 A 
ATOM     21  H   LIG d   1       4.140   1.878 -11.586  0.00  0.00     0.062 H 
ATOM     22  C   LIG d   1       3.338  -0.314  -9.151  0.00  0.00    -0.055 A 
ATOM     23  H   LIG d   1       3.952  -0.545 -11.185  0.00  0.00     0.062 H 
ATOM     24  H   LIG d   1       3.260  -1.378  -8.974  0.00  0.00     0.062 H 
ENDBRANCH  11  14
ENDBRANCH  10  11
ENDBRANCH   6  10
BRANCH   1  25
ATOM     25  C   LIG d   1       6.118  -0.170  -5.450  0.00  0.00     0.167 C 
ATOM     26  O   LIG d   1       6.868   0.744  -5.182  0.00  0.00    -0.292 OA
BRANCH  25  27
ATOM     27  C   LIG d   1       6.269  -0.911  -6.753  0.00  0.00    -0.001 C 
ATOM     28  H   LIG d   1       6.659  -1.816  -6.580  0.00  0.00     0.031 H 
ATOM     29  H   LIG d   1       6.930  -0.352  -7.416  0.00  0.00     0.031 H 
ATOM     30  H   LIG d   1       5.291  -1.022  -7.224  0.00  0.00     0.031 H 
ENDBRANCH  25  27
ENDBRANCH   1  25
BRANCH   2  31
ATOM     31  O   LIG d   1       6.641  -1.793  -3.196  0.00  0.00    -0.506 OA
ATOM     32  H   LIG d   1       6.818  -2.677  -3.547  0.00  0.00     0.292 HD
ENDBRANCH   2  31
TORSDOF 6
ENDMDL
MODEL 4
REMARK VINA RESULT:      -5.9      1.597      2.416
REMARK  6 active torsions:
REMARK  status: ('A' for Active; 'I' for Inactive)
REMARK    1  A    between atoms: C_1  and  C_2 
REMARK    2  A    between atoms: C_2  and  C_4 
REMARK    3  A    between atoms: C_5  and  O_18 
REMARK    4  A    between atoms: C_9  and  O_10 
REMARK    5  A    between atoms: O_10  and  C_11 
REMARK    6  A    between atoms: C_11  and  C_12 
ROOT
ATOM      1  C   LIG d   1       4.192   0.753  -9.014  0.00  0.00     0.100 A 
ATOM      2  C   LIG d   1       3.805   0.519 -10.345  0.00  0.00     0.131 A 
ATOM      3  C   LIG d   1       2.634  -0.171 -10.608  0.00  0.00    -0.019 A 
ATOM      4  C   LIG d   1       1.842  -0.621  -9.568  0.00  0.00    -0.055 A 
ATOM      5  C   LIG d   1       2.209  -0.393  -8.254  0.00  0.00    -0.019 A 
ATOM      6  C   LIG d   1       3.378   0.291  -7.965  0.00  0.00     0.135 A 
ATOM      7  H   LIG d   1       2.336  -0.356 -11.629  0.00  0.00     0.065 H 
ATOM      8  H   LIG d   1       0.928  -1.155  -9.783  0.00  0.00     0.062 H 
ATOM      9  H   LIG d   1       1.581  -0.748  -7.450  0.00  0.00     0.065 H 
ENDROOT
BRANCH   6  10
ATOM     10  O   LIG d   1       3.736   0.513  -6.677  0.00  0.00    -0.487 OA
BRANCH  10  11
ATOM     11  C   LIG d   1       2.695   0.475  -5.698  0.00  0.00     0.115 C 
ATOM     12  H   LIG d   1       2.197   1.445  -5.660  0.00  0.00     0.075 H 
ATOM     13  H   LIG d   1       1.973  -0.295  -5.966  0.00  0.00     0.075 H 
BRANCH  11  14
ATOM     14  C   LIG d   1       3.286   0.163  -4.348  0.00  0.00    -0.010 A 
ATOM     15  C   LIG d   1       3.701  -1.122  -4.054  0.00  0.00    -0.055 A 
ATOM     16  C   LIG d   1       4.244  -1.409  -2.815  0.00  0.00    -0.061 A 
ATOM     17  H   LIG d   1       3.602  -1.904  -4.794  0.00  0.00     0.062 H 
ATOM     18  C   LIG d   1       4.370  -0.409  -1.869  0.00  0.00    -0.062 A 
ATOM     19  H   LIG d   1       4.567  -2.412  -2.586  0.00  0.00     0.062 H 
ATOM     20  C   LIG d   1       3.955   0.877  -2.162  0.00  0.00    -0.061 A 
ATOM     21  H   LIG d   1       4.793  -0.632  -0.901  0.00  0.00     0.062 H 
ATOM     22  C   LIG d   1       3.418   1.164  -3.403  0.00  0.00    -0.055 A 
ATOM     23  H   LIG d   1       4.054   1.658  -1.423  0.00  0.00     0.062 H 
ATOM     24  H   LIG d   1       3.098   2.170  -3.634  0.00  0.00     0.062 H 
ENDBRANCH  11  14
ENDBRANCH  10  11
ENDBRANCH   6  10
BRANCH   1  25
ATOM     25  C   LIG d   1       5.431   1.477  -8.722  0.00  0.00     0.167 C 
ATOM     26  O   LIG d   1       5.521   2.657  -8.987  0.00  0.00    -0.292 OA
BRANCH  25  27
ATOM     27  C   LIG d   1       6.594   0.757  -8.091  0.00  0.00    -0.001 C 
ATOM     28  H   LIG d   1       6.989   1.327  -7.370  0.00  0.00     0.031 H 
ATOM     29  H   LIG d   1       7.351   0.553  -8.848  0.00  0.00     0.031 H 
ATOM     30  H   LIG d   1       6.249  -0.184  -7.660  0.00  0.00     0.031 H 
ENDBRANCH  25  27
ENDBRANCH   1  25
BRANCH   2  31
ATOM     31  O   LIG d   1       4.578   0.963 -11.367  0.00  0.00    -0.506 OA
ATOM     32  H   LIG d   1       4.580   0.383 -12.140  0.00  0.00     0.292 HD
ENDBRANCH   2  31
TORSDOF 6
ENDMDL
MODEL 5
REMARK VINA RESULT:      -5.8      1.211      2.560
REMARK  6 active torsions:
REMARK  status: ('A' for Active; 'I' for Inactive)
REMARK    1  A    between atoms: C_1  and  C_2 
REMARK    2  A    between atoms: C_2  and  C_4 
REMARK    3  A    between atoms: C_5  and  O_18 
REMARK    4  A    between atoms: C_9  and  O_10 
REMARK    5  A    between atoms: O_10  and  C_11 
REMARK    6  A    between atoms: C_11  and  C_12 
ROOT
ATOM      1  C   LIG d   1       4.203   0.674  -8.118  0.00  0.00     0.100 A 
ATOM      2  C   LIG d   1       5.399   1.044  -8.758  0.00  0.00     0.131 A 
ATOM      3  C   LIG d   1       6.614   0.708  -8.187  0.00  0.00    -0.019 A 
ATOM      4  C   LIG d   1       6.655   0.003  -6.998  0.00  0.00    -0.055 A 
ATOM      5  C   LIG d   1       5.486  -0.371  -6.362  0.00  0.00    -0.019 A 
ATOM      6  C   LIG d   1       4.257  -0.043  -6.910  0.00  0.00     0.135 A 
ATOM      7  H   LIG d   1       7.535   0.994  -8.673  0.00  0.00     0.065 H 
ATOM      8  H   LIG d   1       7.608  -0.258  -6.562  0.00  0.00     0.062 H 
ATOM      9  H   LIG d   1       5.530  -0.922  -5.434  0.00  0.00     0.065 H 
ENDROOT
BRANCH   6  10
ATOM     10  O   LIG d   1       3.112  -0.411  -6.285  0.00  0.00    -0.487 OA
BRANCH  10  11
ATOM     11  C   LIG d   1       2.648   0.435  -5.230  0.00  0.00     0.115 C 
ATOM     12  H   LIG d   1       2.910   1.470  -5.453  0.00  0.00     0.075 H 
ATOM     13  H   LIG d   1       1.566   0.345  -5.142  0.00  0.00     0.075 H 
BRANCH  11  14
ATOM     14  C   LIG d   1       3.294   0.022  -3.933  0.00  0.00    -0.010 A 
ATOM     15  C   LIG d   1       3.880   0.973  -3.118  0.00  0.00    -0.055 A 
ATOM     16  C   LIG d   1       4.471   0.594  -1.928  0.00  0.00    -0.061 A 
ATOM     17  H   LIG d   1       3.874   2.013  -3.411  0.00  0.00     0.062 H 
ATOM     18  C   LIG d   1       4.479  -0.736  -1.553  0.00  0.00    -0.062 A 
ATOM     19  H   LIG d   1       4.929   1.336  -1.291  0.00  0.00     0.062 H 
ATOM     20  C   LIG d   1       3.893  -1.688  -2.368  0.00  0.00    -0.061 A 
ATOM     21  H   LIG d   1       4.942  -1.033  -0.624  0.00  0.00     0.062 H 
ATOM     22  C   LIG d   1       3.296  -1.307  -3.555  0.00  0.00    -0.055 A 
ATOM     23  H   LIG d   1       3.899  -2.727  -2.075  0.00  0.00     0.062 H 
ATOM     24  H   LIG d   1       2.834  -2.050  -4.190  0.00  0.00     0.062 H 
ENDBRANCH  11  14
ENDBRANCH  10  11
ENDBRANCH   6  10
BRANCH   1  25
ATOM     25  C   LIG d   1       2.910   1.027  -8.709  0.00  0.00     0.167 C 
ATOM     26  O   LIG d   1       2.491   2.162  -8.616  0.00  0.00    -0.292 OA
BRANCH  25  27
ATOM     27  C   LIG d   1       2.101  -0.018  -9.432  0.00  0.00    -0.001 C 
ATOM     28  H   LIG d   1       1.366  -0.343  -8.836  0.00  0.00     0.031 H 
ATOM     29  H   LIG d   1       2.746  -0.854  -9.703  0.00  0.00     0.031 H 
ATOM     30  H   LIG d   1       1.670   0.416 -10.335  0.00  0.00     0.031 H 
ENDBRANCH  25  27
ENDBRANCH   1  25
BRANCH   2  31
ATOM     31  O   LIG d   1       5.362   1.730  -9.926  0.00  0.00    -0.506 OA
ATOM     32  H   LIG d   1       6.192   1.710 -10.421  0.00  0.00     0.292 HD
ENDBRANCH   2  31
TORSDOF 6
ENDMDL
MODEL 6
REMARK VINA RESULT:      -5.7      1.750      2.483
REMARK  6 active torsions:
REMARK  status: ('A' for Active; 'I' for Inactive)
REMARK    1  A    between atoms: C_1  and  C_2 
REMARK    2  A    between atoms: C_2  and  C_4 
REMARK    3  A    between atoms: C_5  and  O_18 
REMARK    4  A    between atoms: C_9  and  O_10 
REMARK    5  A    between atoms: O_10  and  C_11 
REMARK    6  A    between atoms: C_11  and  C_12 
ROOT
ATOM      1  C   LIG d   1       3.994  -1.582  -7.757  0.00  0.00     0.100 A 
ATOM      2  C   LIG d   1       3.626  -2.285  -8.918  0.00  0.00     0.131 A 
ATOM      3  C   LIG d   1       2.593  -1.812  -9.708  0.00  0.00    -0.019 A 
ATOM      4  C   LIG d   1       1.931  -0.648  -9.367  0.00  0.00    -0.055 A 
ATOM      5  C   LIG d   1       2.287   0.056  -8.231  0.00  0.00    -0.019 A 
ATOM      6  C   LIG d   1       3.314  -0.398  -7.421  0.00  0.00     0.135 A 
ATOM      7  H   LIG d   1       2.305  -2.353 -10.597  0.00  0.00     0.065 H 
ATOM      8  H   LIG d   1       1.129  -0.285  -9.992  0.00  0.00     0.062 H 
ATOM      9  H   LIG d   1       1.762   0.966  -7.975  0.00  0.00     0.065 H 
ENDROOT
BRANCH   6  10
ATOM     10  O   LIG d   1       3.660   0.293  -6.308  0.00  0.00    -0.487 OA
BRANCH  10  11
ATOM     11  C   LIG d   1       2.677   0.397  -5.275  0.00  0.00     0.115 C 
ATOM     12  H   LIG d   1       2.287   1.415  -5.246  0.00  0.00     0.075 H 
ATOM     13  H   LIG d   1       1.864  -0.299  -5.478  0.00  0.00     0.075 H 
BRANCH  11  14
ATOM     14  C   LIG d   1       3.306   0.063  -3.948  0.00  0.00    -0.010 A 
ATOM     15  C   LIG d   1       3.357  -1.250  -3.517  0.00  0.00    -0.055 A 
ATOM     16  C   LIG d   1       3.935  -1.556  -2.299  0.00  0.00    -0.061 A 
ATOM     17  H   LIG d   1       2.948  -2.037  -4.133  0.00  0.00     0.062 H 
ATOM     18  C   LIG d   1       4.460  -0.549  -1.510  0.00  0.00    -0.062 A 
ATOM     19  H   LIG d   1       3.975  -2.581  -1.962  0.00  0.00     0.062 H 
ATOM     20  C   LIG d   1       4.408   0.764  -1.941  0.00  0.00    -0.061 A 
ATOM     21  H   LIG d   1       4.910  -0.788  -0.558  0.00  0.00     0.062 H 
ATOM     22  C   LIG d   1       3.836   1.069  -3.162  0.00  0.00    -0.055 A 
ATOM     23  H   LIG d   1       4.818   1.550  -1.325  0.00  0.00     0.062 H 
ATOM     24  H   LIG d   1       3.800   2.094  -3.500  0.00  0.00     0.062 H 
ENDBRANCH  11  14
ENDBRANCH  10  11
ENDBRANCH   6  10
BRANCH   1  25
ATOM     25  C   LIG d   1       5.082  -2.074  -6.909  0.00  0.00     0.167 C 
ATOM     26  O   LIG d   1       6.195  -1.604  -7.017  0.00  0.00    -0.292 OA
BRANCH  25  27
ATOM     27  C   LIG d   1       4.818  -3.162  -5.902  0.00  0.00    -0.001 C 
ATOM     28  H   LIG d   1       5.670  -3.397  -5.433  0.00  0.00     0.031 H 
ATOM     29  H   LIG d   1       4.429  -4.043  -6.411  0.00  0.00     0.031 H 
ATOM     30  H   LIG d   1       4.087  -2.812  -5.171  0.00  0.00     0.031 H 
ENDBRANCH  25  27
ENDBRANCH   1  25
BRANCH   2  31
ATOM     31  O   LIG d   1       4.278  -3.425  -9.257  0.00  0.00    -0.506 OA
ATOM     32  H   LIG d   1       3.880  -3.899 -10.000  0.00  0.00     0.292 HD
ENDBRANCH   2  31
TORSDOF 6
ENDMDL
MODEL 7
REMARK VINA RESULT:      -5.5      1.830      5.564
REMARK  6 active torsions:
REMARK  status: ('A' for Active; 'I' for Inactive)
REMARK    1  A    between atoms: C_1  and  C_2 
REMARK    2  A    between atoms: C_2  and  C_4 
REMARK    3  A    between atoms: C_5  and  O_18 
REMARK    4  A    between atoms: C_9  and  O_10 
REMARK    5  A    between atoms: O_10  and  C_11 
REMARK    6  A    between atoms: C_11  and  C_12 
ROOT
ATOM      1  C   LIG d   1       4.677  -0.026  -4.077  0.00  0.00     0.100 A 
ATOM      2  C   LIG d   1       5.606   0.486  -3.153  0.00  0.00     0.131 A 
ATOM      3  C   LIG d   1       6.962   0.325  -3.383  0.00  0.00    -0.019 A 
ATOM      4  C   LIG d   1       7.404  -0.327  -4.519  0.00  0.00    -0.055 A 
ATOM      5  C   LIG d   1       6.501  -0.830  -5.437  0.00  0.00    -0.019 A 
ATOM      6  C   LIG d   1       5.140  -0.687  -5.228  0.00  0.00     0.135 A 
ATOM      7  H   LIG d   1       7.677   0.713  -2.673  0.00  0.00     0.065 H 
ATOM      8  H   LIG d   1       8.464  -0.443  -4.691  0.00  0.00     0.062 H 
ATOM      9  H   LIG d   1       6.859  -1.337  -6.322  0.00  0.00     0.065 H 
ENDROOT
BRANCH   6  10
ATOM     10  O   LIG d   1       4.257  -1.181  -6.130  0.00  0.00    -0.487 OA
BRANCH  10  11
ATOM     11  C   LIG d   1       4.654  -1.168  -7.503  0.00  0.00     0.115 C 
ATOM     12  H   LIG d   1       5.722  -1.379  -7.574  0.00  0.00     0.075 H 
ATOM     13  H   LIG d   1       4.097  -1.928  -8.049  0.00  0.00     0.075 H 
BRANCH  11  14
ATOM     14  C   LIG d   1       4.371   0.187  -8.096  0.00  0.00    -0.010 A 
ATOM     15  C   LIG d   1       3.083   0.688  -8.093  0.00  0.00    -0.055 A 
ATOM     16  C   LIG d   1       2.824   1.933  -8.637  0.00  0.00    -0.061 A 
ATOM     17  H   LIG d   1       2.279   0.108  -7.665  0.00  0.00     0.062 H 
ATOM     18  C   LIG d   1       3.853   2.676  -9.184  0.00  0.00    -0.062 A 
ATOM     19  H   LIG d   1       1.818   2.324  -8.635  0.00  0.00     0.062 H 
ATOM     20  C   LIG d   1       5.142   2.174  -9.187  0.00  0.00    -0.061 A 
ATOM     21  H   LIG d   1       3.650   3.647  -9.611  0.00  0.00     0.062 H 
ATOM     22  C   LIG d   1       5.401   0.933  -8.638  0.00  0.00    -0.055 A 
ATOM     23  H   LIG d   1       5.945   2.754  -9.615  0.00  0.00     0.062 H 
ATOM     24  H   LIG d   1       6.409   0.543  -8.637  0.00  0.00     0.062 H 
ENDBRANCH  11  14
ENDBRANCH  10  11
ENDBRANCH   6  10
BRANCH   1  25
ATOM     25  C   LIG d   1       3.240   0.132  -3.844  0.00  0.00     0.167 C 
ATOM     26  O   LIG d   1       2.687  -0.532  -2.992  0.00  0.00    -0.292 OA
BRANCH  25  27
ATOM     27  C   LIG d   1       2.449   1.119  -4.661  0.00  0.00    -0.001 C 
ATOM     28  H   LIG d   1       3.073   1.666  -5.220  0.00  0.00     0.031 H 
ATOM     29  H   LIG d   1       1.888   1.776  -3.995  0.00  0.00     0.031 H 
ATOM     30  H   LIG d   1       1.756   0.583  -5.310  0.00  0.00     0.031 H 
ENDBRANCH  25  27
ENDBRANCH   1  25
BRANCH   2  31
ATOM     31  O   LIG d   1       5.175   1.130  -2.041  0.00  0.00    -0.506 OA
ATOM     32  H   LIG d   1       5.645   1.954  -1.856  0.00  0.00     0.292 HD
ENDBRANCH   2  31
TORSDOF 6
ENDMDL
MODEL 8
REMARK VINA RESULT:      -5.4      2.726      5.670
REMARK  6 active torsions:
REMARK  status: ('A' for Active; 'I' for Inactive)
REMARK    1  A    between atoms: C_1  and  C_2 
REMARK    2  A    between atoms: C_2  and  C_4 
REMARK    3  A    between atoms: C_5  and  O_18 
REMARK    4  A    between atoms: C_9  and  O_10 
REMARK    5  A    between atoms: O_10  and  C_11 
REMARK    6  A    between atoms: C_11  and  C_12 
ROOT
ATOM      1  C   LIG d   1       4.218  -1.935  -4.431  0.00  0.00     0.100 A 
ATOM      2  C   LIG d   1       3.549  -1.698  -3.217  0.00  0.00     0.131 A 
ATOM      3  C   LIG d   1       2.804  -0.542  -3.058  0.00  0.00    -0.019 A 
ATOM      4  C   LIG d   1       2.709   0.374  -4.090  0.00  0.00    -0.055 A 
ATOM      5  C   LIG d   1       3.358   0.150  -5.290  0.00  0.00    -0.019 A 
ATOM      6  C   LIG d   1       4.113  -0.997  -5.473  0.00  0.00     0.135 A 
ATOM      7  H   LIG d   1       2.294  -0.355  -2.125  0.00  0.00     0.065 H 
ATOM      8  H   LIG d   1       2.122   1.271  -3.957  0.00  0.00     0.062 H 
ATOM      9  H   LIG d   1       3.275   0.872  -6.090  0.00  0.00     0.065 H 
ENDROOT
BRANCH   6  10
ATOM     10  O   LIG d   1       4.748  -1.213  -6.650  0.00  0.00    -0.487 OA
BRANCH  10  11
ATOM     11  C   LIG d   1       4.445  -0.321  -7.725  0.00  0.00     0.115 C 
ATOM     12  H   LIG d   1       4.076   0.622  -7.321  0.00  0.00     0.075 H 
ATOM     13  H   LIG d   1       5.347  -0.138  -8.310  0.00  0.00     0.075 H 
BRANCH  11  14
ATOM     14  C   LIG d   1       3.390  -0.936  -8.607  0.00  0.00    -0.010 A 
ATOM     15  C   LIG d   1       2.384  -0.148  -9.135  0.00  0.00    -0.055 A 
ATOM     16  C   LIG d   1       1.417  -0.713  -9.945  0.00  0.00    -0.061 A 
ATOM     17  H   LIG d   1       2.355   0.909  -8.916  0.00  0.00     0.062 H 
ATOM     18  C   LIG d   1       1.454  -2.066 -10.226  0.00  0.00    -0.062 A 
ATOM     19  H   LIG d   1       0.631  -0.098 -10.357  0.00  0.00     0.062 H 
ATOM     20  C   LIG d   1       2.460  -2.854  -9.698  0.00  0.00    -0.061 A 
ATOM     21  H   LIG d   1       0.697  -2.507 -10.858  0.00  0.00     0.062 H 
ATOM     22  C   LIG d   1       3.431  -2.288  -8.893  0.00  0.00    -0.055 A 
ATOM     23  H   LIG d   1       2.489  -3.910  -9.918  0.00  0.00     0.062 H 
ATOM     24  H   LIG d   1       4.220  -2.903  -8.485  0.00  0.00     0.062 H 
ENDBRANCH  11  14
ENDBRANCH  10  11
ENDBRANCH   6  10
BRANCH   1  25
ATOM     25  C   LIG d   1       5.014  -3.151  -4.611  0.00  0.00     0.167 C 
ATOM     26  O   LIG d   1       4.462  -4.209  -4.831  0.00  0.00    -0.292 OA
BRANCH  25  27
ATOM     27  C   LIG d   1       6.516  -3.088  -4.523  0.00  0.00    -0.001 C 
ATOM     28  H   LIG d   1       6.887  -2.737  -5.384  0.00  0.00     0.031 H 
ATOM     29  H   LIG d   1       6.912  -4.087  -4.338  0.00  0.00     0.031 H 
ATOM     30  H   LIG d   1       6.806  -2.426  -3.707  0.00  0.00     0.031 H 
ENDBRANCH  25  27
ENDBRANCH   1  25
BRANCH   2  31
ATOM     31  O   LIG d   1       3.637  -2.596  -2.205  0.00  0.00    -0.506 OA
ATOM     32  H   LIG d   1       3.547  -3.516  -2.487  0.00  0.00     0.292 HD
ENDBRANCH   2  31
TORSDOF 6
ENDMDL
MODEL 9
REMARK VINA RESULT:      -5.3      3.097      5.958
REMARK  6 active torsions:
REMARK  status: ('A' for Active; 'I' for Inactive)
REMARK    1  A    between atoms: C_1  and  C_2 
REMARK    2  A    between atoms: C_2  and  C_4 
REMARK    3  A    between atoms: C_5  and  O_18 
REMARK    4  A    between atoms: C_9  and  O_10 
REMARK    5  A    between atoms: O_10  and  C_11 
REMARK    6  A    between atoms: C_11  and  C_12 
ROOT
ATOM      1  C   LIG d   1       4.363  -0.042  -4.495  0.00  0.00     0.100 A 
ATOM      2  C   LIG d   1       3.190  -0.157  -3.728  0.00  0.00     0.131 A 
ATOM      3  C   LIG d   1       3.193   0.248  -2.405  0.00  0.00    -0.019 A 
ATOM      4  C   LIG d   1       4.340   0.773  -1.839  0.00  0.00    -0.055 A 
ATOM      5  C   LIG d   1       5.498   0.896  -2.583  0.00  0.00    -0.019 A 
ATOM      6  C   LIG d   1       5.523   0.494  -3.908  0.00  0.00     0.135 A 
ATOM      7  H   LIG d   1       2.295   0.157  -1.813  0.00  0.00     0.065 H 
ATOM      8  H   LIG d   1       4.331   1.090  -0.806  0.00  0.00     0.062 H 
ATOM      9  H   LIG d   1       6.388   1.309  -2.130  0.00  0.00     0.065 H 
ENDROOT
BRANCH   6  10
ATOM     10  O   LIG d   1       6.660   0.615  -4.635  0.00  0.00    -0.487 OA
BRANCH  10  11
ATOM     11  C   LIG d   1       7.759   1.288  -4.016  0.00  0.00     0.115 C 
ATOM     12  H   LIG d   1       7.393   1.888  -3.182  0.00  0.00     0.075 H 
ATOM     13  H   LIG d   1       8.474   0.552  -3.648  0.00  0.00     0.075 H 
BRANCH  11  14
ATOM     14  C   LIG d   1       8.432   2.184  -5.022  0.00  0.00    -0.010 A 
ATOM     15  C   LIG d   1       8.470   1.822  -6.355  0.00  0.00    -0.055 A 
ATOM     16  C   LIG d   1       9.087   2.646  -7.279  0.00  0.00    -0.061 A 
ATOM     17  H   LIG d   1       8.016   0.896  -6.677  0.00  0.00     0.062 H 
ATOM     18  C   LIG d   1       9.668   3.831  -6.868  0.00  0.00    -0.062 A 
ATOM     19  H   LIG d   1       9.117   2.363  -8.320  0.00  0.00     0.062 H 
ATOM     20  C   LIG d   1       9.630   4.193  -5.534  0.00  0.00    -0.061 A 
ATOM     21  H   LIG d   1      10.151   4.474  -7.589  0.00  0.00     0.062 H 
ATOM     22  C   LIG d   1       9.008   3.372  -4.612  0.00  0.00    -0.055 A 
ATOM     23  H   LIG d   1      10.084   5.119  -5.213  0.00  0.00     0.062 H 
ATOM     24  H   LIG d   1       8.975   3.658  -3.571  0.00  0.00     0.062 H 
ENDBRANCH  11  14
ENDBRANCH  10  11
ENDBRANCH   6  10
BRANCH   1  25
ATOM     25  C   LIG d   1       4.376  -0.471  -5.895  0.00  0.00     0.167 C 
ATOM     26  O   LIG d   1       3.963   0.271  -6.761  0.00  0.00    -0.292 OA
BRANCH  25  27
ATOM     27  C   LIG d   1       4.903  -1.835  -6.260  0.00  0.00    -0.001 C 
ATOM     28  H   LIG d   1       4.363  -2.210  -7.014  0.00  0.00     0.031 H 
ATOM     29  H   LIG d   1       4.830  -2.496  -5.397  0.00  0.00     0.031 H 
ATOM     30  H   LIG d   1       5.946  -1.752  -6.566  0.00  0.00     0.031 H 
ENDBRANCH  25  27
ENDBRANCH   1  25
BRANCH   2  31
ATOM     31  O   LIG d   1       2.063  -0.667  -4.283  0.00  0.00    -0.506 OA
ATOM     32  H   LIG d   1       2.056  -0.647  -5.249  0.00  0.00     0.292 HD
ENDBRANCH   2  31
TORSDOF 6
ENDMDL
MODEL 10
REMARK VINA RESULT:      -5.2      3.403      6.101
REMARK  6 active torsions:
REMARK  status: ('A' for Active; 'I' for Inactive)
REMARK    1  A    between atoms: C_1  and  C_2 
REMARK    2  A    between atoms: C_2  and  C_4 
REMARK    3  A    between atoms: C_5  and  O_18 
REMARK    4  A    between atoms: C_9  and  O_10 
REMARK    5  A    between atoms: O_10  and  C_11 
REMARK    6  A    between atoms: C_11  and  C_12 
ROOT
ATOM      1  C   LIG d   1       5.461  -1.042  -4.023  0.00  0.00     0.100 A 
ATOM      2  C   LIG d   1       4.587  -1.735  -3.167  0.00  0.00     0.131 A 
ATOM      3  C   LIG d   1       4.115  -1.117  -2.022  0.00  0.00    -0.019 A 
ATOM      4  C   LIG d   1       4.492   0.179  -1.723  0.00  0.00    -0.055 A 
ATOM      5  C   LIG d   1       5.347   0.873  -2.559  0.00  0.00    -0.019 A 
ATOM      6  C   LIG d   1       5.837   0.276  -3.708  0.00  0.00     0.135 A 
ATOM      7  H   LIG d   1       3.447  -1.648  -1.361  0.00  0.00     0.065 H 
ATOM      8  H   LIG d   1       4.116   0.654  -0.829  0.00  0.00     0.062 H 
ATOM      9  H   LIG d   1       5.635   1.886  -2.315  0.00  0.00     0.065 H 
ENDROOT
BRANCH   6  10
ATOM     10  O   LIG d   1       6.676   0.958  -4.526  0.00  0.00    -0.487 OA
BRANCH  10  11
ATOM     11  C   LIG d   1       7.731   1.696  -3.905  0.00  0.00     0.115 C 
ATOM     12  H   LIG d   1       7.311   2.370  -3.157  0.00  0.00     0.075 H 
ATOM     13  H   LIG d   1       8.422   1.005  -3.423  0.00  0.00     0.075 H 
BRANCH  11  14
ATOM     14  C   LIG d   1       8.466   2.498  -4.947  0.00  0.00    -0.010 A 
ATOM     15  C   LIG d   1       9.089   3.681  -4.598  0.00  0.00    -0.055 A 
ATOM     16  C   LIG d   1       9.763   4.417  -5.555  0.00  0.00    -0.061 A 
ATOM     17  H   LIG d   1       9.050   4.031  -3.577  0.00  0.00     0.062 H 
ATOM     18  C   LIG d   1       9.814   3.969  -6.861  0.00  0.00    -0.062 A 
ATOM     19  H   LIG d   1      10.250   5.341  -5.282  0.00  0.00     0.062 H 
ATOM     20  C   LIG d   1       9.190   2.785  -7.211  0.00  0.00    -0.061 A 
ATOM     21  H   LIG d   1      10.340   4.544  -7.609  0.00  0.00     0.062 H 
ATOM     22  C   LIG d   1       8.521   2.047  -6.253  0.00  0.00    -0.055 A 
ATOM     23  H   LIG d   1       9.230   2.435  -8.232  0.00  0.00     0.062 H 
ATOM     24  H   LIG d   1       8.038   1.120  -6.525  0.00  0.00     0.062 H 
ENDBRANCH  11  14
ENDBRANCH  10  11
ENDBRANCH   6  10
BRANCH   1  25
ATOM     25  C   LIG d   1       5.972  -1.685  -5.235  0.00  0.00     0.167 C 
ATOM     26  O   LIG d   1       6.891  -2.473  -5.162  0.00  0.00    -0.292 OA
BRANCH  25  27
ATOM     27  C   LIG d   1       5.356  -1.368  -6.573  0.00  0.00    -0.001 C 
ATOM     28  H   LIG d   1       4.784  -2.135  -6.867  0.00  0.00     0.031 H 
ATOM     29  H   LIG d   1       6.145  -1.201  -7.307  0.00  0.00     0.031 H 
ATOM     30  H   LIG d   1       4.743  -0.470  -6.488  0.00  0.00     0.031 H 
ENDBRANCH  25  27
ENDBRANCH   1  25
BRANCH   2  31
ATOM     31  O   LIG d   1       4.211  -3.004  -3.461  0.00  0.00    -0.506 OA
ATOM     32  H   LIG d   1       4.927  -3.556  -3.803  0.00  0.00     0.292 HD
ENDBRANCH   2  31
TORSDOF 6
ENDMDL
