MODEL 1
REMARK VINA RESULT:      -3.8      0.000      0.000
REMARK  5 active torsions:
REMARK  status: ('A' for Active; 'I' for Inactive)
REMARK    1  A    between atoms: C_1  and  C_2 
REMARK    2  A    between atoms: C_2  and  C_4 
REMARK    3  A    between atoms: C_2  and  N_17 
REMARK    4  A    between atoms: C_4  and  C_5 
REMARK    5  A    between atoms: C_7  and  N_17 
ROOT
ATOM      1  C   LIG d   1       2.884  -0.828  -2.861  0.00  0.00    -0.021 C 
ATOM      2  H   LIG d   1       1.906  -0.960  -2.398  0.00  0.00     0.085 H 
ENDROOT
BRANCH   1   3
ATOM      3  C   LIG d   1       3.465   0.526  -2.447  0.00  0.00    -0.021 C 
ATOM      4  H   LIG d   1       2.664   1.263  -2.389  0.00  0.00     0.028 H 
ATOM      5  H   LIG d   1       3.944   0.433  -1.473  0.00  0.00     0.028 H 
ATOM      6  H   LIG d   1       4.201   0.846  -3.184  0.00  0.00     0.028 H 
ENDBRANCH   1   3
BRANCH   1   7
ATOM      7  C   LIG d   1       3.822  -1.947  -2.402  0.00  0.00     0.030 C 
ATOM      8  H   LIG d   1       4.517  -1.557  -1.660  0.00  0.00     0.038 H 
ATOM      9  H   LIG d   1       3.236  -2.754  -1.964  0.00  0.00     0.038 H 
BRANCH   7  10
ATOM     10  C   LIG d   1       4.592  -2.472  -3.586  0.00  0.00     0.047 C 
ATOM     11  O   LIG d   1       4.288  -3.529  -4.085  0.00  0.00    -0.550 OA
ATOM     12  O   LIG d   1       5.615  -1.763  -4.088  0.00  0.00    -0.550 OA
ENDBRANCH   7  10
ENDBRANCH   1   7
BRANCH   1  13
ATOM     13  N   LIG d   1       2.751  -0.879  -4.329  0.00  0.00     0.227 N 
ATOM     14  H   LIG d   1       1.942  -1.459  -4.576  0.00  0.00     0.201 HD
ATOM     15  H   LIG d   1       3.602  -1.288  -4.731  0.00  0.00     0.201 HD
BRANCH  13  16
ATOM     16  C   LIG d   1       2.561   0.479  -4.873  0.00  0.00    -0.045 C 
ATOM     17  H   LIG d   1       3.145   1.192  -4.292  0.00  0.00     0.078 H 
ATOM     18  H   LIG d   1       1.505   0.749  -4.824  0.00  0.00     0.078 H 
ATOM     19  H   LIG d   1       2.892   0.497  -5.911  0.00  0.00     0.078 H 
ENDBRANCH  13  16
ENDBRANCH   1  13
TORSDOF 5
ENDMDL
MODEL 2
REMARK VINA RESULT:      -3.7      2.915      3.656
REMARK  5 active torsions:
REMARK  status: ('A' for Active; 'I' for Inactive)
REMARK    1  A    between atoms: C_1  and  C_2 
REMARK    2  A    between atoms: C_2  and  C_4 
REMARK    3  A    between atoms: C_2  and  N_17 
REMARK    4  A    between atoms: C_4  and  C_5 
REMARK    5  A    between atoms: C_7  and  N_17 
ROOT
ATOM      1  C   LIG d   1       4.732  -1.073  -2.287  0.00  0.00    -0.021 C 
ATOM      2  H   LIG d   1       5.230  -1.712  -1.558  0.00  0.00     0.085 H 
ENDROOT
BRANCH   1   3
ATOM      3  C   LIG d   1       3.359  -1.658  -2.625  0.00  0.00    -0.021 C 
ATOM      4  H   LIG d   1       3.227  -2.602  -2.097  0.00  0.00     0.028 H 
ATOM      5  H   LIG d   1       2.582  -0.959  -2.319  0.00  0.00     0.028 H 
ATOM      6  H   LIG d   1       3.292  -1.829  -3.699  0.00  0.00     0.028 H 
ENDBRANCH   1   3
BRANCH   1   7
ATOM      7  C   LIG d   1       4.558   0.331  -1.702  0.00  0.00     0.030 C 
ATOM      8  H   LIG d   1       3.541   0.445  -1.329  0.00  0.00     0.038 H 
ATOM      9  H   LIG d   1       5.264   0.472  -0.883  0.00  0.00     0.038 H 
BRANCH   7  10
ATOM     10  C   LIG d   1       4.821   1.357  -2.773  0.00  0.00     0.047 C 
ATOM     11  O   LIG d   1       3.898   1.841  -3.386  0.00  0.00    -0.550 OA
ATOM     12  O   LIG d   1       6.079   1.736  -3.045  0.00  0.00    -0.550 OA
ENDBRANCH   7  10
ENDBRANCH   1   7
BRANCH   1  13
ATOM     13  N   LIG d   1       5.547  -0.988  -3.514  0.00  0.00     0.227 N 
ATOM     14  H   LIG d   1       5.806  -0.009  -3.682  0.00  0.00     0.201 HD
ATOM     15  H   LIG d   1       5.001  -1.339  -4.308  0.00  0.00     0.201 HD
BRANCH  13  16
ATOM     16  C   LIG d   1       6.773  -1.797  -3.371  0.00  0.00    -0.045 C 
ATOM     17  H   LIG d   1       6.523  -2.769  -2.947  0.00  0.00     0.078 H 
ATOM     18  H   LIG d   1       7.476  -1.284  -2.715  0.00  0.00     0.078 H 
ATOM     19  H   LIG d   1       7.226  -1.935  -4.353  0.00  0.00     0.078 H 
ENDBRANCH  13  16
ENDBRANCH   1  13
TORSDOF 5
ENDMDL
MODEL 3
REMARK VINA RESULT:      -3.5      2.483      3.058
REMARK  5 active torsions:
REMARK  status: ('A' for Active; 'I' for Inactive)
REMARK    1  A    between atoms: C_1  and  C_2 
REMARK    2  A    between atoms: C_2  and  C_4 
REMARK    3  A    between atoms: C_2  and  N_17 
REMARK    4  A    between atoms: C_4  and  C_5 
REMARK    5  A    between atoms: C_7  and  N_17 
ROOT
ATOM      1  C   LIG d   1       4.129  -1.158  -3.504  0.00  0.00    -0.021 C 
ATOM      2  H   LIG d   1       4.877  -0.676  -4.133  0.00  0.00     0.085 H 
ENDROOT
BRANCH   1   3
ATOM      3  C   LIG d   1       4.337  -2.674  -3.535  0.00  0.00    -0.021 C 
ATOM      4  H   LIG d   1       3.415  -3.173  -3.235  0.00  0.00     0.028 H 
ATOM      5  H   LIG d   1       4.604  -2.983  -4.544  0.00  0.00     0.028 H 
ATOM      6  H   LIG d   1       5.138  -2.945  -2.847  0.00  0.00     0.028 H 
ENDBRANCH   1   3
BRANCH   1   7
ATOM      7  C   LIG d   1       4.270  -0.653  -2.065  0.00  0.00     0.030 C 
ATOM      8  H   LIG d   1       3.398  -0.959  -1.487  0.00  0.00     0.038 H 
ATOM      9  H   LIG d   1       5.169  -1.077  -1.619  0.00  0.00     0.038 H 
BRANCH   7  10
ATOM     10  C   LIG d   1       4.371   0.850  -2.069  0.00  0.00     0.047 C 
ATOM     11  O   LIG d   1       3.375   1.523  -1.945  0.00  0.00    -0.550 OA
ATOM     12  O   LIG d   1       5.568   1.441  -2.206  0.00  0.00    -0.550 OA
ENDBRANCH   7  10
ENDBRANCH   1   7
BRANCH   1  13
ATOM     13  N   LIG d   1       2.778  -0.836  -3.999  0.00  0.00     0.227 N 
ATOM     14  H   LIG d   1       2.241  -0.384  -3.251  0.00  0.00     0.201 HD
ATOM     15  H   LIG d   1       2.306  -1.702  -4.284  0.00  0.00     0.201 HD
BRANCH  13  16
ATOM     16  C   LIG d   1       2.861   0.075  -5.156  0.00  0.00    -0.045 C 
ATOM     17  H   LIG d   1       2.346   1.008  -4.926  0.00  0.00     0.078 H 
ATOM     18  H   LIG d   1       2.395  -0.391  -6.025  0.00  0.00     0.078 H 
ATOM     19  H   LIG d   1       3.908   0.283  -5.374  0.00  0.00     0.078 H 
ENDBRANCH  13  16
ENDBRANCH   1  13
TORSDOF 5
ENDMDL
MODEL 4
REMARK VINA RESULT:      -3.5      1.740      2.164
REMARK  5 active torsions:
REMARK  status: ('A' for Active; 'I' for Inactive)
REMARK    1  A    between atoms: C_1  and  C_2 
REMARK    2  A    between atoms: C_2  and  C_4 
REMARK    3  A    between atoms: C_2  and  N_17 
REMARK    4  A    between atoms: C_4  and  C_5 
REMARK    5  A    between atoms: C_7  and  N_17 
ROOT
ATOM      1  C   LIG d   1       3.621   0.406  -3.563  0.00  0.00    -0.021 C 
ATOM      2  H   LIG d   1       3.181   0.838  -4.462  0.00  0.00     0.085 H 
ENDROOT
BRANCH   1   3
ATOM      3  C   LIG d   1       3.568   1.431  -2.427  0.00  0.00    -0.021 C 
ATOM      4  H   LIG d   1       4.285   2.228  -2.624  0.00  0.00     0.028 H 
ATOM      5  H   LIG d   1       2.565   1.852  -2.365  0.00  0.00     0.028 H 
ATOM      6  H   LIG d   1       3.816   0.942  -1.486  0.00  0.00     0.028 H 
ENDBRANCH   1   3
BRANCH   1   7
ATOM      7  C   LIG d   1       2.835  -0.844  -3.159  0.00  0.00     0.030 C 
ATOM      8  H   LIG d   1       2.161  -0.599  -2.338  0.00  0.00     0.038 H 
ATOM      9  H   LIG d   1       2.256  -1.199  -4.011  0.00  0.00     0.038 H 
BRANCH   7  10
ATOM     10  C   LIG d   1       3.794  -1.919  -2.720  0.00  0.00     0.047 C 
ATOM     11  O   LIG d   1       3.991  -2.880  -3.426  0.00  0.00    -0.550 OA
ATOM     12  O   LIG d   1       4.433  -1.809  -1.545  0.00  0.00    -0.550 OA
ENDBRANCH   7  10
ENDBRANCH   1   7
BRANCH   1  13
ATOM     13  N   LIG d   1       5.023   0.032  -3.824  0.00  0.00     0.227 N 
ATOM     14  H   LIG d   1       5.193   0.037  -4.836  0.00  0.00     0.201 HD
ATOM     15  H   LIG d   1       5.197  -0.909  -3.452  0.00  0.00     0.201 HD
BRANCH  13  16
ATOM     16  C   LIG d   1       5.938   0.989  -3.173  0.00  0.00    -0.045 C 
ATOM     17  H   LIG d   1       6.517   0.477  -2.404  0.00  0.00     0.078 H 
ATOM     18  H   LIG d   1       5.362   1.795  -2.718  0.00  0.00     0.078 H 
ATOM     19  H   LIG d   1       6.614   1.403  -3.921  0.00  0.00     0.078 H 
ENDBRANCH  13  16
ENDBRANCH   1  13
TORSDOF 5
ENDMDL
MODEL 5
REMARK VINA RESULT:      -3.3      3.007      3.904
REMARK  5 active torsions:
REMARK  status: ('A' for Active; 'I' for Inactive)
REMARK    1  A    between atoms: C_1  and  C_2 
REMARK    2  A    between atoms: C_2  and  C_4 
REMARK    3  A    between atoms: C_2  and  N_17 
REMARK    4  A    between atoms: C_4  and  C_5 
REMARK    5  A    between atoms: C_7  and  N_17 
ROOT
ATOM      1  C   LIG d   1       5.562  -0.036  -2.614  0.00  0.00    -0.021 C 
ATOM      2  H   LIG d   1       6.368   0.123  -1.898  0.00  0.00     0.085 H 
ENDROOT
BRANCH   1   3
ATOM      3  C   LIG d   1       5.366  -1.538  -2.836  0.00  0.00    -0.021 C 
ATOM      4  H   LIG d   1       5.826  -2.089  -2.016  0.00  0.00     0.028 H 
ATOM      5  H   LIG d   1       4.300  -1.763  -2.872  0.00  0.00     0.028 H 
ATOM      6  H   LIG d   1       5.831  -1.830  -3.777  0.00  0.00     0.028 H 
ENDBRANCH   1   3
BRANCH   1   7
ATOM      7  C   LIG d   1       4.267   0.572  -2.069  0.00  0.00     0.030 C 
ATOM      8  H   LIG d   1       3.673  -0.207  -1.592  0.00  0.00     0.038 H 
ATOM      9  H   LIG d   1       4.508   1.344  -1.340  0.00  0.00     0.038 H 
BRANCH   7  10
ATOM     10  C   LIG d   1       3.483   1.179  -3.203  0.00  0.00     0.047 C 
ATOM     11  O   LIG d   1       3.547   2.367  -3.415  0.00  0.00    -0.550 OA
ATOM     12  O   LIG d   1       2.714   0.400  -3.980  0.00  0.00    -0.550 OA
ENDBRANCH   7  10
ENDBRANCH   1   7
BRANCH   1  13
ATOM     13  N   LIG d   1       5.899   0.612  -3.895  0.00  0.00     0.227 N 
ATOM     14  H   LIG d   1       5.195   1.327  -4.109  0.00  0.00     0.201 HD
ATOM     15  H   LIG d   1       5.907  -0.095  -4.640  0.00  0.00     0.201 HD
BRANCH  13  16
ATOM     16  C   LIG d   1       7.228   1.247  -3.814  0.00  0.00    -0.045 C 
ATOM     17  H   LIG d   1       7.731   0.929  -2.900  0.00  0.00     0.078 H 
ATOM     18  H   LIG d   1       7.116   2.331  -3.808  0.00  0.00     0.078 H 
ATOM     19  H   LIG d   1       7.821   0.947  -4.678  0.00  0.00     0.078 H 
ENDBRANCH  13  16
ENDBRANCH   1  13
TORSDOF 5
ENDMDL
MODEL 6
REMARK VINA RESULT:      -3.3      2.483      3.306
REMARK  5 active torsions:
REMARK  status: ('A' for Active; 'I' for Inactive)
REMARK    1  A    between atoms: C_1  and  C_2 
REMARK    2  A    between atoms: C_2  and  C_4 
REMARK    3  A    between atoms: C_2  and  N_17 
REMARK    4  A    between atoms: C_4  and  C_5 
REMARK    5  A    between atoms: C_7  and  N_17 
ROOT
ATOM      1  C   LIG d   1       3.109  -0.754  -3.182  0.00  0.00    -0.021 C 
ATOM      2  H   LIG d   1       2.055  -0.980  -3.342  0.00  0.00     0.085 H 
ENDROOT
BRANCH   1   3
ATOM      3  C   LIG d   1       3.768  -1.907  -2.420  0.00  0.00    -0.021 C 
ATOM      4  H   LIG d   1       4.278  -2.563  -3.125  0.00  0.00     0.028 H 
ATOM      5  H   LIG d   1       4.490  -1.506  -1.710  0.00  0.00     0.028 H 
ATOM      6  H   LIG d   1       3.005  -2.471  -1.884  0.00  0.00     0.028 H 
ENDBRANCH   1   3
BRANCH   1   7
ATOM      7  C   LIG d   1       3.805  -0.574  -4.534  0.00  0.00     0.030 C 
ATOM      8  H   LIG d   1       4.791  -0.138  -4.380  0.00  0.00     0.038 H 
ATOM      9  H   LIG d   1       3.908  -1.544  -5.020  0.00  0.00     0.038 H 
BRANCH   7  10
ATOM     10  C   LIG d   1       2.980   0.338  -5.404  0.00  0.00     0.047 C 
ATOM     11  O   LIG d   1       2.687   0.001  -6.527  0.00  0.00    -0.550 OA
ATOM     12  O   LIG d   1       2.569   1.525  -4.931  0.00  0.00    -0.550 OA
ENDBRANCH   7  10
ENDBRANCH   1   7
BRANCH   1  13
ATOM     13  N   LIG d   1       3.240   0.490  -2.402  0.00  0.00     0.227 N 
ATOM     14  H   LIG d   1       2.548   0.490  -1.644  0.00  0.00     0.201 HD
ATOM     15  H   LIG d   1       3.073   1.295  -3.018  0.00  0.00     0.201 HD
BRANCH  13  16
ATOM     16  C   LIG d   1       4.593   0.593  -1.825  0.00  0.00    -0.045 C 
ATOM     17  H   LIG d   1       5.106   1.458  -2.245  0.00  0.00     0.078 H 
ATOM     18  H   LIG d   1       5.159  -0.310  -2.053  0.00  0.00     0.078 H 
ATOM     19  H   LIG d   1       4.513   0.708  -0.744  0.00  0.00     0.078 H 
ENDBRANCH  13  16
ENDBRANCH   1  13
TORSDOF 5
ENDMDL
MODEL 7
REMARK VINA RESULT:      -3.2      2.331      2.725
REMARK  5 active torsions:
REMARK  status: ('A' for Active; 'I' for Inactive)
REMARK    1  A    between atoms: C_1  and  C_2 
REMARK    2  A    between atoms: C_2  and  C_4 
REMARK    3  A    between atoms: C_2  and  N_17 
REMARK    4  A    between atoms: C_4  and  C_5 
REMARK    5  A    between atoms: C_7  and  N_17 
ROOT
ATOM      1  C   LIG d   1       5.449   0.179  -3.142  0.00  0.00    -0.021 C 
ATOM      2  H   LIG d   1       5.700   1.208  -2.885  0.00  0.00     0.085 H 
ENDROOT
BRANCH   1   3
ATOM      3  C   LIG d   1       6.730  -0.654  -3.222  0.00  0.00    -0.021 C 
ATOM      4  H   LIG d   1       6.773  -1.161  -4.187  0.00  0.00     0.028 H 
ATOM      5  H   LIG d   1       7.595  -0.000  -3.117  0.00  0.00     0.028 H 
ATOM      6  H   LIG d   1       6.733  -1.393  -2.422  0.00  0.00     0.028 H 
ENDBRANCH   1   3
BRANCH   1   7
ATOM      7  C   LIG d   1       4.527  -0.405  -2.068  0.00  0.00     0.030 C 
ATOM      8  H   LIG d   1       5.117  -0.987  -1.361  0.00  0.00     0.038 H 
ATOM      9  H   LIG d   1       4.025   0.406  -1.542  0.00  0.00     0.038 H 
BRANCH   7  10
ATOM     10  C   LIG d   1       3.500  -1.294  -2.719  0.00  0.00     0.047 C 
ATOM     11  O   LIG d   1       2.410  -0.854  -3.000  0.00  0.00    -0.550 OA
ATOM     12  O   LIG d   1       3.796  -2.575  -2.989  0.00  0.00    -0.550 OA
ENDBRANCH   7  10
ENDBRANCH   1   7
BRANCH   1  13
ATOM     13  N   LIG d   1       4.756   0.146  -4.444  0.00  0.00     0.227 N 
ATOM     14  H   LIG d   1       4.492   1.100  -4.713  0.00  0.00     0.201 HD
ATOM     15  H   LIG d   1       3.912  -0.434  -4.363  0.00  0.00     0.201 HD
BRANCH  13  16
ATOM     16  C   LIG d   1       5.639  -0.424  -5.479  0.00  0.00    -0.045 C 
ATOM     17  H   LIG d   1       6.242  -1.223  -5.047  0.00  0.00     0.078 H 
ATOM     18  H   LIG d   1       6.295   0.354  -5.870  0.00  0.00     0.078 H 
ATOM     19  H   LIG d   1       5.029  -0.826  -6.288  0.00  0.00     0.078 H 
ENDBRANCH  13  16
ENDBRANCH   1  13
TORSDOF 5
ENDMDL
MODEL 8
REMARK VINA RESULT:      -3.0      2.530      3.516
REMARK  5 active torsions:
REMARK  status: ('A' for Active; 'I' for Inactive)
REMARK    1  A    between atoms: C_1  and  C_2 
REMARK    2  A    between atoms: C_2  and  C_4 
REMARK    3  A    between atoms: C_2  and  N_17 
REMARK    4  A    between atoms: C_4  and  C_5 
REMARK    5  A    between atoms: C_7  and  N_17 
ROOT
ATOM      1  C   LIG d   1       3.496  -0.446  -4.377  0.00  0.00    -0.021 C 
ATOM      2  H   LIG d   1       4.399   0.097  -4.100  0.00  0.00     0.085 H 
ENDROOT
BRANCH   1   3
ATOM      3  C   LIG d   1       2.682  -0.757  -3.119  0.00  0.00    -0.021 C 
ATOM      4  H   LIG d   1       1.933  -1.515  -3.350  0.00  0.00     0.028 H 
ATOM      5  H   LIG d   1       3.346  -1.129  -2.340  0.00  0.00     0.028 H 
ATOM      6  H   LIG d   1       2.187   0.150  -2.773  0.00  0.00     0.028 H 
ENDBRANCH   1   3
BRANCH   1   7
ATOM      7  C   LIG d   1       2.656   0.411  -5.328  0.00  0.00     0.030 C 
ATOM      8  H   LIG d   1       1.609   0.124  -5.247  0.00  0.00     0.038 H 
ATOM      9  H   LIG d   1       2.767   1.462  -5.063  0.00  0.00     0.038 H 
BRANCH   7  10
ATOM     10  C   LIG d   1       3.129   0.199  -6.743  0.00  0.00     0.047 C 
ATOM     11  O   LIG d   1       2.376  -0.261  -7.569  0.00  0.00    -0.550 OA
ATOM     12  O   LIG d   1       4.385   0.524  -7.087  0.00  0.00    -0.550 OA
ENDBRANCH   7  10
ENDBRANCH   1   7
BRANCH   1  13
ATOM     13  N   LIG d   1       3.858  -1.705  -5.054  0.00  0.00     0.227 N 
ATOM     14  H   LIG d   1       3.929  -1.539  -6.064  0.00  0.00     0.201 HD
ATOM     15  H   LIG d   1       3.133  -2.408  -4.871  0.00  0.00     0.201 HD
BRANCH  13  16
ATOM     16  C   LIG d   1       5.153  -2.202  -4.551  0.00  0.00    -0.045 C 
ATOM     17  H   LIG d   1       5.024  -3.197  -4.125  0.00  0.00     0.078 H 
ATOM     18  H   LIG d   1       5.533  -1.526  -3.784  0.00  0.00     0.078 H 
ATOM     19  H   LIG d   1       5.863  -2.249  -5.377  0.00  0.00     0.078 H 
ENDBRANCH  13  16
ENDBRANCH   1  13
TORSDOF 5
ENDMDL
MODEL 9
REMARK VINA RESULT:      -2.9      2.775      3.541
REMARK  5 active torsions:
REMARK  status: ('A' for Active; 'I' for Inactive)
REMARK    1  A    between atoms: C_1  and  C_2 
REMARK    2  A    between atoms: C_2  and  C_4 
REMARK    3  A    between atoms: C_2  and  N_17 
REMARK    4  A    between atoms: C_4  and  C_5 
REMARK    5  A    between atoms: C_7  and  N_17 
ROOT
ATOM      1  C   LIG d   1       5.604  -1.106  -4.441  0.00  0.00    -0.021 C 
ATOM      2  H   LIG d   1       6.159  -1.593  -5.242  0.00  0.00     0.085 H 
ENDROOT
BRANCH   1   3
ATOM      3  C   LIG d   1       4.687  -2.126  -3.763  0.00  0.00    -0.021 C 
ATOM      4  H   LIG d   1       3.662  -1.976  -4.105  0.00  0.00     0.028 H 
ATOM      5  H   LIG d   1       5.011  -3.133  -4.022  0.00  0.00     0.028 H 
ATOM      6  H   LIG d   1       4.733  -1.995  -2.683  0.00  0.00     0.028 H 
ENDBRANCH   1   3
BRANCH   1   7
ATOM      7  C   LIG d   1       6.585  -0.539  -3.411  0.00  0.00     0.030 C 
ATOM      8  H   LIG d   1       6.401  -1.002  -2.442  0.00  0.00     0.038 H 
ATOM      9  H   LIG d   1       7.606  -0.751  -3.728  0.00  0.00     0.038 H 
BRANCH   7  10
ATOM     10  C   LIG d   1       6.392   0.951  -3.302  0.00  0.00     0.047 C 
ATOM     11  O   LIG d   1       6.989   1.694  -4.044  0.00  0.00    -0.550 OA
ATOM     12  O   LIG d   1       5.554   1.453  -2.382  0.00  0.00    -0.550 OA
ENDBRANCH   7  10
ENDBRANCH   1   7
BRANCH   1  13
ATOM     13  N   LIG d   1       4.794  -0.005  -4.994  0.00  0.00     0.227 N 
ATOM     14  H   LIG d   1       4.932   0.041  -6.010  0.00  0.00     0.201 HD
ATOM     15  H   LIG d   1       5.090   0.881  -4.567  0.00  0.00     0.201 HD
BRANCH  13  16
ATOM     16  C   LIG d   1       3.364  -0.228  -4.707  0.00  0.00    -0.045 C 
ATOM     17  H   LIG d   1       2.992   0.565  -4.058  0.00  0.00     0.078 H 
ATOM     18  H   LIG d   1       3.235  -1.191  -4.213  0.00  0.00     0.078 H 
ATOM     19  H   LIG d   1       2.806  -0.222  -5.644  0.00  0.00     0.078 H 
ENDBRANCH  13  16
ENDBRANCH   1  13
TORSDOF 5
ENDMDL
MODEL 10
REMARK VINA RESULT:      -2.8     10.385     11.206
REMARK  5 active torsions:
REMARK  status: ('A' for Active; 'I' for Inactive)
REMARK    1  A    between atoms: C_1  and  C_2 
REMARK    2  A    between atoms: C_2  and  C_4 
REMARK    3  A    between atoms: C_2  and  N_17 
REMARK    4  A    between atoms: C_4  and  C_5 
REMARK    5  A    between atoms: C_7  and  N_17 
ROOT
ATOM      1  C   LIG d   1      11.181   6.333   0.049  0.00  0.00    -0.021 C 
ATOM      2  H   LIG d   1      12.232   6.314  -0.239  0.00  0.00     0.085 H 
ENDROOT
BRANCH   1   3
ATOM      3  C   LIG d   1      11.034   5.804   1.477  0.00  0.00    -0.021 C 
ATOM      4  H   LIG d   1      10.104   5.242   1.562  0.00  0.00     0.028 H 
ATOM      5  H   LIG d   1      11.874   5.151   1.710  0.00  0.00     0.028 H 
ATOM      6  H   LIG d   1      11.019   6.641   2.175  0.00  0.00     0.028 H 
ENDBRANCH   1   3
BRANCH   1   7
ATOM      7  C   LIG d   1      10.658   7.770  -0.019  0.00  0.00     0.030 C 
ATOM      8  H   LIG d   1      10.199   8.034   0.933  0.00  0.00     0.038 H 
ATOM      9  H   LIG d   1      11.485   8.447  -0.226  0.00  0.00     0.038 H 
BRANCH   7  10
ATOM     10  C   LIG d   1       9.634   7.879  -1.119  0.00  0.00     0.047 C 
ATOM     11  O   LIG d   1       8.457   7.791  -0.860  0.00  0.00    -0.550 OA
ATOM     12  O   LIG d   1      10.029   8.076  -2.386  0.00  0.00    -0.550 OA
ENDBRANCH   7  10
ENDBRANCH   1   7
BRANCH   1  13
ATOM     13  N   LIG d   1      10.398   5.489  -0.873  0.00  0.00     0.227 N 
ATOM     14  H   LIG d   1       9.806   6.086  -1.460  0.00  0.00     0.201 HD
ATOM     15  H   LIG d   1       9.806   4.851  -0.327  0.00  0.00     0.201 HD
BRANCH  13  16
ATOM     16  C   LIG d   1      11.298   4.699  -1.734  0.00  0.00    -0.045 C 
ATOM     17  H   LIG d   1      10.786   4.443  -2.662  0.00  0.00     0.078 H 
ATOM     18  H   LIG d   1      11.590   3.784  -1.218  0.00  0.00     0.078 H 
ATOM     19  H   LIG d   1      12.186   5.289  -1.959  0.00  0.00     0.078 H 
ENDBRANCH  13  16
ENDBRANCH   1  13
TORSDOF 5
ENDMDL
