MODEL 1
REMARK VINA RESULT:      -6.8      0.000      0.000
REMARK  0 active torsions:
REMARK  status: ('A' for Active; 'I' for Inactive)
REMARK       I    between atoms: N_7  and  C_8 
REMARK       I    between atoms: C_8  and  N_10 
ROOT
ATOM      1  C   UNK d   1       4.235  -1.258  -6.631  0.00  0.00     0.032 C 
ATOM      2  C   UNK d   1       5.114  -1.351  -5.398  0.00  0.00     0.031 C 
ATOM      3  N   UNK d   1       4.485  -0.830  -4.200  0.00  0.00    -0.286 N 
ATOM      4  C   UNK d   1       3.293  -0.005  -4.155  0.00  0.00     0.118 C 
ATOM      5  H   UNK d   1       2.560  -0.581  -3.591  0.00  0.00     0.061 H 
ATOM      6  C   UNK d   1       2.637   0.324  -5.464  0.00  0.00     0.043 C 
ATOM      7  N   UNK d   1       3.453  -0.028  -6.615  0.00  0.00    -0.282 N 
ATOM      8  C   UNK d   1       3.485   0.794  -7.682  0.00  0.00     0.305 C 
ATOM      9  O   UNK d   1       3.006   1.909  -7.605  0.00  0.00    -0.252 OA
ATOM     10  N   UNK d   1       4.049   0.380  -8.834  0.00  0.00    -0.281 N 
ATOM     11  C   UNK d   1       4.228  -1.053  -9.118  0.00  0.00     0.040 C 
ATOM     12  C   UNK d   1       3.654  -1.340 -10.515  0.00  0.00     0.064 C 
ATOM     13  O   UNK d   1       4.229  -0.430 -11.455  0.00  0.00    -0.377 OA
ATOM     14  C   UNK d   1       3.925   0.944 -11.202  0.00  0.00     0.064 C 
ATOM     15  C   UNK d   1       4.509   1.348  -9.843  0.00  0.00     0.040 C 
ATOM     16  C   UNK d   1       3.559   1.211  -3.303  0.00  0.00     0.235 C 
ATOM     17  O   UNK d   1       3.243   2.327  -3.657  0.00  0.00    -0.274 OA
ATOM     18  H   UNK d   1       3.559  -2.113  -6.655  0.00  0.00     0.048 H 
ATOM     19  H   UNK d   1       4.862  -1.273  -7.522  0.00  0.00     0.048 H 
ATOM     20  H   UNK d   1       5.373  -2.396  -5.231  0.00  0.00     0.048 H 
ATOM     21  H   UNK d   1       6.030  -0.789  -5.580  0.00  0.00     0.048 H 
ATOM     22  H   UNK d   1       2.433   1.395  -5.492  0.00  0.00     0.049 H 
ATOM     23  H   UNK d   1       1.691  -0.214  -5.526  0.00  0.00     0.049 H 
ATOM     24  H   UNK d   1       5.289  -1.301  -9.096  0.00  0.00     0.049 H 
ATOM     25  H   UNK d   1       3.696  -1.644  -8.372  0.00  0.00     0.049 H 
ATOM     26  H   UNK d   1       2.571  -1.211 -10.499  0.00  0.00     0.058 H 
ATOM     27  H   UNK d   1       3.895  -2.363 -10.804  0.00  0.00     0.058 H 
ATOM     28  H   UNK d   1       2.844   1.080 -11.189  0.00  0.00     0.058 H 
ATOM     29  H   UNK d   1       4.363   1.564 -11.984  0.00  0.00     0.058 H 
ATOM     30  H   UNK d   1       4.163   2.347  -9.578  0.00  0.00     0.049 H 
ATOM     31  H   UNK d   1       5.598   1.337  -9.893  0.00  0.00     0.049 H 
ATOM     32  N   GLY d   2       4.177   0.978  -2.108  0.00  0.00    -0.305 N 
ATOM     33  CA  GLY d   2       4.474  -0.427  -1.773  0.00  0.00     0.088 C 
ATOM     34  C   GLY d   2       5.078  -1.092  -2.993  0.00  0.00     0.233 C 
ATOM     35  O   GLY d   2       6.043  -1.822  -2.905  0.00  0.00    -0.274 OA
ATOM     36  H   GLY d   2       4.411   1.703  -1.508  0.00  0.00     0.149 HD
ATOM     37  HA1 GLY d   2       3.553  -0.940  -1.494  0.00  0.00     0.056 H 
ATOM     38  HA2 GLY d   2       5.181  -0.467  -0.946  0.00  0.00     0.056 H 
ENDROOT
TORSDOF 0
ENDMDL
MODEL 2
REMARK VINA RESULT:      -6.1      4.306      6.832
REMARK  0 active torsions:
REMARK  status: ('A' for Active; 'I' for Inactive)
REMARK       I    between atoms: N_7  and  C_8 
REMARK       I    between atoms: C_8  and  N_10 
ROOT
ATOM      1  C   UNK d   1       7.093  -2.493  -4.493  0.00  0.00     0.032 C 
ATOM      2  C   UNK d   1       7.829  -3.813  -4.351  0.00  0.00     0.031 C 
ATOM      3  N   UNK d   1       7.277  -4.872  -5.173  0.00  0.00    -0.286 N 
ATOM      4  C   UNK d   1       5.985  -4.854  -5.830  0.00  0.00     0.118 C 
ATOM      5  H   UNK d   1       6.198  -4.928  -6.896  0.00  0.00     0.061 H 
ATOM      6  C   UNK d   1       5.149  -3.619  -5.664  0.00  0.00     0.043 C 
ATOM      7  N   UNK d   1       5.661  -2.716  -4.645  0.00  0.00    -0.282 N 
ATOM      8  C   UNK d   1       4.798  -2.076  -3.831  0.00  0.00     0.305 C 
ATOM      9  O   UNK d   1       3.627  -2.402  -3.811  0.00  0.00    -0.252 OA
ATOM     10  N   UNK d   1       5.235  -1.076  -3.041  0.00  0.00    -0.281 N 
ATOM     11  C   UNK d   1       6.487  -0.364  -3.341  0.00  0.00     0.040 C 
ATOM     12  C   UNK d   1       6.199   1.145  -3.315  0.00  0.00     0.064 C 
ATOM     13  O   UNK d   1       5.558   1.480  -2.082  0.00  0.00    -0.377 OA
ATOM     14  C   UNK d   1       4.288   0.854  -1.893  0.00  0.00     0.064 C 
ATOM     15  C   UNK d   1       4.475  -0.667  -1.848  0.00  0.00     0.040 C 
ATOM     16  C   UNK d   1       5.239  -6.123  -5.501  0.00  0.00     0.235 C 
ATOM     17  O   UNK d   1       4.075  -6.115  -5.161  0.00  0.00    -0.274 OA
ATOM     18  H   UNK d   1       7.470  -1.965  -5.369  0.00  0.00     0.048 H 
ATOM     19  H   UNK d   1       7.270  -1.886  -3.605  0.00  0.00     0.048 H 
ATOM     20  H   UNK d   1       8.872  -3.663  -4.628  0.00  0.00     0.048 H 
ATOM     21  H   UNK d   1       7.787  -4.126  -3.308  0.00  0.00     0.048 H 
ATOM     22  H   UNK d   1       4.136  -3.916  -5.393  0.00  0.00     0.049 H 
ATOM     23  H   UNK d   1       5.114  -3.090  -6.617  0.00  0.00     0.049 H 
ATOM     24  H   UNK d   1       7.238  -0.610  -2.589  0.00  0.00     0.049 H 
ATOM     25  H   UNK d   1       6.847  -0.654  -4.329  0.00  0.00     0.049 H 
ATOM     26  H   UNK d   1       5.545   1.407  -4.147  0.00  0.00     0.058 H 
ATOM     27  H   UNK d   1       7.135   1.696  -3.401  0.00  0.00     0.058 H 
ATOM     28  H   UNK d   1       3.627   1.115  -2.720  0.00  0.00     0.058 H 
ATOM     29  H   UNK d   1       3.850   1.194  -0.954  0.00  0.00     0.058 H 
ATOM     30  H   UNK d   1       3.502  -1.157  -1.847  0.00  0.00     0.049 H 
ATOM     31  H   UNK d   1       5.027  -0.942  -0.949  0.00  0.00     0.049 H 
ATOM     32  N   GLY d   2       5.954  -7.281  -5.610  0.00  0.00    -0.305 N 
ATOM     33  CA  GLY d   2       7.350  -7.161  -6.071  0.00  0.00     0.088 C 
ATOM     34  C   GLY d   2       8.007  -6.023  -5.318  0.00  0.00     0.233 C 
ATOM     35  O   GLY d   2       9.127  -6.126  -4.864  0.00  0.00    -0.274 OA
ATOM     36  H   GLY d   2       5.563  -8.141  -5.393  0.00  0.00     0.149 HD
ATOM     37  HA1 GLY d   2       7.365  -6.951  -7.141  0.00  0.00     0.056 H 
ATOM     38  HA2 GLY d   2       7.884  -8.089  -5.872  0.00  0.00     0.056 H 
ENDROOT
TORSDOF 0
ENDMDL
MODEL 3
REMARK VINA RESULT:      -6.0      1.897      3.148
REMARK  0 active torsions:
REMARK  status: ('A' for Active; 'I' for Inactive)
REMARK       I    between atoms: N_7  and  C_8 
REMARK       I    between atoms: C_8  and  N_10 
ROOT
ATOM      1  C   UNK d   1       3.620   0.026  -7.021  0.00  0.00     0.032 C 
ATOM      2  C   UNK d   1       3.126   0.276  -5.609  0.00  0.00     0.031 C 
ATOM      3  N   UNK d   1       3.891  -0.425  -4.597  0.00  0.00    -0.286 N 
ATOM      4  C   UNK d   1       4.821  -1.511  -4.834  0.00  0.00     0.118 C 
ATOM      5  H   UNK d   1       5.788  -1.148  -4.487  0.00  0.00     0.061 H 
ATOM      6  C   UNK d   1       5.031  -1.936  -6.258  0.00  0.00     0.043 C 
ATOM      7  N   UNK d   1       4.062  -1.355  -7.175  0.00  0.00    -0.282 N 
ATOM      8  C   UNK d   1       3.568  -2.104  -8.181  0.00  0.00     0.305 C 
ATOM      9  O   UNK d   1       3.769  -3.303  -8.201  0.00  0.00    -0.252 OA
ATOM     10  N   UNK d   1       2.850  -1.523  -9.162  0.00  0.00    -0.281 N 
ATOM     11  C   UNK d   1       2.955  -0.079  -9.425  0.00  0.00     0.040 C 
ATOM     12  C   UNK d   1       3.213   0.118 -10.927  0.00  0.00     0.064 C 
ATOM     13  O   UNK d   1       2.220  -0.592 -11.671  0.00  0.00    -0.377 OA
ATOM     14  C   UNK d   1       2.239  -2.007 -11.471  0.00  0.00     0.064 C 
ATOM     15  C   UNK d   1       1.934  -2.314 -10.000  0.00  0.00     0.040 C 
ATOM     16  C   UNK d   1       4.494  -2.661  -3.915  0.00  0.00     0.235 C 
ATOM     17  O   UNK d   1       4.434  -3.805  -4.312  0.00  0.00    -0.274 OA
ATOM     18  H   UNK d   1       4.453   0.696  -7.234  0.00  0.00     0.048 H 
ATOM     19  H   UNK d   1       2.812   0.224  -7.725  0.00  0.00     0.048 H 
ATOM     20  H   UNK d   1       3.175   1.346  -5.406  0.00  0.00     0.048 H 
ATOM     21  H   UNK d   1       2.086  -0.044  -5.541  0.00  0.00     0.048 H 
ATOM     22  H   UNK d   1       4.958  -3.022  -6.313  0.00  0.00     0.049 H 
ATOM     23  H   UNK d   1       6.032  -1.636  -6.569  0.00  0.00     0.049 H 
ATOM     24  H   UNK d   1       2.024   0.414  -9.142  0.00  0.00     0.049 H 
ATOM     25  H   UNK d   1       3.782   0.340  -8.851  0.00  0.00     0.049 H 
ATOM     26  H   UNK d   1       4.202  -0.266 -11.182  0.00  0.00     0.058 H 
ATOM     27  H   UNK d   1       3.160   1.179 -11.169  0.00  0.00     0.058 H 
ATOM     28  H   UNK d   1       3.224  -2.398 -11.728  0.00  0.00     0.058 H 
ATOM     29  H   UNK d   1       1.484  -2.475 -12.104  0.00  0.00     0.058 H 
ATOM     30  H   UNK d   1       2.086  -3.376  -9.808  0.00  0.00     0.049 H 
ATOM     31  H   UNK d   1       0.903  -2.043  -9.774  0.00  0.00     0.049 H 
ATOM     32  N   GLY d   2       4.269  -2.335  -2.609  0.00  0.00    -0.305 N 
ATOM     33  CA  GLY d   2       4.411  -0.913  -2.242  0.00  0.00     0.088 C 
ATOM     34  C   GLY d   2       3.699  -0.077  -3.285  0.00  0.00     0.233 C 
ATOM     35  O   GLY d   2       2.990   0.857  -2.974  0.00  0.00    -0.274 OA
ATOM     36  H   GLY d   2       4.026  -3.006  -1.952  0.00  0.00     0.149 HD
ATOM     37  HA1 GLY d   2       5.468  -0.646  -2.216  0.00  0.00     0.056 H 
ATOM     38  HA2 GLY d   2       3.964  -0.739  -1.265  0.00  0.00     0.056 H 
ENDROOT
TORSDOF 0
ENDMDL
MODEL 4
REMARK VINA RESULT:      -6.0      2.790      6.160
REMARK  0 active torsions:
REMARK  status: ('A' for Active; 'I' for Inactive)
REMARK       I    between atoms: N_7  and  C_8 
REMARK       I    between atoms: C_8  and  N_10 
ROOT
ATOM      1  C   UNK d   1       4.912  -2.436  -5.932  0.00  0.00     0.032 C 
ATOM      2  C   UNK d   1       4.263  -3.722  -6.408  0.00  0.00     0.031 C 
ATOM      3  N   UNK d   1       3.899  -3.701  -7.811  0.00  0.00    -0.286 N 
ATOM      4  C   UNK d   1       3.827  -2.523  -8.653  0.00  0.00     0.118 C 
ATOM      5  H   UNK d   1       4.561  -2.682  -9.442  0.00  0.00     0.061 H 
ATOM      6  C   UNK d   1       4.180  -1.207  -8.023  0.00  0.00     0.043 C 
ATOM      7  N   UNK d   1       4.298  -1.281  -6.576  0.00  0.00    -0.282 N 
ATOM      8  C   UNK d   1       3.835  -0.267  -5.819  0.00  0.00     0.305 C 
ATOM      9  O   UNK d   1       3.145   0.600  -6.321  0.00  0.00    -0.252 OA
ATOM     10  N   UNK d   1       4.135  -0.215  -4.506  0.00  0.00    -0.281 N 
ATOM     11  C   UNK d   1       5.287  -0.950  -3.962  0.00  0.00     0.040 C 
ATOM     12  C   UNK d   1       6.127   0.027  -3.124  0.00  0.00     0.064 C 
ATOM     13  O   UNK d   1       5.280   0.675  -2.171  0.00  0.00    -0.377 OA
ATOM     14  C   UNK d   1       4.248   1.474  -2.753  0.00  0.00     0.064 C 
ATOM     15  C   UNK d   1       3.315   0.577  -3.573  0.00  0.00     0.040 C 
ATOM     16  C   UNK d   1       2.499  -2.500  -9.368  0.00  0.00     0.235 C 
ATOM     17  O   UNK d   1       1.818  -1.498  -9.428  0.00  0.00    -0.274 OA
ATOM     18  H   UNK d   1       5.975  -2.460  -6.174  0.00  0.00     0.048 H 
ATOM     19  H   UNK d   1       4.792  -2.351  -4.852  0.00  0.00     0.048 H 
ATOM     20  H   UNK d   1       4.956  -4.546  -6.239  0.00  0.00     0.048 H 
ATOM     21  H   UNK d   1       3.363  -3.898  -5.819  0.00  0.00     0.048 H 
ATOM     22  H   UNK d   1       3.408  -0.480  -8.276  0.00  0.00     0.049 H 
ATOM     23  H   UNK d   1       5.130  -0.866  -8.436  0.00  0.00     0.049 H 
ATOM     24  H   UNK d   1       4.936  -1.769  -3.335  0.00  0.00     0.049 H 
ATOM     25  H   UNK d   1       5.890  -1.345  -4.781  0.00  0.00     0.049 H 
ATOM     26  H   UNK d   1       6.579   0.774  -3.776  0.00  0.00     0.058 H 
ATOM     27  H   UNK d   1       6.909  -0.522  -2.601  0.00  0.00     0.058 H 
ATOM     28  H   UNK d   1       4.695   2.227  -3.404  0.00  0.00     0.058 H 
ATOM     29  H   UNK d   1       3.679   1.965  -1.964  0.00  0.00     0.058 H 
ATOM     30  H   UNK d   1       2.612   1.192  -4.133  0.00  0.00     0.049 H 
ATOM     31  H   UNK d   1       2.769  -0.092  -2.907  0.00  0.00     0.049 H 
ATOM     32  N   GLY d   2       2.110  -3.675  -9.942  0.00  0.00    -0.305 N 
ATOM     33  CA  GLY d   2       3.043  -4.812  -9.832  0.00  0.00     0.088 C 
ATOM     34  C   GLY d   2       3.545  -4.884  -8.405  0.00  0.00     0.233 C 
ATOM     35  O   GLY d   2       3.627  -5.940  -7.814  0.00  0.00    -0.274 OA
ATOM     36  H   GLY d   2       1.259  -3.760 -10.399  0.00  0.00     0.149 HD
ATOM     37  HA1 GLY d   2       3.885  -4.661 -10.509  0.00  0.00     0.056 H 
ATOM     38  HA2 GLY d   2       2.529  -5.737 -10.087  0.00  0.00     0.056 H 
ENDROOT
TORSDOF 0
ENDMDL
MODEL 5
REMARK VINA RESULT:      -5.8      4.083      5.445
REMARK  0 active torsions:
REMARK  status: ('A' for Active; 'I' for Inactive)
REMARK       I    between atoms: N_7  and  C_8 
REMARK       I    between atoms: C_8  and  N_10 
ROOT
ATOM      1  C   UNK d   1       7.249   0.866  -3.636  0.00  0.00     0.032 C 
ATOM      2  C   UNK d   1       5.883   1.190  -3.062  0.00  0.00     0.031 C 
ATOM      3  N   UNK d   1       4.827   0.333  -3.564  0.00  0.00    -0.286 N 
ATOM      4  C   UNK d   1       4.917  -0.539  -4.719  0.00  0.00     0.118 C 
ATOM      5  H   UNK d   1       4.762  -1.547  -4.337  0.00  0.00     0.061 H 
ATOM      6  C   UNK d   1       6.226  -0.574  -5.452  0.00  0.00     0.043 C 
ATOM      7  N   UNK d   1       7.140   0.477  -5.037  0.00  0.00    -0.282 N 
ATOM      8  C   UNK d   1       7.899   1.101  -5.961  0.00  0.00     0.305 C 
ATOM      9  O   UNK d   1       7.675   0.932  -7.144  0.00  0.00    -0.252 OA
ATOM     10  N   UNK d   1       8.903   1.911  -5.571  0.00  0.00    -0.281 N 
ATOM     11  C   UNK d   1       9.487   1.802  -4.226  0.00  0.00     0.040 C 
ATOM     12  C   UNK d   1      11.014   1.711  -4.371  0.00  0.00     0.064 C 
ATOM     13  O   UNK d   1      11.474   2.799  -5.176  0.00  0.00    -0.377 OA
ATOM     14  C   UNK d   1      10.970   2.792  -6.514  0.00  0.00     0.064 C 
ATOM     15  C   UNK d   1       9.445   2.935  -6.480  0.00  0.00     0.040 C 
ATOM     16  C   UNK d   1       3.737  -0.290  -5.626  0.00  0.00     0.235 C 
ATOM     17  O   UNK d   1       3.864  -0.157  -6.825  0.00  0.00    -0.274 OA
ATOM     18  H   UNK d   1       7.691   0.046  -3.069  0.00  0.00     0.048 H 
ATOM     19  H   UNK d   1       7.890   1.743  -3.556  0.00  0.00     0.048 H 
ATOM     20  H   UNK d   1       5.927   1.092  -1.978  0.00  0.00     0.048 H 
ATOM     21  H   UNK d   1       5.637   2.223  -3.309  0.00  0.00     0.048 H 
ATOM     22  H   UNK d   1       6.032  -0.470  -6.519  0.00  0.00     0.049 H 
ATOM     23  H   UNK d   1       6.699  -1.541  -5.276  0.00  0.00     0.049 H 
ATOM     24  H   UNK d   1       9.222   2.682  -3.639  0.00  0.00     0.049 H 
ATOM     25  H   UNK d   1       9.110   0.905  -3.733  0.00  0.00     0.049 H 
ATOM     26  H   UNK d   1      11.281   0.767  -4.848  0.00  0.00     0.058 H 
ATOM     27  H   UNK d   1      11.477   1.766  -3.386  0.00  0.00     0.058 H 
ATOM     28  H   UNK d   1      11.238   1.852  -6.998  0.00  0.00     0.058 H 
ATOM     29  H   UNK d   1      11.401   3.625  -7.070  0.00  0.00     0.058 H 
ATOM     30  H   UNK d   1       9.040   2.788  -7.481  0.00  0.00     0.049 H 
ATOM     31  H   UNK d   1       9.176   3.927  -6.116  0.00  0.00     0.049 H 
ATOM     32  N   GLY d   2       2.519  -0.223  -5.015  0.00  0.00    -0.305 N 
ATOM     33  CA  GLY d   2       2.491  -0.440  -3.557  0.00  0.00     0.088 C 
ATOM     34  C   GLY d   2       3.612   0.366  -2.932  0.00  0.00     0.233 C 
ATOM     35  O   GLY d   2       3.441   1.012  -1.919  0.00  0.00    -0.274 OA
ATOM     36  H   GLY d   2       1.709  -0.039  -5.516  0.00  0.00     0.149 HD
ATOM     37  HA1 GLY d   2       2.637  -1.499  -3.341  0.00  0.00     0.056 H 
ATOM     38  HA2 GLY d   2       1.535  -0.111  -3.153  0.00  0.00     0.056 H 
ENDROOT
TORSDOF 0
ENDMDL
MODEL 6
REMARK VINA RESULT:      -5.6     10.683     12.529
REMARK  0 active torsions:
REMARK  status: ('A' for Active; 'I' for Inactive)
REMARK       I    between atoms: N_7  and  C_8 
REMARK       I    between atoms: C_8  and  N_10 
ROOT
ATOM      1  C   UNK d   1      10.243   9.023  -3.210  0.00  0.00     0.032 C 
ATOM      2  C   UNK d   1      11.187   7.863  -3.468  0.00  0.00     0.031 C 
ATOM      3  N   UNK d   1      10.850   6.667  -2.720  0.00  0.00    -0.286 N 
ATOM      4  C   UNK d   1       9.939   6.597  -1.595  0.00  0.00     0.118 C 
ATOM      5  H   UNK d   1       9.138   5.927  -1.908  0.00  0.00     0.061 H 
ATOM      6  C   UNK d   1       9.265   7.871  -1.176  0.00  0.00     0.043 C 
ATOM      7  N   UNK d   1       9.831   9.050  -1.812  0.00  0.00    -0.282 N 
ATOM      8  C   UNK d   1       9.975  10.185  -1.098  0.00  0.00     0.305 C 
ATOM      9  O   UNK d   1       9.828  10.166   0.109  0.00  0.00    -0.252 OA
ATOM     10  N   UNK d   1      10.284  11.338  -1.723  0.00  0.00    -0.281 N 
ATOM     11  C   UNK d   1      10.036  11.510  -3.163  0.00  0.00     0.040 C 
ATOM     12  C   UNK d   1       9.265  12.824  -3.364  0.00  0.00     0.064 C 
ATOM     13  O   UNK d   1       9.966  13.884  -2.710  0.00  0.00    -0.377 OA
ATOM     14  C   UNK d   1      10.075  13.728  -1.293  0.00  0.00     0.064 C 
ATOM     15  C   UNK d   1      10.883  12.462  -0.985  0.00  0.00     0.040 C 
ATOM     16  C   UNK d   1      10.611   5.879  -0.451  0.00  0.00     0.235 C 
ATOM     17  O   UNK d   1      10.576   6.302   0.685  0.00  0.00    -0.274 OA
ATOM     18  H   UNK d   1       9.362   8.916  -3.842  0.00  0.00     0.048 H 
ATOM     19  H   UNK d   1      10.748   9.957  -3.454  0.00  0.00     0.048 H 
ATOM     20  H   UNK d   1      11.168   7.627  -4.531  0.00  0.00     0.048 H 
ATOM     21  H   UNK d   1      12.197   8.168  -3.196  0.00  0.00     0.048 H 
ATOM     22  H   UNK d   1       9.358   7.976  -0.095  0.00  0.00     0.049 H 
ATOM     23  H   UNK d   1       8.207   7.808  -1.432  0.00  0.00     0.049 H 
ATOM     24  H   UNK d   1      10.987  11.553  -3.696  0.00  0.00     0.049 H 
ATOM     25  H   UNK d   1       9.444  10.674  -3.536  0.00  0.00     0.049 H 
ATOM     26  H   UNK d   1       8.266  12.730  -2.938  0.00  0.00     0.058 H 
ATOM     27  H   UNK d   1       9.188  13.041  -4.429  0.00  0.00     0.058 H 
ATOM     28  H   UNK d   1       9.078  13.638  -0.860  0.00  0.00     0.058 H 
ATOM     29  H   UNK d   1      10.581  14.595  -0.869  0.00  0.00     0.058 H 
ATOM     30  H   UNK d   1      10.850  12.258   0.085  0.00  0.00     0.049 H 
ATOM     31  H   UNK d   1      11.916  12.600  -1.302  0.00  0.00     0.049 H 
ATOM     32  N   GLY d   2      11.262   4.723  -0.773  0.00  0.00    -0.305 N 
ATOM     33  CA  GLY d   2      11.199   4.292  -2.182  0.00  0.00     0.088 C 
ATOM     34  C   GLY d   2      11.471   5.495  -3.063  0.00  0.00     0.233 C 
ATOM     35  O   GLY d   2      12.205   5.423  -4.026  0.00  0.00    -0.274 OA
ATOM     36  H   GLY d   2      11.745   4.210  -0.106  0.00  0.00     0.149 HD
ATOM     37  HA1 GLY d   2      10.207   3.895  -2.400  0.00  0.00     0.056 H 
ATOM     38  HA2 GLY d   2      11.951   3.526  -2.367  0.00  0.00     0.056 H 
ENDROOT
TORSDOF 0
ENDMDL
MODEL 7
REMARK VINA RESULT:      -5.4      9.549     11.219
REMARK  0 active torsions:
REMARK  status: ('A' for Active; 'I' for Inactive)
REMARK       I    between atoms: N_7  and  C_8 
REMARK       I    between atoms: C_8  and  N_10 
ROOT
ATOM      1  C   UNK d   1      11.077   7.479  -4.235  0.00  0.00     0.032 C 
ATOM      2  C   UNK d   1      10.215   8.599  -4.786  0.00  0.00     0.031 C 
ATOM      3  N   UNK d   1       9.969   9.661  -3.832  0.00  0.00    -0.286 N 
ATOM      4  C   UNK d   1      10.203   9.592  -2.403  0.00  0.00     0.118 C 
ATOM      5  H   UNK d   1      10.946  10.360  -2.191  0.00  0.00     0.061 H 
ATOM      6  C   UNK d   1      10.771   8.313  -1.862  0.00  0.00     0.043 C 
ATOM      7  N   UNK d   1      10.763   7.230  -2.833  0.00  0.00    -0.282 N 
ATOM      8  C   UNK d   1      10.463   5.979  -2.430  0.00  0.00     0.305 C 
ATOM      9  O   UNK d   1      10.006   5.792  -1.319  0.00  0.00    -0.252 OA
ATOM     10  N   UNK d   1      10.669   4.938  -3.261  0.00  0.00    -0.281 N 
ATOM     11  C   UNK d   1      11.602   5.043  -4.393  0.00  0.00     0.040 C 
ATOM     12  C   UNK d   1      12.559   3.843  -4.340  0.00  0.00     0.064 C 
ATOM     13  O   UNK d   1      11.795   2.637  -4.257  0.00  0.00    -0.377 OA
ATOM     14  C   UNK d   1      10.996   2.530  -3.077  0.00  0.00     0.064 C 
ATOM     15  C   UNK d   1       9.962   3.661  -3.062  0.00  0.00     0.040 C 
ATOM     16  C   UNK d   1       8.965  10.046  -1.670  0.00  0.00     0.235 C 
ATOM     17  O   UNK d   1       8.511   9.430  -0.730  0.00  0.00    -0.274 OA
ATOM     18  H   UNK d   1      12.127   7.757  -4.324  0.00  0.00     0.048 H 
ATOM     19  H   UNK d   1      10.897   6.570  -4.809  0.00  0.00     0.048 H 
ATOM     20  H   UNK d   1      10.709   9.021  -5.661  0.00  0.00     0.048 H 
ATOM     21  H   UNK d   1       9.256   8.181  -5.095  0.00  0.00     0.048 H 
ATOM     22  H   UNK d   1      10.186   8.010  -0.994  0.00  0.00     0.049 H 
ATOM     23  H   UNK d   1      11.799   8.493  -1.545  0.00  0.00     0.049 H 
ATOM     24  H   UNK d   1      11.044   5.031  -5.330  0.00  0.00     0.049 H 
ATOM     25  H   UNK d   1      12.169   5.971  -4.316  0.00  0.00     0.049 H 
ATOM     26  H   UNK d   1      13.203   3.926  -3.463  0.00  0.00     0.058 H 
ATOM     27  H   UNK d   1      13.171   3.825  -5.241  0.00  0.00     0.058 H 
ATOM     28  H   UNK d   1      11.635   2.608  -2.197  0.00  0.00     0.058 H 
ATOM     29  H   UNK d   1      10.483   1.568  -3.071  0.00  0.00     0.058 H 
ATOM     30  H   UNK d   1       9.444   3.673  -2.104  0.00  0.00     0.049 H 
ATOM     31  H   UNK d   1       9.242   3.512  -3.868  0.00  0.00     0.049 H 
ATOM     32  N   GLY d   2       8.386  11.194  -2.132  0.00  0.00    -0.305 N 
ATOM     33  CA  GLY d   2       9.056  11.872  -3.257  0.00  0.00     0.088 C 
ATOM     34  C   GLY d   2       9.424  10.831  -4.294  0.00  0.00     0.233 C 
ATOM     35  O   GLY d   2       9.243  11.023  -5.478  0.00  0.00    -0.274 OA
ATOM     36  H   GLY d   2       7.572  11.545  -1.738  0.00  0.00     0.149 HD
ATOM     37  HA1 GLY d   2       9.958  12.370  -2.899  0.00  0.00     0.056 H 
ATOM     38  HA2 GLY d   2       8.382  12.606  -3.697  0.00  0.00     0.056 H 
ENDROOT
TORSDOF 0
ENDMDL
MODEL 8
REMARK VINA RESULT:      -5.3      1.865      6.644
REMARK  0 active torsions:
REMARK  status: ('A' for Active; 'I' for Inactive)
REMARK       I    between atoms: N_7  and  C_8 
REMARK       I    between atoms: C_8  and  N_10 
ROOT
ATOM      1  C   UNK d   1       3.497  -0.061  -6.970  0.00  0.00     0.032 C 
ATOM      2  C   UNK d   1       3.681   0.710  -8.263  0.00  0.00     0.031 C 
ATOM      3  N   UNK d   1       4.420  -0.022  -9.272  0.00  0.00    -0.286 N 
ATOM      4  C   UNK d   1       5.208  -1.218  -9.049  0.00  0.00     0.118 C 
ATOM      5  H   UNK d   1       4.742  -1.993  -9.657  0.00  0.00     0.061 H 
ATOM      6  C   UNK d   1       5.247  -1.762  -7.651  0.00  0.00     0.043 C 
ATOM      7  N   UNK d   1       4.686  -0.849  -6.668  0.00  0.00    -0.282 N 
ATOM      8  C   UNK d   1       5.272  -0.732  -5.460  0.00  0.00     0.305 C 
ATOM      9  O   UNK d   1       6.368  -1.223  -5.266  0.00  0.00    -0.252 OA
ATOM     10  N   UNK d   1       4.644  -0.069  -4.468  0.00  0.00    -0.281 N 
ATOM     11  C   UNK d   1       3.189   0.143  -4.501  0.00  0.00     0.040 C 
ATOM     12  C   UNK d   1       2.608  -0.308  -3.152  0.00  0.00     0.064 C 
ATOM     13  O   UNK d   1       3.320   0.339  -2.095  0.00  0.00    -0.377 OA
ATOM     14  C   UNK d   1       4.708   0.006  -2.034  0.00  0.00     0.064 C 
ATOM     15  C   UNK d   1       5.397   0.469  -3.322  0.00  0.00     0.040 C 
ATOM     16  C   UNK d   1       6.579  -1.034  -9.651  0.00  0.00     0.235 C 
ATOM     17  O   UNK d   1       7.591  -1.325  -9.049  0.00  0.00    -0.274 OA
ATOM     18  H   UNK d   1       2.640  -0.727  -7.068  0.00  0.00     0.048 H 
ATOM     19  H   UNK d   1       3.315   0.640  -6.156  0.00  0.00     0.048 H 
ATOM     20  H   UNK d   1       2.698   0.961  -8.663  0.00  0.00     0.048 H 
ATOM     21  H   UNK d   1       4.215   1.635  -8.045  0.00  0.00     0.048 H 
ATOM     22  H   UNK d   1       6.283  -1.970  -7.385  0.00  0.00     0.049 H 
ATOM     23  H   UNK d   1       4.685  -2.696  -7.624  0.00  0.00     0.049 H 
ATOM     24  H   UNK d   1       2.976   1.200  -4.661  0.00  0.00     0.049 H 
ATOM     25  H   UNK d   1       2.750  -0.447  -5.307  0.00  0.00     0.049 H 
ATOM     26  H   UNK d   1       2.712  -1.389  -3.052  0.00  0.00     0.058 H 
ATOM     27  H   UNK d   1       1.554  -0.037  -3.101  0.00  0.00     0.058 H 
ATOM     28  H   UNK d   1       4.819  -1.074  -1.929  0.00  0.00     0.058 H 
ATOM     29  H   UNK d   1       5.165   0.504  -1.178  0.00  0.00     0.058 H 
ATOM     30  H   UNK d   1       6.419   0.095  -3.347  0.00  0.00     0.049 H 
ATOM     31  H   UNK d   1       5.401   1.558  -3.366  0.00  0.00     0.049 H 
ATOM     32  N   GLY d   2       6.611  -0.519 -10.915  0.00  0.00    -0.305 N 
ATOM     33  CA  GLY d   2       5.312  -0.242 -11.555  0.00  0.00     0.088 C 
ATOM     34  C   GLY d   2       4.425   0.468 -10.552  0.00  0.00     0.233 C 
ATOM     35  O   GLY d   2       3.753   1.428 -10.867  0.00  0.00    -0.274 OA
ATOM     36  H   GLY d   2       7.449  -0.341 -11.369  0.00  0.00     0.149 HD
ATOM     37  HA1 GLY d   2       4.845  -1.180 -11.857  0.00  0.00     0.056 H 
ATOM     38  HA2 GLY d   2       5.459   0.393 -12.428  0.00  0.00     0.056 H 
ENDROOT
TORSDOF 0
ENDMDL
MODEL 9
REMARK VINA RESULT:      -5.2     11.188     12.967
REMARK  0 active torsions:
REMARK  status: ('A' for Active; 'I' for Inactive)
REMARK       I    between atoms: N_7  and  C_8 
REMARK       I    between atoms: C_8  and  N_10 
ROOT
ATOM      1  C   UNK d   1      11.217  10.187  -0.762  0.00  0.00     0.032 C 
ATOM      2  C   UNK d   1      10.944   9.132   0.294  0.00  0.00     0.031 C 
ATOM      3  N   UNK d   1      11.270   7.787  -0.137  0.00  0.00    -0.286 N 
ATOM      4  C   UNK d   1      11.521   7.368  -1.502  0.00  0.00     0.118 C 
ATOM      5  H   UNK d   1      12.545   6.997  -1.511  0.00  0.00     0.061 H 
ATOM      6  C   UNK d   1      11.459   8.425  -2.566  0.00  0.00     0.043 C 
ATOM      7  N   UNK d   1      10.898   9.680  -2.091  0.00  0.00    -0.282 N 
ATOM      8  C   UNK d   1      10.074  10.384  -2.892  0.00  0.00     0.305 C 
ATOM      9  O   UNK d   1       9.642   9.882  -3.911  0.00  0.00    -0.252 OA
ATOM     10  N   UNK d   1       9.729  11.644  -2.561  0.00  0.00    -0.281 N 
ATOM     11  C   UNK d   1      10.543  12.431  -1.622  0.00  0.00     0.040 C 
ATOM     12  C   UNK d   1      10.836  13.795  -2.267  0.00  0.00     0.064 C 
ATOM     13  O   UNK d   1       9.606  14.387  -2.691  0.00  0.00    -0.377 OA
ATOM     14  C   UNK d   1       8.912  13.641  -3.693  0.00  0.00     0.064 C 
ATOM     15  C   UNK d   1       8.523  12.272  -3.126  0.00  0.00     0.040 C 
ATOM     16  C   UNK d   1      10.675   6.159  -1.818  0.00  0.00     0.235 C 
ATOM     17  O   UNK d   1      10.038   6.071  -2.846  0.00  0.00    -0.274 OA
ATOM     18  H   UNK d   1      12.270  10.467  -0.726  0.00  0.00     0.048 H 
ATOM     19  H   UNK d   1      10.606  11.066  -0.557  0.00  0.00     0.048 H 
ATOM     20  H   UNK d   1      11.531   9.367   1.182  0.00  0.00     0.048 H 
ATOM     21  H   UNK d   1       9.887   9.165   0.556  0.00  0.00     0.048 H 
ATOM     22  H   UNK d   1      10.847   8.056  -3.389  0.00  0.00     0.049 H 
ATOM     23  H   UNK d   1      12.468   8.608  -2.936  0.00  0.00     0.049 H 
ATOM     24  H   UNK d   1       9.995  12.573  -0.690  0.00  0.00     0.049 H 
ATOM     25  H   UNK d   1      11.480  11.910  -1.421  0.00  0.00     0.049 H 
ATOM     26  H   UNK d   1      11.491  13.659  -3.129  0.00  0.00     0.058 H 
ATOM     27  H   UNK d   1      11.322  14.445  -1.540  0.00  0.00     0.058 H 
ATOM     28  H   UNK d   1       9.560  13.506  -4.560  0.00  0.00     0.058 H 
ATOM     29  H   UNK d   1       8.013  14.180  -3.991  0.00  0.00     0.058 H 
ATOM     30  H   UNK d   1       8.121  11.645  -3.921  0.00  0.00     0.049 H 
ATOM     31  H   UNK d   1       7.774  12.398  -2.343  0.00  0.00     0.049 H 
ATOM     32  N   GLY d   2      10.671   5.172  -0.876  0.00  0.00    -0.305 N 
ATOM     33  CA  GLY d   2      11.518   5.381   0.313  0.00  0.00     0.088 C 
ATOM     34  C   GLY d   2      11.306   6.796   0.810  0.00  0.00     0.233 C 
ATOM     35  O   GLY d   2      11.172   7.041   1.990  0.00  0.00    -0.274 OA
ATOM     36  H   GLY d   2      10.135   4.371  -0.982  0.00  0.00     0.149 HD
ATOM     37  HA1 GLY d   2      12.566   5.239   0.046  0.00  0.00     0.056 H 
ATOM     38  HA2 GLY d   2      11.240   4.673   1.093  0.00  0.00     0.056 H 
ENDROOT
TORSDOF 0
ENDMDL
MODEL 10
REMARK VINA RESULT:      -5.2      3.294      5.732
REMARK  0 active torsions:
REMARK  status: ('A' for Active; 'I' for Inactive)
REMARK       I    between atoms: N_7  and  C_8 
REMARK       I    between atoms: C_8  and  N_10 
ROOT
ATOM      1  C   UNK d   1       6.896  -0.480  -5.736  0.00  0.00     0.032 C 
ATOM      2  C   UNK d   1       5.487  -0.479  -6.300  0.00  0.00     0.031 C 
ATOM      3  N   UNK d   1       4.467  -0.218  -5.304  0.00  0.00    -0.286 N 
ATOM      4  C   UNK d   1       4.650  -0.264  -3.867  0.00  0.00     0.118 C 
ATOM      5  H   UNK d   1       4.435   0.743  -3.512  0.00  0.00     0.061 H 
ATOM      6  C   UNK d   1       6.024  -0.592  -3.360  0.00  0.00     0.043 C 
ATOM      7  N   UNK d   1       6.917  -1.070  -4.403  0.00  0.00    -0.282 N 
ATOM      8  C   UNK d   1       7.777  -2.072  -4.134  0.00  0.00     0.305 C 
ATOM      9  O   UNK d   1       7.668  -2.705  -3.102  0.00  0.00    -0.252 OA
ATOM     10  N   UNK d   1       8.757  -2.372  -5.010  0.00  0.00    -0.281 N 
ATOM     11  C   UNK d   1       9.202  -1.394  -6.014  0.00  0.00     0.040 C 
ATOM     12  C   UNK d   1      10.733  -1.292  -5.938  0.00  0.00     0.064 C 
ATOM     13  O   UNK d   1      11.296  -2.603  -6.036  0.00  0.00    -0.377 OA
ATOM     14  C   UNK d   1      10.927  -3.480  -4.970  0.00  0.00     0.064 C 
ATOM     15  C   UNK d   1       9.409  -3.692  -4.992  0.00  0.00     0.040 C 
ATOM     16  C   UNK d   1       3.572  -1.123  -3.253  0.00  0.00     0.235 C 
ATOM     17  O   UNK d   1       3.819  -1.970  -2.421  0.00  0.00    -0.274 OA
ATOM     18  H   UNK d   1       7.260   0.546  -5.681  0.00  0.00     0.048 H 
ATOM     19  H   UNK d   1       7.546  -1.056  -6.394  0.00  0.00     0.048 H 
ATOM     20  H   UNK d   1       5.422   0.283  -7.076  0.00  0.00     0.048 H 
ATOM     21  H   UNK d   1       5.291  -1.453  -6.750  0.00  0.00     0.048 H 
ATOM     22  H   UNK d   1       5.939  -1.361  -2.592  0.00  0.00     0.049 H 
ATOM     23  H   UNK d   1       6.454   0.304  -2.912  0.00  0.00     0.049 H 
ATOM     24  H   UNK d   1       8.901  -1.726  -7.008  0.00  0.00     0.049 H 
ATOM     25  H   UNK d   1       8.757  -0.421  -5.801  0.00  0.00     0.049 H 
ATOM     26  H   UNK d   1      11.024  -0.842  -4.988  0.00  0.00     0.058 H 
ATOM     27  H   UNK d   1      11.098  -0.677  -6.760  0.00  0.00     0.058 H 
ATOM     28  H   UNK d   1      11.219  -3.037  -4.017  0.00  0.00     0.058 H 
ATOM     29  H   UNK d   1      11.430  -4.438  -5.096  0.00  0.00     0.058 H 
ATOM     30  H   UNK d   1       9.102  -4.242  -4.103  0.00  0.00     0.049 H 
ATOM     31  H   UNK d   1       9.129  -4.251  -5.885  0.00  0.00     0.049 H 
ATOM     32  N   GLY d   2       2.300  -0.888  -3.692  0.00  0.00    -0.305 N 
ATOM     33  CA  GLY d   2       2.124   0.196  -4.676  0.00  0.00     0.088 C 
ATOM     34  C   GLY d   2       3.196   0.057  -5.738  0.00  0.00     0.233 C 
ATOM     35  O   GLY d   2       2.941   0.182  -6.917  0.00  0.00    -0.274 OA
ATOM     36  H   GLY d   2       1.548  -1.410  -3.372  0.00  0.00     0.149 HD
ATOM     37  HA1 GLY d   2       2.223   1.162  -4.179  0.00  0.00     0.056 H 
ATOM     38  HA2 GLY d   2       1.140   0.118  -5.137  0.00  0.00     0.056 H 
ENDROOT
TORSDOF 0
ENDMDL
