MODEL 1
REMARK VINA RESULT:      -7.5      0.000      0.000
REMARK  5 active torsions:
REMARK  status: ('A' for Active; 'I' for Inactive)
REMARK    1  A    between atoms: C_1  and  C_19 
REMARK    2  A    between atoms: C_4  and  N_6 
REMARK       I    between atoms: N_6  and  C_7 
REMARK    3  A    between atoms: C_7  and  C_9 
REMARK    4  A    between atoms: C_9  and  C_10 
REMARK    5  A    between atoms: C_9  and  C_14 
ROOT
ATOM      1  N   LIG d   1       4.604  -0.145  -5.691  0.00  0.00    -0.262 N 
ATOM      2  C   LIG d   1       3.857  -0.115  -4.570  0.00  0.00     0.253 C 
ATOM      3  O   LIG d   1       2.650  -0.023  -4.646  0.00  0.00    -0.273 OA
ATOM      4  H   LIG d   1       5.568  -0.218  -5.629  0.00  0.00     0.157 HD
ENDROOT
BRANCH   2   5
ATOM      5  C   LIG d   1       4.521  -0.194  -3.220  0.00  0.00     0.289 C 
ATOM      6 BR   LIG d   1       6.474  -0.176  -3.449  0.00  0.00    -0.056 Br
BRANCH   5   7
ATOM      7  C   LIG d   1       4.096   1.005  -2.370  0.00  0.00     0.422 C 
ATOM      8  F   LIG d   1       4.882   1.057  -1.214  0.00  0.00    -0.168 F 
ATOM      9  F   LIG d   1       4.271   2.183  -3.105  0.00  0.00    -0.168 F 
ATOM     10  F   LIG d   1       2.751   0.872  -2.014  0.00  0.00    -0.168 F 
ENDBRANCH   5   7
BRANCH   5  11
ATOM     11  C   LIG d   1       4.103  -1.490  -2.521  0.00  0.00     0.422 C 
ATOM     12  F   LIG d   1       2.708  -1.587  -2.513  0.00  0.00    -0.168 F 
ATOM     13  F   LIG d   1       4.643  -2.584  -3.204  0.00  0.00    -0.168 F 
ATOM     14  F   LIG d   1       4.578  -1.482  -1.204  0.00  0.00    -0.168 F 
ENDBRANCH   5  11
ENDBRANCH   2   5
BRANCH   1  15
ATOM     15  C   LIG d   1       3.989  -0.072  -6.937  0.00  0.00     0.188 A 
ATOM     16  N   LIG d   1       3.545   0.987  -7.584  0.00  0.00    -0.125 NA
ATOM     17  N   LIG d   1       3.004   0.895  -8.722  0.00  0.00    -0.136 NA
ATOM     18  C   LIG d   1       2.879  -0.293  -9.279  0.00  0.00     0.206 A 
ATOM     19  S   LIG d   1       3.619  -1.315  -8.014  0.00  0.00    -0.027 SA
BRANCH  18  20
ATOM     20  C   LIG d   1       2.277  -0.680 -10.606  0.00  0.00     0.443 C 
ATOM     21  F   LIG d   1       2.838   0.104 -11.620  0.00  0.00    -0.164 F 
ATOM     22  F   LIG d   1       2.539  -2.030 -10.861  0.00  0.00    -0.164 F 
ATOM     23  F   LIG d   1       0.894  -0.472 -10.568  0.00  0.00    -0.164 F 
ENDBRANCH  18  20
ENDBRANCH   1  15
TORSDOF 5
ENDMDL
MODEL 2
REMARK VINA RESULT:      -7.4      1.169      1.753
REMARK  5 active torsions:
REMARK  status: ('A' for Active; 'I' for Inactive)
REMARK    1  A    between atoms: C_1  and  C_19 
REMARK    2  A    between atoms: C_4  and  N_6 
REMARK       I    between atoms: N_6  and  C_7 
REMARK    3  A    between atoms: C_7  and  C_9 
REMARK    4  A    between atoms: C_9  and  C_10 
REMARK    5  A    between atoms: C_9  and  C_14 
ROOT
ATOM      1  N   LIG d   1       3.524  -0.349  -5.441  0.00  0.00    -0.262 N 
ATOM      2  C   LIG d   1       4.722  -0.184  -4.847  0.00  0.00     0.253 C 
ATOM      3  O   LIG d   1       5.674   0.197  -5.494  0.00  0.00    -0.273 OA
ATOM      4  H   LIG d   1       2.764  -0.654  -4.923  0.00  0.00     0.157 HD
ENDROOT
BRANCH   2   5
ATOM      5  C   LIG d   1       4.880  -0.474  -3.376  0.00  0.00     0.289 C 
ATOM      6 BR   LIG d   1       6.637  -1.296  -3.055  0.00  0.00    -0.056 Br
BRANCH   5   7
ATOM      7  C   LIG d   1       4.775   0.831  -2.585  0.00  0.00     0.422 C 
ATOM      8  F   LIG d   1       5.972   1.545  -2.706  0.00  0.00    -0.168 F 
ATOM      9  F   LIG d   1       3.720   1.600  -3.089  0.00  0.00    -0.168 F 
ATOM     10  F   LIG d   1       4.540   0.542  -1.237  0.00  0.00    -0.168 F 
ENDBRANCH   5   7
BRANCH   5  11
ATOM     11  C   LIG d   1       3.778  -1.435  -2.925  0.00  0.00     0.422 C 
ATOM     12  F   LIG d   1       4.111  -1.974  -1.678  0.00  0.00    -0.168 F 
ATOM     13  F   LIG d   1       2.567  -0.743  -2.825  0.00  0.00    -0.168 F 
ATOM     14  F   LIG d   1       3.649  -2.468  -3.861  0.00  0.00    -0.168 F 
ENDBRANCH   5  11
ENDBRANCH   2   5
BRANCH   1  15
ATOM     15  C   LIG d   1       3.379  -0.082  -6.799  0.00  0.00     0.188 A 
ATOM     16  N   LIG d   1       3.011   1.038  -7.391  0.00  0.00    -0.125 NA
ATOM     17  N   LIG d   1       2.925   1.130  -8.648  0.00  0.00    -0.136 NA
ATOM     18  C   LIG d   1       3.211   0.079  -9.390  0.00  0.00     0.206 A 
ATOM     19  S   LIG d   1       3.630  -1.103  -8.116  0.00  0.00    -0.027 SA
BRANCH  18  20
ATOM     20  C   LIG d   1       3.186  -0.083 -10.888  0.00  0.00     0.443 C 
ATOM     21  F   LIG d   1       1.869  -0.282 -11.314  0.00  0.00    -0.164 F 
ATOM     22  F   LIG d   1       3.703   1.070 -11.491  0.00  0.00    -0.164 F 
ATOM     23  F   LIG d   1       3.966  -1.187 -11.250  0.00  0.00    -0.164 F 
ENDBRANCH  18  20
ENDBRANCH   1  15
TORSDOF 5
ENDMDL
MODEL 3
REMARK VINA RESULT:      -7.4      1.802      2.958
REMARK  5 active torsions:
REMARK  status: ('A' for Active; 'I' for Inactive)
REMARK    1  A    between atoms: C_1  and  C_19 
REMARK    2  A    between atoms: C_4  and  N_6 
REMARK       I    between atoms: N_6  and  C_7 
REMARK    3  A    between atoms: C_7  and  C_9 
REMARK    4  A    between atoms: C_9  and  C_10 
REMARK    5  A    between atoms: C_9  and  C_14 
ROOT
ATOM      1  N   LIG d   1       3.452  -0.508  -5.664  0.00  0.00    -0.262 N 
ATOM      2  C   LIG d   1       4.468  -0.181  -4.842  0.00  0.00     0.253 C 
ATOM      3  O   LIG d   1       5.531   0.179  -5.303  0.00  0.00    -0.273 OA
ATOM      4  H   LIG d   1       2.603  -0.795  -5.295  0.00  0.00     0.157 HD
ENDROOT
BRANCH   2   5
ATOM      5  C   LIG d   1       4.285  -0.261  -3.348  0.00  0.00     0.289 C 
ATOM      6 BR   LIG d   1       2.416  -0.719  -2.942  0.00  0.00    -0.056 Br
BRANCH   5   7
ATOM      7  C   LIG d   1       5.209  -1.338  -2.777  0.00  0.00     0.422 C 
ATOM      8  F   LIG d   1       4.744  -1.730  -1.517  0.00  0.00    -0.168 F 
ATOM      9  F   LIG d   1       5.221  -2.445  -3.634  0.00  0.00    -0.168 F 
ATOM     10  F   LIG d   1       6.505  -0.826  -2.658  0.00  0.00    -0.168 F 
ENDBRANCH   5   7
BRANCH   5  11
ATOM     11  C   LIG d   1       4.625   1.091  -2.719  0.00  0.00     0.422 C 
ATOM     12  F   LIG d   1       3.711   2.054  -3.157  0.00  0.00    -0.168 F 
ATOM     13  F   LIG d   1       4.561   0.986  -1.325  0.00  0.00    -0.168 F 
ATOM     14  F   LIG d   1       5.919   1.469  -3.099  0.00  0.00    -0.168 F 
ENDBRANCH   5  11
ENDBRANCH   2   5
BRANCH   1  15
ATOM     15  C   LIG d   1       3.622  -0.433  -7.043  0.00  0.00     0.188 A 
ATOM     16  N   LIG d   1       4.069  -1.352  -7.876  0.00  0.00    -0.125 NA
ATOM     17  N   LIG d   1       4.169  -1.135  -9.117  0.00  0.00    -0.136 NA
ATOM     18  C   LIG d   1       3.816   0.043  -9.593  0.00  0.00     0.206 A 
ATOM     19  S   LIG d   1       3.311   0.856  -8.084  0.00  0.00    -0.027 SA
BRANCH  18  20
ATOM     20  C   LIG d   1       3.839   0.559 -11.008  0.00  0.00     0.443 C 
ATOM     21  F   LIG d   1       2.810  -0.042 -11.741  0.00  0.00    -0.164 F 
ATOM     22  F   LIG d   1       3.658   1.947 -11.002  0.00  0.00    -0.164 F 
ATOM     23  F   LIG d   1       5.071   0.253 -11.597  0.00  0.00    -0.164 F 
ENDBRANCH  18  20
ENDBRANCH   1  15
TORSDOF 5
ENDMDL
MODEL 4
REMARK VINA RESULT:      -6.9      1.647      2.628
REMARK  5 active torsions:
REMARK  status: ('A' for Active; 'I' for Inactive)
REMARK    1  A    between atoms: C_1  and  C_19 
REMARK    2  A    between atoms: C_4  and  N_6 
REMARK       I    between atoms: N_6  and  C_7 
REMARK    3  A    between atoms: C_7  and  C_9 
REMARK    4  A    between atoms: C_9  and  C_10 
REMARK    5  A    between atoms: C_9  and  C_14 
ROOT
ATOM      1  N   LIG d   1       3.703   0.415  -5.729  0.00  0.00    -0.262 N 
ATOM      2  C   LIG d   1       4.205  -0.591  -4.986  0.00  0.00     0.253 C 
ATOM      3  O   LIG d   1       4.413  -1.674  -5.490  0.00  0.00    -0.273 OA
ATOM      4  H   LIG d   1       3.537   1.280  -5.324  0.00  0.00     0.157 HD
ENDROOT
BRANCH   2   5
ATOM      5  C   LIG d   1       4.508  -0.371  -3.526  0.00  0.00     0.289 C 
ATOM      6 BR   LIG d   1       3.687   1.315  -2.933  0.00  0.00    -0.056 Br
BRANCH   5   7
ATOM      7  C   LIG d   1       3.940  -1.530  -2.705  0.00  0.00     0.422 C 
ATOM      8  F   LIG d   1       4.407  -2.742  -3.227  0.00  0.00    -0.168 F 
ATOM      9  F   LIG d   1       4.353  -1.407  -1.374  0.00  0.00    -0.168 F 
ATOM     10  F   LIG d   1       2.543  -1.504  -2.765  0.00  0.00    -0.168 F 
ENDBRANCH   5   7
BRANCH   5  11
ATOM     11  C   LIG d   1       6.023  -0.297  -3.325  0.00  0.00     0.422 C 
ATOM     12  F   LIG d   1       6.639   0.039  -4.535  0.00  0.00    -0.168 F 
ATOM     13  F   LIG d   1       6.320   0.676  -2.365  0.00  0.00    -0.168 F 
ATOM     14  F   LIG d   1       6.496  -1.540  -2.889  0.00  0.00    -0.168 F 
ENDBRANCH   5  11
ENDBRANCH   2   5
BRANCH   1  15
ATOM     15  C   LIG d   1       3.424   0.211  -7.076  0.00  0.00     0.188 A 
ATOM     16  N   LIG d   1       2.312  -0.220  -7.639  0.00  0.00    -0.125 NA
ATOM     17  N   LIG d   1       2.207  -0.356  -8.890  0.00  0.00    -0.136 NA
ATOM     18  C   LIG d   1       3.238  -0.058  -9.657  0.00  0.00     0.206 A 
ATOM     19  S   LIG d   1       4.419   0.451  -8.416  0.00  0.00    -0.027 SA
BRANCH  18  20
ATOM     20  C   LIG d   1       3.381  -0.132 -11.155  0.00  0.00     0.443 C 
ATOM     21  F   LIG d   1       2.137  -0.412 -11.730  0.00  0.00    -0.164 F 
ATOM     22  F   LIG d   1       3.854   1.093 -11.640  0.00  0.00    -0.164 F 
ATOM     23  F   LIG d   1       4.287  -1.145 -11.487  0.00  0.00    -0.164 F 
ENDBRANCH  18  20
ENDBRANCH   1  15
TORSDOF 5
ENDMDL
MODEL 5
REMARK VINA RESULT:      -6.4      1.249      2.431
REMARK  5 active torsions:
REMARK  status: ('A' for Active; 'I' for Inactive)
REMARK    1  A    between atoms: C_1  and  C_19 
REMARK    2  A    between atoms: C_4  and  N_6 
REMARK       I    between atoms: N_6  and  C_7 
REMARK    3  A    between atoms: C_7  and  C_9 
REMARK    4  A    between atoms: C_9  and  C_10 
REMARK    5  A    between atoms: C_9  and  C_14 
ROOT
ATOM      1  N   LIG d   1       4.495  -0.032  -5.820  0.00  0.00    -0.262 N 
ATOM      2  C   LIG d   1       3.801  -0.146  -4.670  0.00  0.00     0.253 C 
ATOM      3  O   LIG d   1       2.591  -0.214  -4.694  0.00  0.00    -0.273 OA
ATOM      4  H   LIG d   1       5.462   0.022  -5.799  0.00  0.00     0.157 HD
ENDROOT
BRANCH   2   5
ATOM      5  C   LIG d   1       4.531  -0.189  -3.352  0.00  0.00     0.289 C 
ATOM      6 BR   LIG d   1       4.094  -1.862  -2.416  0.00  0.00    -0.056 Br
BRANCH   5   7
ATOM      7  C   LIG d   1       6.039  -0.122  -3.600  0.00  0.00     0.422 C 
ATOM      8  F   LIG d   1       6.426   1.213  -3.758  0.00  0.00    -0.168 F 
ATOM      9  F   LIG d   1       6.716  -0.678  -2.509  0.00  0.00    -0.168 F 
ATOM     10  F   LIG d   1       6.354  -0.839  -4.759  0.00  0.00    -0.168 F 
ENDBRANCH   5   7
BRANCH   5  11
ATOM     11  C   LIG d   1       4.101   1.002  -2.492  0.00  0.00     0.422 C 
ATOM     12  F   LIG d   1       4.980   1.139  -1.413  0.00  0.00    -0.168 F 
ATOM     13  F   LIG d   1       4.126   2.167  -3.264  0.00  0.00    -0.168 F 
ATOM     14  F   LIG d   1       2.803   0.786  -2.014  0.00  0.00    -0.168 F 
ENDBRANCH   5  11
ENDBRANCH   2   5
BRANCH   1  15
ATOM     15  C   LIG d   1       3.821   0.007  -7.036  0.00  0.00     0.188 A 
ATOM     16  N   LIG d   1       3.261   1.035  -7.644  0.00  0.00    -0.125 NA
ATOM     17  N   LIG d   1       2.679   0.914  -8.759  0.00  0.00    -0.136 NA
ATOM     18  C   LIG d   1       2.628  -0.272  -9.331  0.00  0.00     0.206 A 
ATOM     19  S   LIG d   1       3.506  -1.247  -8.118  0.00  0.00    -0.027 SA
BRANCH  18  20
ATOM     20  C   LIG d   1       2.001  -0.689 -10.636  0.00  0.00     0.443 C 
ATOM     21  F   LIG d   1       0.647  -0.336 -10.638  0.00  0.00    -0.164 F 
ATOM     22  F   LIG d   1       2.652  -0.045 -11.694  0.00  0.00    -0.164 F 
ATOM     23  F   LIG d   1       2.121  -2.075 -10.790  0.00  0.00    -0.164 F 
ENDBRANCH  18  20
ENDBRANCH   1  15
TORSDOF 5
ENDMDL
MODEL 6
REMARK VINA RESULT:      -6.2      2.433      7.315
REMARK  5 active torsions:
REMARK  status: ('A' for Active; 'I' for Inactive)
REMARK    1  A    between atoms: C_1  and  C_19 
REMARK    2  A    between atoms: C_4  and  N_6 
REMARK       I    between atoms: N_6  and  C_7 
REMARK    3  A    between atoms: C_7  and  C_9 
REMARK    4  A    between atoms: C_9  and  C_10 
REMARK    5  A    between atoms: C_9  and  C_14 
ROOT
ATOM      1  N   LIG d   1       3.428   0.200  -7.392  0.00  0.00    -0.262 N 
ATOM      2  C   LIG d   1       3.570  -0.754  -8.333  0.00  0.00     0.253 C 
ATOM      3  O   LIG d   1       3.745  -1.909  -8.006  0.00  0.00    -0.273 OA
ATOM      4  H   LIG d   1       3.289   1.123  -7.654  0.00  0.00     0.157 HD
ENDROOT
BRANCH   2   5
ATOM      5  C   LIG d   1       3.513  -0.386  -9.793  0.00  0.00     0.289 C 
ATOM      6 BR   LIG d   1       5.014  -1.232 -10.741  0.00  0.00    -0.056 Br
BRANCH   5   7
ATOM      7  C   LIG d   1       2.193  -0.873 -10.392  0.00  0.00     0.422 C 
ATOM      8  F   LIG d   1       1.144  -0.566  -9.518  0.00  0.00    -0.168 F 
ATOM      9  F   LIG d   1       1.975  -0.240 -11.621  0.00  0.00    -0.168 F 
ATOM     10  F   LIG d   1       2.249  -2.257 -10.584  0.00  0.00    -0.168 F 
ENDBRANCH   5   7
BRANCH   5  11
ATOM     11  C   LIG d   1       3.611   1.134  -9.941  0.00  0.00     0.422 C 
ATOM     12  F   LIG d   1       3.793   1.461 -11.288  0.00  0.00    -0.168 F 
ATOM     13  F   LIG d   1       2.433   1.725  -9.472  0.00  0.00    -0.168 F 
ATOM     14  F   LIG d   1       4.698   1.605  -9.195  0.00  0.00    -0.168 F 
ENDBRANCH   5  11
ENDBRANCH   2   5
BRANCH   1  15
ATOM     15  C   LIG d   1       3.481  -0.141  -6.044  0.00  0.00     0.188 A 
ATOM     16  N   LIG d   1       2.608   0.111  -5.088  0.00  0.00    -0.125 NA
ATOM     17  N   LIG d   1       2.796  -0.267  -3.897  0.00  0.00    -0.136 NA
ATOM     18  C   LIG d   1       3.895  -0.932  -3.601  0.00  0.00     0.206 A 
ATOM     19  S   LIG d   1       4.677  -0.984  -5.207  0.00  0.00    -0.027 SA
BRANCH  18  20
ATOM     20  C   LIG d   1       4.362  -1.487  -2.280  0.00  0.00     0.443 C 
ATOM     21  F   LIG d   1       3.554  -2.569  -1.916  0.00  0.00    -0.164 F 
ATOM     22  F   LIG d   1       5.690  -1.914  -2.396  0.00  0.00    -0.164 F 
ATOM     23  F   LIG d   1       4.277  -0.491  -1.300  0.00  0.00    -0.164 F 
ENDBRANCH  18  20
ENDBRANCH   1  15
TORSDOF 5
ENDMDL
MODEL 7
REMARK VINA RESULT:      -5.9      2.970      7.114
REMARK  5 active torsions:
REMARK  status: ('A' for Active; 'I' for Inactive)
REMARK    1  A    between atoms: C_1  and  C_19 
REMARK    2  A    between atoms: C_4  and  N_6 
REMARK       I    between atoms: N_6  and  C_7 
REMARK    3  A    between atoms: C_7  and  C_9 
REMARK    4  A    between atoms: C_9  and  C_10 
REMARK    5  A    between atoms: C_9  and  C_14 
ROOT
ATOM      1  N   LIG d   1       4.742  -0.280  -7.623  0.00  0.00    -0.262 N 
ATOM      2  C   LIG d   1       3.800  -0.491  -8.563  0.00  0.00     0.253 C 
ATOM      3  O   LIG d   1       2.803  -1.125  -8.293  0.00  0.00    -0.273 OA
ATOM      4  H   LIG d   1       5.539   0.226  -7.840  0.00  0.00     0.157 HD
ENDROOT
BRANCH   2   5
ATOM      5  C   LIG d   1       3.987   0.061  -9.953  0.00  0.00     0.289 C 
ATOM      6 BR   LIG d   1       2.620  -0.695 -11.148  0.00  0.00    -0.056 Br
BRANCH   5   7
ATOM      7  C   LIG d   1       3.849   1.584  -9.921  0.00  0.00     0.422 C 
ATOM      8  F   LIG d   1       4.999   2.144  -9.355  0.00  0.00    -0.168 F 
ATOM      9  F   LIG d   1       3.689   2.066 -11.225  0.00  0.00    -0.168 F 
ATOM     10  F   LIG d   1       2.734   1.936  -9.154  0.00  0.00    -0.168 F 
ENDBRANCH   5   7
BRANCH   5  11
ATOM     11  C   LIG d   1       5.377  -0.315 -10.469  0.00  0.00     0.422 C 
ATOM     12  F   LIG d   1       5.592  -1.684 -10.278  0.00  0.00    -0.168 F 
ATOM     13  F   LIG d   1       5.466  -0.015 -11.833  0.00  0.00    -0.168 F 
ATOM     14  F   LIG d   1       6.346   0.412  -9.768  0.00  0.00    -0.168 F 
ENDBRANCH   5  11
ENDBRANCH   2   5
BRANCH   1  15
ATOM     15  C   LIG d   1       4.569  -0.790  -6.340  0.00  0.00     0.188 A 
ATOM     16  N   LIG d   1       5.052  -1.898  -5.813  0.00  0.00    -0.125 NA
ATOM     17  N   LIG d   1       4.805  -2.232  -4.620  0.00  0.00    -0.136 NA
ATOM     18  C   LIG d   1       4.043  -1.452  -3.880  0.00  0.00     0.206 A 
ATOM     19  S   LIG d   1       3.686  -0.152  -5.053  0.00  0.00    -0.027 SA
BRANCH  18  20
ATOM     20  C   LIG d   1       3.594  -1.614  -2.451  0.00  0.00     0.443 C 
ATOM     21  F   LIG d   1       4.471  -0.927  -1.605  0.00  0.00    -0.164 F 
ATOM     22  F   LIG d   1       2.303  -1.096  -2.305  0.00  0.00    -0.164 F 
ATOM     23  F   LIG d   1       3.591  -2.973  -2.114  0.00  0.00    -0.164 F 
ENDBRANCH  18  20
ENDBRANCH   1  15
TORSDOF 5
ENDMDL
MODEL 8
REMARK VINA RESULT:      -5.9      2.261      7.443
REMARK  5 active torsions:
REMARK  status: ('A' for Active; 'I' for Inactive)
REMARK    1  A    between atoms: C_1  and  C_19 
REMARK    2  A    between atoms: C_4  and  N_6 
REMARK       I    between atoms: N_6  and  C_7 
REMARK    3  A    between atoms: C_7  and  C_9 
REMARK    4  A    between atoms: C_9  and  C_10 
REMARK    5  A    between atoms: C_9  and  C_14 
ROOT
ATOM      1  N   LIG d   1       4.171  -0.885  -7.596  0.00  0.00    -0.262 N 
ATOM      2  C   LIG d   1       3.115  -0.861  -8.433  0.00  0.00     0.253 C 
ATOM      3  O   LIG d   1       2.056  -0.400  -8.062  0.00  0.00    -0.273 OA
ATOM      4  H   LIG d   1       5.016  -1.254  -7.893  0.00  0.00     0.157 HD
ENDROOT
BRANCH   2   5
ATOM      5  C   LIG d   1       3.249  -1.406  -9.831  0.00  0.00     0.289 C 
ATOM      6 BR   LIG d   1       5.154  -1.582 -10.286  0.00  0.00    -0.056 Br
BRANCH   5   7
ATOM      7  C   LIG d   1       2.577  -2.778  -9.910  0.00  0.00     0.422 C 
ATOM      8  F   LIG d   1       2.935  -3.537  -8.790  0.00  0.00    -0.168 F 
ATOM      9  F   LIG d   1       1.188  -2.617  -9.940  0.00  0.00    -0.168 F 
ATOM     10  F   LIG d   1       2.996  -3.437 -11.071  0.00  0.00    -0.168 F 
ENDBRANCH   5   7
BRANCH   5  11
ATOM     11  C   LIG d   1       2.576  -0.450 -10.818  0.00  0.00     0.422 C 
ATOM     12  F   LIG d   1       2.749  -0.928 -12.121  0.00  0.00    -0.168 F 
ATOM     13  F   LIG d   1       1.211  -0.366 -10.529  0.00  0.00    -0.168 F 
ATOM     14  F   LIG d   1       3.156   0.819 -10.706  0.00  0.00    -0.168 F 
ENDBRANCH   5  11
ENDBRANCH   2   5
BRANCH   1  15
ATOM     15  C   LIG d   1       4.046  -0.382  -6.305  0.00  0.00     0.188 A 
ATOM     16  N   LIG d   1       3.284   0.601  -5.866  0.00  0.00    -0.125 NA
ATOM     17  N   LIG d   1       3.278   0.949  -4.652  0.00  0.00    -0.136 NA
ATOM     18  C   LIG d   1       4.055   0.313  -3.798  0.00  0.00     0.206 A 
ATOM     19  S   LIG d   1       4.829  -0.868  -4.894  0.00  0.00    -0.027 SA
BRANCH  18  20
ATOM     20  C   LIG d   1       4.242   0.525  -2.318  0.00  0.00     0.443 C 
ATOM     21  F   LIG d   1       5.545   0.968  -2.070  0.00  0.00    -0.164 F 
ATOM     22  F   LIG d   1       3.329   1.483  -1.864  0.00  0.00    -0.164 F 
ATOM     23  F   LIG d   1       4.024  -0.682  -1.643  0.00  0.00    -0.164 F 
ENDBRANCH  18  20
ENDBRANCH   1  15
TORSDOF 5
ENDMDL
MODEL 9
REMARK VINA RESULT:      -5.9      4.451      6.212
REMARK  5 active torsions:
REMARK  status: ('A' for Active; 'I' for Inactive)
REMARK    1  A    between atoms: C_1  and  C_19 
REMARK    2  A    between atoms: C_4  and  N_6 
REMARK       I    between atoms: N_6  and  C_7 
REMARK    3  A    between atoms: C_7  and  C_9 
REMARK    4  A    between atoms: C_9  and  C_10 
REMARK    5  A    between atoms: C_9  and  C_14 
ROOT
ATOM      1  N   LIG d   1       6.667   0.285  -3.614  0.00  0.00    -0.262 N 
ATOM      2  C   LIG d   1       5.523   0.112  -4.305  0.00  0.00     0.253 C 
ATOM      3  O   LIG d   1       5.529   0.179  -5.515  0.00  0.00    -0.273 OA
ATOM      4  H   LIG d   1       6.661   0.232  -2.646  0.00  0.00     0.157 HD
ENDROOT
BRANCH   2   5
ATOM      5  C   LIG d   1       4.235  -0.164  -3.573  0.00  0.00     0.289 C 
ATOM      6 BR   LIG d   1       2.712   0.268  -4.740  0.00  0.00    -0.056 Br
BRANCH   5   7
ATOM      7  C   LIG d   1       4.175  -1.642  -3.183  0.00  0.00     0.422 C 
ATOM      8  F   LIG d   1       5.353  -1.995  -2.517  0.00  0.00    -0.168 F 
ATOM      9  F   LIG d   1       3.080  -1.858  -2.339  0.00  0.00    -0.168 F 
ATOM     10  F   LIG d   1       4.038  -2.423  -4.334  0.00  0.00    -0.168 F 
ENDBRANCH   5   7
BRANCH   5  11
ATOM     11  C   LIG d   1       4.169   0.701  -2.312  0.00  0.00     0.422 C 
ATOM     12  F   LIG d   1       4.648  -0.030  -1.220  0.00  0.00    -0.168 F 
ATOM     13  F   LIG d   1       4.955   1.844  -2.488  0.00  0.00    -0.168 F 
ATOM     14  F   LIG d   1       2.842   1.079  -2.076  0.00  0.00    -0.168 F 
ENDBRANCH   5  11
ENDBRANCH   2   5
BRANCH   1  15
ATOM     15  C   LIG d   1       7.855   0.539  -4.290  0.00  0.00     0.188 A 
ATOM     16  N   LIG d   1       8.700  -0.313  -4.836  0.00  0.00    -0.125 NA
ATOM     17  N   LIG d   1       9.750   0.072  -5.424  0.00  0.00    -0.136 NA
ATOM     18  C   LIG d   1      10.009   1.363  -5.494  0.00  0.00     0.206 A 
ATOM     19  S   LIG d   1       8.591   2.018  -4.626  0.00  0.00    -0.027 SA
BRANCH  18  20
ATOM     20  C   LIG d   1      11.175   2.081  -6.123  0.00  0.00     0.443 C 
ATOM     21  F   LIG d   1      10.760   2.696  -7.309  0.00  0.00    -0.164 F 
ATOM     22  F   LIG d   1      11.658   3.052  -5.239  0.00  0.00    -0.164 F 
ATOM     23  F   LIG d   1      12.192   1.162  -6.406  0.00  0.00    -0.164 F 
ENDBRANCH  18  20
ENDBRANCH   1  15
TORSDOF 5
ENDMDL
