MODEL 1
REMARK VINA RESULT:      -5.0      0.000      0.000
REMARK  4 active torsions:
REMARK  status: ('A' for Active; 'I' for Inactive)
REMARK    1  A    between atoms: C_1  and  C_2 
REMARK    2  A    between atoms: C_2  and  C_15 
REMARK    3  A    between atoms: CA_3  and  C_13 
REMARK    4  A    between atoms: CA_9  and  N_24 
ROOT
ATOM      1  C   LIG d   1       4.598  -0.864  -2.919  0.00  0.00     0.037 C 
ATOM      2  CA  LIG d   1       4.143  -0.593  -4.380  0.00  0.00     0.081 C 
ATOM      3  HA  LIG d   1       3.940  -1.545  -4.872  0.00  0.00     0.058 H 
ATOM      4  N   LIG d   1       5.165   0.130  -5.143  0.00  0.00    -0.270 NA
ATOM      5  C   LIG d   1       6.564  -0.062  -4.689  0.00  0.00     0.125 C 
ATOM      6  H   LIG d   1       7.146   0.840  -4.505  0.00  0.00     0.068 H 
ATOM      7  S   LIG d   1       6.390  -1.184  -3.243  0.00  0.00    -0.124 SA
ATOM      8  CA  LIG d   1       6.843  -0.784  -6.009  0.00  0.00     0.082 C 
ATOM      9  HA  LIG d   1       7.631  -0.319  -6.604  0.00  0.00     0.098 H 
ATOM     10  C   LIG d   1       5.445  -0.367  -6.418  0.00  0.00     0.268 C 
ATOM     11  O   LIG d   1       4.817  -0.427  -7.454  0.00  0.00    -0.269 OA
ENDROOT
BRANCH   1  12
ATOM     12  C   LIG d   1       3.903  -2.094  -2.333  0.00  0.00    -0.049 C 
ATOM     13  H   LIG d   1       2.839  -2.057  -2.568  0.00  0.00     0.024 H 
ATOM     14  H   LIG d   1       4.035  -2.106  -1.251  0.00  0.00     0.024 H 
ATOM     15  H   LIG d   1       4.339  -2.997  -2.762  0.00  0.00     0.024 H 
ENDBRANCH   1  12
BRANCH   1  16
ATOM     16  C   LIG d   1       4.398   0.365  -2.029  0.00  0.00    -0.049 C 
ATOM     17  H   LIG d   1       5.368   0.777  -1.755  0.00  0.00     0.024 H 
ATOM     18  H   LIG d   1       3.824   1.117  -2.573  0.00  0.00     0.024 H 
ATOM     19  H   LIG d   1       3.857   0.076  -1.128  0.00  0.00     0.024 H 
ENDBRANCH   1  16
BRANCH   2  20
ATOM     20  C   LIG d   1       2.877   0.224  -4.358  0.00  0.00     0.064 C 
ATOM     21  O   LIG d   1       1.821  -0.304  -4.104  0.00  0.00    -0.548 OA
ATOM     22  OXT LIG d   1       2.923   1.540  -4.621  0.00  0.00    -0.548 OA
ENDBRANCH   2  20
BRANCH   8  23
ATOM     23  N   LIG d   1       6.987  -2.242  -5.858  0.00  0.00     0.229 N 
ATOM     24  H1  LIG d   1       7.762  -2.454  -5.233  0.00  0.00     0.200 HD
ATOM     25  H2  LIG d   1       6.128  -2.640  -5.482  0.00  0.00     0.200 HD
ATOM     26  H3  LIG d   1       7.175  -2.659  -6.778  0.00  0.00     0.200 HD
ENDBRANCH   8  23
TORSDOF 4
ENDMDL
MODEL 2
REMARK VINA RESULT:      -4.8      2.369      2.925
REMARK  4 active torsions:
REMARK  status: ('A' for Active; 'I' for Inactive)
REMARK    1  A    between atoms: C_1  and  C_2 
REMARK    2  A    between atoms: C_2  and  C_15 
REMARK    3  A    between atoms: CA_3  and  C_13 
REMARK    4  A    between atoms: CA_9  and  N_24 
ROOT
ATOM      1  C   LIG d   1       3.693  -0.357  -4.227  0.00  0.00     0.037 C 
ATOM      2  CA  LIG d   1       4.690   0.636  -3.567  0.00  0.00     0.081 C 
ATOM      3  HA  LIG d   1       4.721   1.553  -4.157  0.00  0.00     0.058 H 
ATOM      4  N   LIG d   1       6.042   0.074  -3.485  0.00  0.00    -0.270 NA
ATOM      5  C   LIG d   1       6.379  -0.946  -4.506  0.00  0.00     0.125 C 
ATOM      6  H   LIG d   1       6.785  -1.889  -4.140  0.00  0.00     0.068 H 
ATOM      7  S   LIG d   1       4.830  -1.094  -5.485  0.00  0.00    -0.124 SA
ATOM      8  CA  LIG d   1       7.393   0.040  -5.089  0.00  0.00     0.082 C 
ATOM      9  HA  LIG d   1       8.416  -0.339  -5.100  0.00  0.00     0.098 H 
ATOM     10  C   LIG d   1       7.080   0.915  -3.893  0.00  0.00     0.268 C 
ATOM     11  O   LIG d   1       7.556   1.940  -3.451  0.00  0.00    -0.269 OA
ENDROOT
BRANCH   1  12
ATOM     12  C   LIG d   1       2.523   0.376  -4.886  0.00  0.00    -0.049 C 
ATOM     13  H   LIG d   1       2.662   0.383  -5.967  0.00  0.00     0.024 H 
ATOM     14  H   LIG d   1       2.483   1.402  -4.519  0.00  0.00     0.024 H 
ATOM     15  H   LIG d   1       1.591  -0.134  -4.643  0.00  0.00     0.024 H 
ENDBRANCH   1  12
BRANCH   1  16
ATOM     16  C   LIG d   1       3.201  -1.408  -3.229  0.00  0.00    -0.049 C 
ATOM     17  H   LIG d   1       4.007  -1.663  -2.542  0.00  0.00     0.024 H 
ATOM     18  H   LIG d   1       2.358  -1.006  -2.666  0.00  0.00     0.024 H 
ATOM     19  H   LIG d   1       2.886  -2.301  -3.768  0.00  0.00     0.024 H 
ENDBRANCH   1  16
BRANCH   2  20
ATOM     20  C   LIG d   1       4.210   0.964  -2.177  0.00  0.00     0.064 C 
ATOM     21  O   LIG d   1       4.806   0.541  -1.216  0.00  0.00    -0.548 OA
ATOM     22  OXT LIG d   1       3.118   1.728  -2.007  0.00  0.00    -0.548 OA
ENDBRANCH   2  20
BRANCH   8  23
ATOM     23  N   LIG d   1       6.962   0.636  -6.365  0.00  0.00     0.229 N 
ATOM     24  H1  LIG d   1       6.210   0.083  -6.773  0.00  0.00     0.200 HD
ATOM     25  H2  LIG d   1       6.639   1.590  -6.214  0.00  0.00     0.200 HD
ATOM     26  H3  LIG d   1       7.757   0.650  -7.016  0.00  0.00     0.200 HD
ENDBRANCH   8  23
TORSDOF 4
ENDMDL
MODEL 3
REMARK VINA RESULT:      -4.7      1.790      2.198
REMARK  4 active torsions:
REMARK  status: ('A' for Active; 'I' for Inactive)
REMARK    1  A    between atoms: C_1  and  C_2 
REMARK    2  A    between atoms: C_2  and  C_15 
REMARK    3  A    between atoms: CA_3  and  C_13 
REMARK    4  A    between atoms: CA_9  and  N_24 
ROOT
ATOM      1  C   LIG d   1       4.857  -1.538  -3.543  0.00  0.00     0.037 C 
ATOM      2  CA  LIG d   1       4.062  -0.385  -4.216  0.00  0.00     0.081 C 
ATOM      3  HA  LIG d   1       3.053  -0.733  -4.442  0.00  0.00     0.058 H 
ATOM      4  N   LIG d   1       4.702   0.064  -5.456  0.00  0.00    -0.270 NA
ATOM      5  C   LIG d   1       5.529  -0.946  -6.157  0.00  0.00     0.125 C 
ATOM      6  H   LIG d   1       6.545  -0.651  -6.419  0.00  0.00     0.068 H 
ATOM      7  S   LIG d   1       5.405  -2.424  -5.070  0.00  0.00    -0.124 SA
ATOM      8  CA  LIG d   1       4.509  -0.922  -7.297  0.00  0.00     0.082 C 
ATOM      9  HA  LIG d   1       4.934  -0.640  -8.261  0.00  0.00     0.098 H 
ATOM     10  C   LIG d   1       3.858   0.228  -6.557  0.00  0.00     0.268 C 
ATOM     11  O   LIG d   1       2.963   1.003  -6.823  0.00  0.00    -0.269 OA
ENDROOT
BRANCH   1  12
ATOM     12  C   LIG d   1       3.949  -2.416  -2.679  0.00  0.00    -0.049 C 
ATOM     13  H   LIG d   1       4.059  -2.132  -1.632  0.00  0.00     0.024 H 
ATOM     14  H   LIG d   1       4.230  -3.462  -2.802  0.00  0.00     0.024 H 
ATOM     15  H   LIG d   1       2.912  -2.280  -2.985  0.00  0.00     0.024 H 
ENDBRANCH   1  12
BRANCH   1  16
ATOM     16  C   LIG d   1       6.047  -1.009  -2.740  0.00  0.00    -0.049 C 
ATOM     17  H   LIG d   1       5.693  -0.584  -1.801  0.00  0.00     0.024 H 
ATOM     18  H   LIG d   1       6.737  -1.827  -2.532  0.00  0.00     0.024 H 
ATOM     19  H   LIG d   1       6.560  -0.239  -3.317  0.00  0.00     0.024 H 
ENDBRANCH   1  16
BRANCH   2  20
ATOM     20  C   LIG d   1       3.974   0.776  -3.260  0.00  0.00     0.064 C 
ATOM     21  O   LIG d   1       4.691   1.737  -3.409  0.00  0.00    -0.548 OA
ATOM     22  OXT LIG d   1       3.100   0.743  -2.241  0.00  0.00    -0.548 OA
ENDBRANCH   2  20
BRANCH   8  23
ATOM     23  N   LIG d   1       3.661  -2.126  -7.347  0.00  0.00     0.229 N 
ATOM     24  H1  LIG d   1       3.525  -2.497  -6.408  0.00  0.00     0.200 HD
ATOM     25  H2  LIG d   1       2.757  -1.900  -7.757  0.00  0.00     0.200 HD
ATOM     26  H3  LIG d   1       4.122  -2.840  -7.925  0.00  0.00     0.200 HD
ENDBRANCH   8  23
TORSDOF 4
ENDMDL
MODEL 4
REMARK VINA RESULT:      -4.6      2.066      3.984
REMARK  4 active torsions:
REMARK  status: ('A' for Active; 'I' for Inactive)
REMARK    1  A    between atoms: C_1  and  C_2 
REMARK    2  A    between atoms: C_2  and  C_15 
REMARK    3  A    between atoms: CA_3  and  C_13 
REMARK    4  A    between atoms: CA_9  and  N_24 
ROOT
ATOM      1  C   LIG d   1       6.365  -0.864  -4.350  0.00  0.00     0.037 C 
ATOM      2  CA  LIG d   1       4.852  -1.217  -4.358  0.00  0.00     0.081 C 
ATOM      3  HA  LIG d   1       4.351  -0.620  -5.121  0.00  0.00     0.058 H 
ATOM      4  N   LIG d   1       4.225  -0.956  -3.059  0.00  0.00    -0.270 NA
ATOM      5  C   LIG d   1       4.868   0.094  -2.233  0.00  0.00     0.125 C 
ATOM      6  H   LIG d   1       5.117  -0.174  -1.207  0.00  0.00     0.068 H 
ATOM      7  S   LIG d   1       6.293   0.631  -3.264  0.00  0.00    -0.124 SA
ATOM      8  CA  LIG d   1       3.609   0.943  -2.418  0.00  0.00     0.082 C 
ATOM      9  HA  LIG d   1       3.120   1.212  -1.481  0.00  0.00     0.098 H 
ATOM     10  C   LIG d   1       3.007  -0.273  -3.092  0.00  0.00     0.268 C 
ATOM     11  O   LIG d   1       1.896  -0.552  -3.491  0.00  0.00    -0.269 OA
ENDROOT
BRANCH   1  12
ATOM     12  C   LIG d   1       6.869  -0.516  -5.752  0.00  0.00    -0.049 C 
ATOM     13  H   LIG d   1       6.462   0.448  -6.056  0.00  0.00     0.024 H 
ATOM     14  H   LIG d   1       6.545  -1.284  -6.456  0.00  0.00     0.024 H 
ATOM     15  H   LIG d   1       7.957  -0.466  -5.745  0.00  0.00     0.024 H 
ENDBRANCH   1  12
BRANCH   1  16
ATOM     16  C   LIG d   1       7.201  -1.979  -3.718  0.00  0.00    -0.049 C 
ATOM     17  H   LIG d   1       7.486  -1.691  -2.707  0.00  0.00     0.024 H 
ATOM     18  H   LIG d   1       6.614  -2.897  -3.683  0.00  0.00     0.024 H 
ATOM     19  H   LIG d   1       8.098  -2.143  -4.316  0.00  0.00     0.024 H 
ENDBRANCH   1  16
BRANCH   2  20
ATOM     20  C   LIG d   1       4.690  -2.677  -4.697  0.00  0.00     0.064 C 
ATOM     21  O   LIG d   1       4.336  -3.459  -3.847  0.00  0.00    -0.548 OA
ATOM     22  OXT LIG d   1       4.940  -3.109  -5.944  0.00  0.00    -0.548 OA
ENDBRANCH   2  20
BRANCH   8  23
ATOM     23  N   LIG d   1       3.799   2.076  -3.341  0.00  0.00     0.229 N 
ATOM     24  H1  LIG d   1       4.199   1.749  -4.218  0.00  0.00     0.200 HD
ATOM     25  H2  LIG d   1       2.906   2.531  -3.524  0.00  0.00     0.200 HD
ATOM     26  H3  LIG d   1       4.440   2.755  -2.913  0.00  0.00     0.200 HD
ENDBRANCH   8  23
TORSDOF 4
ENDMDL
MODEL 5
REMARK VINA RESULT:      -4.3      2.146      3.326
REMARK  4 active torsions:
REMARK  status: ('A' for Active; 'I' for Inactive)
REMARK    1  A    between atoms: C_1  and  C_2 
REMARK    2  A    between atoms: C_2  and  C_15 
REMARK    3  A    between atoms: CA_3  and  C_13 
REMARK    4  A    between atoms: CA_9  and  N_24 
ROOT
ATOM      1  C   LIG d   1       4.802  -1.266  -5.729  0.00  0.00     0.037 C 
ATOM      2  CA  LIG d   1       4.534  -0.478  -4.417  0.00  0.00     0.081 C 
ATOM      3  HA  LIG d   1       4.281   0.553  -4.666  0.00  0.00     0.058 H 
ATOM      4  N   LIG d   1       5.703  -0.483  -3.532  0.00  0.00    -0.270 NA
ATOM      5  C   LIG d   1       7.017  -0.637  -4.201  0.00  0.00     0.125 C 
ATOM      6  H   LIG d   1       7.672  -1.419  -3.819  0.00  0.00     0.068 H 
ATOM      7  S   LIG d   1       6.572  -0.795  -5.978  0.00  0.00    -0.124 SA
ATOM      8  CA  LIG d   1       7.353   0.792  -3.766  0.00  0.00     0.082 C 
ATOM      9  HA  LIG d   1       8.244   0.861  -3.141  0.00  0.00     0.098 H 
ATOM     10  C   LIG d   1       6.059   0.750  -2.979  0.00  0.00     0.268 C 
ATOM     11  O   LIG d   1       5.539   1.491  -2.171  0.00  0.00    -0.269 OA
ENDROOT
BRANCH   1  12
ATOM     12  C   LIG d   1       3.920  -0.766  -6.874  0.00  0.00    -0.049 C 
ATOM     13  H   LIG d   1       4.481  -0.055  -7.481  0.00  0.00     0.024 H 
ATOM     14  H   LIG d   1       3.035  -0.277  -6.466  0.00  0.00     0.024 H 
ATOM     15  H   LIG d   1       3.615  -1.610  -7.493  0.00  0.00     0.024 H 
ENDBRANCH   1  12
BRANCH   1  16
ATOM     16  C   LIG d   1       4.645  -2.774  -5.523  0.00  0.00    -0.049 C 
ATOM     17  H   LIG d   1       4.793  -3.288  -6.472  0.00  0.00     0.024 H 
ATOM     18  H   LIG d   1       5.386  -3.121  -4.802  0.00  0.00     0.024 H 
ATOM     19  H   LIG d   1       3.644  -2.987  -5.146  0.00  0.00     0.024 H 
ENDBRANCH   1  16
BRANCH   2  20
ATOM     20  C   LIG d   1       3.369  -1.106  -3.695  0.00  0.00     0.064 C 
ATOM     21  O   LIG d   1       2.255  -0.667  -3.851  0.00  0.00    -0.548 OA
ATOM     22  OXT LIG d   1       3.571  -2.152  -2.878  0.00  0.00    -0.548 OA
ENDBRANCH   2  20
BRANCH   8  23
ATOM     23  N   LIG d   1       7.321   1.762  -4.874  0.00  0.00     0.229 N 
ATOM     24  H1  LIG d   1       8.195   2.284  -4.907  0.00  0.00     0.200 HD
ATOM     25  H2  LIG d   1       7.181   1.277  -5.759  0.00  0.00     0.200 HD
ATOM     26  H3  LIG d   1       6.544   2.418  -4.725  0.00  0.00     0.200 HD
ENDBRANCH   8  23
TORSDOF 4
ENDMDL
MODEL 6
REMARK VINA RESULT:      -4.3      2.440      3.245
REMARK  4 active torsions:
REMARK  status: ('A' for Active; 'I' for Inactive)
REMARK    1  A    between atoms: C_1  and  C_2 
REMARK    2  A    between atoms: C_2  and  C_15 
REMARK    3  A    between atoms: CA_3  and  C_13 
REMARK    4  A    between atoms: CA_9  and  N_24 
ROOT
ATOM      1  C   LIG d   1       4.193   0.042  -2.971  0.00  0.00     0.037 C 
ATOM      2  CA  LIG d   1       5.298   0.252  -4.043  0.00  0.00     0.081 C 
ATOM      3  HA  LIG d   1       5.239   1.274  -4.419  0.00  0.00     0.058 H 
ATOM      4  N   LIG d   1       5.150  -0.680  -5.166  0.00  0.00    -0.270 NA
ATOM      5  C   LIG d   1       3.774  -1.169  -5.420  0.00  0.00     0.125 C 
ATOM      6  H   LIG d   1       3.644  -2.248  -5.494  0.00  0.00     0.068 H 
ATOM      7  S   LIG d   1       2.785  -0.356  -4.100  0.00  0.00    -0.124 SA
ATOM      8  CA  LIG d   1       3.796  -0.403  -6.744  0.00  0.00     0.082 C 
ATOM      9  HA  LIG d   1       3.644  -1.036  -7.619  0.00  0.00     0.098 H 
ATOM     10  C   LIG d   1       5.254  -0.122  -6.443  0.00  0.00     0.268 C 
ATOM     11  O   LIG d   1       6.164   0.378  -7.070  0.00  0.00    -0.269 OA
ENDROOT
BRANCH   1  12
ATOM     12  C   LIG d   1       3.932   1.322  -2.175  0.00  0.00    -0.049 C 
ATOM     13  H   LIG d   1       3.413   2.043  -2.807  0.00  0.00     0.024 H 
ATOM     14  H   LIG d   1       4.881   1.745  -1.845  0.00  0.00     0.024 H 
ATOM     15  H   LIG d   1       3.316   1.091  -1.306  0.00  0.00     0.024 H 
ENDBRANCH   1  12
BRANCH   1  16
ATOM     16  C   LIG d   1       4.522  -1.132  -2.045  0.00  0.00    -0.049 C 
ATOM     17  H   LIG d   1       3.759  -1.903  -2.151  0.00  0.00     0.024 H 
ATOM     18  H   LIG d   1       5.495  -1.544  -2.314  0.00  0.00     0.024 H 
ATOM     19  H   LIG d   1       4.547  -0.784  -1.013  0.00  0.00     0.024 H 
ENDBRANCH   1  16
BRANCH   2  20
ATOM     20  C   LIG d   1       6.648   0.043  -3.406  0.00  0.00     0.064 C 
ATOM     21  O   LIG d   1       7.089  -1.075  -3.278  0.00  0.00    -0.548 OA
ATOM     22  OXT LIG d   1       7.360   1.098  -2.981  0.00  0.00    -0.548 OA
ENDBRANCH   2  20
BRANCH   8  23
ATOM     23  N   LIG d   1       2.963   0.811  -6.731  0.00  0.00     0.229 N 
ATOM     24  H1  LIG d   1       2.598   0.995  -7.664  0.00  0.00     0.200 HD
ATOM     25  H2  LIG d   1       2.188   0.695  -6.080  0.00  0.00     0.200 HD
ATOM     26  H3  LIG d   1       3.535   1.610  -6.432  0.00  0.00     0.200 HD
ENDBRANCH   8  23
TORSDOF 4
ENDMDL
MODEL 7
REMARK VINA RESULT:      -4.1      1.672      3.754
REMARK  4 active torsions:
REMARK  status: ('A' for Active; 'I' for Inactive)
REMARK    1  A    between atoms: C_1  and  C_2 
REMARK    2  A    between atoms: C_2  and  C_15 
REMARK    3  A    between atoms: CA_3  and  C_13 
REMARK    4  A    between atoms: CA_9  and  N_24 
ROOT
ATOM      1  C   LIG d   1       5.885  -1.753  -4.580  0.00  0.00     0.037 C 
ATOM      2  CA  LIG d   1       4.983  -0.646  -5.191  0.00  0.00     0.081 C 
ATOM      3  HA  LIG d   1       5.417   0.330  -4.969  0.00  0.00     0.058 H 
ATOM      4  N   LIG d   1       3.620  -0.697  -4.652  0.00  0.00    -0.270 NA
ATOM      5  C   LIG d   1       3.485  -1.277  -3.295  0.00  0.00     0.125 C 
ATOM      6  H   LIG d   1       2.750  -2.072  -3.174  0.00  0.00     0.068 H 
ATOM      7  S   LIG d   1       5.210  -1.741  -2.859  0.00  0.00    -0.124 SA
ATOM      8  CA  LIG d   1       3.066   0.107  -2.796  0.00  0.00     0.082 C 
ATOM      9  HA  LIG d   1       2.075   0.126  -2.339  0.00  0.00     0.098 H 
ATOM     10  C   LIG d   1       3.074   0.525  -4.251  0.00  0.00     0.268 C 
ATOM     11  O   LIG d   1       2.726   1.526  -4.843  0.00  0.00    -0.269 OA
ENDROOT
BRANCH   1  12
ATOM     12  C   LIG d   1       7.362  -1.354  -4.608  0.00  0.00    -0.049 C 
ATOM     13  H   LIG d   1       7.808  -1.675  -5.549  0.00  0.00     0.024 H 
ATOM     14  H   LIG d   1       7.884  -1.831  -3.778  0.00  0.00     0.024 H 
ATOM     15  H   LIG d   1       7.447  -0.271  -4.516  0.00  0.00     0.024 H 
ENDBRANCH   1  12
BRANCH   1  16
ATOM     16  C   LIG d   1       5.661  -3.104  -5.263  0.00  0.00    -0.049 C 
ATOM     17  H   LIG d   1       5.279  -3.820  -4.536  0.00  0.00     0.024 H 
ATOM     18  H   LIG d   1       4.939  -2.986  -6.072  0.00  0.00     0.024 H 
ATOM     19  H   LIG d   1       6.606  -3.467  -5.668  0.00  0.00     0.024 H 
ENDBRANCH   1  16
BRANCH   2  20
ATOM     20  C   LIG d   1       4.927  -0.827  -6.686  0.00  0.00     0.064 C 
ATOM     21  O   LIG d   1       3.946  -1.310  -7.200  0.00  0.00    -0.548 OA
ATOM     22  OXT LIG d   1       5.967  -0.451  -7.447  0.00  0.00    -0.548 OA
ENDBRANCH   2  20
BRANCH   8  23
ATOM     23  N   LIG d   1       4.106   0.780  -1.999  0.00  0.00     0.229 N 
ATOM     24  H1  LIG d   1       4.546   1.516  -2.549  0.00  0.00     0.200 HD
ATOM     25  H2  LIG d   1       3.696   1.183  -1.158  0.00  0.00     0.200 HD
ATOM     26  H3  LIG d   1       4.820   0.093  -1.727  0.00  0.00     0.200 HD
ENDBRANCH   8  23
TORSDOF 4
ENDMDL
MODEL 8
REMARK VINA RESULT:      -4.1      2.455      2.909
REMARK  4 active torsions:
REMARK  status: ('A' for Active; 'I' for Inactive)
REMARK    1  A    between atoms: C_1  and  C_2 
REMARK    2  A    between atoms: C_2  and  C_15 
REMARK    3  A    between atoms: CA_3  and  C_13 
REMARK    4  A    between atoms: CA_9  and  N_24 
ROOT
ATOM      1  C   LIG d   1       5.023  -2.323  -3.888  0.00  0.00     0.037 C 
ATOM      2  CA  LIG d   1       4.494  -1.589  -5.151  0.00  0.00     0.081 C 
ATOM      3  HA  LIG d   1       3.416  -1.736  -5.222  0.00  0.00     0.058 H 
ATOM      4  N   LIG d   1       5.127  -2.090  -6.375  0.00  0.00    -0.270 NA
ATOM      5  C   LIG d   1       5.614  -3.489  -6.323  0.00  0.00     0.125 C 
ATOM      6  H   LIG d   1       6.647  -3.659  -6.625  0.00  0.00     0.068 H 
ATOM      7  S   LIG d   1       5.208  -4.015  -4.609  0.00  0.00    -0.124 SA
ATOM      8  CA  LIG d   1       4.545  -3.850  -7.356  0.00  0.00     0.082 C 
ATOM      9  HA  LIG d   1       4.950  -4.274  -8.276  0.00  0.00     0.098 H 
ATOM     10  C   LIG d   1       4.266  -2.364  -7.442  0.00  0.00     0.268 C 
ATOM     11  O   LIG d   1       3.577  -1.675  -8.164  0.00  0.00    -0.269 OA
ENDROOT
BRANCH   1  12
ATOM     12  C   LIG d   1       3.996  -2.303  -2.755  0.00  0.00    -0.049 C 
ATOM     13  H   LIG d   1       4.304  -2.997  -1.972  0.00  0.00     0.024 H 
ATOM     14  H   LIG d   1       3.021  -2.602  -3.142  0.00  0.00     0.024 H 
ATOM     15  H   LIG d   1       3.929  -1.296  -2.342  0.00  0.00     0.024 H 
ENDBRANCH   1  12
BRANCH   1  16
ATOM     16  C   LIG d   1       6.369  -1.757  -3.429  0.00  0.00    -0.049 C 
ATOM     17  H   LIG d   1       7.165  -2.159  -4.056  0.00  0.00     0.024 H 
ATOM     18  H   LIG d   1       6.353  -0.670  -3.515  0.00  0.00     0.024 H 
ATOM     19  H   LIG d   1       6.546  -2.038  -2.391  0.00  0.00     0.024 H 
ENDBRANCH   1  16
BRANCH   2  20
ATOM     20  C   LIG d   1       4.779  -0.115  -5.019  0.00  0.00     0.064 C 
ATOM     21  O   LIG d   1       5.725   0.371  -5.593  0.00  0.00    -0.548 OA
ATOM     22  OXT LIG d   1       3.982   0.657  -4.264  0.00  0.00    -0.548 OA
ENDBRANCH   2  20
BRANCH   8  23
ATOM     23  N   LIG d   1       3.420  -4.614  -6.790  0.00  0.00     0.229 N 
ATOM     24  H1  LIG d   1       3.363  -5.531  -7.229  0.00  0.00     0.200 HD
ATOM     25  H2  LIG d   1       3.543  -4.725  -5.785  0.00  0.00     0.200 HD
ATOM     26  H3  LIG d   1       2.544  -4.105  -6.966  0.00  0.00     0.200 HD
ENDBRANCH   8  23
TORSDOF 4
ENDMDL
MODEL 9
REMARK VINA RESULT:      -4.0      2.456      4.350
REMARK  4 active torsions:
REMARK  status: ('A' for Active; 'I' for Inactive)
REMARK    1  A    between atoms: C_1  and  C_2 
REMARK    2  A    between atoms: C_2  and  C_15 
REMARK    3  A    between atoms: CA_3  and  C_13 
REMARK    4  A    between atoms: CA_9  and  N_24 
ROOT
ATOM      1  C   LIG d   1       6.488  -1.465  -5.336  0.00  0.00     0.037 C 
ATOM      2  CA  LIG d   1       6.574  -0.309  -4.300  0.00  0.00     0.081 C 
ATOM      3  HA  LIG d   1       6.863  -0.720  -3.332  0.00  0.00     0.058 H 
ATOM      4  N   LIG d   1       5.294   0.391  -4.160  0.00  0.00    -0.270 NA
ATOM      5  C   LIG d   1       4.085  -0.408  -4.473  0.00  0.00     0.125 C 
ATOM      6  H   LIG d   1       3.381   0.028  -5.181  0.00  0.00     0.068 H 
ATOM      7  S   LIG d   1       4.771  -2.041  -4.964  0.00  0.00    -0.124 SA
ATOM      8  CA  LIG d   1       3.697  -0.312  -2.995  0.00  0.00     0.082 C 
ATOM      9  HA  LIG d   1       2.728   0.159  -2.826  0.00  0.00     0.098 H 
ATOM     10  C   LIG d   1       4.870   0.636  -2.851  0.00  0.00     0.268 C 
ATOM     11  O   LIG d   1       5.275   1.346  -1.954  0.00  0.00    -0.269 OA
ENDROOT
BRANCH   1  12
ATOM     12  C   LIG d   1       7.522  -2.555  -5.048  0.00  0.00    -0.049 C 
ATOM     13  H   LIG d   1       7.206  -3.488  -5.516  0.00  0.00     0.024 H 
ATOM     14  H   LIG d   1       7.608  -2.700  -3.971  0.00  0.00     0.024 H 
ATOM     15  H   LIG d   1       8.489  -2.256  -5.452  0.00  0.00     0.024 H 
ENDBRANCH   1  12
BRANCH   1  16
ATOM     16  C   LIG d   1       6.611  -0.946  -6.770  0.00  0.00    -0.049 C 
ATOM     17  H   LIG d   1       7.441  -1.446  -7.268  0.00  0.00     0.024 H 
ATOM     18  H   LIG d   1       5.686  -1.153  -7.310  0.00  0.00     0.024 H 
ATOM     19  H   LIG d   1       6.790   0.129  -6.754  0.00  0.00     0.024 H 
ENDBRANCH   1  16
BRANCH   2  20
ATOM     20  C   LIG d   1       7.626   0.674  -4.746  0.00  0.00     0.064 C 
ATOM     21  O   LIG d   1       7.301   1.772  -5.132  0.00  0.00    -0.548 OA
ATOM     22  OXT LIG d   1       8.923   0.329  -4.715  0.00  0.00    -0.548 OA
ENDBRANCH   2  20
BRANCH   8  23
ATOM     23  N   LIG d   1       3.886  -1.574  -2.260  0.00  0.00     0.229 N 
ATOM     24  H1  LIG d   1       4.305  -1.390  -1.350  0.00  0.00     0.200 HD
ATOM     25  H2  LIG d   1       2.990  -2.042  -2.133  0.00  0.00     0.200 HD
ATOM     26  H3  LIG d   1       4.510  -2.188  -2.798  0.00  0.00     0.200 HD
ENDBRANCH   8  23
TORSDOF 4
ENDMDL
