MODEL 1
REMARK VINA RESULT:      -6.0      0.000      0.000
REMARK  5 active torsions:
REMARK  status: ('A' for Active; 'I' for Inactive)
REMARK    1  A    between atoms: C_1  and  C_2 
REMARK       I    between atoms: C_2  and  N_4 
REMARK    2  A    between atoms: N_4  and  C_5 
REMARK    3  A    between atoms: C_5  and  C_7 
REMARK    4  A    between atoms: C_5  and  C_18 
REMARK    5  A    between atoms: C_7  and  C_8 
REMARK       I    between atoms: C_18  and  N_20 
ROOT
ATOM      1  C   LIG d   1       7.510  -2.315  -3.660  0.00  0.00     0.001 C 
ATOM      2  H   LIG d   1       7.813  -3.359  -3.730  0.00  0.00     0.034 H 
ATOM      3  H   LIG d   1       7.823  -1.910  -2.697  0.00  0.00     0.034 H 
ENDROOT
BRANCH   1   4
ATOM      4  C   LIG d   1       8.169  -1.517  -4.787  0.00  0.00     0.103 C 
ATOM      5  H   LIG d   1       7.482  -1.442  -5.629  0.00  0.00     0.060 H 
BRANCH   4   6
ATOM      6  N   LIG d   1       8.497  -0.172  -4.305  0.00  0.00    -0.304 N 
ATOM      7  C   LIG d   1       7.876   0.902  -4.831  0.00  0.00     0.210 C 
ATOM      8  O   LIG d   1       7.046   0.756  -5.702  0.00  0.00    -0.276 OA
ATOM      9  H   LIG d   1       9.162  -0.055  -3.609  0.00  0.00     0.149 HD
BRANCH   7  10
ATOM     10  C   LIG d   1       8.214   2.285  -4.336  0.00  0.00     0.012 C 
ATOM     11  H   LIG d   1       7.370   2.687  -3.776  0.00  0.00     0.032 H 
ATOM     12  H   LIG d   1       9.089   2.236  -3.689  0.00  0.00     0.032 H 
ATOM     13  H   LIG d   1       8.427   2.933  -5.187  0.00  0.00     0.032 H 
ENDBRANCH   7  10
ENDBRANCH   4   6
BRANCH   4  14
ATOM     14  C   LIG d   1       9.430  -2.215  -5.227  0.00  0.00     0.231 C 
ATOM     15  O   LIG d   1       9.420  -2.923  -6.210  0.00  0.00    -0.274 OA
ATOM     16  N   LIG d   1      10.570  -2.052  -4.526  0.00  0.00    -0.328 N 
ATOM     17  H   LIG d   1      10.578  -1.485  -3.738  0.00  0.00     0.145 HD
ATOM     18  H   LIG d   1      11.382  -2.501  -4.808  0.00  0.00     0.145 HD
ENDBRANCH   4  14
ENDBRANCH   1   4
BRANCH   1  19
ATOM     19  C   LIG d   1       6.012  -2.217  -3.784  0.00  0.00    -0.020 A 
ATOM     20  C   LIG d   1       5.157  -1.168  -3.223  0.00  0.00     0.003 A 
ATOM     21  C   LIG d   1       3.842  -1.496  -3.598  0.00  0.00     0.047 A 
ATOM     22  C   LIG d   1       5.401  -0.020  -2.466  0.00  0.00    -0.052 A 
ATOM     23  N   LIG d   1       3.906  -2.665  -4.322  0.00  0.00    -0.360 N 
ATOM     24  C   LIG d   1       2.796  -0.667  -3.208  0.00  0.00    -0.038 A 
ATOM     25  C   LIG d   1       5.205  -3.080  -4.422  0.00  0.00     0.006 A 
ATOM     26  H   LIG d   1       3.143  -3.126  -4.705  0.00  0.00     0.165 HD
ATOM     27  H   LIG d   1       5.535  -3.969  -4.940  0.00  0.00     0.081 H 
ATOM     28  C   LIG d   1       3.056   0.456  -2.453  0.00  0.00    -0.060 A 
ATOM     29  H   LIG d   1       1.781  -0.909  -3.485  0.00  0.00     0.064 H 
ATOM     30  C   LIG d   1       4.357   0.778  -2.089  0.00  0.00    -0.061 A 
ATOM     31  H   LIG d   1       2.242   1.097  -2.147  0.00  0.00     0.062 H 
ATOM     32  H   LIG d   1       4.546   1.665  -1.504  0.00  0.00     0.062 H 
ATOM     33  H   LIG d   1       6.410   0.236  -2.179  0.00  0.00     0.062 H 
ENDBRANCH   1  19
TORSDOF 5
ENDMDL
MODEL 2
REMARK VINA RESULT:      -5.8      4.256      5.826
REMARK  5 active torsions:
REMARK  status: ('A' for Active; 'I' for Inactive)
REMARK    1  A    between atoms: C_1  and  C_2 
REMARK       I    between atoms: C_2  and  N_4 
REMARK    2  A    between atoms: N_4  and  C_5 
REMARK    3  A    between atoms: C_5  and  C_7 
REMARK    4  A    between atoms: C_5  and  C_18 
REMARK    5  A    between atoms: C_7  and  C_8 
REMARK       I    between atoms: C_18  and  N_20 
ROOT
ATOM      1  C   LIG d   1       2.825   0.483  -6.882  0.00  0.00     0.001 C 
ATOM      2  H   LIG d   1       2.950   1.548  -6.687  0.00  0.00     0.034 H 
ATOM      3  H   LIG d   1       1.778   0.210  -6.749  0.00  0.00     0.034 H 
ENDROOT
BRANCH   1   4
ATOM      4  C   LIG d   1       3.254   0.173  -8.317  0.00  0.00     0.103 C 
ATOM      5  H   LIG d   1       4.170  -0.417  -8.303  0.00  0.00     0.060 H 
BRANCH   4   6
ATOM      6  N   LIG d   1       2.196  -0.585  -8.990  0.00  0.00    -0.304 N 
ATOM      7  C   LIG d   1       2.470  -1.789  -9.532  0.00  0.00     0.210 C 
ATOM      8  O   LIG d   1       3.591  -2.244  -9.463  0.00  0.00    -0.276 OA
ATOM      9  H   LIG d   1       1.299  -0.221  -9.046  0.00  0.00     0.149 HD
BRANCH   7  10
ATOM     10  C   LIG d   1       1.381  -2.569 -10.224  0.00  0.00     0.012 C 
ATOM     11  H   LIG d   1       1.385  -3.596  -9.863  0.00  0.00     0.032 H 
ATOM     12  H   LIG d   1       0.415  -2.112 -10.011  0.00  0.00     0.032 H 
ATOM     13  H   LIG d   1       1.558  -2.560 -11.300  0.00  0.00     0.032 H 
ENDBRANCH   7  10
ENDBRANCH   4   6
BRANCH   4  14
ATOM     14  C   LIG d   1       3.498   1.462  -9.059  0.00  0.00     0.231 C 
ATOM     15  O   LIG d   1       3.451   2.519  -8.467  0.00  0.00    -0.274 OA
ATOM     16  N   LIG d   1       3.765   1.440 -10.379  0.00  0.00    -0.328 N 
ATOM     17  H   LIG d   1       3.802   0.593 -10.852  0.00  0.00     0.145 HD
ATOM     18  H   LIG d   1       3.921   2.269 -10.857  0.00  0.00     0.145 HD
ENDBRANCH   4  14
ENDBRANCH   1   4
BRANCH   1  19
ATOM     19  C   LIG d   1       3.676  -0.306  -5.921  0.00  0.00    -0.020 A 
ATOM     20  C   LIG d   1       3.817  -0.068  -4.482  0.00  0.00     0.003 A 
ATOM     21  C   LIG d   1       4.706  -1.050  -4.010  0.00  0.00     0.047 A 
ATOM     22  C   LIG d   1       3.274   0.865  -3.596  0.00  0.00    -0.052 A 
ATOM     23  N   LIG d   1       5.079  -1.815  -5.093  0.00  0.00    -0.360 N 
ATOM     24  C   LIG d   1       5.033  -1.080  -2.659  0.00  0.00    -0.038 A 
ATOM     25  C   LIG d   1       4.456  -1.357  -6.222  0.00  0.00     0.006 A 
ATOM     26  H   LIG d   1       5.691  -2.566  -5.060  0.00  0.00     0.165 HD
ATOM     27  H   LIG d   1       4.572  -1.779  -7.209  0.00  0.00     0.081 H 
ATOM     28  C   LIG d   1       4.494  -0.145  -1.803  0.00  0.00    -0.060 A 
ATOM     29  H   LIG d   1       5.718  -1.826  -2.284  0.00  0.00     0.064 H 
ATOM     30  C   LIG d   1       3.613   0.820  -2.273  0.00  0.00    -0.061 A 
ATOM     31  H   LIG d   1       4.752  -0.167  -0.754  0.00  0.00     0.062 H 
ATOM     32  H   LIG d   1       3.193   1.541  -1.588  0.00  0.00     0.062 H 
ATOM     33  H   LIG d   1       2.589   1.618  -3.955  0.00  0.00     0.062 H 
ENDBRANCH   1  19
TORSDOF 5
ENDMDL
MODEL 3
REMARK VINA RESULT:      -5.7      2.594      4.133
REMARK  5 active torsions:
REMARK  status: ('A' for Active; 'I' for Inactive)
REMARK    1  A    between atoms: C_1  and  C_2 
REMARK       I    between atoms: C_2  and  N_4 
REMARK    2  A    between atoms: N_4  and  C_5 
REMARK    3  A    between atoms: C_5  and  C_7 
REMARK    4  A    between atoms: C_5  and  C_18 
REMARK    5  A    between atoms: C_7  and  C_8 
REMARK       I    between atoms: C_18  and  N_20 
ROOT
ATOM      1  C   LIG d   1       5.875  -3.802  -4.724  0.00  0.00     0.001 C 
ATOM      2  H   LIG d   1       5.252  -4.412  -4.070  0.00  0.00     0.034 H 
ATOM      3  H   LIG d   1       6.821  -4.312  -4.903  0.00  0.00     0.034 H 
ENDROOT
BRANCH   1   4
ATOM      4  C   LIG d   1       5.154  -3.581  -6.055  0.00  0.00     0.103 C 
ATOM      5  H   LIG d   1       4.653  -2.614  -6.042  0.00  0.00     0.060 H 
BRANCH   4   6
ATOM      6  N   LIG d   1       6.129  -3.610  -7.148  0.00  0.00    -0.304 N 
ATOM      7  C   LIG d   1       6.447  -2.473  -7.798  0.00  0.00     0.210 C 
ATOM      8  O   LIG d   1       5.925  -1.426  -7.478  0.00  0.00    -0.276 OA
ATOM      9  H   LIG d   1       6.546  -4.447  -7.405  0.00  0.00     0.149 HD
BRANCH   7  10
ATOM     10  C   LIG d   1       7.450  -2.502  -8.923  0.00  0.00     0.012 C 
ATOM     11  H   LIG d   1       7.032  -2.000  -9.795  0.00  0.00     0.032 H 
ATOM     12  H   LIG d   1       8.360  -1.990  -8.610  0.00  0.00     0.032 H 
ATOM     13  H   LIG d   1       7.682  -3.537  -9.174  0.00  0.00     0.032 H 
ENDBRANCH   7  10
ENDBRANCH   4   6
BRANCH   4  14
ATOM     14  C   LIG d   1       4.135  -4.673  -6.262  0.00  0.00     0.231 C 
ATOM     15  O   LIG d   1       3.986  -5.531  -5.419  0.00  0.00    -0.274 OA
ATOM     16  N   LIG d   1       3.391  -4.696  -7.385  0.00  0.00    -0.328 N 
ATOM     17  H   LIG d   1       3.511  -4.009  -8.060  0.00  0.00     0.145 HD
ATOM     18  H   LIG d   1       2.736  -5.398  -7.519  0.00  0.00     0.145 HD
ENDBRANCH   4  14
ENDBRANCH   1   4
BRANCH   1  19
ATOM     19  C   LIG d   1       6.137  -2.471  -4.067  0.00  0.00    -0.020 A 
ATOM     20  C   LIG d   1       5.140  -1.587  -3.460  0.00  0.00     0.003 A 
ATOM     21  C   LIG d   1       5.850  -0.472  -2.979  0.00  0.00     0.047 A 
ATOM     22  C   LIG d   1       3.755  -1.657  -3.292  0.00  0.00    -0.052 A 
ATOM     23  N   LIG d   1       7.177  -0.672  -3.287  0.00  0.00    -0.360 N 
ATOM     24  C   LIG d   1       5.159   0.550  -2.337  0.00  0.00    -0.038 A 
ATOM     25  C   LIG d   1       7.329  -1.867  -3.936  0.00  0.00     0.006 A 
ATOM     26  H   LIG d   1       7.896  -0.058  -3.076  0.00  0.00     0.165 HD
ATOM     27  H   LIG d   1       8.268  -2.267  -4.287  0.00  0.00     0.081 H 
ATOM     28  C   LIG d   1       3.792   0.466  -2.190  0.00  0.00    -0.060 A 
ATOM     29  H   LIG d   1       5.692   1.414  -1.967  0.00  0.00     0.064 H 
ATOM     30  C   LIG d   1       3.096  -0.638  -2.663  0.00  0.00    -0.061 A 
ATOM     31  H   LIG d   1       3.257   1.263  -1.696  0.00  0.00     0.062 H 
ATOM     32  H   LIG d   1       2.026  -0.693  -2.533  0.00  0.00     0.062 H 
ATOM     33  H   LIG d   1       3.208  -2.513  -3.658  0.00  0.00     0.062 H 
ENDBRANCH   1  19
TORSDOF 5
ENDMDL
MODEL 4
REMARK VINA RESULT:      -5.5      2.420      4.540
REMARK  5 active torsions:
REMARK  status: ('A' for Active; 'I' for Inactive)
REMARK    1  A    between atoms: C_1  and  C_2 
REMARK       I    between atoms: C_2  and  N_4 
REMARK    2  A    between atoms: N_4  and  C_5 
REMARK    3  A    between atoms: C_5  and  C_7 
REMARK    4  A    between atoms: C_5  and  C_18 
REMARK    5  A    between atoms: C_7  and  C_8 
REMARK       I    between atoms: C_18  and  N_20 
ROOT
ATOM      1  C   LIG d   1       4.965  -3.661  -4.341  0.00  0.00     0.001 C 
ATOM      2  H   LIG d   1       3.888  -3.553  -4.472  0.00  0.00     0.034 H 
ATOM      3  H   LIG d   1       5.164  -4.458  -3.623  0.00  0.00     0.034 H 
ENDROOT
BRANCH   1   4
ATOM      4  C   LIG d   1       5.611  -4.011  -5.683  0.00  0.00     0.103 C 
ATOM      5  H   LIG d   1       6.385  -3.281  -5.915  0.00  0.00     0.060 H 
BRANCH   4   6
ATOM      6  N   LIG d   1       6.208  -5.347  -5.603  0.00  0.00    -0.304 N 
ATOM      7  C   LIG d   1       7.548  -5.488  -5.625  0.00  0.00     0.210 C 
ATOM      8  O   LIG d   1       8.259  -4.510  -5.710  0.00  0.00    -0.276 OA
ATOM      9  H   LIG d   1       5.639  -6.129  -5.536  0.00  0.00     0.149 HD
BRANCH   7  10
ATOM     10  C   LIG d   1       8.163  -6.862  -5.543  0.00  0.00     0.012 C 
ATOM     11  H   LIG d   1       7.888  -7.327  -4.597  0.00  0.00     0.032 H 
ATOM     12  H   LIG d   1       7.798  -7.473  -6.369  0.00  0.00     0.032 H 
ATOM     13  H   LIG d   1       9.248  -6.777  -5.605  0.00  0.00     0.032 H 
ENDBRANCH   7  10
ENDBRANCH   4   6
BRANCH   4  14
ATOM     14  C   LIG d   1       4.562  -3.993  -6.765  0.00  0.00     0.231 C 
ATOM     15  O   LIG d   1       4.727  -3.319  -7.759  0.00  0.00    -0.274 OA
ATOM     16  N   LIG d   1       3.439  -4.726  -6.627  0.00  0.00    -0.328 N 
ATOM     17  H   LIG d   1       3.307  -5.265  -5.831  0.00  0.00     0.145 HD
ATOM     18  H   LIG d   1       2.764  -4.715  -7.323  0.00  0.00     0.145 HD
ENDBRANCH   4  14
ENDBRANCH   1   4
BRANCH   1  19
ATOM     19  C   LIG d   1       5.540  -2.367  -3.827  0.00  0.00    -0.020 A 
ATOM     20  C   LIG d   1       4.787  -1.225  -3.303  0.00  0.00     0.003 A 
ATOM     21  C   LIG d   1       5.745  -0.258  -2.947  0.00  0.00     0.047 A 
ATOM     22  C   LIG d   1       3.429  -0.964  -3.114  0.00  0.00    -0.052 A 
ATOM     23  N   LIG d   1       6.982  -0.782  -3.248  0.00  0.00    -0.360 N 
ATOM     24  C   LIG d   1       5.322   0.952  -2.407  0.00  0.00    -0.038 A 
ATOM     25  C   LIG d   1       6.841  -2.038  -3.772  0.00  0.00     0.006 A 
ATOM     26  H   LIG d   1       7.828  -0.328  -3.109  0.00  0.00     0.165 HD
ATOM     27  H   LIG d   1       7.655  -2.672  -4.091  0.00  0.00     0.081 H 
ATOM     28  C   LIG d   1       3.977   1.193  -2.236  0.00  0.00    -0.060 A 
ATOM     29  H   LIG d   1       6.047   1.705  -2.133  0.00  0.00     0.064 H 
ATOM     30  C   LIG d   1       3.036   0.234  -2.586  0.00  0.00    -0.061 A 
ATOM     31  H   LIG d   1       3.651   2.135  -1.820  0.00  0.00     0.062 H 
ATOM     32  H   LIG d   1       1.986   0.436  -2.439  0.00  0.00     0.062 H 
ATOM     33  H   LIG d   1       2.691  -1.706  -3.383  0.00  0.00     0.062 H 
ENDBRANCH   1  19
TORSDOF 5
ENDMDL
MODEL 5
REMARK VINA RESULT:      -5.5      4.291      5.502
REMARK  5 active torsions:
REMARK  status: ('A' for Active; 'I' for Inactive)
REMARK    1  A    between atoms: C_1  and  C_2 
REMARK       I    between atoms: C_2  and  N_4 
REMARK    2  A    between atoms: N_4  and  C_5 
REMARK    3  A    between atoms: C_5  and  C_7 
REMARK    4  A    between atoms: C_5  and  C_18 
REMARK    5  A    between atoms: C_7  and  C_8 
REMARK       I    between atoms: C_18  and  N_20 
ROOT
ATOM      1  C   LIG d   1       3.197  -0.022  -5.395  0.00  0.00     0.001 C 
ATOM      2  H   LIG d   1       2.259  -0.548  -5.216  0.00  0.00     0.034 H 
ATOM      3  H   LIG d   1       3.030   1.052  -5.320  0.00  0.00     0.034 H 
ENDROOT
BRANCH   1   4
ATOM      4  C   LIG d   1       4.229  -0.452  -4.351  0.00  0.00     0.103 C 
ATOM      5  H   LIG d   1       4.766  -1.330  -4.710  0.00  0.00     0.060 H 
BRANCH   4   6
ATOM      6  N   LIG d   1       5.179   0.641  -4.126  0.00  0.00    -0.304 N 
ATOM      7  C   LIG d   1       6.490   0.372  -3.962  0.00  0.00     0.210 C 
ATOM      8  O   LIG d   1       6.883  -0.774  -4.002  0.00  0.00    -0.276 OA
ATOM      9  H   LIG d   1       4.865   1.558  -4.093  0.00  0.00     0.149 HD
BRANCH   7  10
ATOM     10  C   LIG d   1       7.467   1.496  -3.731  0.00  0.00     0.012 C 
ATOM     11  H   LIG d   1       6.925   2.393  -3.432  0.00  0.00     0.032 H 
ATOM     12  H   LIG d   1       8.165   1.214  -2.943  0.00  0.00     0.032 H 
ATOM     13  H   LIG d   1       8.017   1.694  -4.651  0.00  0.00     0.032 H 
ENDBRANCH   7  10
ENDBRANCH   4   6
BRANCH   4  14
ATOM     14  C   LIG d   1       3.529  -0.784  -3.058  0.00  0.00     0.231 C 
ATOM     15  O   LIG d   1       2.320  -0.725  -2.991  0.00  0.00    -0.274 OA
ATOM     16  N   LIG d   1       4.248  -1.145  -1.976  0.00  0.00    -0.328 N 
ATOM     17  H   LIG d   1       5.215  -1.191  -2.031  0.00  0.00     0.145 HD
ATOM     18  H   LIG d   1       3.797  -1.358  -1.144  0.00  0.00     0.145 HD
ENDBRANCH   4  14
ENDBRANCH   1   4
BRANCH   1  19
ATOM     19  C   LIG d   1       3.705  -0.358  -6.773  0.00  0.00    -0.020 A 
ATOM     20  C   LIG d   1       3.631   0.495  -7.961  0.00  0.00     0.003 A 
ATOM     21  C   LIG d   1       4.232  -0.236  -9.002  0.00  0.00     0.047 A 
ATOM     22  C   LIG d   1       3.125   1.773  -8.208  0.00  0.00    -0.052 A 
ATOM     23  N   LIG d   1       4.626  -1.445  -8.475  0.00  0.00    -0.360 N 
ATOM     24  C   LIG d   1       4.315   0.329 -10.271  0.00  0.00    -0.038 A 
ATOM     25  C   LIG d   1       4.304  -1.500  -7.147  0.00  0.00     0.006 A 
ATOM     26  H   LIG d   1       5.067  -2.152  -8.971  0.00  0.00     0.165 HD
ATOM     27  H   LIG d   1       4.504  -2.337  -6.494  0.00  0.00     0.081 H 
ATOM     28  C   LIG d   1       3.801   1.587 -10.495  0.00  0.00    -0.060 A 
ATOM     29  H   LIG d   1       4.769  -0.223 -11.080  0.00  0.00     0.064 H 
ATOM     30  C   LIG d   1       3.213   2.306  -9.463  0.00  0.00    -0.061 A 
ATOM     31  H   LIG d   1       3.863   2.022 -11.482  0.00  0.00     0.062 H 
ATOM     32  H   LIG d   1       2.822   3.294  -9.654  0.00  0.00     0.062 H 
ATOM     33  H   LIG d   1       2.666   2.337  -7.410  0.00  0.00     0.062 H 
ENDBRANCH   1  19
TORSDOF 5
ENDMDL
MODEL 6
REMARK VINA RESULT:      -5.3      3.682      4.814
REMARK  5 active torsions:
REMARK  status: ('A' for Active; 'I' for Inactive)
REMARK    1  A    between atoms: C_1  and  C_2 
REMARK       I    between atoms: C_2  and  N_4 
REMARK    2  A    between atoms: N_4  and  C_5 
REMARK    3  A    between atoms: C_5  and  C_7 
REMARK    4  A    between atoms: C_5  and  C_18 
REMARK    5  A    between atoms: C_7  and  C_8 
REMARK       I    between atoms: C_18  and  N_20 
ROOT
ATOM      1  C   LIG d   1       5.348  -1.637  -7.135  0.00  0.00     0.001 C 
ATOM      2  H   LIG d   1       5.270  -2.699  -6.903  0.00  0.00     0.034 H 
ATOM      3  H   LIG d   1       6.164  -1.479  -7.840  0.00  0.00     0.034 H 
ENDROOT
BRANCH   1   4
ATOM      4  C   LIG d   1       4.037  -1.153  -7.755  0.00  0.00     0.103 C 
ATOM      5  H   LIG d   1       3.352  -0.847  -6.965  0.00  0.00     0.060 H 
BRANCH   4   6
ATOM      6  N   LIG d   1       4.305  -0.014  -8.637  0.00  0.00    -0.304 N 
ATOM      7  C   LIG d   1       3.752   1.187  -8.374  0.00  0.00     0.210 C 
ATOM      8  O   LIG d   1       3.032   1.324  -7.408  0.00  0.00    -0.276 OA
ATOM      9  H   LIG d   1       4.880  -0.123  -9.410  0.00  0.00     0.149 HD
BRANCH   7  10
ATOM     10  C   LIG d   1       4.028   2.359  -9.280  0.00  0.00     0.012 C 
ATOM     11  H   LIG d   1       3.099   2.683  -9.748  0.00  0.00     0.032 H 
ATOM     12  H   LIG d   1       4.446   3.179  -8.697  0.00  0.00     0.032 H 
ATOM     13  H   LIG d   1       4.739   2.062 -10.051  0.00  0.00     0.032 H 
ENDBRANCH   7  10
ENDBRANCH   4   6
BRANCH   4  14
ATOM     14  C   LIG d   1       3.416  -2.271  -8.554  0.00  0.00     0.231 C 
ATOM     15  O   LIG d   1       3.815  -3.407  -8.418  0.00  0.00    -0.274 OA
ATOM     16  N   LIG d   1       2.417  -2.006  -9.420  0.00  0.00    -0.328 N 
ATOM     17  H   LIG d   1       2.098  -1.096  -9.528  0.00  0.00     0.145 HD
ATOM     18  H   LIG d   1       2.018  -2.724  -9.934  0.00  0.00     0.145 HD
ENDBRANCH   4  14
ENDBRANCH   1   4
BRANCH   1  19
ATOM     19  C   LIG d   1       5.621  -0.866  -5.869  0.00  0.00    -0.020 A 
ATOM     20  C   LIG d   1       5.040  -1.123  -4.549  0.00  0.00     0.003 A 
ATOM     21  C   LIG d   1       5.589  -0.156  -3.688  0.00  0.00     0.047 A 
ATOM     22  C   LIG d   1       4.136  -2.065  -4.054  0.00  0.00    -0.052 A 
ATOM     23  N   LIG d   1       6.431   0.630  -4.443  0.00  0.00    -0.360 N 
ATOM     24  C   LIG d   1       5.223  -0.153  -2.346  0.00  0.00    -0.038 A 
ATOM     25  C   LIG d   1       6.436   0.193  -5.739  0.00  0.00     0.006 A 
ATOM     26  H   LIG d   1       6.943   1.381  -4.106  0.00  0.00     0.165 HD
ATOM     27  H   LIG d   1       7.013   0.632  -6.540  0.00  0.00     0.081 H 
ATOM     28  C   LIG d   1       4.322  -1.085  -1.880  0.00  0.00    -0.060 A 
ATOM     29  H   LIG d   1       5.634   0.587  -1.675  0.00  0.00     0.064 H 
ATOM     30  C   LIG d   1       3.786  -2.039  -2.733  0.00  0.00    -0.061 A 
ATOM     31  H   LIG d   1       4.035  -1.078  -0.838  0.00  0.00     0.062 H 
ATOM     32  H   LIG d   1       3.087  -2.768  -2.351  0.00  0.00     0.062 H 
ATOM     33  H   LIG d   1       3.715  -2.810  -4.713  0.00  0.00     0.062 H 
ENDBRANCH   1  19
TORSDOF 5
ENDMDL
MODEL 7
REMARK VINA RESULT:      -5.3      7.485     10.377
REMARK  5 active torsions:
REMARK  status: ('A' for Active; 'I' for Inactive)
REMARK    1  A    between atoms: C_1  and  C_2 
REMARK       I    between atoms: C_2  and  N_4 
REMARK    2  A    between atoms: N_4  and  C_5 
REMARK    3  A    between atoms: C_5  and  C_7 
REMARK    4  A    between atoms: C_5  and  C_18 
REMARK    5  A    between atoms: C_7  and  C_8 
REMARK       I    between atoms: C_18  and  N_20 
ROOT
ATOM      1  C   LIG d   1      11.164   7.910  -1.414  0.00  0.00     0.001 C 
ATOM      2  H   LIG d   1      10.844   8.385  -2.341  0.00  0.00     0.034 H 
ATOM      3  H   LIG d   1      12.200   8.179  -1.207  0.00  0.00     0.034 H 
ENDROOT
BRANCH   1   4
ATOM      4  C   LIG d   1      10.274   8.387  -0.264  0.00  0.00     0.103 C 
ATOM      5  H   LIG d   1      10.172   7.589   0.471  0.00  0.00     0.060 H 
BRANCH   4   6
ATOM      6  N   LIG d   1      10.883   9.559   0.370  0.00  0.00    -0.304 N 
ATOM      7  C   LIG d   1      11.593   9.417   1.507  0.00  0.00     0.210 C 
ATOM      8  O   LIG d   1      11.729   8.320   2.005  0.00  0.00    -0.276 OA
ATOM      9  H   LIG d   1      10.774  10.437  -0.027  0.00  0.00     0.149 HD
BRANCH   7  10
ATOM     10  C   LIG d   1      12.220  10.623   2.160  0.00  0.00     0.012 C 
ATOM     11  H   LIG d   1      12.300  10.454   3.233  0.00  0.00     0.032 H 
ATOM     12  H   LIG d   1      13.213  10.787   1.742  0.00  0.00     0.032 H 
ATOM     13  H   LIG d   1      11.598  11.499   1.975  0.00  0.00     0.032 H 
ENDBRANCH   7  10
ENDBRANCH   4   6
BRANCH   4  14
ATOM     14  C   LIG d   1       8.914   8.755  -0.799  0.00  0.00     0.231 C 
ATOM     15  O   LIG d   1       8.060   7.903  -0.922  0.00  0.00    -0.274 OA
ATOM     16  N   LIG d   1       8.648  10.031  -1.143  0.00  0.00    -0.328 N 
ATOM     17  H   LIG d   1       9.332  10.712  -1.044  0.00  0.00     0.145 HD
ATOM     18  H   LIG d   1       7.774  10.268  -1.488  0.00  0.00     0.145 HD
ENDBRANCH   4  14
ENDBRANCH   1   4
BRANCH   1  19
ATOM     19  C   LIG d   1      11.050   6.414  -1.551  0.00  0.00    -0.020 A 
ATOM     20  C   LIG d   1      10.404   5.685  -2.645  0.00  0.00     0.003 A 
ATOM     21  C   LIG d   1      10.550   4.319  -2.342  0.00  0.00     0.047 A 
ATOM     22  C   LIG d   1       9.744   6.074  -3.812  0.00  0.00    -0.052 A 
ATOM     23  N   LIG d   1      11.226   4.239  -1.145  0.00  0.00    -0.360 N 
ATOM     24  C   LIG d   1      10.033   3.369  -3.216  0.00  0.00    -0.038 A 
ATOM     25  C   LIG d   1      11.515   5.496  -0.689  0.00  0.00     0.006 A 
ATOM     26  H   LIG d   1      11.462   3.414  -0.693  0.00  0.00     0.165 HD
ATOM     27  H   LIG d   1      12.041   5.717   0.228  0.00  0.00     0.081 H 
ATOM     28  C   LIG d   1       9.377   3.774  -4.358  0.00  0.00    -0.060 A 
ATOM     29  H   LIG d   1      10.134   2.317  -2.993  0.00  0.00     0.064 H 
ATOM     30  C   LIG d   1       9.239   5.123  -4.654  0.00  0.00    -0.061 A 
ATOM     31  H   LIG d   1       8.971   3.034  -5.033  0.00  0.00     0.062 H 
ATOM     32  H   LIG d   1       8.729   5.424  -5.557  0.00  0.00     0.062 H 
ATOM     33  H   LIG d   1       9.633   7.122  -4.049  0.00  0.00     0.062 H 
ENDBRANCH   1  19
TORSDOF 5
ENDMDL
MODEL 8
REMARK VINA RESULT:      -5.2      3.618      3.971
REMARK  5 active torsions:
REMARK  status: ('A' for Active; 'I' for Inactive)
REMARK    1  A    between atoms: C_1  and  C_2 
REMARK       I    between atoms: C_2  and  N_4 
REMARK    2  A    between atoms: N_4  and  C_5 
REMARK    3  A    between atoms: C_5  and  C_7 
REMARK    4  A    between atoms: C_5  and  C_18 
REMARK    5  A    between atoms: C_7  and  C_8 
REMARK       I    between atoms: C_18  and  N_20 
ROOT
ATOM      1  C   LIG d   1       6.044  -0.431  -6.787  0.00  0.00     0.001 C 
ATOM      2  H   LIG d   1       7.084  -0.752  -6.839  0.00  0.00     0.034 H 
ATOM      3  H   LIG d   1       6.000   0.608  -6.461  0.00  0.00     0.034 H 
ENDROOT
BRANCH   1   4
ATOM      4  C   LIG d   1       5.400  -0.559  -8.169  0.00  0.00     0.103 C 
ATOM      5  H   LIG d   1       4.677  -1.374  -8.160  0.00  0.00     0.060 H 
BRANCH   4   6
ATOM      6  N   LIG d   1       4.719   0.693  -8.509  0.00  0.00    -0.304 N 
ATOM      7  C   LIG d   1       3.378   0.779  -8.408  0.00  0.00     0.210 C 
ATOM      8  O   LIG d   1       2.735  -0.179  -8.037  0.00  0.00    -0.276 OA
ATOM      9  H   LIG d   1       5.233   1.460  -8.806  0.00  0.00     0.149 HD
BRANCH   7  10
ATOM     10  C   LIG d   1       2.677   2.067  -8.757  0.00  0.00     0.012 C 
ATOM     11  H   LIG d   1       2.766   2.251  -9.827  0.00  0.00     0.032 H 
ATOM     12  H   LIG d   1       1.624   1.992  -8.487  0.00  0.00     0.032 H 
ATOM     13  H   LIG d   1       3.135   2.890  -8.207  0.00  0.00     0.032 H 
ENDBRANCH   7  10
ENDBRANCH   4   6
BRANCH   4  14
ATOM     14  C   LIG d   1       6.467  -0.845  -9.196  0.00  0.00     0.231 C 
ATOM     15  O   LIG d   1       6.210  -0.757 -10.377  0.00  0.00    -0.274 OA
ATOM     16  N   LIG d   1       7.705  -1.200  -8.799  0.00  0.00    -0.328 N 
ATOM     17  H   LIG d   1       7.910  -1.271  -7.853  0.00  0.00     0.145 HD
ATOM     18  H   LIG d   1       8.391  -1.385  -9.459  0.00  0.00     0.145 HD
ENDBRANCH   4  14
ENDBRANCH   1   4
BRANCH   1  19
ATOM     19  C   LIG d   1       5.300  -1.298  -5.804  0.00  0.00    -0.020 A 
ATOM     20  C   LIG d   1       5.057  -1.002  -4.390  0.00  0.00     0.003 A 
ATOM     21  C   LIG d   1       4.327  -2.093  -3.885  0.00  0.00     0.047 A 
ATOM     22  C   LIG d   1       5.388   0.064  -3.552  0.00  0.00    -0.052 A 
ATOM     23  N   LIG d   1       4.156  -2.983  -4.921  0.00  0.00    -0.360 N 
ATOM     24  C   LIG d   1       3.941  -2.093  -2.549  0.00  0.00    -0.038 A 
ATOM     25  C   LIG d   1       4.742  -2.493  -6.056  0.00  0.00     0.006 A 
ATOM     26  H   LIG d   1       3.689  -3.830  -4.857  0.00  0.00     0.165 HD
ATOM     27  H   LIG d   1       4.753  -2.992  -7.014  0.00  0.00     0.081 H 
ATOM     28  C   LIG d   1       4.285  -1.035  -1.736  0.00  0.00    -0.060 A 
ATOM     29  H   LIG d   1       3.383  -2.926  -2.146  0.00  0.00     0.064 H 
ATOM     30  C   LIG d   1       5.003   0.041  -2.241  0.00  0.00    -0.061 A 
ATOM     31  H   LIG d   1       3.988  -1.039  -0.697  0.00  0.00     0.062 H 
ATOM     32  H   LIG d   1       5.258   0.866  -1.593  0.00  0.00     0.062 H 
ATOM     33  H   LIG d   1       5.946   0.905  -3.938  0.00  0.00     0.062 H 
ENDBRANCH   1  19
TORSDOF 5
ENDMDL
MODEL 9
REMARK VINA RESULT:      -5.2      2.955      3.887
REMARK  5 active torsions:
REMARK  status: ('A' for Active; 'I' for Inactive)
REMARK    1  A    between atoms: C_1  and  C_2 
REMARK       I    between atoms: C_2  and  N_4 
REMARK    2  A    between atoms: N_4  and  C_5 
REMARK    3  A    between atoms: C_5  and  C_7 
REMARK    4  A    between atoms: C_5  and  C_18 
REMARK    5  A    between atoms: C_7  and  C_8 
REMARK       I    between atoms: C_18  and  N_20 
ROOT
ATOM      1  C   LIG d   1       4.971  -0.631  -7.514  0.00  0.00     0.001 C 
ATOM      2  H   LIG d   1       4.397  -0.704  -8.438  0.00  0.00     0.034 H 
ATOM      3  H   LIG d   1       5.536  -1.551  -7.365  0.00  0.00     0.034 H 
ENDROOT
BRANCH   1   4
ATOM      4  C   LIG d   1       5.937   0.552  -7.605  0.00  0.00     0.103 C 
ATOM      5  H   LIG d   1       5.593   1.353  -6.953  0.00  0.00     0.060 H 
BRANCH   4   6
ATOM      6  N   LIG d   1       7.274   0.123  -7.187  0.00  0.00    -0.304 N 
ATOM      7  C   LIG d   1       7.788   0.559  -6.020  0.00  0.00     0.210 C 
ATOM      8  O   LIG d   1       7.143   1.306  -5.315  0.00  0.00    -0.276 OA
ATOM      9  H   LIG d   1       7.791  -0.474  -7.750  0.00  0.00     0.149 HD
BRANCH   7  10
ATOM     10  C   LIG d   1       9.163   0.118  -5.589  0.00  0.00     0.012 C 
ATOM     11  H   LIG d   1       9.877   0.919  -5.777  0.00  0.00     0.032 H 
ATOM     12  H   LIG d   1       9.152  -0.119  -4.525  0.00  0.00     0.032 H 
ATOM     13  H   LIG d   1       9.453  -0.768  -6.155  0.00  0.00     0.032 H 
ENDBRANCH   7  10
ENDBRANCH   4   6
BRANCH   4  14
ATOM     14  C   LIG d   1       5.991   1.049  -9.027  0.00  0.00     0.231 C 
ATOM     15  O   LIG d   1       6.104   2.235  -9.251  0.00  0.00    -0.274 OA
ATOM     16  N   LIG d   1       5.912   0.174 -10.050  0.00  0.00    -0.328 N 
ATOM     17  H   LIG d   1       5.821  -0.775  -9.870  0.00  0.00     0.145 HD
ATOM     18  H   LIG d   1       5.946   0.494 -10.965  0.00  0.00     0.145 HD
ENDBRANCH   4  14
ENDBRANCH   1   4
BRANCH   1  19
ATOM     19  C   LIG d   1       4.031  -0.425  -6.355  0.00  0.00    -0.020 A 
ATOM     20  C   LIG d   1       4.233  -0.879  -4.977  0.00  0.00     0.003 A 
ATOM     21  C   LIG d   1       3.100  -0.457  -4.258  0.00  0.00     0.047 A 
ATOM     22  C   LIG d   1       5.250  -1.580  -4.327  0.00  0.00    -0.052 A 
ATOM     23  N   LIG d   1       2.275   0.195  -5.147  0.00  0.00    -0.360 N 
ATOM     24  C   LIG d   1       3.010  -0.744  -2.900  0.00  0.00    -0.038 A 
ATOM     25  C   LIG d   1       2.845   0.204  -6.390  0.00  0.00     0.006 A 
ATOM     26  H   LIG d   1       1.418   0.589  -4.924  0.00  0.00     0.165 HD
ATOM     27  H   LIG d   1       2.408   0.652  -7.270  0.00  0.00     0.081 H 
ATOM     28  C   LIG d   1       4.020  -1.445  -2.279  0.00  0.00    -0.060 A 
ATOM     29  H   LIG d   1       2.144  -0.429  -2.337  0.00  0.00     0.064 H 
ATOM     30  C   LIG d   1       5.138  -1.856  -2.992  0.00  0.00    -0.061 A 
ATOM     31  H   LIG d   1       3.946  -1.671  -1.225  0.00  0.00     0.062 H 
ATOM     32  H   LIG d   1       5.925  -2.398  -2.490  0.00  0.00     0.062 H 
ATOM     33  H   LIG d   1       6.123  -1.904  -4.875  0.00  0.00     0.062 H 
ENDBRANCH   1  19
TORSDOF 5
ENDMDL
MODEL 10
REMARK VINA RESULT:      -5.0      3.618      4.517
REMARK  5 active torsions:
REMARK  status: ('A' for Active; 'I' for Inactive)
REMARK    1  A    between atoms: C_1  and  C_2 
REMARK       I    between atoms: C_2  and  N_4 
REMARK    2  A    between atoms: N_4  and  C_5 
REMARK    3  A    between atoms: C_5  and  C_7 
REMARK    4  A    between atoms: C_5  and  C_18 
REMARK    5  A    between atoms: C_7  and  C_8 
REMARK       I    between atoms: C_18  and  N_20 
ROOT
ATOM      1  C   LIG d   1       6.377  -0.735  -6.047  0.00  0.00     0.001 C 
ATOM      2  H   LIG d   1       7.125  -0.610  -6.830  0.00  0.00     0.034 H 
ATOM      3  H   LIG d   1       6.383  -1.769  -5.701  0.00  0.00     0.034 H 
ENDROOT
BRANCH   1   4
ATOM      4  C   LIG d   1       6.705   0.195  -4.877  0.00  0.00     0.103 C 
ATOM      5  H   LIG d   1       6.383   1.208  -5.117  0.00  0.00     0.060 H 
BRANCH   4   6
ATOM      6  N   LIG d   1       6.006  -0.267  -3.676  0.00  0.00    -0.304 N 
ATOM      7  C   LIG d   1       5.248   0.591  -2.964  0.00  0.00     0.210 C 
ATOM      8  O   LIG d   1       5.146   1.746  -3.318  0.00  0.00    -0.276 OA
ATOM      9  H   LIG d   1       6.088  -1.191  -3.391  0.00  0.00     0.149 HD
BRANCH   7  10
ATOM     10  C   LIG d   1       4.529   0.116  -1.728  0.00  0.00     0.012 C 
ATOM     11  H   LIG d   1       3.556   0.601  -1.665  0.00  0.00     0.032 H 
ATOM     12  H   LIG d   1       4.394  -0.964  -1.779  0.00  0.00     0.032 H 
ATOM     13  H   LIG d   1       5.118   0.368  -0.846  0.00  0.00     0.032 H 
ENDBRANCH   7  10
ENDBRANCH   4   6
BRANCH   4  14
ATOM     14  C   LIG d   1       8.192   0.185  -4.628  0.00  0.00     0.231 C 
ATOM     15  O   LIG d   1       8.756   1.203  -4.287  0.00  0.00    -0.274 OA
ATOM     16  N   LIG d   1       8.894  -0.954  -4.786  0.00  0.00    -0.328 N 
ATOM     17  H   LIG d   1       8.442  -1.768  -5.060  0.00  0.00     0.145 HD
ATOM     18  H   LIG d   1       9.850  -0.961  -4.627  0.00  0.00     0.145 HD
ENDBRANCH   4  14
ENDBRANCH   1   4
BRANCH   1  19
ATOM     19  C   LIG d   1       5.015  -0.395  -6.594  0.00  0.00    -0.020 A 
ATOM     20  C   LIG d   1       4.724   0.512  -7.707  0.00  0.00     0.003 A 
ATOM     21  C   LIG d   1       3.325   0.511  -7.854  0.00  0.00     0.047 A 
ATOM     22  C   LIG d   1       5.514   1.290  -8.556  0.00  0.00    -0.052 A 
ATOM     23  N   LIG d   1       2.816  -0.330  -6.890  0.00  0.00    -0.360 N 
ATOM     24  C   LIG d   1       2.745   1.288  -8.851  0.00  0.00    -0.038 A 
ATOM     25  C   LIG d   1       3.837  -0.859  -6.148  0.00  0.00     0.006 A 
ATOM     26  H   LIG d   1       1.875  -0.519  -6.756  0.00  0.00     0.165 HD
ATOM     27  H   LIG d   1       3.714  -1.551  -5.328  0.00  0.00     0.081 H 
ATOM     28  C   LIG d   1       3.541   2.055  -9.672  0.00  0.00    -0.060 A 
ATOM     29  H   LIG d   1       1.672   1.299  -8.972  0.00  0.00     0.064 H 
ATOM     30  C   LIG d   1       4.922   2.050  -9.525  0.00  0.00    -0.061 A 
ATOM     31  H   LIG d   1       3.088   2.661 -10.443  0.00  0.00     0.062 H 
ATOM     32  H   LIG d   1       5.532   2.651 -10.182  0.00  0.00     0.062 H 
ATOM     33  H   LIG d   1       6.589   1.291  -8.447  0.00  0.00     0.062 H 
ENDBRANCH   1  19
TORSDOF 5
ENDMDL
