MODEL 1
REMARK VINA RESULT:      -5.1      0.000      0.000
REMARK  4 active torsions:
REMARK  status: ('A' for Active; 'I' for Inactive)
REMARK    1  A    between atoms: C_1  and  C_2 
REMARK    2  A    between atoms: C_2  and  O_3 
REMARK    3  A    between atoms: O_3  and  C_4 
REMARK    4  A    between atoms: C_4  and  C_6 
ROOT
ATOM      1  C   LIG d   1       5.574  -1.814  -3.053  0.00  0.00     0.087 C 
ATOM      2  H   LIG d   1       5.684  -2.271  -2.069  0.00  0.00     0.046 H 
ATOM      3  C   LIG d   1       6.838  -1.081  -3.396  0.00  0.00    -0.017 C 
ATOM      4  C   LIG d   1       6.816   0.128  -3.936  0.00  0.00     0.197 C 
ATOM      5  O   LIG d   1       5.682   0.805  -4.190  0.00  0.00    -0.454 OA
ATOM      6  C   LIG d   1       4.418   0.135  -4.189  0.00  0.00     0.206 C 
ATOM      7  H   LIG d   1       4.162  -0.289  -5.161  0.00  0.00     0.106 H 
ATOM      8  C   LIG d   1       4.378  -0.891  -3.035  0.00  0.00     0.040 C 
ATOM      9  H   LIG d   1       3.461  -1.476  -3.096  0.00  0.00     0.037 H 
ATOM     10  C   LIG d   1       4.334   0.012  -1.791  0.00  0.00    -0.020 C 
ATOM     11  C   LIG d   1       3.736   1.332  -2.329  0.00  0.00     0.052 C 
ATOM     12  O   LIG d   1       3.458   1.129  -3.726  0.00  0.00    -0.341 OA
ATOM     13  C   LIG d   1       8.065   0.747  -4.265  0.00  0.00     0.137 C 
ATOM     14  N   LIG d   1       9.055   1.239  -4.526  0.00  0.00    -0.188 NA
ATOM     15  H   LIG d   1       7.790  -1.550  -3.196  0.00  0.00     0.062 H 
ATOM     16  H   LIG d   1       3.688  -0.419  -1.026  0.00  0.00     0.029 H 
ATOM     17  H   LIG d   1       5.338   0.177  -1.399  0.00  0.00     0.029 H 
ATOM     18  H   LIG d   1       2.812   1.564  -1.799  0.00  0.00     0.056 H 
ATOM     19  H   LIG d   1       4.453   2.143  -2.204  0.00  0.00     0.056 H 
ENDROOT
BRANCH   1  20
ATOM     20  C   LIG d   1       5.342  -2.897  -4.074  0.00  0.00     0.315 C 
ATOM     21  O   LIG d   1       4.295  -3.499  -4.091  0.00  0.00    -0.250 OA
BRANCH  20  22
ATOM     22  O   LIG d   1       6.300  -3.193  -4.967  0.00  0.00    -0.465 OA
BRANCH  22  23
ATOM     23  C   LIG d   1       5.903  -3.284  -6.337  0.00  0.00     0.090 C 
ATOM     24  H   LIG d   1       4.900  -3.704  -6.398  0.00  0.00     0.069 H 
ATOM     25  H   LIG d   1       6.599  -3.928  -6.875  0.00  0.00     0.069 H 
BRANCH  23  26
ATOM     26  C   LIG d   1       5.911  -1.889  -6.965  0.00  0.00    -0.031 C 
ATOM     27  H   LIG d   1       6.941  -1.566  -7.118  0.00  0.00     0.026 H 
ATOM     28  H   LIG d   1       5.393  -1.918  -7.923  0.00  0.00     0.026 H 
ATOM     29  H   LIG d   1       5.407  -1.189  -6.299  0.00  0.00     0.026 H 
ENDBRANCH  23  26
ENDBRANCH  22  23
ENDBRANCH  20  22
ENDBRANCH   1  20
TORSDOF 4
ENDMDL
MODEL 2
REMARK VINA RESULT:      -5.1      2.499      3.189
REMARK  4 active torsions:
REMARK  status: ('A' for Active; 'I' for Inactive)
REMARK    1  A    between atoms: C_1  and  C_2 
REMARK    2  A    between atoms: C_2  and  O_3 
REMARK    3  A    between atoms: O_3  and  C_4 
REMARK    4  A    between atoms: C_4  and  C_6 
ROOT
ATOM      1  C   LIG d   1       4.200  -1.048  -4.779  0.00  0.00     0.087 C 
ATOM      2  H   LIG d   1       3.268  -1.594  -4.636  0.00  0.00     0.046 H 
ATOM      3  C   LIG d   1       5.354  -1.976  -4.535  0.00  0.00    -0.017 C 
ATOM      4  C   LIG d   1       6.409  -1.603  -3.826  0.00  0.00     0.197 C 
ATOM      5  O   LIG d   1       6.522  -0.394  -3.247  0.00  0.00    -0.454 OA
ATOM      6  C   LIG d   1       5.655   0.679  -3.625  0.00  0.00     0.206 C 
ATOM      7  H   LIG d   1       6.036   1.254  -4.469  0.00  0.00     0.106 H 
ATOM      8  C   LIG d   1       4.225   0.135  -3.839  0.00  0.00     0.040 C 
ATOM      9  H   LIG d   1       3.587   0.928  -4.229  0.00  0.00     0.037 H 
ATOM     10  C   LIG d   1       3.790  -0.224  -2.408  0.00  0.00    -0.020 C 
ATOM     11  C   LIG d   1       4.677   0.684  -1.527  0.00  0.00     0.052 C 
ATOM     12  O   LIG d   1       5.484   1.475  -2.417  0.00  0.00    -0.341 OA
ATOM     13  C   LIG d   1       7.484  -2.536  -3.667  0.00  0.00     0.137 C 
ATOM     14  N   LIG d   1       8.337  -3.276  -3.541  0.00  0.00    -0.188 NA
ATOM     15  H   LIG d   1       5.323  -2.974  -4.947  0.00  0.00     0.062 H 
ATOM     16  H   LIG d   1       2.735   0.007  -2.258  0.00  0.00     0.029 H 
ATOM     17  H   LIG d   1       3.987  -1.275  -2.199  0.00  0.00     0.029 H 
ATOM     18  H   LIG d   1       4.051   1.336  -0.918  0.00  0.00     0.056 H 
ATOM     19  H   LIG d   1       5.314   0.073  -0.888  0.00  0.00     0.056 H 
ENDROOT
BRANCH   1  20
ATOM     20  C   LIG d   1       4.264  -0.547  -6.199  0.00  0.00     0.315 C 
ATOM     21  O   LIG d   1       4.949  -1.119  -7.012  0.00  0.00    -0.250 OA
BRANCH  20  22
ATOM     22  O   LIG d   1       3.557   0.536  -6.559  0.00  0.00    -0.465 OA
BRANCH  22  23
ATOM     23  C   LIG d   1       2.947   0.512  -7.852  0.00  0.00     0.090 C 
ATOM     24  H   LIG d   1       1.928   0.135  -7.766  0.00  0.00     0.069 H 
ATOM     25  H   LIG d   1       3.521  -0.138  -8.512  0.00  0.00     0.069 H 
BRANCH  23  26
ATOM     26  C   LIG d   1       2.920   1.928  -8.430  0.00  0.00    -0.031 C 
ATOM     27  H   LIG d   1       3.914   2.191  -8.792  0.00  0.00     0.026 H 
ATOM     28  H   LIG d   1       2.209   1.972  -9.254  0.00  0.00     0.026 H 
ATOM     29  H   LIG d   1       2.620   2.631  -7.653  0.00  0.00     0.026 H 
ENDBRANCH  23  26
ENDBRANCH  22  23
ENDBRANCH  20  22
ENDBRANCH   1  20
TORSDOF 4
ENDMDL
MODEL 3
REMARK VINA RESULT:      -4.6      2.522      4.672
REMARK  4 active torsions:
REMARK  status: ('A' for Active; 'I' for Inactive)
REMARK    1  A    between atoms: C_1  and  C_2 
REMARK    2  A    between atoms: C_2  and  O_3 
REMARK    3  A    between atoms: O_3  and  C_4 
REMARK    4  A    between atoms: C_4  and  C_6 
ROOT
ATOM      1  C   LIG d   1       6.721  -0.561  -3.343  0.00  0.00     0.087 C 
ATOM      2  H   LIG d   1       7.536  -0.686  -2.630  0.00  0.00     0.046 H 
ATOM      3  C   LIG d   1       6.027  -1.878  -3.529  0.00  0.00    -0.017 C 
ATOM      4  C   LIG d   1       5.676  -2.316  -4.728  0.00  0.00     0.197 C 
ATOM      5  O   LIG d   1       5.934  -1.646  -5.866  0.00  0.00    -0.454 OA
ATOM      6  C   LIG d   1       6.320  -0.269  -5.829  0.00  0.00     0.206 C 
ATOM      7  H   LIG d   1       5.467   0.410  -5.842  0.00  0.00     0.106 H 
ATOM      8  C   LIG d   1       7.282  -0.034  -4.643  0.00  0.00     0.040 C 
ATOM      9  H   LIG d   1       7.493   1.031  -4.549  0.00  0.00     0.037 H 
ATOM     10  C   LIG d   1       8.551  -0.776  -5.095  0.00  0.00    -0.020 C 
ATOM     11  C   LIG d   1       8.425  -0.792  -6.636  0.00  0.00     0.052 C 
ATOM     12  O   LIG d   1       7.213  -0.091  -6.966  0.00  0.00    -0.341 OA
ATOM     13  C   LIG d   1       4.986  -3.568  -4.819  0.00  0.00     0.137 C 
ATOM     14  N   LIG d   1       4.439  -4.561  -4.891  0.00  0.00    -0.188 NA
ATOM     15  H   LIG d   1       5.809  -2.486  -2.663  0.00  0.00     0.062 H 
ATOM     16  H   LIG d   1       9.444  -0.231  -4.789  0.00  0.00     0.029 H 
ATOM     17  H   LIG d   1       8.564  -1.792  -4.700  0.00  0.00     0.029 H 
ATOM     18  H   LIG d   1       9.279  -0.284  -7.083  0.00  0.00     0.056 H 
ATOM     19  H   LIG d   1       8.372  -1.821  -6.993  0.00  0.00     0.056 H 
ENDROOT
BRANCH   1  20
ATOM     20  C   LIG d   1       5.738   0.440  -2.792  0.00  0.00     0.315 C 
ATOM     21  O   LIG d   1       5.905   1.620  -2.983  0.00  0.00    -0.250 OA
BRANCH  20  22
ATOM     22  O   LIG d   1       4.674   0.017  -2.091  0.00  0.00    -0.465 OA
BRANCH  22  23
ATOM     23  C   LIG d   1       3.391   0.481  -2.516  0.00  0.00     0.090 C 
ATOM     24  H   LIG d   1       3.517   1.284  -3.242  0.00  0.00     0.069 H 
ATOM     25  H   LIG d   1       2.835   0.853  -1.656  0.00  0.00     0.069 H 
BRANCH  23  26
ATOM     26  C   LIG d   1       2.620  -0.674  -3.161  0.00  0.00    -0.031 C 
ATOM     27  H   LIG d   1       2.597  -0.536  -4.242  0.00  0.00     0.026 H 
ATOM     28  H   LIG d   1       3.112  -1.617  -2.924  0.00  0.00     0.026 H 
ATOM     29  H   LIG d   1       1.600  -0.689  -2.775  0.00  0.00     0.026 H 
ENDBRANCH  23  26
ENDBRANCH  22  23
ENDBRANCH  20  22
ENDBRANCH   1  20
TORSDOF 4
ENDMDL
MODEL 4
REMARK VINA RESULT:      -4.6      2.853      4.661
REMARK  4 active torsions:
REMARK  status: ('A' for Active; 'I' for Inactive)
REMARK    1  A    between atoms: C_1  and  C_2 
REMARK    2  A    between atoms: C_2  and  O_3 
REMARK    3  A    between atoms: O_3  and  C_4 
REMARK    4  A    between atoms: C_4  and  C_6 
ROOT
ATOM      1  C   LIG d   1       5.647  -2.288  -3.951  0.00  0.00     0.087 C 
ATOM      2  H   LIG d   1       6.597  -2.569  -3.496  0.00  0.00     0.046 H 
ATOM      3  C   LIG d   1       5.110  -3.457  -4.725  0.00  0.00    -0.017 C 
ATOM      4  C   LIG d   1       4.588  -3.310  -5.933  0.00  0.00     0.197 C 
ATOM      5  O   LIG d   1       4.525  -2.129  -6.574  0.00  0.00    -0.454 OA
ATOM      6  C   LIG d   1       4.724  -0.903  -5.865  0.00  0.00     0.206 C 
ATOM      7  H   LIG d   1       3.804  -0.508  -5.435  0.00  0.00     0.106 H 
ATOM      8  C   LIG d   1       5.863  -1.083  -4.836  0.00  0.00     0.040 C 
ATOM      9  H   LIG d   1       5.946  -0.186  -4.223  0.00  0.00     0.037 H 
ATOM     10  C   LIG d   1       7.104  -1.212  -5.736  0.00  0.00    -0.020 C 
ATOM     11  C   LIG d   1       6.678  -0.494  -7.036  0.00  0.00     0.052 C 
ATOM     12  O   LIG d   1       5.343  -0.001  -6.827  0.00  0.00    -0.341 OA
ATOM     13  C   LIG d   1       4.066  -4.470  -6.592  0.00  0.00     0.137 C 
ATOM     14  N   LIG d   1       3.652  -5.390  -7.115  0.00  0.00    -0.188 NA
ATOM     15  H   LIG d   1       5.150  -4.442  -4.285  0.00  0.00     0.062 H 
ATOM     16  H   LIG d   1       7.960  -0.711  -5.283  0.00  0.00     0.029 H 
ATOM     17  H   LIG d   1       7.330  -2.260  -5.931  0.00  0.00     0.029 H 
ATOM     18  H   LIG d   1       7.351   0.339  -7.238  0.00  0.00     0.056 H 
ATOM     19  H   LIG d   1       6.691  -1.197  -7.869  0.00  0.00     0.056 H 
ENDROOT
BRANCH   1  20
ATOM     20  C   LIG d   1       4.669  -1.927  -2.863  0.00  0.00     0.315 C 
ATOM     21  O   LIG d   1       3.734  -2.654  -2.624  0.00  0.00    -0.250 OA
BRANCH  20  22
ATOM     22  O   LIG d   1       4.837  -0.797  -2.158  0.00  0.00    -0.465 OA
BRANCH  22  23
ATOM     23  C   LIG d   1       3.736   0.114  -2.120  0.00  0.00     0.090 C 
ATOM     24  H   LIG d   1       3.398   0.232  -1.091  0.00  0.00     0.069 H 
ATOM     25  H   LIG d   1       2.920  -0.277  -2.728  0.00  0.00     0.069 H 
BRANCH  23  26
ATOM     26  C   LIG d   1       4.178   1.471  -2.673  0.00  0.00    -0.031 C 
ATOM     27  H   LIG d   1       3.363   2.188  -2.568  0.00  0.00     0.026 H 
ATOM     28  H   LIG d   1       5.046   1.824  -2.117  0.00  0.00     0.026 H 
ATOM     29  H   LIG d   1       4.437   1.367  -3.726  0.00  0.00     0.026 H 
ENDBRANCH  23  26
ENDBRANCH  22  23
ENDBRANCH  20  22
ENDBRANCH   1  20
TORSDOF 4
ENDMDL
MODEL 5
REMARK VINA RESULT:      -4.6      2.478      3.040
REMARK  4 active torsions:
REMARK  status: ('A' for Active; 'I' for Inactive)
REMARK    1  A    between atoms: C_1  and  C_2 
REMARK    2  A    between atoms: C_2  and  O_3 
REMARK    3  A    between atoms: O_3  and  C_4 
REMARK    4  A    between atoms: C_4  and  C_6 
ROOT
ATOM      1  C   LIG d   1       5.003  -1.618  -4.412  0.00  0.00     0.087 C 
ATOM      2  H   LIG d   1       6.092  -1.657  -4.428  0.00  0.00     0.046 H 
ATOM      3  C   LIG d   1       4.516  -0.995  -5.688  0.00  0.00    -0.017 C 
ATOM      4  C   LIG d   1       3.551  -0.088  -5.695  0.00  0.00     0.197 C 
ATOM      5  O   LIG d   1       2.957   0.370  -4.578  0.00  0.00    -0.454 OA
ATOM      6  C   LIG d   1       3.105  -0.325  -3.337  0.00  0.00     0.206 C 
ATOM      7  H   LIG d   1       2.354  -1.102  -3.194  0.00  0.00     0.106 H 
ATOM      8  C   LIG d   1       4.558  -0.832  -3.200  0.00  0.00     0.040 C 
ATOM      9  H   LIG d   1       4.646  -1.451  -2.307  0.00  0.00     0.037 H 
ATOM     10  C   LIG d   1       5.347   0.473  -3.006  0.00  0.00    -0.020 C 
ATOM     11  C   LIG d   1       4.291   1.447  -2.437  0.00  0.00     0.052 C 
ATOM     12  O   LIG d   1       3.062   0.710  -2.312  0.00  0.00    -0.341 OA
ATOM     13  C   LIG d   1       3.120   0.433  -6.957  0.00  0.00     0.137 C 
ATOM     14  N   LIG d   1       2.777   0.847  -7.958  0.00  0.00    -0.188 NA
ATOM     15  H   LIG d   1       4.964  -1.294  -6.624  0.00  0.00     0.062 H 
ATOM     16  H   LIG d   1       6.159   0.328  -2.293  0.00  0.00     0.029 H 
ATOM     17  H   LIG d   1       5.732   0.835  -3.959  0.00  0.00     0.029 H 
ATOM     18  H   LIG d   1       4.607   1.807  -1.458  0.00  0.00     0.056 H 
ATOM     19  H   LIG d   1       4.156   2.287  -3.119  0.00  0.00     0.056 H 
ENDROOT
BRANCH   1  20
ATOM     20  C   LIG d   1       4.463  -3.021  -4.312  0.00  0.00     0.315 C 
ATOM     21  O   LIG d   1       4.140  -3.470  -3.238  0.00  0.00    -0.250 OA
BRANCH  20  22
ATOM     22  O   LIG d   1       4.340  -3.772  -5.418  0.00  0.00    -0.465 OA
BRANCH  22  23
ATOM     23  C   LIG d   1       4.964  -5.058  -5.401  0.00  0.00     0.090 C 
ATOM     24  H   LIG d   1       4.575  -5.661  -6.221  0.00  0.00     0.069 H 
ATOM     25  H   LIG d   1       4.752  -5.552  -4.454  0.00  0.00     0.069 H 
BRANCH  23  26
ATOM     26  C   LIG d   1       6.477  -4.892  -5.562  0.00  0.00    -0.031 C 
ATOM     27  H   LIG d   1       6.707  -4.647  -6.599  0.00  0.00     0.026 H 
ATOM     28  H   LIG d   1       6.826  -4.090  -4.912  0.00  0.00     0.026 H 
ATOM     29  H   LIG d   1       6.974  -5.823  -5.291  0.00  0.00     0.026 H 
ENDBRANCH  23  26
ENDBRANCH  22  23
ENDBRANCH  20  22
ENDBRANCH   1  20
TORSDOF 4
ENDMDL
MODEL 6
REMARK VINA RESULT:      -4.6      2.747      5.150
REMARK  4 active torsions:
REMARK  status: ('A' for Active; 'I' for Inactive)
REMARK    1  A    between atoms: C_1  and  C_2 
REMARK    2  A    between atoms: C_2  and  O_3 
REMARK    3  A    between atoms: O_3  and  C_4 
REMARK    4  A    between atoms: C_4  and  C_6 
ROOT
ATOM      1  C   LIG d   1       5.569  -1.740  -3.910  0.00  0.00     0.087 C 
ATOM      2  H   LIG d   1       5.580  -1.748  -2.820  0.00  0.00     0.046 H 
ATOM      3  C   LIG d   1       4.780  -2.918  -4.401  0.00  0.00    -0.017 C 
ATOM      4  C   LIG d   1       5.203  -3.668  -5.407  0.00  0.00     0.197 C 
ATOM      5  O   LIG d   1       6.370  -3.463  -6.045  0.00  0.00    -0.454 OA
ATOM      6  C   LIG d   1       7.079  -2.230  -5.888  0.00  0.00     0.206 C 
ATOM      7  H   LIG d   1       6.768  -1.469  -6.603  0.00  0.00     0.106 H 
ATOM      8  C   LIG d   1       6.993  -1.769  -4.415  0.00  0.00     0.040 C 
ATOM      9  H   LIG d   1       7.440  -0.780  -4.315  0.00  0.00     0.037 H 
ATOM     10  C   LIG d   1       7.867  -2.808  -3.692  0.00  0.00    -0.020 C 
ATOM     11  C   LIG d   1       8.813  -3.315  -4.804  0.00  0.00     0.052 C 
ATOM     12  O   LIG d   1       8.488  -2.582  -5.999  0.00  0.00    -0.341 OA
ATOM     13  C   LIG d   1       4.376  -4.755  -5.839  0.00  0.00     0.137 C 
ATOM     14  N   LIG d   1       3.720  -5.617  -6.181  0.00  0.00    -0.188 NA
ATOM     15  H   LIG d   1       3.844  -3.162  -3.921  0.00  0.00     0.062 H 
ATOM     16  H   LIG d   1       8.434  -2.340  -2.888  0.00  0.00     0.029 H 
ATOM     17  H   LIG d   1       7.254  -3.624  -3.307  0.00  0.00     0.029 H 
ATOM     18  H   LIG d   1       9.849  -3.125  -4.525  0.00  0.00     0.056 H 
ATOM     19  H   LIG d   1       8.658  -4.381  -4.966  0.00  0.00     0.056 H 
ENDROOT
BRANCH   1  20
ATOM     20  C   LIG d   1       4.907  -0.472  -4.386  0.00  0.00     0.315 C 
ATOM     21  O   LIG d   1       3.934  -0.528  -5.097  0.00  0.00    -0.250 OA
BRANCH  20  22
ATOM     22  O   LIG d   1       5.401   0.721  -4.016  0.00  0.00    -0.465 OA
BRANCH  22  23
ATOM     23  C   LIG d   1       5.392   1.021  -2.619  0.00  0.00     0.090 C 
ATOM     24  H   LIG d   1       5.935   1.950  -2.443  0.00  0.00     0.069 H 
ATOM     25  H   LIG d   1       5.871   0.211  -2.070  0.00  0.00     0.069 H 
BRANCH  23  26
ATOM     26  C   LIG d   1       3.947   1.176  -2.140  0.00  0.00    -0.031 C 
ATOM     27  H   LIG d   1       3.541   0.196  -1.886  0.00  0.00     0.026 H 
ATOM     28  H   LIG d   1       3.922   1.819  -1.260  0.00  0.00     0.026 H 
ATOM     29  H   LIG d   1       3.348   1.623  -2.933  0.00  0.00     0.026 H 
ENDBRANCH  23  26
ENDBRANCH  22  23
ENDBRANCH  20  22
ENDBRANCH   1  20
TORSDOF 4
ENDMDL
MODEL 7
REMARK VINA RESULT:      -4.5      1.923      4.133
REMARK  4 active torsions:
REMARK  status: ('A' for Active; 'I' for Inactive)
REMARK    1  A    between atoms: C_1  and  C_2 
REMARK    2  A    between atoms: C_2  and  O_3 
REMARK    3  A    between atoms: O_3  and  C_4 
REMARK    4  A    between atoms: C_4  and  C_6 
ROOT
ATOM      1  C   LIG d   1       4.398  -2.102  -4.610  0.00  0.00     0.087 C 
ATOM      2  H   LIG d   1       3.714  -2.802  -5.089  0.00  0.00     0.046 H 
ATOM      3  C   LIG d   1       4.841  -1.082  -5.618  0.00  0.00    -0.017 C 
ATOM      4  C   LIG d   1       6.106  -0.702  -5.713  0.00  0.00     0.197 C 
ATOM      5  O   LIG d   1       7.091  -1.210  -4.951  0.00  0.00    -0.454 OA
ATOM      6  C   LIG d   1       6.787  -1.961  -3.771  0.00  0.00     0.206 C 
ATOM      7  H   LIG d   1       6.679  -1.334  -2.886  0.00  0.00     0.106 H 
ATOM      8  C   LIG d   1       5.567  -2.870  -4.040  0.00  0.00     0.040 C 
ATOM      9  H   LIG d   1       5.268  -3.363  -3.115  0.00  0.00     0.037 H 
ATOM     10  C   LIG d   1       6.139  -3.910  -5.019  0.00  0.00    -0.020 C 
ATOM     11  C   LIG d   1       7.655  -3.885  -4.720  0.00  0.00     0.052 C 
ATOM     12  O   LIG d   1       7.859  -2.940  -3.655  0.00  0.00    -0.341 OA
ATOM     13  C   LIG d   1       6.442   0.302  -6.677  0.00  0.00     0.137 C 
ATOM     14  N   LIG d   1       6.709   1.098  -7.443  0.00  0.00    -0.188 NA
ATOM     15  H   LIG d   1       4.109  -0.647  -6.283  0.00  0.00     0.062 H 
ATOM     16  H   LIG d   1       5.723  -4.897  -4.817  0.00  0.00     0.029 H 
ATOM     17  H   LIG d   1       5.945  -3.614  -6.050  0.00  0.00     0.029 H 
ATOM     18  H   LIG d   1       7.988  -4.873  -4.406  0.00  0.00     0.056 H 
ATOM     19  H   LIG d   1       8.203  -3.570  -5.609  0.00  0.00     0.056 H 
ENDROOT
BRANCH   1  20
ATOM     20  C   LIG d   1       3.677  -1.402  -3.486  0.00  0.00     0.315 C 
ATOM     21  O   LIG d   1       3.441  -1.992  -2.459  0.00  0.00    -0.250 OA
BRANCH  20  22
ATOM     22  O   LIG d   1       3.297  -0.122  -3.628  0.00  0.00    -0.465 OA
BRANCH  22  23
ATOM     23  C   LIG d   1       3.567   0.759  -2.536  0.00  0.00     0.090 C 
ATOM     24  H   LIG d   1       3.353   0.249  -1.596  0.00  0.00     0.069 H 
ATOM     25  H   LIG d   1       2.938   1.644  -2.619  0.00  0.00     0.069 H 
BRANCH  23  26
ATOM     26  C   LIG d   1       5.039   1.174  -2.567  0.00  0.00    -0.031 C 
ATOM     27  H   LIG d   1       5.126   2.224  -2.286  0.00  0.00     0.026 H 
ATOM     28  H   LIG d   1       5.605   0.561  -1.866  0.00  0.00     0.026 H 
ATOM     29  H   LIG d   1       5.434   1.035  -3.573  0.00  0.00     0.026 H 
ENDBRANCH  23  26
ENDBRANCH  22  23
ENDBRANCH  20  22
ENDBRANCH   1  20
TORSDOF 4
ENDMDL
MODEL 8
REMARK VINA RESULT:      -4.3      2.217      3.613
REMARK  4 active torsions:
REMARK  status: ('A' for Active; 'I' for Inactive)
REMARK    1  A    between atoms: C_1  and  C_2 
REMARK    2  A    between atoms: C_2  and  O_3 
REMARK    3  A    between atoms: O_3  and  C_4 
REMARK    4  A    between atoms: C_4  and  C_6 
ROOT
ATOM      1  C   LIG d   1       6.160  -0.893  -2.964  0.00  0.00     0.087 C 
ATOM      2  H   LIG d   1       6.455  -0.550  -1.972  0.00  0.00     0.046 H 
ATOM      3  C   LIG d   1       7.026  -2.053  -3.358  0.00  0.00    -0.017 C 
ATOM      4  C   LIG d   1       7.544  -2.153  -4.573  0.00  0.00     0.197 C 
ATOM      5  O   LIG d   1       7.368  -1.226  -5.532  0.00  0.00    -0.454 OA
ATOM      6  C   LIG d   1       6.349  -0.230  -5.404  0.00  0.00     0.206 C 
ATOM      7  H   LIG d   1       5.387  -0.555  -5.801  0.00  0.00     0.106 H 
ATOM      8  C   LIG d   1       6.283   0.255  -3.938  0.00  0.00     0.040 C 
ATOM      9  H   LIG d   1       5.439   0.934  -3.816  0.00  0.00     0.037 H 
ATOM     10  C   LIG d   1       7.600   1.033  -3.788  0.00  0.00    -0.020 C 
ATOM     11  C   LIG d   1       7.942   1.441  -5.239  0.00  0.00     0.052 C 
ATOM     12  O   LIG d   1       6.879   0.948  -6.075  0.00  0.00    -0.341 OA
ATOM     13  C   LIG d   1       8.333  -3.308  -4.881  0.00  0.00     0.137 C 
ATOM     14  N   LIG d   1       8.959  -4.224  -5.126  0.00  0.00    -0.188 NA
ATOM     15  H   LIG d   1       7.235  -2.826  -2.632  0.00  0.00     0.062 H 
ATOM     16  H   LIG d   1       7.456   1.916  -3.165  0.00  0.00     0.029 H 
ATOM     17  H   LIG d   1       8.380   0.393  -3.374  0.00  0.00     0.029 H 
ATOM     18  H   LIG d   1       7.999   2.526  -5.316  0.00  0.00     0.056 H 
ATOM     19  H   LIG d   1       8.890   0.993  -5.537  0.00  0.00     0.056 H 
ENDROOT
BRANCH   1  20
ATOM     20  C   LIG d   1       4.723  -1.346  -2.919  0.00  0.00     0.315 C 
ATOM     21  O   LIG d   1       4.447  -2.505  -3.118  0.00  0.00    -0.250 OA
BRANCH  20  22
ATOM     22  O   LIG d   1       3.749  -0.460  -2.657  0.00  0.00    -0.465 OA
BRANCH  22  23
ATOM     23  C   LIG d   1       2.544  -0.577  -3.417  0.00  0.00     0.090 C 
ATOM     24  H   LIG d   1       1.690  -0.344  -2.781  0.00  0.00     0.069 H 
ATOM     25  H   LIG d   1       2.450  -1.594  -3.794  0.00  0.00     0.069 H 
BRANCH  23  26
ATOM     26  C   LIG d   1       2.587   0.401  -4.593  0.00  0.00    -0.031 C 
ATOM     27  H   LIG d   1       3.108  -0.063  -5.431  0.00  0.00     0.026 H 
ATOM     28  H   LIG d   1       1.570   0.654  -4.892  0.00  0.00     0.026 H 
ATOM     29  H   LIG d   1       3.114   1.306  -4.293  0.00  0.00     0.026 H 
ENDBRANCH  23  26
ENDBRANCH  22  23
ENDBRANCH  20  22
ENDBRANCH   1  20
TORSDOF 4
ENDMDL
MODEL 9
REMARK VINA RESULT:      -4.3      2.549      3.651
REMARK  4 active torsions:
REMARK  status: ('A' for Active; 'I' for Inactive)
REMARK    1  A    between atoms: C_1  and  C_2 
REMARK    2  A    between atoms: C_2  and  O_3 
REMARK    3  A    between atoms: O_3  and  C_4 
REMARK    4  A    between atoms: C_4  and  C_6 
ROOT
ATOM      1  C   LIG d   1       6.994  -1.190  -3.859  0.00  0.00     0.087 C 
ATOM      2  H   LIG d   1       7.418  -0.450  -3.181  0.00  0.00     0.046 H 
ATOM      3  C   LIG d   1       6.472  -0.492  -5.081  0.00  0.00    -0.017 C 
ATOM      4  C   LIG d   1       5.298  -0.802  -5.610  0.00  0.00     0.197 C 
ATOM      5  O   LIG d   1       4.473  -1.729  -5.091  0.00  0.00    -0.454 OA
ATOM      6  C   LIG d   1       4.948  -2.665  -4.119  0.00  0.00     0.206 C 
ATOM      7  H   LIG d   1       5.372  -3.563  -4.568  0.00  0.00     0.106 H 
ATOM      8  C   LIG d   1       5.905  -1.950  -3.139  0.00  0.00     0.040 C 
ATOM      9  H   LIG d   1       6.350  -2.680  -2.464  0.00  0.00     0.037 H 
ATOM     10  C   LIG d   1       4.950  -1.033  -2.354  0.00  0.00    -0.020 C 
ATOM     11  C   LIG d   1       3.582  -1.739  -2.496  0.00  0.00     0.052 C 
ATOM     12  O   LIG d   1       3.804  -2.938  -3.259  0.00  0.00    -0.341 OA
ATOM     13  C   LIG d   1       4.885  -0.113  -6.796  0.00  0.00     0.137 C 
ATOM     14  N   LIG d   1       4.558   0.433  -7.737  0.00  0.00    -0.188 NA
ATOM     15  H   LIG d   1       7.067   0.283  -5.539  0.00  0.00     0.062 H 
ATOM     16  H   LIG d   1       5.247  -0.977  -1.307  0.00  0.00     0.029 H 
ATOM     17  H   LIG d   1       4.919  -0.039  -2.800  0.00  0.00     0.029 H 
ATOM     18  H   LIG d   1       3.193  -1.995  -1.511  0.00  0.00     0.056 H 
ATOM     19  H   LIG d   1       2.881  -1.087  -3.018  0.00  0.00     0.056 H 
ENDROOT
BRANCH   1  20
ATOM     20  C   LIG d   1       8.075  -2.156  -4.270  0.00  0.00     0.315 C 
ATOM     21  O   LIG d   1       8.753  -1.928  -5.243  0.00  0.00    -0.250 OA
BRANCH  20  22
ATOM     22  O   LIG d   1       8.285  -3.271  -3.552  0.00  0.00    -0.465 OA
BRANCH  22  23
ATOM     23  C   LIG d   1       9.599  -3.833  -3.596  0.00  0.00     0.090 C 
ATOM     24  H   LIG d   1      10.328  -3.040  -3.760  0.00  0.00     0.069 H 
ATOM     25  H   LIG d   1       9.658  -4.555  -4.410  0.00  0.00     0.069 H 
BRANCH  23  26
ATOM     26  C   LIG d   1       9.898  -4.534  -2.269  0.00  0.00    -0.031 C 
ATOM     27  H   LIG d   1      10.977  -4.635  -2.147  0.00  0.00     0.026 H 
ATOM     28  H   LIG d   1       9.492  -3.946  -1.447  0.00  0.00     0.026 H 
ATOM     29  H   LIG d   1       9.440  -5.523  -2.270  0.00  0.00     0.026 H 
ENDBRANCH  23  26
ENDBRANCH  22  23
ENDBRANCH  20  22
ENDBRANCH   1  20
TORSDOF 4
ENDMDL
