MODEL 1
REMARK VINA RESULT:      -7.0      0.000      0.000
REMARK  9 active torsions:
REMARK  status: ('A' for Active; 'I' for Inactive)
REMARK    1  A    between atoms: C_1  and  C_2 
REMARK    2  A    between atoms: C_4  and  O_25 
REMARK    3  A    between atoms: C_5  and  C_24 
REMARK    4  A    between atoms: C_10  and  C_13 
REMARK    5  A    between atoms: C_13  and  C_15 
REMARK    6  A    between atoms: C_13  and  C_16 
REMARK       I    between atoms: C_16  and  N_18 
REMARK    7  A    between atoms: O_25  and  C_26 
REMARK    8  A    between atoms: C_26  and  C_27 
REMARK    9  A    between atoms: C_27  and  N_28 
ROOT
ATOM      1  C   LIG d   1       2.565  -1.495  -9.509  0.00  0.00    -0.043 A 
ATOM      2  C   LIG d   1       2.058  -2.480 -10.329  0.00  0.00    -0.017 A 
ATOM      3  C   LIG d   1       2.376  -3.808 -10.085  0.00  0.00     0.124 A 
ATOM      4  C   LIG d   1       3.196  -4.131  -9.018  0.00  0.00    -0.005 A 
ATOM      5  C   LIG d   1       3.703  -3.138  -8.192  0.00  0.00    -0.037 A 
ATOM      6  C   LIG d   1       3.389  -1.819  -8.439  0.00  0.00    -0.041 A 
ATOM      7  C   LIG d   1       3.911  -0.689  -7.590  0.00  0.00    -0.027 C 
ATOM      8  C   LIG d   1       4.418  -1.215  -6.249  0.00  0.00    -0.045 C 
ATOM      9  C   LIG d   1       5.386  -2.373  -6.519  0.00  0.00    -0.026 C 
ATOM     10  H   LIG d   1       6.142  -2.073  -7.259  0.00  0.00     0.031 H 
ATOM     11  C   LIG d   1       4.582  -3.560  -7.045  0.00  0.00    -0.024 C 
ATOM     12  H   LIG d   1       1.417  -2.219 -11.158  0.00  0.00     0.066 H 
ATOM     13  H   LIG d   1       4.739  -0.189  -8.113  0.00  0.00     0.031 H 
ATOM     14  H   LIG d   1       3.104   0.035  -7.406  0.00  0.00     0.031 H 
ATOM     15  H   LIG d   1       4.938  -0.408  -5.711  0.00  0.00     0.027 H 
ATOM     16  H   LIG d   1       3.567  -1.568  -5.647  0.00  0.00     0.027 H 
ATOM     17  H   LIG d   1       3.958  -3.957  -6.230  0.00  0.00     0.032 H 
ATOM     18  H   LIG d   1       5.279  -4.340  -7.386  0.00  0.00     0.032 H 
ENDROOT
BRANCH   9  19
ATOM     19  C   LIG d   1       6.095  -2.766  -5.220  0.00  0.00     0.036 C 
ATOM     20  H   LIG d   1       6.966  -2.114  -5.058  0.00  0.00     0.039 H 
BRANCH  19  21
ATOM     21  C   LIG d   1       6.546  -4.225  -5.306  0.00  0.00    -0.054 C 
ATOM     22  H   LIG d   1       7.316  -4.326  -6.086  0.00  0.00     0.024 H 
ATOM     23  H   LIG d   1       5.684  -4.862  -5.557  0.00  0.00     0.024 H 
ATOM     24  H   LIG d   1       6.962  -4.538  -4.337  0.00  0.00     0.024 H 
ENDBRANCH  19  21
BRANCH  19  25
ATOM     25  C   LIG d   1       5.147  -2.601  -4.061  0.00  0.00     0.219 C 
ATOM     26  O   LIG d   1       4.218  -3.369  -3.923  0.00  0.00    -0.275 OA
ATOM     27  N   LIG d   1       5.330  -1.599  -3.177  0.00  0.00    -0.301 N 
ATOM     28  C   LIG d   1       4.480  -1.489  -1.984  0.00  0.00     0.015 C 
ATOM     29  C   LIG d   1       6.386  -0.599  -3.388  0.00  0.00     0.015 C 
ATOM     30  C   LIG d   1       3.873  -0.083  -1.938  0.00  0.00    -0.037 C 
ATOM     31  H   LIG d   1       3.678  -2.241  -2.034  0.00  0.00     0.046 H 
ATOM     32  H   LIG d   1       5.090  -1.661  -1.084  0.00  0.00     0.046 H 
ATOM     33  C   LIG d   1       4.995   0.955  -2.009  0.00  0.00    -0.050 C 
ATOM     34  H   LIG d   1       3.314   0.045  -0.999  0.00  0.00     0.028 H 
ATOM     35  H   LIG d   1       3.193   0.051  -2.792  0.00  0.00     0.028 H 
ATOM     36  C   LIG d   1       5.752   0.800  -3.330  0.00  0.00    -0.037 C 
ATOM     37  H   LIG d   1       5.688   0.804  -1.168  0.00  0.00     0.027 H 
ATOM     38  H   LIG d   1       4.563   1.965  -1.951  0.00  0.00     0.027 H 
ATOM     39  H   LIG d   1       6.543   1.562  -3.394  0.00  0.00     0.028 H 
ATOM     40  H   LIG d   1       5.056   0.923  -4.172  0.00  0.00     0.028 H 
ATOM     41  H   LIG d   1       7.148  -0.700  -2.601  0.00  0.00     0.046 H 
ATOM     42  H   LIG d   1       6.851  -0.759  -4.372  0.00  0.00     0.046 H 
ENDBRANCH  19  25
ENDBRANCH   9  19
BRANCH   4  43
ATOM     43  C   LIG d   1       3.543  -5.573  -8.750  0.00  0.00    -0.036 C 
ATOM     44  H   LIG d   1       3.802  -5.698  -7.689  0.00  0.00     0.028 H 
ATOM     45  H   LIG d   1       4.399  -5.866  -9.375  0.00  0.00     0.028 H 
ATOM     46  H   LIG d   1       2.678  -6.209  -8.992  0.00  0.00     0.028 H 
ENDBRANCH   4  43
BRANCH   1  47
ATOM     47  C   LIG d   1       2.217  -0.052  -9.773  0.00  0.00    -0.039 C 
ATOM     48  H   LIG d   1       2.935   0.599  -9.254  0.00  0.00     0.028 H 
ATOM     49  H   LIG d   1       1.202   0.154  -9.404  0.00  0.00     0.028 H 
ATOM     50  H   LIG d   1       2.260   0.144 -10.856  0.00  0.00     0.028 H 
ENDBRANCH   1  47
BRANCH   3  51
ATOM     51  O   LIG d   1       1.882  -4.787 -10.888  0.00  0.00    -0.490 OA
BRANCH  51  52
ATOM     52  C   LIG d   1       0.545  -4.623 -11.364  0.00  0.00     0.102 C 
ATOM     53  H   LIG d   1      -0.073  -4.171 -10.574  0.00  0.00     0.071 H 
ATOM     54  H   LIG d   1       0.548  -3.966 -12.247  0.00  0.00     0.071 H 
BRANCH  52  55
ATOM     55  C   LIG d   1      -0.033  -5.987 -11.746  0.00  0.00     0.033 C 
ATOM     56  H   LIG d   1      -0.259  -6.002 -12.822  0.00  0.00     0.046 H 
ATOM     57  H   LIG d   1       0.700  -6.774 -11.513  0.00  0.00     0.046 H 
BRANCH  55  58
ATOM     58  N   LIG d   1      -1.266  -6.228 -10.984  0.00  0.00    -0.295 N 
ATOM     59  C   LIG d   1      -1.010  -7.101  -9.830  0.00  0.00     0.022 C 
ATOM     60  C   LIG d   1      -2.328  -7.374  -9.100  0.00  0.00     0.060 C 
ATOM     61  H   LIG d   1      -0.577  -8.051 -10.177  0.00  0.00     0.045 H 
ATOM     62  H   LIG d   1      -0.305  -6.606  -9.145  0.00  0.00     0.045 H 
ATOM     63  O   LIG d   1      -2.921  -6.130  -8.718  0.00  0.00    -0.377 OA
ATOM     64  H   LIG d   1      -2.133  -7.979  -8.203  0.00  0.00     0.057 H 
ATOM     65  H   LIG d   1      -3.013  -7.917  -9.768  0.00  0.00     0.057 H 
ATOM     66  C   LIG d   1      -3.185  -5.255  -9.818  0.00  0.00     0.060 C 
ATOM     67  C   LIG d   1      -1.875  -4.961 -10.554  0.00  0.00     0.022 C 
ATOM     68  H   LIG d   1      -3.616  -4.315  -9.445  0.00  0.00     0.057 H 
ATOM     69  H   LIG d   1      -3.894  -5.735 -10.509  0.00  0.00     0.057 H 
ATOM     70  H   LIG d   1      -1.186  -4.432  -9.881  0.00  0.00     0.045 H 
ATOM     71  H   LIG d   1      -2.080  -4.335 -11.435  0.00  0.00     0.045 H 
ENDBRANCH  55  58
ENDBRANCH  52  55
ENDBRANCH  51  52
ENDBRANCH   3  51
TORSDOF 9
ENDMDL
MODEL 2
REMARK VINA RESULT:      -6.9      6.628     12.560
REMARK  9 active torsions:
REMARK  status: ('A' for Active; 'I' for Inactive)
REMARK    1  A    between atoms: C_1  and  C_2 
REMARK    2  A    between atoms: C_4  and  O_25 
REMARK    3  A    between atoms: C_5  and  C_24 
REMARK    4  A    between atoms: C_10  and  C_13 
REMARK    5  A    between atoms: C_13  and  C_15 
REMARK    6  A    between atoms: C_13  and  C_16 
REMARK       I    between atoms: C_16  and  N_18 
REMARK    7  A    between atoms: O_25  and  C_26 
REMARK    8  A    between atoms: C_26  and  C_27 
REMARK    9  A    between atoms: C_27  and  N_28 
ROOT
ATOM      1  C   LIG d   1      10.036   4.935  -6.701  0.00  0.00    -0.043 A 
ATOM      2  C   LIG d   1      10.663   5.687  -5.731  0.00  0.00    -0.017 A 
ATOM      3  C   LIG d   1      10.754   5.200  -4.436  0.00  0.00     0.124 A 
ATOM      4  C   LIG d   1      10.216   3.962  -4.130  0.00  0.00    -0.005 A 
ATOM      5  C   LIG d   1       9.587   3.205  -5.109  0.00  0.00    -0.037 A 
ATOM      6  C   LIG d   1       9.496   3.693  -6.394  0.00  0.00    -0.041 A 
ATOM      7  C   LIG d   1       8.819   2.930  -7.503  0.00  0.00    -0.027 C 
ATOM      8  C   LIG d   1       8.674   1.456  -7.130  0.00  0.00    -0.045 C 
ATOM      9  C   LIG d   1       8.025   1.369  -5.745  0.00  0.00    -0.026 C 
ATOM     10  H   LIG d   1       7.116   1.988  -5.711  0.00  0.00     0.031 H 
ATOM     11  C   LIG d   1       9.032   1.864  -4.709  0.00  0.00    -0.024 C 
ATOM     12  H   LIG d   1      11.082   6.651  -5.979  0.00  0.00     0.066 H 
ATOM     13  H   LIG d   1       7.819   3.352  -7.683  0.00  0.00     0.031 H 
ATOM     14  H   LIG d   1       9.420   3.008  -8.421  0.00  0.00     0.031 H 
ATOM     15  H   LIG d   1       8.041   0.950  -7.876  0.00  0.00     0.027 H 
ATOM     16  H   LIG d   1       9.667   0.983  -7.111  0.00  0.00     0.027 H 
ATOM     17  H   LIG d   1       9.853   1.134  -4.633  0.00  0.00     0.032 H 
ATOM     18  H   LIG d   1       8.528   1.951  -3.735  0.00  0.00     0.032 H 
ENDROOT
BRANCH   9  19
ATOM     19  C   LIG d   1       7.646  -0.083  -5.443  0.00  0.00     0.036 C 
ATOM     20  H   LIG d   1       7.959  -0.346  -4.421  0.00  0.00     0.039 H 
BRANCH  19  21
ATOM     21  C   LIG d   1       8.330  -1.008  -6.451  0.00  0.00    -0.054 C 
ATOM     22  H   LIG d   1       7.569  -1.476  -7.094  0.00  0.00     0.024 H 
ATOM     23  H   LIG d   1       8.886  -1.790  -5.913  0.00  0.00     0.024 H 
ATOM     24  H   LIG d   1       9.026  -0.424  -7.071  0.00  0.00     0.024 H 
ENDBRANCH  19  21
BRANCH  19  25
ATOM     25  C   LIG d   1       6.151  -0.244  -5.546  0.00  0.00     0.219 C 
ATOM     26  O   LIG d   1       5.628  -0.359  -6.634  0.00  0.00    -0.275 OA
ATOM     27  N   LIG d   1       5.396  -0.259  -4.430  0.00  0.00    -0.301 N 
ATOM     28  C   LIG d   1       3.953  -0.523  -4.506  0.00  0.00     0.015 C 
ATOM     29  C   LIG d   1       6.001  -0.016  -3.113  0.00  0.00     0.015 C 
ATOM     30  C   LIG d   1       3.206   0.612  -3.799  0.00  0.00    -0.037 C 
ATOM     31  H   LIG d   1       3.644  -0.573  -5.561  0.00  0.00     0.046 H 
ATOM     32  H   LIG d   1       3.730  -1.481  -4.013  0.00  0.00     0.046 H 
ATOM     33  C   LIG d   1       3.743   0.760  -2.373  0.00  0.00    -0.050 C 
ATOM     34  H   LIG d   1       2.131   0.378  -3.763  0.00  0.00     0.028 H 
ATOM     35  H   LIG d   1       3.358   1.552  -4.349  0.00  0.00     0.028 H 
ATOM     36  C   LIG d   1       5.230   1.119  -2.423  0.00  0.00    -0.037 C 
ATOM     37  H   LIG d   1       3.612  -0.188  -1.832  0.00  0.00     0.027 H 
ATOM     38  H   LIG d   1       3.190   1.558  -1.856  0.00  0.00     0.027 H 
ATOM     39  H   LIG d   1       5.612   1.251  -1.399  0.00  0.00     0.028 H 
ATOM     40  H   LIG d   1       5.366   2.052  -2.988  0.00  0.00     0.028 H 
ATOM     41  H   LIG d   1       5.943  -0.933  -2.508  0.00  0.00     0.046 H 
ATOM     42  H   LIG d   1       7.056   0.272  -3.242  0.00  0.00     0.046 H 
ENDBRANCH  19  25
ENDBRANCH   9  19
BRANCH   4  43
ATOM     43  C   LIG d   1      10.313   3.431  -2.723  0.00  0.00    -0.036 C 
ATOM     44  H   LIG d   1       9.474   3.817  -2.126  0.00  0.00     0.028 H 
ATOM     45  H   LIG d   1      11.263   3.755  -2.274  0.00  0.00     0.028 H 
ATOM     46  H   LIG d   1      10.273   2.332  -2.742  0.00  0.00     0.028 H 
ENDBRANCH   4  43
BRANCH   1  47
ATOM     47  C   LIG d   1       9.940   5.463  -8.110  0.00  0.00    -0.039 C 
ATOM     48  H   LIG d   1       9.198   4.877  -8.671  0.00  0.00     0.028 H 
ATOM     49  H   LIG d   1      10.921   5.379  -8.600  0.00  0.00     0.028 H 
ATOM     50  H   LIG d   1       9.632   6.519  -8.085  0.00  0.00     0.028 H 
ENDBRANCH   1  47
BRANCH   3  51
ATOM     51  O   LIG d   1      11.370   5.935  -3.472  0.00  0.00    -0.490 OA
BRANCH  51  52
ATOM     52  C   LIG d   1      10.777   7.190  -3.134  0.00  0.00     0.102 C 
ATOM     53  H   LIG d   1      11.529   7.833  -2.654  0.00  0.00     0.071 H 
ATOM     54  H   LIG d   1      10.407   7.678  -4.048  0.00  0.00     0.071 H 
BRANCH  52  55
ATOM     55  C   LIG d   1       9.611   6.961  -2.171  0.00  0.00     0.033 C 
ATOM     56  H   LIG d   1       8.779   7.630  -2.435  0.00  0.00     0.046 H 
ATOM     57  H   LIG d   1       9.278   5.915  -2.240  0.00  0.00     0.046 H 
BRANCH  55  58
ATOM     58  N   LIG d   1      10.048   7.244  -0.797  0.00  0.00    -0.295 N 
ATOM     59  C   LIG d   1      10.696   6.069  -0.198  0.00  0.00     0.022 C 
ATOM     60  C   LIG d   1      11.081   6.386   1.250  0.00  0.00     0.060 C 
ATOM     61  H   LIG d   1      10.000   5.217  -0.215  0.00  0.00     0.045 H 
ATOM     62  H   LIG d   1      11.599   5.816  -0.772  0.00  0.00     0.045 H 
ATOM     63  O   LIG d   1      11.925   7.540   1.270  0.00  0.00    -0.377 OA
ATOM     64  H   LIG d   1      11.618   5.531   1.685  0.00  0.00     0.057 H 
ATOM     65  H   LIG d   1      10.172   6.587   1.837  0.00  0.00     0.057 H 
ATOM     66  C   LIG d   1      11.325   8.704   0.695  0.00  0.00     0.060 C 
ATOM     67  C   LIG d   1      10.943   8.409  -0.758  0.00  0.00     0.022 C 
ATOM     68  H   LIG d   1      12.039   9.540   0.724  0.00  0.00     0.057 H 
ATOM     69  H   LIG d   1      10.422   8.973   1.264  0.00  0.00     0.057 H 
ATOM     70  H   LIG d   1      11.850   8.194  -1.340  0.00  0.00     0.045 H 
ATOM     71  H   LIG d   1      10.429   9.281  -1.188  0.00  0.00     0.045 H 
ENDBRANCH  55  58
ENDBRANCH  52  55
ENDBRANCH  51  52
ENDBRANCH   3  51
TORSDOF 9
ENDMDL
MODEL 3
REMARK VINA RESULT:      -6.8      5.556     11.153
REMARK  9 active torsions:
REMARK  status: ('A' for Active; 'I' for Inactive)
REMARK    1  A    between atoms: C_1  and  C_2 
REMARK    2  A    between atoms: C_4  and  O_25 
REMARK    3  A    between atoms: C_5  and  C_24 
REMARK    4  A    between atoms: C_10  and  C_13 
REMARK    5  A    between atoms: C_13  and  C_15 
REMARK    6  A    between atoms: C_13  and  C_16 
REMARK       I    between atoms: C_16  and  N_18 
REMARK    7  A    between atoms: O_25  and  C_26 
REMARK    8  A    between atoms: C_26  and  C_27 
REMARK    9  A    between atoms: C_27  and  N_28 
ROOT
ATOM      1  C   LIG d   1       9.253   2.658  -8.014  0.00  0.00    -0.043 A 
ATOM      2  C   LIG d   1       9.944   3.280  -6.995  0.00  0.00    -0.017 A 
ATOM      3  C   LIG d   1       9.618   3.005  -5.676  0.00  0.00     0.124 A 
ATOM      4  C   LIG d   1       8.602   2.107  -5.394  0.00  0.00    -0.005 A 
ATOM      5  C   LIG d   1       7.910   1.480  -6.421  0.00  0.00    -0.037 A 
ATOM      6  C   LIG d   1       8.235   1.758  -7.731  0.00  0.00    -0.041 A 
ATOM      7  C   LIG d   1       7.519   1.122  -8.895  0.00  0.00    -0.027 C 
ATOM      8  C   LIG d   1       6.759  -0.123  -8.442  0.00  0.00    -0.045 C 
ATOM      9  C   LIG d   1       5.898   0.250  -7.230  0.00  0.00    -0.026 C 
ATOM     10  H   LIG d   1       5.304   1.150  -7.447  0.00  0.00     0.031 H 
ATOM     11  C   LIG d   1       6.824   0.509  -6.043  0.00  0.00    -0.024 C 
ATOM     12  H   LIG d   1      10.736   3.978  -7.225  0.00  0.00     0.066 H 
ATOM     13  H   LIG d   1       6.804   1.840  -9.323  0.00  0.00     0.031 H 
ATOM     14  H   LIG d   1       8.252   0.833  -9.662  0.00  0.00     0.031 H 
ATOM     15  H   LIG d   1       6.119  -0.480  -9.263  0.00  0.00     0.027 H 
ATOM     16  H   LIG d   1       7.476  -0.911  -8.167  0.00  0.00     0.027 H 
ATOM     17  H   LIG d   1       7.276  -0.444  -5.729  0.00  0.00     0.032 H 
ATOM     18  H   LIG d   1       6.233   0.924  -5.214  0.00  0.00     0.032 H 
ENDROOT
BRANCH   9  19
ATOM     19  C   LIG d   1       4.947  -0.902  -6.899  0.00  0.00     0.036 C 
ATOM     20  H   LIG d   1       5.513  -1.746  -6.478  0.00  0.00     0.039 H 
BRANCH  19  21
ATOM     21  C   LIG d   1       4.222  -1.346  -8.172  0.00  0.00    -0.054 C 
ATOM     22  H   LIG d   1       4.519  -2.376  -8.423  0.00  0.00     0.024 H 
ATOM     23  H   LIG d   1       4.490  -0.674  -9.001  0.00  0.00     0.024 H 
ATOM     24  H   LIG d   1       3.135  -1.308  -8.007  0.00  0.00     0.024 H 
ENDBRANCH  19  21
BRANCH  19  25
ATOM     25  C   LIG d   1       3.936  -0.443  -5.881  0.00  0.00     0.219 C 
ATOM     26  O   LIG d   1       3.172   0.460  -6.149  0.00  0.00    -0.275 OA
ATOM     27  N   LIG d   1       3.882  -1.034  -4.670  0.00  0.00    -0.301 N 
ATOM     28  C   LIG d   1       2.834  -0.672  -3.706  0.00  0.00     0.015 C 
ATOM     29  C   LIG d   1       4.868  -2.055  -4.292  0.00  0.00     0.015 C 
ATOM     30  C   LIG d   1       3.497  -0.281  -2.381  0.00  0.00    -0.037 C 
ATOM     31  H   LIG d   1       2.253   0.176  -4.098  0.00  0.00     0.046 H 
ATOM     32  H   LIG d   1       2.168  -1.533  -3.550  0.00  0.00     0.046 H 
ATOM     33  C   LIG d   1       4.412  -1.417  -1.918  0.00  0.00    -0.050 C 
ATOM     34  H   LIG d   1       2.721  -0.102  -1.622  0.00  0.00     0.028 H 
ATOM     35  H   LIG d   1       4.090   0.634  -2.522  0.00  0.00     0.028 H 
ATOM     36  C   LIG d   1       5.511  -1.644  -2.958  0.00  0.00    -0.037 C 
ATOM     37  H   LIG d   1       3.821  -2.338  -1.801  0.00  0.00     0.027 H 
ATOM     38  H   LIG d   1       4.868  -1.149  -0.954  0.00  0.00     0.027 H 
ATOM     39  H   LIG d   1       6.184  -2.444  -2.614  0.00  0.00     0.028 H 
ATOM     40  H   LIG d   1       6.085  -0.717  -3.098  0.00  0.00     0.028 H 
ATOM     41  H   LIG d   1       4.365  -3.028  -4.183  0.00  0.00     0.046 H 
ATOM     42  H   LIG d   1       5.640  -2.127  -5.073  0.00  0.00     0.046 H 
ENDBRANCH  19  25
ENDBRANCH   9  19
BRANCH   4  43
ATOM     43  C   LIG d   1       8.246   1.807  -3.961  0.00  0.00    -0.036 C 
ATOM     44  H   LIG d   1       7.532   2.560  -3.595  0.00  0.00     0.028 H 
ATOM     45  H   LIG d   1       9.156   1.834  -3.344  0.00  0.00     0.028 H 
ATOM     46  H   LIG d   1       7.788   0.809  -3.898  0.00  0.00     0.028 H 
ENDBRANCH   4  43
BRANCH   1  47
ATOM     47  C   LIG d   1       9.611   2.955  -9.448  0.00  0.00    -0.039 C 
ATOM     48  H   LIG d   1       8.966   3.760  -9.828  0.00  0.00     0.028 H 
ATOM     49  H   LIG d   1       9.467   2.051 -10.056  0.00  0.00     0.028 H 
ATOM     50  H   LIG d   1      10.664   3.271  -9.505  0.00  0.00     0.028 H 
ENDBRANCH   1  47
BRANCH   3  51
ATOM     51  O   LIG d   1      10.292   3.613  -4.665  0.00  0.00    -0.490 OA
BRANCH  51  52
ATOM     52  C   LIG d   1      10.079   5.016  -4.494  0.00  0.00     0.102 C 
ATOM     53  H   LIG d   1       9.788   5.463  -5.457  0.00  0.00     0.071 H 
ATOM     54  H   LIG d   1       9.278   5.179  -3.758  0.00  0.00     0.071 H 
BRANCH  52  55
ATOM     55  C   LIG d   1      11.369   5.671  -3.997  0.00  0.00     0.033 C 
ATOM     56  H   LIG d   1      12.135   4.898  -3.837  0.00  0.00     0.046 H 
ATOM     57  H   LIG d   1      11.726   6.393  -4.746  0.00  0.00     0.046 H 
BRANCH  55  58
ATOM     58  N   LIG d   1      11.108   6.370  -2.731  0.00  0.00    -0.295 N 
ATOM     59  C   LIG d   1       9.940   7.254  -2.849  0.00  0.00     0.022 C 
ATOM     60  C   LIG d   1       9.739   8.006  -1.531  0.00  0.00     0.060 C 
ATOM     61  H   LIG d   1      10.107   7.976  -3.663  0.00  0.00     0.045 H 
ATOM     62  H   LIG d   1       9.045   6.653  -3.071  0.00  0.00     0.045 H 
ATOM     63  O   LIG d   1       9.598   7.061  -0.467  0.00  0.00    -0.377 OA
ATOM     64  H   LIG d   1       8.833   8.625  -1.594  0.00  0.00     0.057 H 
ATOM     65  H   LIG d   1      10.611   8.648  -1.337  0.00  0.00     0.057 H 
ATOM     66  C   LIG d   1      10.719   6.184  -0.322  0.00  0.00     0.060 C 
ATOM     67  C   LIG d   1      10.929   5.414  -1.629  0.00  0.00     0.022 C 
ATOM     68  H   LIG d   1      10.528   5.474   0.495  0.00  0.00     0.057 H 
ATOM     69  H   LIG d   1      11.620   6.772  -0.094  0.00  0.00     0.057 H 
ATOM     70  H   LIG d   1      10.051   4.783  -1.830  0.00  0.00     0.045 H 
ATOM     71  H   LIG d   1      11.824   4.780  -1.544  0.00  0.00     0.045 H 
ENDBRANCH  55  58
ENDBRANCH  52  55
ENDBRANCH  51  52
ENDBRANCH   3  51
TORSDOF 9
ENDMDL
MODEL 4
REMARK VINA RESULT:      -6.7      7.257     12.710
REMARK  9 active torsions:
REMARK  status: ('A' for Active; 'I' for Inactive)
REMARK    1  A    between atoms: C_1  and  C_2 
REMARK    2  A    between atoms: C_4  and  O_25 
REMARK    3  A    between atoms: C_5  and  C_24 
REMARK    4  A    between atoms: C_10  and  C_13 
REMARK    5  A    between atoms: C_13  and  C_15 
REMARK    6  A    between atoms: C_13  and  C_16 
REMARK       I    between atoms: C_16  and  N_18 
REMARK    7  A    between atoms: O_25  and  C_26 
REMARK    8  A    between atoms: C_26  and  C_27 
REMARK    9  A    between atoms: C_27  and  N_28 
ROOT
ATOM      1  C   LIG d   1      10.119   5.033  -6.840  0.00  0.00    -0.043 A 
ATOM      2  C   LIG d   1      10.651   5.889  -5.899  0.00  0.00    -0.017 A 
ATOM      3  C   LIG d   1      10.622   5.539  -4.557  0.00  0.00     0.124 A 
ATOM      4  C   LIG d   1      10.060   4.333  -4.176  0.00  0.00    -0.005 A 
ATOM      5  C   LIG d   1       9.528   3.472  -5.125  0.00  0.00    -0.037 A 
ATOM      6  C   LIG d   1       9.556   3.823  -6.457  0.00  0.00    -0.041 A 
ATOM      7  C   LIG d   1       8.987   2.942  -7.539  0.00  0.00    -0.027 C 
ATOM      8  C   LIG d   1       8.812   1.512  -7.030  0.00  0.00    -0.045 C 
ATOM      9  C   LIG d   1       8.036   1.561  -5.709  0.00  0.00    -0.026 C 
ATOM     10  H   LIG d   1       7.126   2.169  -5.823  0.00  0.00     0.031 H 
ATOM     11  C   LIG d   1       8.941   2.172  -4.641  0.00  0.00    -0.024 C 
ATOM     12  H   LIG d   1      11.089   6.827  -6.206  0.00  0.00     0.066 H 
ATOM     13  H   LIG d   1       8.008   3.331  -7.853  0.00  0.00     0.031 H 
ATOM     14  H   LIG d   1       9.671   2.932  -8.400  0.00  0.00     0.031 H 
ATOM     15  H   LIG d   1       8.253   0.925  -7.774  0.00  0.00     0.027 H 
ATOM     16  H   LIG d   1       9.800   1.056  -6.870  0.00  0.00     0.027 H 
ATOM     17  H   LIG d   1       9.753   1.464  -4.414  0.00  0.00     0.032 H 
ATOM     18  H   LIG d   1       8.348   2.353  -3.732  0.00  0.00     0.032 H 
ENDROOT
BRANCH   9  19
ATOM     19  C   LIG d   1       7.634   0.144  -5.294  0.00  0.00     0.036 C 
ATOM     20  H   LIG d   1       7.886  -0.022  -4.236  0.00  0.00     0.039 H 
BRANCH  19  21
ATOM     21  C   LIG d   1       8.371  -0.872  -6.170  0.00  0.00    -0.054 C 
ATOM     22  H   LIG d   1       9.454  -0.791  -5.993  0.00  0.00     0.024 H 
ATOM     23  H   LIG d   1       8.156  -0.668  -7.229  0.00  0.00     0.024 H 
ATOM     24  H   LIG d   1       8.033  -1.888  -5.917  0.00  0.00     0.024 H 
ENDBRANCH  19  21
BRANCH  19  25
ATOM     25  C   LIG d   1       6.147  -0.028  -5.469  0.00  0.00     0.219 C 
ATOM     26  O   LIG d   1       5.666  -0.048  -6.582  0.00  0.00    -0.275 OA
ATOM     27  N   LIG d   1       5.353  -0.159  -4.388  0.00  0.00    -0.301 N 
ATOM     28  C   LIG d   1       3.918  -0.435  -4.543  0.00  0.00     0.015 C 
ATOM     29  C   LIG d   1       5.905  -0.032  -3.033  0.00  0.00     0.015 C 
ATOM     30  C   LIG d   1       3.126   0.617  -3.761  0.00  0.00    -0.037 C 
ATOM     31  H   LIG d   1       3.649  -0.390  -5.609  0.00  0.00     0.046 H 
ATOM     32  H   LIG d   1       3.694  -1.438  -4.150  0.00  0.00     0.046 H 
ATOM     33  C   LIG d   1       3.609   0.639  -2.309  0.00  0.00    -0.050 C 
ATOM     34  H   LIG d   1       2.055   0.366  -3.788  0.00  0.00     0.028 H 
ATOM     35  H   LIG d   1       3.282   1.607  -4.215  0.00  0.00     0.028 H 
ATOM     36  C   LIG d   1       5.089   1.022  -2.268  0.00  0.00    -0.037 C 
ATOM     37  H   LIG d   1       3.474  -0.358  -1.864  0.00  0.00     0.027 H 
ATOM     38  H   LIG d   1       3.023   1.377  -1.740  0.00  0.00     0.027 H 
ATOM     39  H   LIG d   1       5.432   1.063  -1.223  0.00  0.00     0.028 H 
ATOM     40  H   LIG d   1       5.230   2.006  -2.738  0.00  0.00     0.028 H 
ATOM     41  H   LIG d   1       5.841  -1.002  -2.518  0.00  0.00     0.046 H 
ATOM     42  H   LIG d   1       6.958   0.281  -3.094  0.00  0.00     0.046 H 
ENDBRANCH  19  25
ENDBRANCH   9  19
BRANCH   4  43
ATOM     43  C   LIG d   1      10.027   3.951  -2.718  0.00  0.00    -0.036 C 
ATOM     44  H   LIG d   1      10.095   4.858  -2.099  0.00  0.00     0.028 H 
ATOM     45  H   LIG d   1      10.876   3.288  -2.494  0.00  0.00     0.028 H 
ATOM     46  H   LIG d   1       9.085   3.428  -2.497  0.00  0.00     0.028 H 
ENDBRANCH   4  43
BRANCH   1  47
ATOM     47  C   LIG d   1      10.154   5.412  -8.298  0.00  0.00    -0.039 C 
ATOM     48  H   LIG d   1      11.101   5.071  -8.742  0.00  0.00     0.028 H 
ATOM     49  H   LIG d   1      10.076   6.504  -8.396  0.00  0.00     0.028 H 
ATOM     50  H   LIG d   1       9.311   4.936  -8.821  0.00  0.00     0.028 H 
ENDBRANCH   1  47
BRANCH   3  51
ATOM     51  O   LIG d   1      11.143   6.377  -3.622  0.00  0.00    -0.490 OA
BRANCH  51  52
ATOM     52  C   LIG d   1      10.332   7.480  -3.215  0.00  0.00     0.102 C 
ATOM     53  H   LIG d   1       9.655   7.760  -4.035  0.00  0.00     0.071 H 
ATOM     54  H   LIG d   1       9.741   7.195  -2.332  0.00  0.00     0.071 H 
BRANCH  52  55
ATOM     55  C   LIG d   1      11.228   8.670  -2.865  0.00  0.00     0.033 C 
ATOM     56  H   LIG d   1      11.373   8.712  -1.776  0.00  0.00     0.046 H 
ATOM     57  H   LIG d   1      12.203   8.554  -3.362  0.00  0.00     0.046 H 
BRANCH  55  58
ATOM     58  N   LIG d   1      10.592   9.913  -3.322  0.00  0.00    -0.295 N 
ATOM     59  C   LIG d   1       9.926   9.719  -4.617  0.00  0.00     0.022 C 
ATOM     60  C   LIG d   1       9.330  11.050  -5.085  0.00  0.00     0.060 C 
ATOM     61  H   LIG d   1      10.659   9.363  -5.358  0.00  0.00     0.045 H 
ATOM     62  H   LIG d   1       9.124   8.973  -4.509  0.00  0.00     0.045 H 
ATOM     63  O   LIG d   1       8.435  11.542  -4.083  0.00  0.00    -0.377 OA
ATOM     64  H   LIG d   1       8.780  10.897  -6.025  0.00  0.00     0.057 H 
ATOM     65  H   LIG d   1      10.138  11.778  -5.245  0.00  0.00     0.057 H 
ATOM     66  C   LIG d   1       9.051  11.744  -2.808  0.00  0.00     0.060 C 
ATOM     67  C   LIG d   1       9.645  10.420  -2.319  0.00  0.00     0.022 C 
ATOM     68  H   LIG d   1       8.300  12.098  -2.088  0.00  0.00     0.057 H 
ATOM     69  H   LIG d   1       9.852  12.493  -2.901  0.00  0.00     0.057 H 
ATOM     70  H   LIG d   1       8.838   9.687  -2.174  0.00  0.00     0.045 H 
ATOM     71  H   LIG d   1      10.170  10.582  -1.367  0.00  0.00     0.045 H 
ENDBRANCH  55  58
ENDBRANCH  52  55
ENDBRANCH  51  52
ENDBRANCH   3  51
TORSDOF 9
ENDMDL
MODEL 5
REMARK VINA RESULT:      -6.6      1.867      8.914
REMARK  9 active torsions:
REMARK  status: ('A' for Active; 'I' for Inactive)
REMARK    1  A    between atoms: C_1  and  C_2 
REMARK    2  A    between atoms: C_4  and  O_25 
REMARK    3  A    between atoms: C_5  and  C_24 
REMARK    4  A    between atoms: C_10  and  C_13 
REMARK    5  A    between atoms: C_13  and  C_15 
REMARK    6  A    between atoms: C_13  and  C_16 
REMARK       I    between atoms: C_16  and  N_18 
REMARK    7  A    between atoms: O_25  and  C_26 
REMARK    8  A    between atoms: C_26  and  C_27 
REMARK    9  A    between atoms: C_27  and  N_28 
ROOT
ATOM      1  C   LIG d   1       2.928  -0.332  -8.815  0.00  0.00    -0.043 A 
ATOM      2  C   LIG d   1       3.813  -0.754  -7.846  0.00  0.00    -0.017 A 
ATOM      3  C   LIG d   1       4.096  -2.105  -7.715  0.00  0.00     0.124 A 
ATOM      4  C   LIG d   1       3.490  -3.017  -8.562  0.00  0.00    -0.005 A 
ATOM      5  C   LIG d   1       2.602  -2.590  -9.539  0.00  0.00    -0.037 A 
ATOM      6  C   LIG d   1       2.320  -1.247  -9.664  0.00  0.00    -0.041 A 
ATOM      7  C   LIG d   1       1.359  -0.714 -10.695  0.00  0.00    -0.027 C 
ATOM      8  C   LIG d   1       1.122  -1.748 -11.794  0.00  0.00    -0.045 C 
ATOM      9  C   LIG d   1       0.747  -3.079 -11.132  0.00  0.00    -0.026 C 
ATOM     10  H   LIG d   1      -0.061  -2.927 -10.402  0.00  0.00     0.031 H 
ATOM     11  C   LIG d   1       1.986  -3.634 -10.432  0.00  0.00    -0.024 C 
ATOM     12  H   LIG d   1       4.283  -0.035  -7.191  0.00  0.00     0.066 H 
ATOM     13  H   LIG d   1       0.399  -0.478 -10.215  0.00  0.00     0.031 H 
ATOM     14  H   LIG d   1       1.776   0.198 -11.148  0.00  0.00     0.031 H 
ATOM     15  H   LIG d   1       0.304  -1.408 -12.447  0.00  0.00     0.027 H 
ATOM     16  H   LIG d   1       2.040  -1.869 -12.389  0.00  0.00     0.027 H 
ATOM     17  H   LIG d   1       2.717  -3.945 -11.193  0.00  0.00     0.032 H 
ATOM     18  H   LIG d   1       1.693  -4.506  -9.827  0.00  0.00     0.032 H 
ENDROOT
BRANCH   9  19
ATOM     19  C   LIG d   1       0.271  -4.069 -12.198  0.00  0.00     0.036 C 
ATOM     20  H   LIG d   1       0.681  -5.069 -11.990  0.00  0.00     0.039 H 
BRANCH  19  21
ATOM     21  C   LIG d   1       0.733  -3.594 -13.578  0.00  0.00    -0.054 C 
ATOM     22  H   LIG d   1       1.826  -3.698 -13.654  0.00  0.00     0.024 H 
ATOM     23  H   LIG d   1       0.454  -2.539 -13.715  0.00  0.00     0.024 H 
ATOM     24  H   LIG d   1       0.252  -4.204 -14.356  0.00  0.00     0.024 H 
ENDBRANCH  19  21
BRANCH  19  25
ATOM     25  C   LIG d   1      -1.233  -4.150 -12.173  0.00  0.00     0.219 C 
ATOM     26  O   LIG d   1      -1.894  -3.323 -12.764  0.00  0.00    -0.275 OA
ATOM     27  N   LIG d   1      -1.843  -5.140 -11.492  0.00  0.00    -0.301 N 
ATOM     28  C   LIG d   1      -3.303  -5.296 -11.545  0.00  0.00     0.015 C 
ATOM     29  C   LIG d   1      -1.061  -6.086 -10.685  0.00  0.00     0.015 C 
ATOM     30  C   LIG d   1      -3.849  -5.325 -10.115  0.00  0.00    -0.037 C 
ATOM     31  H   LIG d   1      -3.742  -4.450 -12.096  0.00  0.00     0.046 H 
ATOM     32  H   LIG d   1      -3.552  -6.237 -12.059  0.00  0.00     0.046 H 
ATOM     33  C   LIG d   1      -3.129  -6.418  -9.320  0.00  0.00    -0.050 C 
ATOM     34  H   LIG d   1      -4.928  -5.540 -10.137  0.00  0.00     0.028 H 
ATOM     35  H   LIG d   1      -3.679  -4.350  -9.636  0.00  0.00     0.028 H 
ATOM     36  C   LIG d   1      -1.633  -6.103  -9.259  0.00  0.00    -0.037 C 
ATOM     37  H   LIG d   1      -3.280  -7.389  -9.813  0.00  0.00     0.027 H 
ATOM     38  H   LIG d   1      -3.538  -6.457  -8.300  0.00  0.00     0.027 H 
ATOM     39  H   LIG d   1      -1.118  -6.873  -8.666  0.00  0.00     0.028 H 
ATOM     40  H   LIG d   1      -1.481  -5.119  -8.791  0.00  0.00     0.028 H 
ATOM     41  H   LIG d   1      -1.129  -7.090 -11.128  0.00  0.00     0.046 H 
ATOM     42  H   LIG d   1      -0.008  -5.766 -10.662  0.00  0.00     0.046 H 
ENDBRANCH  19  25
ENDBRANCH   9  19
BRANCH   4  43
ATOM     43  C   LIG d   1       3.796  -4.486  -8.422  0.00  0.00    -0.036 C 
ATOM     44  H   LIG d   1       4.274  -4.851  -9.343  0.00  0.00     0.028 H 
ATOM     45  H   LIG d   1       2.862  -5.040  -8.248  0.00  0.00     0.028 H 
ATOM     46  H   LIG d   1       4.478  -4.640  -7.572  0.00  0.00     0.028 H 
ENDBRANCH   4  43
BRANCH   1  47
ATOM     47  C   LIG d   1       2.623   1.138  -8.959  0.00  0.00    -0.039 C 
ATOM     48  H   LIG d   1       1.993   1.296  -9.846  0.00  0.00     0.028 H 
ATOM     49  H   LIG d   1       3.562   1.698  -9.071  0.00  0.00     0.028 H 
ATOM     50  H   LIG d   1       2.090   1.491  -8.062  0.00  0.00     0.028 H 
ENDBRANCH   1  47
BRANCH   3  51
ATOM     51  O   LIG d   1       4.966  -2.532  -6.762  0.00  0.00    -0.490 OA
BRANCH  51  52
ATOM     52  C   LIG d   1       5.410  -1.564  -5.809  0.00  0.00     0.102 C 
ATOM     53  H   LIG d   1       6.492  -1.678  -5.647  0.00  0.00     0.071 H 
ATOM     54  H   LIG d   1       5.201  -0.553  -6.188  0.00  0.00     0.071 H 
BRANCH  52  55
ATOM     55  C   LIG d   1       4.672  -1.775  -4.485  0.00  0.00     0.033 C 
ATOM     56  H   LIG d   1       3.659  -2.153  -4.687  0.00  0.00     0.046 H 
ATOM     57  H   LIG d   1       5.221  -2.504  -3.871  0.00  0.00     0.046 H 
BRANCH  55  58
ATOM     58  N   LIG d   1       4.584  -0.498  -3.765  0.00  0.00    -0.295 N 
ATOM     59  C   LIG d   1       3.347   0.217  -4.109  0.00  0.00     0.022 C 
ATOM     60  C   LIG d   1       3.323   1.566  -3.385  0.00  0.00     0.060 C 
ATOM     61  H   LIG d   1       3.309   0.382  -5.197  0.00  0.00     0.045 H 
ATOM     62  H   LIG d   1       2.478  -0.383  -3.800  0.00  0.00     0.045 H 
ATOM     63  O   LIG d   1       3.448   1.346  -1.977  0.00  0.00    -0.377 OA
ATOM     64  H   LIG d   1       2.374   2.080  -3.594  0.00  0.00     0.057 H 
ATOM     65  H   LIG d   1       4.162   2.186  -3.735  0.00  0.00     0.057 H 
ATOM     66  C   LIG d   1       4.642   0.653  -1.605  0.00  0.00     0.060 C 
ATOM     67  C   LIG d   1       4.678  -0.705  -2.313  0.00  0.00     0.022 C 
ATOM     68  H   LIG d   1       4.656   0.500  -0.517  0.00  0.00     0.057 H 
ATOM     69  H   LIG d   1       5.520   1.245  -1.904  0.00  0.00     0.057 H 
ATOM     70  H   LIG d   1       3.831  -1.319  -1.973  0.00  0.00     0.045 H 
ATOM     71  H   LIG d   1       5.622  -1.218  -2.076  0.00  0.00     0.045 H 
ENDBRANCH  55  58
ENDBRANCH  52  55
ENDBRANCH  51  52
ENDBRANCH   3  51
TORSDOF 9
ENDMDL
MODEL 6
REMARK VINA RESULT:      -6.2      6.239     10.732
REMARK  9 active torsions:
REMARK  status: ('A' for Active; 'I' for Inactive)
REMARK    1  A    between atoms: C_1  and  C_2 
REMARK    2  A    between atoms: C_4  and  O_25 
REMARK    3  A    between atoms: C_5  and  C_24 
REMARK    4  A    between atoms: C_10  and  C_13 
REMARK    5  A    between atoms: C_13  and  C_15 
REMARK    6  A    between atoms: C_13  and  C_16 
REMARK       I    between atoms: C_16  and  N_18 
REMARK    7  A    between atoms: O_25  and  C_26 
REMARK    8  A    between atoms: C_26  and  C_27 
REMARK    9  A    between atoms: C_27  and  N_28 
ROOT
ATOM      1  C   LIG d   1       9.224   2.134  -8.880  0.00  0.00    -0.043 A 
ATOM      2  C   LIG d   1       9.922   2.988  -8.053  0.00  0.00    -0.017 A 
ATOM      3  C   LIG d   1       9.619   3.035  -6.701  0.00  0.00     0.124 A 
ATOM      4  C   LIG d   1       8.621   2.221  -6.193  0.00  0.00    -0.005 A 
ATOM      5  C   LIG d   1       7.923   1.359  -7.027  0.00  0.00    -0.037 A 
ATOM      6  C   LIG d   1       8.223   1.317  -8.371  0.00  0.00    -0.041 A 
ATOM      7  C   LIG d   1       7.498   0.414  -9.336  0.00  0.00    -0.027 C 
ATOM      8  C   LIG d   1       6.763  -0.694  -8.584  0.00  0.00    -0.045 C 
ATOM      9  C   LIG d   1       5.916  -0.049  -7.481  0.00  0.00    -0.026 C 
ATOM     10  H   LIG d   1       5.306   0.766  -7.896  0.00  0.00     0.031 H 
ATOM     11  C   LIG d   1       6.856   0.495  -6.408  0.00  0.00    -0.024 C 
ATOM     12  H   LIG d   1      10.700   3.619  -8.458  0.00  0.00     0.066 H 
ATOM     13  H   LIG d   1       6.767   1.001  -9.910  0.00  0.00     0.031 H 
ATOM     14  H   LIG d   1       8.224  -0.043 -10.025  0.00  0.00     0.031 H 
ATOM     15  H   LIG d   1       6.116  -1.244  -9.284  0.00  0.00     0.027 H 
ATOM     16  H   LIG d   1       7.495  -1.385  -8.141  0.00  0.00     0.027 H 
ATOM     17  H   LIG d   1       7.327  -0.350  -5.883  0.00  0.00     0.032 H 
ATOM     18  H   LIG d   1       6.272   1.092  -5.692  0.00  0.00     0.032 H 
ENDROOT
BRANCH   9  19
ATOM     19  C   LIG d   1       4.986  -1.098  -6.867  0.00  0.00     0.036 C 
ATOM     20  H   LIG d   1       5.573  -1.821  -6.280  0.00  0.00     0.039 H 
BRANCH  19  21
ATOM     21  C   LIG d   1       4.230  -1.825  -7.981  0.00  0.00    -0.054 C 
ATOM     22  H   LIG d   1       3.151  -1.629  -7.881  0.00  0.00     0.024 H 
ATOM     23  H   LIG d   1       4.415  -2.907  -7.906  0.00  0.00     0.024 H 
ATOM     24  H   LIG d   1       4.579  -1.461  -8.959  0.00  0.00     0.024 H 
ENDBRANCH  19  21
BRANCH  19  25
ATOM     25  C   LIG d   1       4.000  -0.421  -5.950  0.00  0.00     0.219 C 
ATOM     26  O   LIG d   1       3.342   0.515  -6.353  0.00  0.00    -0.275 OA
ATOM     27  N   LIG d   1       3.850  -0.854  -4.683  0.00  0.00    -0.301 N 
ATOM     28  C   LIG d   1       2.819  -0.276  -3.811  0.00  0.00     0.015 C 
ATOM     29  C   LIG d   1       4.713  -1.916  -4.148  0.00  0.00     0.015 C 
ATOM     30  C   LIG d   1       3.480   0.203  -2.515  0.00  0.00    -0.037 C 
ATOM     31  H   LIG d   1       2.341   0.573  -4.322  0.00  0.00     0.046 H 
ATOM     32  H   LIG d   1       2.062  -1.041  -3.583  0.00  0.00     0.046 H 
ATOM     33  C   LIG d   1       4.258  -0.955  -1.885  0.00  0.00    -0.050 C 
ATOM     34  H   LIG d   1       2.706   0.549  -1.813  0.00  0.00     0.028 H 
ATOM     35  H   LIG d   1       4.170   1.030  -2.737  0.00  0.00     0.028 H 
ATOM     36  C   LIG d   1       5.357  -1.415  -2.846  0.00  0.00    -0.037 C 
ATOM     37  H   LIG d   1       3.572  -1.791  -1.685  0.00  0.00     0.027 H 
ATOM     38  H   LIG d   1       4.713  -0.620  -0.941  0.00  0.00     0.027 H 
ATOM     39  H   LIG d   1       5.933  -2.231  -2.385  0.00  0.00     0.028 H 
ATOM     40  H   LIG d   1       6.028  -0.573  -3.069  0.00  0.00     0.028 H 
ATOM     41  H   LIG d   1       4.108  -2.813  -3.947  0.00  0.00     0.046 H 
ATOM     42  H   LIG d   1       5.495  -2.159  -4.883  0.00  0.00     0.046 H 
ENDBRANCH  19  25
ENDBRANCH   9  19
BRANCH   4  43
ATOM     43  C   LIG d   1       8.291   2.270  -4.724  0.00  0.00    -0.036 C 
ATOM     44  H   LIG d   1       7.304   2.734  -4.585  0.00  0.00     0.028 H 
ATOM     45  H   LIG d   1       9.053   2.862  -4.196  0.00  0.00     0.028 H 
ATOM     46  H   LIG d   1       8.274   1.247  -4.318  0.00  0.00     0.028 H 
ENDBRANCH   4  43
BRANCH   1  47
ATOM     47  C   LIG d   1       9.556   2.081 -10.350  0.00  0.00    -0.039 C 
ATOM     48  H   LIG d   1       9.460   1.047 -10.710  0.00  0.00     0.028 H 
ATOM     49  H   LIG d   1      10.587   2.430 -10.506  0.00  0.00     0.028 H 
ATOM     50  H   LIG d   1       8.861   2.730 -10.906  0.00  0.00     0.028 H 
ENDBRANCH   1  47
BRANCH   3  51
ATOM     51  O   LIG d   1      10.301   3.875  -5.877  0.00  0.00    -0.490 OA
BRANCH  51  52
ATOM     52  C   LIG d   1      10.628   5.166  -6.394  0.00  0.00     0.102 C 
ATOM     53  H   LIG d   1      11.684   5.391  -6.178  0.00  0.00     0.071 H 
ATOM     54  H   LIG d   1      10.467   5.178  -7.482  0.00  0.00     0.071 H 
BRANCH  52  55
ATOM     55  C   LIG d   1       9.737   6.220  -5.735  0.00  0.00     0.033 C 
ATOM     56  H   LIG d   1       8.783   5.761  -5.437  0.00  0.00     0.046 H 
ATOM     57  H   LIG d   1      10.243   6.625  -4.846  0.00  0.00     0.046 H 
BRANCH  55  58
ATOM     58  N   LIG d   1       9.479   7.308  -6.688  0.00  0.00    -0.295 N 
ATOM     59  C   LIG d   1      10.086   8.566  -6.229  0.00  0.00     0.022 C 
ATOM     60  C   LIG d   1       9.742   9.684  -7.218  0.00  0.00     0.060 C 
ATOM     61  H   LIG d   1       9.693   8.821  -5.233  0.00  0.00     0.045 H 
ATOM     62  H   LIG d   1      11.178   8.446  -6.172  0.00  0.00     0.045 H 
ATOM     63  O   LIG d   1      10.190   9.311  -8.524  0.00  0.00    -0.377 OA
ATOM     64  H   LIG d   1      10.242  10.614  -6.910  0.00  0.00     0.057 H 
ATOM     65  H   LIG d   1       8.654   9.839  -7.233  0.00  0.00     0.057 H 
ATOM     66  C   LIG d   1       9.618   8.090  -9.003  0.00  0.00     0.060 C 
ATOM     67  C   LIG d   1       9.959   6.957  -8.031  0.00  0.00     0.022 C 
ATOM     68  H   LIG d   1      10.026   7.858  -9.997  0.00  0.00     0.057 H 
ATOM     69  H   LIG d   1       8.525   8.198  -9.070  0.00  0.00     0.057 H 
ATOM     70  H   LIG d   1      11.049   6.812  -8.005  0.00  0.00     0.045 H 
ATOM     71  H   LIG d   1       9.474   6.028  -8.364  0.00  0.00     0.045 H 
ENDBRANCH  55  58
ENDBRANCH  52  55
ENDBRANCH  51  52
ENDBRANCH   3  51
TORSDOF 9
ENDMDL
MODEL 7
REMARK VINA RESULT:      -6.1      1.556      2.829
REMARK  9 active torsions:
REMARK  status: ('A' for Active; 'I' for Inactive)
REMARK    1  A    between atoms: C_1  and  C_2 
REMARK    2  A    between atoms: C_4  and  O_25 
REMARK    3  A    between atoms: C_5  and  C_24 
REMARK    4  A    between atoms: C_10  and  C_13 
REMARK    5  A    between atoms: C_13  and  C_15 
REMARK    6  A    between atoms: C_13  and  C_16 
REMARK       I    between atoms: C_16  and  N_18 
REMARK    7  A    between atoms: O_25  and  C_26 
REMARK    8  A    between atoms: C_26  and  C_27 
REMARK    9  A    between atoms: C_27  and  N_28 
ROOT
ATOM      1  C   LIG d   1       2.926  -4.981  -9.432  0.00  0.00    -0.043 A 
ATOM      2  C   LIG d   1       1.874  -4.945 -10.323  0.00  0.00    -0.017 A 
ATOM      3  C   LIG d   1       1.316  -3.726 -10.677  0.00  0.00     0.124 A 
ATOM      4  C   LIG d   1       1.823  -2.557 -10.137  0.00  0.00    -0.005 A 
ATOM      5  C   LIG d   1       2.884  -2.596  -9.244  0.00  0.00    -0.037 A 
ATOM      6  C   LIG d   1       3.434  -3.808  -8.890  0.00  0.00    -0.041 A 
ATOM      7  C   LIG d   1       4.581  -3.925  -7.919  0.00  0.00    -0.027 C 
ATOM      8  C   LIG d   1       5.287  -2.581  -7.758  0.00  0.00    -0.045 C 
ATOM      9  C   LIG d   1       4.231  -1.514  -7.446  0.00  0.00    -0.026 C 
ATOM     10  H   LIG d   1       3.588  -1.846  -6.618  0.00  0.00     0.031 H 
ATOM     11  C   LIG d   1       3.392  -1.286  -8.701  0.00  0.00    -0.024 C 
ATOM     12  H   LIG d   1       1.486  -5.862 -10.741  0.00  0.00     0.066 H 
ATOM     13  H   LIG d   1       4.200  -4.248  -6.939  0.00  0.00     0.031 H 
ATOM     14  H   LIG d   1       5.304  -4.665  -8.293  0.00  0.00     0.031 H 
ATOM     15  H   LIG d   1       6.013  -2.645  -6.934  0.00  0.00     0.027 H 
ATOM     16  H   LIG d   1       5.813  -2.329  -8.691  0.00  0.00     0.027 H 
ATOM     17  H   LIG d   1       4.014  -0.790  -9.461  0.00  0.00     0.032 H 
ATOM     18  H   LIG d   1       2.538  -0.640  -8.446  0.00  0.00     0.032 H 
ENDROOT
BRANCH   9  19
ATOM     19  C   LIG d   1       4.921  -0.208  -7.043  0.00  0.00     0.036 C 
ATOM     20  H   LIG d   1       4.168   0.573  -6.863  0.00  0.00     0.039 H 
BRANCH  19  21
ATOM     21  C   LIG d   1       5.870   0.232  -8.160  0.00  0.00    -0.054 C 
ATOM     22  H   LIG d   1       5.359   0.146  -9.131  0.00  0.00     0.024 H 
ATOM     23  H   LIG d   1       6.764  -0.410  -8.157  0.00  0.00     0.024 H 
ATOM     24  H   LIG d   1       6.170   1.278  -7.994  0.00  0.00     0.024 H 
ENDBRANCH  19  21
BRANCH  19  25
ATOM     25  C   LIG d   1       5.705  -0.425  -5.775  0.00  0.00     0.219 C 
ATOM     26  O   LIG d   1       6.878  -0.725  -5.831  0.00  0.00    -0.275 OA
ATOM     27  N   LIG d   1       5.101  -0.286  -4.577  0.00  0.00    -0.301 N 
ATOM     28  C   LIG d   1       5.875  -0.387  -3.333  0.00  0.00     0.015 C 
ATOM     29  C   LIG d   1       3.657  -0.027  -4.493  0.00  0.00     0.015 C 
ATOM     30  C   LIG d   1       5.217  -1.433  -2.427  0.00  0.00    -0.037 C 
ATOM     31  H   LIG d   1       6.906  -0.691  -3.566  0.00  0.00     0.046 H 
ATOM     32  H   LIG d   1       5.884   0.590  -2.828  0.00  0.00     0.046 H 
ATOM     33  C   LIG d   1       3.743  -1.071  -2.223  0.00  0.00    -0.050 C 
ATOM     34  H   LIG d   1       5.728  -1.448  -1.452  0.00  0.00     0.028 H 
ATOM     35  H   LIG d   1       5.290  -2.424  -2.895  0.00  0.00     0.028 H 
ATOM     36  C   LIG d   1       3.024  -1.082  -3.574  0.00  0.00    -0.037 C 
ATOM     37  H   LIG d   1       3.670  -0.069  -1.776  0.00  0.00     0.027 H 
ATOM     38  H   LIG d   1       3.276  -1.807  -1.553  0.00  0.00     0.027 H 
ATOM     39  H   LIG d   1       1.959  -0.848  -3.426  0.00  0.00     0.028 H 
ATOM     40  H   LIG d   1       3.119  -2.076  -4.035  0.00  0.00     0.028 H 
ATOM     41  H   LIG d   1       3.489   0.979  -4.081  0.00  0.00     0.046 H 
ATOM     42  H   LIG d   1       3.214  -0.091  -5.498  0.00  0.00     0.046 H 
ENDBRANCH  19  25
ENDBRANCH   9  19
BRANCH   4  43
ATOM     43  C   LIG d   1       1.218  -1.232 -10.521  0.00  0.00    -0.036 C 
ATOM     44  H   LIG d   1       2.002  -0.572 -10.921  0.00  0.00     0.028 H 
ATOM     45  H   LIG d   1       0.763  -0.766  -9.635  0.00  0.00     0.028 H 
ATOM     46  H   LIG d   1       0.446  -1.389 -11.289  0.00  0.00     0.028 H 
ENDBRANCH   4  43
BRANCH   1  47
ATOM     47  C   LIG d   1       3.535  -6.306  -9.049  0.00  0.00    -0.039 C 
ATOM     48  H   LIG d   1       2.915  -7.123  -9.448  0.00  0.00     0.028 H 
ATOM     49  H   LIG d   1       3.584  -6.384  -7.954  0.00  0.00     0.028 H 
ATOM     50  H   LIG d   1       4.551  -6.378  -9.468  0.00  0.00     0.028 H 
ENDBRANCH   1  47
BRANCH   3  51
ATOM     51  O   LIG d   1       0.277  -3.680 -11.553  0.00  0.00    -0.490 OA
BRANCH  51  52
ATOM     52  C   LIG d   1      -0.148  -4.920 -12.122  0.00  0.00     0.102 C 
ATOM     53  H   LIG d   1       0.414  -5.111 -13.048  0.00  0.00     0.071 H 
ATOM     54  H   LIG d   1       0.038  -5.735 -11.406  0.00  0.00     0.071 H 
BRANCH  52  55
ATOM     55  C   LIG d   1      -1.644  -4.851 -12.437  0.00  0.00     0.033 C 
ATOM     56  H   LIG d   1      -1.957  -3.798 -12.501  0.00  0.00     0.046 H 
ATOM     57  H   LIG d   1      -1.840  -5.352 -13.396  0.00  0.00     0.046 H 
BRANCH  55  58
ATOM     58  N   LIG d   1      -2.401  -5.522 -11.372  0.00  0.00    -0.295 N 
ATOM     59  C   LIG d   1      -1.524  -6.380 -10.563  0.00  0.00     0.022 C 
ATOM     60  C   LIG d   1      -2.360  -7.105  -9.505  0.00  0.00     0.060 C 
ATOM     61  H   LIG d   1      -1.031  -7.119 -11.213  0.00  0.00     0.045 H 
ATOM     62  H   LIG d   1      -0.760  -5.761 -10.068  0.00  0.00     0.045 H 
ATOM     63  O   LIG d   1      -3.055  -6.139  -8.712  0.00  0.00    -0.377 OA
ATOM     64  H   LIG d   1      -1.701  -7.703  -8.860  0.00  0.00     0.057 H 
ATOM     65  H   LIG d   1      -3.088  -7.765 -10.000  0.00  0.00     0.057 H 
ATOM     66  C   LIG d   1      -3.920  -5.286  -9.467  0.00  0.00     0.060 C 
ATOM     67  C   LIG d   1      -3.098  -4.544 -10.525  0.00  0.00     0.022 C 
ATOM     68  H   LIG d   1      -4.399  -4.559  -8.796  0.00  0.00     0.057 H 
ATOM     69  H   LIG d   1      -4.693  -5.892  -9.963  0.00  0.00     0.057 H 
ATOM     70  H   LIG d   1      -2.361  -3.896 -10.029  0.00  0.00     0.045 H 
ATOM     71  H   LIG d   1      -3.766  -3.930 -11.147  0.00  0.00     0.045 H 
ENDBRANCH  55  58
ENDBRANCH  52  55
ENDBRANCH  51  52
ENDBRANCH   3  51
TORSDOF 9
ENDMDL
MODEL 8
REMARK VINA RESULT:      -6.0      4.951     10.538
REMARK  9 active torsions:
REMARK  status: ('A' for Active; 'I' for Inactive)
REMARK    1  A    between atoms: C_1  and  C_2 
REMARK    2  A    between atoms: C_4  and  O_25 
REMARK    3  A    between atoms: C_5  and  C_24 
REMARK    4  A    between atoms: C_10  and  C_13 
REMARK    5  A    between atoms: C_13  and  C_15 
REMARK    6  A    between atoms: C_13  and  C_16 
REMARK       I    between atoms: C_16  and  N_18 
REMARK    7  A    between atoms: O_25  and  C_26 
REMARK    8  A    between atoms: C_26  and  C_27 
REMARK    9  A    between atoms: C_27  and  N_28 
ROOT
ATOM      1  C   LIG d   1       5.458  -0.694  -2.965  0.00  0.00    -0.043 A 
ATOM      2  C   LIG d   1       6.408   0.305  -2.988  0.00  0.00    -0.017 A 
ATOM      3  C   LIG d   1       7.496   0.198  -3.842  0.00  0.00     0.124 A 
ATOM      4  C   LIG d   1       7.615  -0.908  -4.665  0.00  0.00    -0.005 A 
ATOM      5  C   LIG d   1       6.655  -1.910  -4.643  0.00  0.00    -0.037 A 
ATOM      6  C   LIG d   1       5.578  -1.803  -3.791  0.00  0.00    -0.041 A 
ATOM      7  C   LIG d   1       4.504  -2.858  -3.707  0.00  0.00    -0.027 C 
ATOM      8  C   LIG d   1       4.541  -3.760  -4.939  0.00  0.00    -0.045 C 
ATOM      9  C   LIG d   1       5.978  -4.260  -5.129  0.00  0.00    -0.026 C 
ATOM     10  H   LIG d   1       6.364  -4.678  -4.188  0.00  0.00     0.031 H 
ATOM     11  C   LIG d   1       6.842  -3.081  -5.571  0.00  0.00    -0.024 C 
ATOM     12  H   LIG d   1       6.306   1.165  -2.343  0.00  0.00     0.066 H 
ATOM     13  H   LIG d   1       4.663  -3.473  -2.809  0.00  0.00     0.031 H 
ATOM     14  H   LIG d   1       3.519  -2.373  -3.650  0.00  0.00     0.031 H 
ATOM     15  H   LIG d   1       3.862  -4.614  -4.788  0.00  0.00     0.027 H 
ATOM     16  H   LIG d   1       4.221  -3.189  -5.822  0.00  0.00     0.027 H 
ATOM     17  H   LIG d   1       6.554  -2.790  -6.592  0.00  0.00     0.032 H 
ATOM     18  H   LIG d   1       7.898  -3.390  -5.562  0.00  0.00     0.032 H 
ENDROOT
BRANCH   9  19
ATOM     19  C   LIG d   1       6.006  -5.350  -6.203  0.00  0.00     0.036 C 
ATOM     20  H   LIG d   1       6.997  -5.378  -6.682  0.00  0.00     0.039 H 
BRANCH  19  21
ATOM     21  C   LIG d   1       4.929  -5.062  -7.251  0.00  0.00    -0.054 C 
ATOM     22  H   LIG d   1       5.270  -5.419  -8.235  0.00  0.00     0.024 H 
ATOM     23  H   LIG d   1       4.744  -3.978  -7.299  0.00  0.00     0.024 H 
ATOM     24  H   LIG d   1       4.000  -5.581  -6.974  0.00  0.00     0.024 H 
ENDBRANCH  19  21
BRANCH  19  25
ATOM     25  C   LIG d   1       5.741  -6.689  -5.566  0.00  0.00     0.219 C 
ATOM     26  O   LIG d   1       4.602  -7.038  -5.339  0.00  0.00    -0.275 OA
ATOM     27  N   LIG d   1       6.770  -7.500  -5.248  0.00  0.00    -0.301 N 
ATOM     28  C   LIG d   1       6.524  -8.852  -4.727  0.00  0.00     0.015 C 
ATOM     29  C   LIG d   1       8.158  -7.051  -5.420  0.00  0.00     0.015 C 
ATOM     30  C   LIG d   1       7.285  -9.017  -3.407  0.00  0.00    -0.037 C 
ATOM     31  H   LIG d   1       5.446  -8.988  -4.555  0.00  0.00     0.046 H 
ATOM     32  H   LIG d   1       6.877  -9.595  -5.457  0.00  0.00     0.046 H 
ATOM     33  C   LIG d   1       8.763  -8.688  -3.631  0.00  0.00    -0.050 C 
ATOM     34  H   LIG d   1       7.190 -10.056  -3.056  0.00  0.00     0.028 H 
ATOM     35  H   LIG d   1       6.867  -8.335  -2.653  0.00  0.00     0.028 H 
ATOM     36  C   LIG d   1       8.900  -7.235  -4.087  0.00  0.00    -0.037 C 
ATOM     37  H   LIG d   1       9.174  -9.356  -4.403  0.00  0.00     0.027 H 
ATOM     38  H   LIG d   1       9.316  -8.831  -2.691  0.00  0.00     0.027 H 
ATOM     39  H   LIG d   1       9.964  -6.989  -4.224  0.00  0.00     0.028 H 
ATOM     40  H   LIG d   1       8.465  -6.567  -3.330  0.00  0.00     0.028 H 
ATOM     41  H   LIG d   1       8.642  -7.649  -6.205  0.00  0.00     0.046 H 
ATOM     42  H   LIG d   1       8.166  -5.989  -5.710  0.00  0.00     0.046 H 
ENDBRANCH  19  25
ENDBRANCH   9  19
BRANCH   4  43
ATOM     43  C   LIG d   1       8.796  -1.025  -5.594  0.00  0.00    -0.036 C 
ATOM     44  H   LIG d   1       9.650  -1.455  -5.050  0.00  0.00     0.028 H 
ATOM     45  H   LIG d   1       9.066  -0.028  -5.972  0.00  0.00     0.028 H 
ATOM     46  H   LIG d   1       8.535  -1.680  -6.439  0.00  0.00     0.028 H 
ENDBRANCH   4  43
BRANCH   1  47
ATOM     47  C   LIG d   1       4.274  -0.576  -2.039  0.00  0.00    -0.039 C 
ATOM     48  H   LIG d   1       3.489  -1.277  -2.358  0.00  0.00     0.028 H 
ATOM     49  H   LIG d   1       3.884   0.451  -2.071  0.00  0.00     0.028 H 
ATOM     50  H   LIG d   1       4.587  -0.817  -1.011  0.00  0.00     0.028 H 
ENDBRANCH   1  47
BRANCH   3  51
ATOM     51  O   LIG d   1       8.439   1.177  -3.871  0.00  0.00    -0.490 OA
BRANCH  51  52
ATOM     52  C   LIG d   1       8.058   2.429  -4.444  0.00  0.00     0.102 C 
ATOM     53  H   LIG d   1       7.496   2.251  -5.373  0.00  0.00     0.071 H 
ATOM     54  H   LIG d   1       7.425   2.980  -3.733  0.00  0.00     0.071 H 
BRANCH  52  55
ATOM     55  C   LIG d   1       9.310   3.251  -4.754  0.00  0.00     0.033 C 
ATOM     56  H   LIG d   1      10.200   2.609  -4.672  0.00  0.00     0.046 H 
ATOM     57  H   LIG d   1       9.241   3.655  -5.775  0.00  0.00     0.046 H 
BRANCH  55  58
ATOM     58  N   LIG d   1       9.418   4.360  -3.796  0.00  0.00    -0.295 N 
ATOM     59  C   LIG d   1      10.452   4.087  -2.788  0.00  0.00     0.022 C 
ATOM     60  C   LIG d   1      10.490   5.237  -1.777  0.00  0.00     0.060 C 
ATOM     61  H   LIG d   1      10.218   3.146  -2.267  0.00  0.00     0.045 H 
ATOM     62  H   LIG d   1      11.431   3.998  -3.282  0.00  0.00     0.045 H 
ATOM     63  O   LIG d   1      10.721   6.466  -2.471  0.00  0.00    -0.377 OA
ATOM     64  H   LIG d   1      11.301   5.065  -1.055  0.00  0.00     0.057 H 
ATOM     65  H   LIG d   1       9.529   5.290  -1.246  0.00  0.00     0.057 H 
ATOM     66  C   LIG d   1       9.731   6.764  -3.461  0.00  0.00     0.060 C 
ATOM     67  C   LIG d   1       9.686   5.629  -4.487  0.00  0.00     0.022 C 
ATOM     68  H   LIG d   1       9.988   7.706  -3.965  0.00  0.00     0.057 H 
ATOM     69  H   LIG d   1       8.747   6.862  -2.979  0.00  0.00     0.057 H 
ATOM     70  H   LIG d   1      10.653   5.566  -5.008  0.00  0.00     0.045 H 
ATOM     71  H   LIG d   1       8.888   5.825  -5.218  0.00  0.00     0.045 H 
ENDBRANCH  55  58
ENDBRANCH  52  55
ENDBRANCH  51  52
ENDBRANCH   3  51
TORSDOF 9
ENDMDL
MODEL 9
REMARK VINA RESULT:      -6.0      6.772     10.422
REMARK  9 active torsions:
REMARK  status: ('A' for Active; 'I' for Inactive)
REMARK    1  A    between atoms: C_1  and  C_2 
REMARK    2  A    between atoms: C_4  and  O_25 
REMARK    3  A    between atoms: C_5  and  C_24 
REMARK    4  A    between atoms: C_10  and  C_13 
REMARK    5  A    between atoms: C_13  and  C_15 
REMARK    6  A    between atoms: C_13  and  C_16 
REMARK       I    between atoms: C_16  and  N_18 
REMARK    7  A    between atoms: O_25  and  C_26 
REMARK    8  A    between atoms: C_26  and  C_27 
REMARK    9  A    between atoms: C_27  and  N_28 
ROOT
ATOM      1  C   LIG d   1       8.948   2.736  -7.647  0.00  0.00    -0.043 A 
ATOM      2  C   LIG d   1       8.599   1.655  -6.866  0.00  0.00    -0.017 A 
ATOM      3  C   LIG d   1       8.735   1.731  -5.488  0.00  0.00     0.124 A 
ATOM      4  C   LIG d   1       9.218   2.893  -4.910  0.00  0.00    -0.005 A 
ATOM      5  C   LIG d   1       9.565   3.981  -5.699  0.00  0.00    -0.037 A 
ATOM      6  C   LIG d   1       9.432   3.901  -7.068  0.00  0.00    -0.041 A 
ATOM      7  C   LIG d   1       9.800   5.039  -7.985  0.00  0.00    -0.027 C 
ATOM      8  C   LIG d   1       9.892   6.349  -7.205  0.00  0.00    -0.045 C 
ATOM      9  C   LIG d   1      10.803   6.125  -5.992  0.00  0.00    -0.026 C 
ATOM     10  H   LIG d   1      11.749   5.660  -6.306  0.00  0.00     0.031 H 
ATOM     11  C   LIG d   1      10.075   5.216  -5.005  0.00  0.00    -0.024 C 
ATOM     12  H   LIG d   1       8.221   0.753  -7.325  0.00  0.00     0.066 H 
ATOM     13  H   LIG d   1      10.773   4.833  -8.454  0.00  0.00     0.031 H 
ATOM     14  H   LIG d   1       9.031   5.143  -8.766  0.00  0.00     0.031 H 
ATOM     15  H   LIG d   1      10.313   7.132  -7.853  0.00  0.00     0.027 H 
ATOM     16  H   LIG d   1       8.888   6.649  -6.871  0.00  0.00     0.027 H 
ATOM     17  H   LIG d   1       9.229   5.768  -4.568  0.00  0.00     0.032 H 
ATOM     18  H   LIG d   1      10.774   4.925  -4.206  0.00  0.00     0.032 H 
ENDROOT
BRANCH   9  19
ATOM     19  C   LIG d   1      11.111   7.468  -5.325  0.00  0.00     0.036 C 
ATOM     20  H   LIG d   1      10.179   7.931  -4.966  0.00  0.00     0.039 H 
BRANCH  19  21
ATOM     21  C   LIG d   1      11.796   8.393  -6.333  0.00  0.00    -0.054 C 
ATOM     22  H   LIG d   1      11.197   9.308  -6.457  0.00  0.00     0.024 H 
ATOM     23  H   LIG d   1      11.886   7.879  -7.301  0.00  0.00     0.024 H 
ATOM     24  H   LIG d   1      12.799   8.658  -5.965  0.00  0.00     0.024 H 
ENDBRANCH  19  21
BRANCH  19  25
ATOM     25  C   LIG d   1      12.024   7.246  -4.147  0.00  0.00     0.219 C 
ATOM     26  O   LIG d   1      13.135   6.793  -4.318  0.00  0.00    -0.275 OA
ATOM     27  N   LIG d   1      11.604   7.550  -2.902  0.00  0.00    -0.301 N 
ATOM     28  C   LIG d   1      12.517   7.441  -1.757  0.00  0.00     0.015 C 
ATOM     29  C   LIG d   1      10.226   8.001  -2.667  0.00  0.00     0.015 C 
ATOM     30  C   LIG d   1      11.864   6.560  -0.687  0.00  0.00    -0.037 C 
ATOM     31  H   LIG d   1      13.465   6.989  -2.085  0.00  0.00     0.046 H 
ATOM     32  H   LIG d   1      12.711   8.444  -1.347  0.00  0.00     0.046 H 
ATOM     33  C   LIG d   1      10.485   7.124  -0.340  0.00  0.00    -0.050 C 
ATOM     34  H   LIG d   1      12.494   6.550   0.215  0.00  0.00     0.028 H 
ATOM     35  H   LIG d   1      11.756   5.535  -1.071  0.00  0.00     0.028 H 
ATOM     36  C   LIG d   1       9.597   7.107  -1.586  0.00  0.00    -0.037 C 
ATOM     37  H   LIG d   1      10.592   8.158   0.021  0.00  0.00     0.027 H 
ATOM     38  H   LIG d   1      10.025   6.507   0.446  0.00  0.00     0.027 H 
ATOM     39  H   LIG d   1       8.597   7.489  -1.332  0.00  0.00     0.028 H 
ATOM     40  H   LIG d   1       9.511   6.079  -1.964  0.00  0.00     0.028 H 
ATOM     41  H   LIG d   1      10.235   9.048  -2.330  0.00  0.00     0.046 H 
ATOM     42  H   LIG d   1       9.649   7.921  -3.600  0.00  0.00     0.046 H 
ENDBRANCH  19  25
ENDBRANCH   9  19
BRANCH   4  43
ATOM     43  C   LIG d   1       9.367   2.978  -3.413  0.00  0.00    -0.036 C 
ATOM     44  H   LIG d   1       8.575   2.387  -2.931  0.00  0.00     0.028 H 
ATOM     45  H   LIG d   1       9.287   4.028  -3.096  0.00  0.00     0.028 H 
ATOM     46  H   LIG d   1      10.350   2.580  -3.119  0.00  0.00     0.028 H 
ENDBRANCH   4  43
BRANCH   1  47
ATOM     47  C   LIG d   1       8.796   2.654  -9.145  0.00  0.00    -0.039 C 
ATOM     48  H   LIG d   1       8.444   3.622  -9.531  0.00  0.00     0.028 H 
ATOM     49  H   LIG d   1       8.067   1.871  -9.397  0.00  0.00     0.028 H 
ATOM     50  H   LIG d   1       9.768   2.409  -9.599  0.00  0.00     0.028 H 
ENDBRANCH   1  47
BRANCH   3  51
ATOM     51  O   LIG d   1       8.395   0.671  -4.708  0.00  0.00    -0.490 OA
BRANCH  51  52
ATOM     52  C   LIG d   1       7.010   0.327  -4.649  0.00  0.00     0.102 C 
ATOM     53  H   LIG d   1       6.483   0.778  -5.503  0.00  0.00     0.071 H 
ATOM     54  H   LIG d   1       6.901  -0.767  -4.687  0.00  0.00     0.071 H 
BRANCH  52  55
ATOM     55  C   LIG d   1       6.409   0.853  -3.344  0.00  0.00     0.033 C 
ATOM     56  H   LIG d   1       7.176   0.841  -2.556  0.00  0.00     0.046 H 
ATOM     57  H   LIG d   1       6.052   1.883  -3.493  0.00  0.00     0.046 H 
BRANCH  55  58
ATOM     58  N   LIG d   1       5.283  -0.001  -2.943  0.00  0.00    -0.295 N 
ATOM     59  C   LIG d   1       4.018   0.498  -3.501  0.00  0.00     0.022 C 
ATOM     60  C   LIG d   1       2.866  -0.384  -3.011  0.00  0.00     0.060 C 
ATOM     61  H   LIG d   1       3.855   1.535  -3.170  0.00  0.00     0.045 H 
ATOM     62  H   LIG d   1       4.065   0.468  -4.600  0.00  0.00     0.045 H 
ATOM     63  O   LIG d   1       3.123  -1.741  -3.381  0.00  0.00    -0.377 OA
ATOM     64  H   LIG d   1       1.925  -0.049  -3.472  0.00  0.00     0.057 H 
ATOM     65  H   LIG d   1       2.786  -0.310  -1.917  0.00  0.00     0.057 H 
ATOM     66  C   LIG d   1       4.347  -2.261  -2.854  0.00  0.00     0.060 C 
ATOM     67  C   LIG d   1       5.513  -1.397  -3.341  0.00  0.00     0.022 C 
ATOM     68  H   LIG d   1       4.486  -3.295  -3.198  0.00  0.00     0.057 H 
ATOM     69  H   LIG d   1       4.312  -2.242  -1.754  0.00  0.00     0.057 H 
ATOM     70  H   LIG d   1       5.583  -1.459  -4.437  0.00  0.00     0.045 H 
ATOM     71  H   LIG d   1       6.451  -1.757  -2.893  0.00  0.00     0.045 H 
ENDBRANCH  55  58
ENDBRANCH  52  55
ENDBRANCH  51  52
ENDBRANCH   3  51
TORSDOF 9
ENDMDL
