MODEL 1
REMARK VINA RESULT:      -5.5      0.000      0.000
REMARK  12 active torsions:
REMARK  status: ('A' for Active; 'I' for Inactive)
REMARK    1  A    between atoms: C_1  and  C_2 
REMARK    2  A    between atoms: C_4  and  C_22 
REMARK    3  A    between atoms: C_6  and  C_19 
REMARK    4  A    between atoms: C_9  and  C_11 
REMARK    5  A    between atoms: C_11  and  C_12 
REMARK       I    between atoms: C_12  and  N_14 
REMARK    6  A    between atoms: N_14  and  C_15 
REMARK    7  A    between atoms: C_15  and  C_16 
REMARK    8  A    between atoms: C_16  and  O_17 
REMARK    9  A    between atoms: O_17  and  C_18 
REMARK   10  A    between atoms: C_19  and  C_20 
REMARK   11  A    between atoms: C_19  and  C_21 
REMARK   12  A    between atoms: C_22  and  O_23 
ROOT
ATOM      1  C   LIG d   1       3.514   1.461  -9.717  0.00  0.00    -0.073 C 
ATOM      2  C   LIG d   1       3.826   1.128 -10.928  0.00  0.00    -0.079 C 
ATOM      3  C   LIG d   1       3.293  -0.085 -11.631  0.00  0.00     0.004 C 
ATOM      4  H   LIG d   1       2.505   0.242 -12.324  0.00  0.00     0.037 H 
ATOM      5  C   LIG d   1       2.710  -1.069 -10.611  0.00  0.00    -0.030 C 
ATOM      6  H   LIG d   1       3.518  -1.533 -10.026  0.00  0.00     0.031 H 
ATOM      7  C   LIG d   1       1.759  -0.297  -9.687  0.00  0.00    -0.042 C 
ATOM      8  C   LIG d   1       2.587   0.671  -8.841  0.00  0.00    -0.012 C 
ATOM      9  H   LIG d   1       1.918   1.378  -8.329  0.00  0.00     0.035 H 
ATOM     10  H   LIG d   1       4.524   1.751 -11.508  0.00  0.00     0.058 H 
ATOM     11  H   LIG d   1       1.032   0.261 -10.294  0.00  0.00     0.027 H 
ATOM     12  H   LIG d   1       1.227  -1.006  -9.035  0.00  0.00     0.027 H 
ENDROOT
BRANCH   8  13
ATOM     13  C   LIG d   1       3.406  -0.121  -7.819  0.00  0.00     0.030 C 
ATOM     14  H   LIG d   1       3.184  -1.193  -7.923  0.00  0.00     0.036 H 
ATOM     15  H   LIG d   1       4.478   0.050  -7.997  0.00  0.00     0.036 H 
BRANCH  13  16
ATOM     16  C   LIG d   1       3.049   0.332  -6.427  0.00  0.00     0.214 C 
ATOM     17  O   LIG d   1       2.676   1.471  -6.238  0.00  0.00    -0.276 OA
ATOM     18  N   LIG d   1       3.144  -0.526  -5.393  0.00  0.00    -0.313 N 
ATOM     19  H   LIG d   1       3.483  -1.558  -5.564  0.00  0.00     0.149 HD
BRANCH  18  20
ATOM     20  C   LIG d   1       2.797  -0.085  -4.040  0.00  0.00     0.035 C 
ATOM     21  H   LIG d   1       3.374   0.818  -3.789  0.00  0.00     0.048 H 
ATOM     22  H   LIG d   1       1.721   0.143  -3.993  0.00  0.00     0.048 H 
BRANCH  20  23
ATOM     23  C   LIG d   1       3.128  -1.195  -3.041  0.00  0.00     0.063 C 
ATOM     24  H   LIG d   1       2.198  -1.572  -2.591  0.00  0.00     0.058 H 
ATOM     25  H   LIG d   1       3.642  -2.016  -3.561  0.00  0.00     0.058 H 
BRANCH  23  26
ATOM     26  O   LIG d   1       3.976  -0.676  -2.015  0.00  0.00    -0.381 OA
BRANCH  26  27
ATOM     27  C   LIG d   1       4.165   0.739  -2.076  0.00  0.00     0.036 C 
ATOM     28  H   LIG d   1       3.717   1.207  -1.186  0.00  0.00     0.052 H 
ATOM     29  H   LIG d   1       3.682   1.135  -2.981  0.00  0.00     0.052 H 
ATOM     30  H   LIG d   1       5.242   0.965  -2.105  0.00  0.00     0.052 H 
ENDBRANCH  26  27
ENDBRANCH  23  26
ENDBRANCH  20  23
ENDBRANCH  18  20
ENDBRANCH  13  16
ENDBRANCH   8  13
BRANCH   1  31
ATOM     31  C   LIG d   1       4.120   2.720  -9.151  0.00  0.00    -0.043 C 
ATOM     32  H   LIG d   1       4.923   2.456  -8.447  0.00  0.00     0.027 H 
ATOM     33  H   LIG d   1       3.345   3.295  -8.623  0.00  0.00     0.027 H 
ATOM     34  H   LIG d   1       4.534   3.327  -9.969  0.00  0.00     0.027 H 
ENDBRANCH   1  31
BRANCH   5  35
ATOM     35  C   LIG d   1       1.938  -2.168 -11.343  0.00  0.00    -0.043 C 
ATOM     36  H   LIG d   1       2.609  -2.682 -12.048  0.00  0.00     0.030 H 
BRANCH  35  37
ATOM     37  C   LIG d   1       1.398  -3.176 -10.325  0.00  0.00    -0.062 C 
ATOM     38  H   LIG d   1       0.685  -2.674  -9.656  0.00  0.00     0.023 H 
ATOM     39  H   LIG d   1       2.232  -3.583  -9.735  0.00  0.00     0.023 H 
ATOM     40  H   LIG d   1       0.890  -3.995 -10.855  0.00  0.00     0.023 H 
ENDBRANCH  35  37
BRANCH  35  41
ATOM     41  C   LIG d   1       0.770  -1.546 -12.112  0.00  0.00    -0.062 C 
ATOM     42  H   LIG d   1       1.112  -1.233 -13.109  0.00  0.00     0.023 H 
ATOM     43  H   LIG d   1       0.395  -0.669 -11.562  0.00  0.00     0.023 H 
ATOM     44  H   LIG d   1      -0.037  -2.286 -12.215  0.00  0.00     0.023 H 
ENDBRANCH  35  41
ENDBRANCH   5  35
BRANCH   3  45
ATOM     45  C   LIG d   1       4.428  -0.768 -12.398  0.00  0.00     0.051 C 
ATOM     46  H   LIG d   1       5.339  -0.769 -11.781  0.00  0.00     0.056 H 
ATOM     47  H   LIG d   1       4.141  -1.804 -12.631  0.00  0.00     0.056 H 
BRANCH  45  48
ATOM     48  O   LIG d   1       4.675  -0.056 -13.612  0.00  0.00    -0.394 OA
ATOM     49  H   LIG d   1       3.888   0.014 -14.378  0.00  0.00     0.209 HD
ENDBRANCH  45  48
ENDBRANCH   3  45
TORSDOF 12
ENDMDL
MODEL 2
REMARK VINA RESULT:      -5.1      5.651      8.040
REMARK  12 active torsions:
REMARK  status: ('A' for Active; 'I' for Inactive)
REMARK    1  A    between atoms: C_1  and  C_2 
REMARK    2  A    between atoms: C_4  and  C_22 
REMARK    3  A    between atoms: C_6  and  C_19 
REMARK    4  A    between atoms: C_9  and  C_11 
REMARK    5  A    between atoms: C_11  and  C_12 
REMARK       I    between atoms: C_12  and  N_14 
REMARK    6  A    between atoms: N_14  and  C_15 
REMARK    7  A    between atoms: C_15  and  C_16 
REMARK    8  A    between atoms: C_16  and  O_17 
REMARK    9  A    between atoms: O_17  and  C_18 
REMARK   10  A    between atoms: C_19  and  C_20 
REMARK   11  A    between atoms: C_19  and  C_21 
REMARK   12  A    between atoms: C_22  and  O_23 
ROOT
ATOM      1  C   LIG d   1       6.866  -3.049  -4.276  0.00  0.00    -0.073 C 
ATOM      2  C   LIG d   1       7.273  -1.865  -3.947  0.00  0.00    -0.079 C 
ATOM      3  C   LIG d   1       6.365  -0.757  -3.502  0.00  0.00     0.004 C 
ATOM      4  H   LIG d   1       6.437  -0.677  -2.408  0.00  0.00     0.037 H 
ATOM      5  C   LIG d   1       4.920  -1.069  -3.904  0.00  0.00    -0.030 C 
ATOM      6  H   LIG d   1       4.800  -0.981  -4.994  0.00  0.00     0.031 H 
ATOM      7  C   LIG d   1       4.591  -2.496  -3.446  0.00  0.00    -0.042 C 
ATOM      8  C   LIG d   1       5.427  -3.474  -4.273  0.00  0.00    -0.012 C 
ATOM      9  H   LIG d   1       5.370  -4.477  -3.826  0.00  0.00     0.035 H 
ATOM     10  H   LIG d   1       8.346  -1.622  -3.986  0.00  0.00     0.058 H 
ATOM     11  H   LIG d   1       4.832  -2.603  -2.379  0.00  0.00     0.027 H 
ATOM     12  H   LIG d   1       3.520  -2.693  -3.601  0.00  0.00     0.027 H 
ENDROOT
BRANCH   8  13
ATOM     13  C   LIG d   1       4.902  -3.501  -5.710  0.00  0.00     0.030 C 
ATOM     14  H   LIG d   1       4.044  -2.819  -5.800  0.00  0.00     0.036 H 
ATOM     15  H   LIG d   1       5.699  -3.180  -6.397  0.00  0.00     0.036 H 
BRANCH  13  16
ATOM     16  C   LIG d   1       4.470  -4.901  -6.062  0.00  0.00     0.214 C 
ATOM     17  O   LIG d   1       3.290  -5.179  -6.102  0.00  0.00    -0.276 OA
ATOM     18  N   LIG d   1       5.394  -5.844  -6.331  0.00  0.00    -0.313 N 
ATOM     19  H   LIG d   1       6.464  -5.593  -6.294  0.00  0.00     0.149 HD
BRANCH  18  20
ATOM     20  C   LIG d   1       4.974  -7.205  -6.673  0.00  0.00     0.035 C 
ATOM     21  H   LIG d   1       3.927  -7.192  -7.012  0.00  0.00     0.048 H 
ATOM     22  H   LIG d   1       5.615  -7.596  -7.478  0.00  0.00     0.048 H 
BRANCH  20  23
ATOM     23  C   LIG d   1       5.099  -8.102  -5.441  0.00  0.00     0.063 C 
ATOM     24  H   LIG d   1       6.153  -8.386  -5.299  0.00  0.00     0.058 H 
ATOM     25  H   LIG d   1       4.745  -7.559  -4.553  0.00  0.00     0.058 H 
BRANCH  23  26
ATOM     26  O   LIG d   1       4.310  -9.279  -5.625  0.00  0.00    -0.381 OA
BRANCH  26  27
ATOM     27  C   LIG d   1       4.361 -10.192  -4.527  0.00  0.00     0.036 C 
ATOM     28  H   LIG d   1       4.344 -11.224  -4.907  0.00  0.00     0.052 H 
ATOM     29  H   LIG d   1       3.494 -10.028  -3.873  0.00  0.00     0.052 H 
ATOM     30  H   LIG d   1       5.288 -10.026  -3.956  0.00  0.00     0.052 H 
ENDBRANCH  26  27
ENDBRANCH  23  26
ENDBRANCH  20  23
ENDBRANCH  18  20
ENDBRANCH  13  16
ENDBRANCH   8  13
BRANCH   1  31
ATOM     31  C   LIG d   1       7.902  -4.063  -4.689  0.00  0.00    -0.043 C 
ATOM     32  H   LIG d   1       7.441  -4.807  -5.356  0.00  0.00     0.027 H 
ATOM     33  H   LIG d   1       8.297  -4.569  -3.794  0.00  0.00     0.027 H 
ATOM     34  H   LIG d   1       8.722  -3.556  -5.216  0.00  0.00     0.027 H 
ENDBRANCH   1  31
BRANCH   5  35
ATOM     35  C   LIG d   1       3.974  -0.079  -3.222  0.00  0.00    -0.043 C 
ATOM     36  H   LIG d   1       3.987   0.877  -3.767  0.00  0.00     0.030 H 
BRANCH  35  37
ATOM     37  C   LIG d   1       2.552  -0.647  -3.226  0.00  0.00    -0.062 C 
ATOM     38  H   LIG d   1       2.333  -1.091  -2.243  0.00  0.00     0.023 H 
ATOM     39  H   LIG d   1       2.468  -1.419  -4.004  0.00  0.00     0.023 H 
ATOM     40  H   LIG d   1       1.835   0.161  -3.431  0.00  0.00     0.023 H 
ENDBRANCH  35  37
BRANCH  35  41
ATOM     41  C   LIG d   1       4.427   0.149  -1.778  0.00  0.00    -0.062 C 
ATOM     42  H   LIG d   1       4.522   1.229  -1.590  0.00  0.00     0.023 H 
ATOM     43  H   LIG d   1       5.401  -0.337  -1.619  0.00  0.00     0.023 H 
ATOM     44  H   LIG d   1       3.685  -0.281  -1.089  0.00  0.00     0.023 H 
ENDBRANCH  35  41
ENDBRANCH   5  35
BRANCH   3  45
ATOM     45  C   LIG d   1       6.800   0.553  -4.163  0.00  0.00     0.051 C 
ATOM     46  H   LIG d   1       6.249   1.392  -3.713  0.00  0.00     0.056 H 
ATOM     47  H   LIG d   1       7.880   0.699  -4.010  0.00  0.00     0.056 H 
BRANCH  45  48
ATOM     48  O   LIG d   1       6.520   0.494  -5.563  0.00  0.00    -0.394 OA
ATOM     49  H   LIG d   1       6.203   1.402  -6.099  0.00  0.00     0.209 HD
ENDBRANCH  45  48
ENDBRANCH   3  45
TORSDOF 12
ENDMDL
MODEL 3
REMARK VINA RESULT:      -4.9      5.069      8.122
REMARK  12 active torsions:
REMARK  status: ('A' for Active; 'I' for Inactive)
REMARK    1  A    between atoms: C_1  and  C_2 
REMARK    2  A    between atoms: C_4  and  C_22 
REMARK    3  A    between atoms: C_6  and  C_19 
REMARK    4  A    between atoms: C_9  and  C_11 
REMARK    5  A    between atoms: C_11  and  C_12 
REMARK       I    between atoms: C_12  and  N_14 
REMARK    6  A    between atoms: N_14  and  C_15 
REMARK    7  A    between atoms: C_15  and  C_16 
REMARK    8  A    between atoms: C_16  and  O_17 
REMARK    9  A    between atoms: O_17  and  C_18 
REMARK   10  A    between atoms: C_19  and  C_20 
REMARK   11  A    between atoms: C_19  and  C_21 
REMARK   12  A    between atoms: C_22  and  O_23 
ROOT
ATOM      1  C   LIG d   1       6.649  -3.236  -4.484  0.00  0.00    -0.073 C 
ATOM      2  C   LIG d   1       7.154  -2.143  -4.008  0.00  0.00    -0.079 C 
ATOM      3  C   LIG d   1       6.339  -1.018  -3.442  0.00  0.00     0.004 C 
ATOM      4  H   LIG d   1       6.394  -1.077  -2.345  0.00  0.00     0.037 H 
ATOM      5  C   LIG d   1       4.882  -1.144  -3.896  0.00  0.00    -0.030 C 
ATOM      6  H   LIG d   1       4.796  -0.914  -4.968  0.00  0.00     0.031 H 
ATOM      7  C   LIG d   1       4.414  -2.578  -3.619  0.00  0.00    -0.042 C 
ATOM      8  C   LIG d   1       5.178  -3.523  -4.549  0.00  0.00    -0.012 C 
ATOM      9  H   LIG d   1       5.020  -4.563  -4.229  0.00  0.00     0.035 H 
ATOM     10  H   LIG d   1       8.245  -1.997  -4.003  0.00  0.00     0.058 H 
ATOM     11  H   LIG d   1       4.620  -2.835  -2.570  0.00  0.00     0.027 H 
ATOM     12  H   LIG d   1       3.334  -2.655  -3.811  0.00  0.00     0.027 H 
ENDROOT
BRANCH   8  13
ATOM     13  C   LIG d   1       4.686  -3.328  -5.985  0.00  0.00     0.030 C 
ATOM     14  H   LIG d   1       3.867  -2.594  -5.996  0.00  0.00     0.036 H 
ATOM     15  H   LIG d   1       5.514  -2.962  -6.610  0.00  0.00     0.036 H 
BRANCH  13  16
ATOM     16  C   LIG d   1       4.189  -4.642  -6.530  0.00  0.00     0.214 C 
ATOM     17  O   LIG d   1       3.501  -5.364  -5.838  0.00  0.00    -0.276 OA
ATOM     18  N   LIG d   1       4.509  -5.015  -7.785  0.00  0.00    -0.313 N 
ATOM     19  H   LIG d   1       5.132  -4.362  -8.411  0.00  0.00     0.149 HD
BRANCH  18  20
ATOM     20  C   LIG d   1       4.026  -6.293  -8.314  0.00  0.00     0.035 C 
ATOM     21  H   LIG d   1       4.884  -6.929  -8.579  0.00  0.00     0.048 H 
ATOM     22  H   LIG d   1       3.417  -6.800  -7.550  0.00  0.00     0.048 H 
BRANCH  20  23
ATOM     23  C   LIG d   1       3.175  -6.041  -9.559  0.00  0.00     0.063 C 
ATOM     24  H   LIG d   1       3.035  -4.958  -9.695  0.00  0.00     0.058 H 
ATOM     25  H   LIG d   1       3.682  -6.457 -10.441  0.00  0.00     0.058 H 
BRANCH  23  26
ATOM     26  O   LIG d   1       1.900  -6.668  -9.402  0.00  0.00    -0.381 OA
BRANCH  26  27
ATOM     27  C   LIG d   1       1.713  -7.820 -10.225  0.00  0.00     0.036 C 
ATOM     28  H   LIG d   1       1.564  -8.705  -9.589  0.00  0.00     0.052 H 
ATOM     29  H   LIG d   1       2.601  -7.969 -10.856  0.00  0.00     0.052 H 
ATOM     30  H   LIG d   1       0.829  -7.675 -10.865  0.00  0.00     0.052 H 
ENDBRANCH  26  27
ENDBRANCH  23  26
ENDBRANCH  20  23
ENDBRANCH  18  20
ENDBRANCH  13  16
ENDBRANCH   8  13
BRANCH   1  31
ATOM     31  C   LIG d   1       7.598  -4.285  -5.004  0.00  0.00    -0.043 C 
ATOM     32  H   LIG d   1       8.184  -3.868  -5.836  0.00  0.00     0.027 H 
ATOM     33  H   LIG d   1       7.024  -5.154  -5.360  0.00  0.00     0.027 H 
ATOM     34  H   LIG d   1       8.276  -4.598  -4.198  0.00  0.00     0.027 H 
ENDBRANCH   1  31
BRANCH   5  35
ATOM     35  C   LIG d   1       4.014  -0.159  -3.109  0.00  0.00    -0.043 C 
ATOM     36  H   LIG d   1       4.132   0.851  -3.528  0.00  0.00     0.030 H 
BRANCH  35  37
ATOM     37  C   LIG d   1       2.546  -0.583  -3.208  0.00  0.00    -0.062 C 
ATOM     38  H   LIG d   1       1.903   0.307  -3.135  0.00  0.00     0.023 H 
ATOM     39  H   LIG d   1       2.308  -1.276  -2.389  0.00  0.00     0.023 H 
ATOM     40  H   LIG d   1       2.373  -1.081  -4.173  0.00  0.00     0.023 H 
ENDBRANCH  35  37
BRANCH  35  41
ATOM     41  C   LIG d   1       4.445  -0.157  -1.641  0.00  0.00    -0.062 C 
ATOM     42  H   LIG d   1       4.342   0.858  -1.230  0.00  0.00     0.023 H 
ATOM     43  H   LIG d   1       5.495  -0.477  -1.568  0.00  0.00     0.023 H 
ATOM     44  H   LIG d   1       3.810  -0.852  -1.072  0.00  0.00     0.023 H 
ENDBRANCH  35  41
ENDBRANCH   5  35
BRANCH   3  45
ATOM     45  C   LIG d   1       6.907   0.317  -3.933  0.00  0.00     0.051 C 
ATOM     46  H   LIG d   1       6.471   1.139  -3.346  0.00  0.00     0.056 H 
ATOM     47  H   LIG d   1       8.000   0.317  -3.810  0.00  0.00     0.056 H 
BRANCH  45  48
ATOM     48  O   LIG d   1       6.582   0.492  -5.313  0.00  0.00    -0.394 OA
ATOM     49  H   LIG d   1       5.664   1.027  -5.598  0.00  0.00     0.209 HD
ENDBRANCH  45  48
ENDBRANCH   3  45
TORSDOF 12
ENDMDL
MODEL 4
REMARK VINA RESULT:      -4.7      5.584      7.321
REMARK  12 active torsions:
REMARK  status: ('A' for Active; 'I' for Inactive)
REMARK    1  A    between atoms: C_1  and  C_2 
REMARK    2  A    between atoms: C_4  and  C_22 
REMARK    3  A    between atoms: C_6  and  C_19 
REMARK    4  A    between atoms: C_9  and  C_11 
REMARK    5  A    between atoms: C_11  and  C_12 
REMARK       I    between atoms: C_12  and  N_14 
REMARK    6  A    between atoms: N_14  and  C_15 
REMARK    7  A    between atoms: C_15  and  C_16 
REMARK    8  A    between atoms: C_16  and  O_17 
REMARK    9  A    between atoms: O_17  and  C_18 
REMARK   10  A    between atoms: C_19  and  C_20 
REMARK   11  A    between atoms: C_19  and  C_21 
REMARK   12  A    between atoms: C_22  and  O_23 
ROOT
ATOM      1  C   LIG d   1       4.535  -2.289  -3.509  0.00  0.00    -0.073 C 
ATOM      2  C   LIG d   1       4.274  -3.365  -4.179  0.00  0.00    -0.079 C 
ATOM      3  C   LIG d   1       5.265  -4.066  -5.062  0.00  0.00     0.004 C 
ATOM      4  H   LIG d   1       5.642  -4.945  -4.520  0.00  0.00     0.037 H 
ATOM      5  C   LIG d   1       6.427  -3.126  -5.397  0.00  0.00    -0.030 C 
ATOM      6  H   LIG d   1       6.091  -2.336  -6.084  0.00  0.00     0.031 H 
ATOM      7  C   LIG d   1       6.940  -2.511  -4.088  0.00  0.00    -0.042 C 
ATOM      8  C   LIG d   1       5.858  -1.583  -3.533  0.00  0.00    -0.012 C 
ATOM      9  H   LIG d   1       6.110  -1.298  -2.501  0.00  0.00     0.035 H 
ATOM     10  H   LIG d   1       3.275  -3.822  -4.121  0.00  0.00     0.058 H 
ATOM     11  H   LIG d   1       7.156  -3.312  -3.366  0.00  0.00     0.027 H 
ATOM     12  H   LIG d   1       7.859  -1.940  -4.288  0.00  0.00     0.027 H 
ENDROOT
BRANCH   8  13
ATOM     13  C   LIG d   1       5.754  -0.339  -4.418  0.00  0.00     0.030 C 
ATOM     14  H   LIG d   1       6.154  -0.565  -5.417  0.00  0.00     0.036 H 
ATOM     15  H   LIG d   1       4.699  -0.039  -4.506  0.00  0.00     0.036 H 
BRANCH  13  16
ATOM     16  C   LIG d   1       6.546   0.785  -3.803  0.00  0.00     0.214 C 
ATOM     17  O   LIG d   1       6.234   1.221  -2.714  0.00  0.00    -0.276 OA
ATOM     18  N   LIG d   1       7.600   1.306  -4.460  0.00  0.00    -0.313 N 
ATOM     19  H   LIG d   1       7.883   0.911  -5.447  0.00  0.00     0.149 HD
BRANCH  18  20
ATOM     20  C   LIG d   1       8.371   2.399  -3.861  0.00  0.00     0.035 C 
ATOM     21  H   LIG d   1       8.255   3.307  -4.471  0.00  0.00     0.048 H 
ATOM     22  H   LIG d   1       8.001   2.592  -2.843  0.00  0.00     0.048 H 
BRANCH  20  23
ATOM     23  C   LIG d   1       9.848   2.009  -3.802  0.00  0.00     0.063 C 
ATOM     24  H   LIG d   1       9.935   0.926  -3.631  0.00  0.00     0.058 H 
ATOM     25  H   LIG d   1      10.335   2.268  -4.753  0.00  0.00     0.058 H 
BRANCH  23  26
ATOM     26  O   LIG d   1      10.485   2.712  -2.733  0.00  0.00    -0.381 OA
BRANCH  26  27
ATOM     27  C   LIG d   1      11.580   3.531  -3.147  0.00  0.00     0.036 C 
ATOM     28  H   LIG d   1      11.551   4.486  -2.602  0.00  0.00     0.052 H 
ATOM     29  H   LIG d   1      11.508   3.723  -4.227  0.00  0.00     0.052 H 
ATOM     30  H   LIG d   1      12.527   3.014  -2.929  0.00  0.00     0.052 H 
ENDBRANCH  26  27
ENDBRANCH  23  26
ENDBRANCH  20  23
ENDBRANCH  18  20
ENDBRANCH  13  16
ENDBRANCH   8  13
BRANCH   1  31
ATOM     31  C   LIG d   1       3.440  -1.709  -2.651  0.00  0.00    -0.043 C 
ATOM     32  H   LIG d   1       3.191  -0.699  -3.008  0.00  0.00     0.027 H 
ATOM     33  H   LIG d   1       3.783  -1.653  -1.606  0.00  0.00     0.027 H 
ATOM     34  H   LIG d   1       2.549  -2.350  -2.711  0.00  0.00     0.027 H 
ENDBRANCH   1  31
BRANCH   5  35
ATOM     35  C   LIG d   1       7.550  -3.919  -6.067  0.00  0.00    -0.043 C 
ATOM     36  H   LIG d   1       7.120  -4.614  -6.804  0.00  0.00     0.030 H 
BRANCH  35  37
ATOM     37  C   LIG d   1       8.504  -2.953  -6.775  0.00  0.00    -0.062 C 
ATOM     38  H   LIG d   1       9.447  -3.472  -7.005  0.00  0.00     0.023 H 
ATOM     39  H   LIG d   1       8.708  -2.094  -6.121  0.00  0.00     0.023 H 
ATOM     40  H   LIG d   1       8.043  -2.602  -7.709  0.00  0.00     0.023 H 
ENDBRANCH  35  37
BRANCH  35  41
ATOM     41  C   LIG d   1       8.320  -4.710  -5.008  0.00  0.00    -0.062 C 
ATOM     42  H   LIG d   1       7.638  -5.411  -4.505  0.00  0.00     0.023 H 
ATOM     43  H   LIG d   1       8.742  -4.015  -4.267  0.00  0.00     0.023 H 
ATOM     44  H   LIG d   1       9.135  -5.271  -5.490  0.00  0.00     0.023 H 
ENDBRANCH  35  41
ENDBRANCH   5  35
BRANCH   3  45
ATOM     45  C   LIG d   1       4.574  -4.495  -6.359  0.00  0.00     0.051 C 
ATOM     46  H   LIG d   1       4.438  -3.619  -7.009  0.00  0.00     0.056 H 
ATOM     47  H   LIG d   1       5.195  -5.242  -6.874  0.00  0.00     0.056 H 
BRANCH  45  48
ATOM     48  O   LIG d   1       3.299  -5.063  -6.052  0.00  0.00    -0.394 OA
ATOM     49  H   LIG d   1       2.852  -5.806  -6.730  0.00  0.00     0.209 HD
ENDBRANCH  45  48
ENDBRANCH   3  45
TORSDOF 12
ENDMDL
MODEL 5
REMARK VINA RESULT:      -4.5      5.220      7.492
REMARK  12 active torsions:
REMARK  status: ('A' for Active; 'I' for Inactive)
REMARK    1  A    between atoms: C_1  and  C_2 
REMARK    2  A    between atoms: C_4  and  C_22 
REMARK    3  A    between atoms: C_6  and  C_19 
REMARK    4  A    between atoms: C_9  and  C_11 
REMARK    5  A    between atoms: C_11  and  C_12 
REMARK       I    between atoms: C_12  and  N_14 
REMARK    6  A    between atoms: N_14  and  C_15 
REMARK    7  A    between atoms: C_15  and  C_16 
REMARK    8  A    between atoms: C_16  and  O_17 
REMARK    9  A    between atoms: O_17  and  C_18 
REMARK   10  A    between atoms: C_19  and  C_20 
REMARK   11  A    between atoms: C_19  and  C_21 
REMARK   12  A    between atoms: C_22  and  O_23 
ROOT
ATOM      1  C   LIG d   1       4.717  -2.899  -7.455  0.00  0.00    -0.073 C 
ATOM      2  C   LIG d   1       4.425  -1.661  -7.217  0.00  0.00    -0.079 C 
ATOM      3  C   LIG d   1       4.507  -1.024  -5.861  0.00  0.00     0.004 C 
ATOM      4  H   LIG d   1       5.427  -0.423  -5.823  0.00  0.00     0.037 H 
ATOM      5  C   LIG d   1       4.548  -2.103  -4.775  0.00  0.00    -0.030 C 
ATOM      6  H   LIG d   1       3.567  -2.594  -4.690  0.00  0.00     0.031 H 
ATOM      7  C   LIG d   1       5.626  -3.127  -5.154  0.00  0.00    -0.042 C 
ATOM      8  C   LIG d   1       5.164  -3.874  -6.406  0.00  0.00    -0.012 C 
ATOM      9  H   LIG d   1       6.001  -4.457  -6.818  0.00  0.00     0.035 H 
ATOM     10  H   LIG d   1       4.092  -1.006  -8.036  0.00  0.00     0.058 H 
ATOM     11  H   LIG d   1       6.572  -2.605  -5.355  0.00  0.00     0.027 H 
ATOM     12  H   LIG d   1       5.767  -3.835  -4.324  0.00  0.00     0.027 H 
ENDROOT
BRANCH   8  13
ATOM     13  C   LIG d   1       3.999  -4.799  -6.043  0.00  0.00     0.030 C 
ATOM     14  H   LIG d   1       3.804  -4.736  -4.963  0.00  0.00     0.036 H 
ATOM     15  H   LIG d   1       3.100  -4.490  -6.597  0.00  0.00     0.036 H 
BRANCH  13  16
ATOM     16  C   LIG d   1       4.350  -6.218  -6.409  0.00  0.00     0.214 C 
ATOM     17  O   LIG d   1       4.030  -6.662  -7.492  0.00  0.00    -0.276 OA
ATOM     18  N   LIG d   1       5.020  -6.993  -5.534  0.00  0.00    -0.313 N 
ATOM     19  H   LIG d   1       5.310  -6.591  -4.553  0.00  0.00     0.149 HD
BRANCH  18  20
ATOM     20  C   LIG d   1       5.361  -8.373  -5.890  0.00  0.00     0.035 C 
ATOM     21  H   LIG d   1       4.705  -8.715  -6.704  0.00  0.00     0.048 H 
ATOM     22  H   LIG d   1       6.410  -8.418  -6.221  0.00  0.00     0.048 H 
BRANCH  20  23
ATOM     23  C   LIG d   1       5.173  -9.275  -4.670  0.00  0.00     0.063 C 
ATOM     24  H   LIG d   1       5.337 -10.324  -4.960  0.00  0.00     0.058 H 
ATOM     25  H   LIG d   1       5.895  -8.994  -3.890  0.00  0.00     0.058 H 
BRANCH  23  26
ATOM     26  O   LIG d   1       3.844  -9.124  -4.165  0.00  0.00    -0.381 OA
BRANCH  26  27
ATOM     27  C   LIG d   1       3.458 -10.134  -3.232  0.00  0.00     0.036 C 
ATOM     28  H   LIG d   1       3.067 -11.007  -3.776  0.00  0.00     0.052 H 
ATOM     29  H   LIG d   1       2.678  -9.739  -2.565  0.00  0.00     0.052 H 
ATOM     30  H   LIG d   1       4.332 -10.436  -2.635  0.00  0.00     0.052 H 
ENDBRANCH  26  27
ENDBRANCH  23  26
ENDBRANCH  20  23
ENDBRANCH  18  20
ENDBRANCH  13  16
ENDBRANCH   8  13
BRANCH   1  31
ATOM     31  C   LIG d   1       4.601  -3.392  -8.875  0.00  0.00    -0.043 C 
ATOM     32  H   LIG d   1       5.559  -3.832  -9.189  0.00  0.00     0.027 H 
ATOM     33  H   LIG d   1       4.350  -2.550  -9.536  0.00  0.00     0.027 H 
ATOM     34  H   LIG d   1       3.810  -4.154  -8.934  0.00  0.00     0.027 H 
ENDBRANCH   1  31
BRANCH   5  35
ATOM     35  C   LIG d   1       4.897  -1.463  -3.430  0.00  0.00    -0.043 C 
ATOM     36  H   LIG d   1       4.710  -0.380  -3.479  0.00  0.00     0.030 H 
BRANCH  35  37
ATOM     37  C   LIG d   1       4.027  -2.080  -2.331  0.00  0.00    -0.062 C 
ATOM     38  H   LIG d   1       3.092  -1.509  -2.240  0.00  0.00     0.023 H 
ATOM     39  H   LIG d   1       4.570  -2.051  -1.375  0.00  0.00     0.023 H 
ATOM     40  H   LIG d   1       3.796  -3.124  -2.590  0.00  0.00     0.023 H 
ENDBRANCH  35  37
BRANCH  35  41
ATOM     41  C   LIG d   1       6.372  -1.713  -3.112  0.00  0.00    -0.062 C 
ATOM     42  H   LIG d   1       6.824  -2.313  -3.916  0.00  0.00     0.023 H 
ATOM     43  H   LIG d   1       6.455  -2.255  -2.159  0.00  0.00     0.023 H 
ATOM     44  H   LIG d   1       6.898  -0.750  -3.033  0.00  0.00     0.023 H 
ENDBRANCH  35  41
ENDBRANCH   5  35
BRANCH   3  45
ATOM     45  C   LIG d   1       3.280  -0.135  -5.643  0.00  0.00     0.051 C 
ATOM     46  H   LIG d   1       2.369  -0.750  -5.687  0.00  0.00     0.056 H 
ATOM     47  H   LIG d   1       3.349   0.349  -4.658  0.00  0.00     0.056 H 
BRANCH  45  48
ATOM     48  O   LIG d   1       3.230   0.865  -6.663  0.00  0.00    -0.394 OA
ATOM     49  H   LIG d   1       3.639   0.651  -7.662  0.00  0.00     0.209 HD
ENDBRANCH  45  48
ENDBRANCH   3  45
TORSDOF 12
ENDMDL
MODEL 6
REMARK VINA RESULT:      -4.4      2.259      2.607
REMARK  12 active torsions:
REMARK  status: ('A' for Active; 'I' for Inactive)
REMARK    1  A    between atoms: C_1  and  C_2 
REMARK    2  A    between atoms: C_4  and  C_22 
REMARK    3  A    between atoms: C_6  and  C_19 
REMARK    4  A    between atoms: C_9  and  C_11 
REMARK    5  A    between atoms: C_11  and  C_12 
REMARK       I    between atoms: C_12  and  N_14 
REMARK    6  A    between atoms: N_14  and  C_15 
REMARK    7  A    between atoms: C_15  and  C_16 
REMARK    8  A    between atoms: C_16  and  O_17 
REMARK    9  A    between atoms: O_17  and  C_18 
REMARK   10  A    between atoms: C_19  and  C_20 
REMARK   11  A    between atoms: C_19  and  C_21 
REMARK   12  A    between atoms: C_22  and  O_23 
ROOT
ATOM      1  C   LIG d   1       3.457   1.293  -9.571  0.00  0.00    -0.073 C 
ATOM      2  C   LIG d   1       3.395   0.863 -10.790  0.00  0.00    -0.079 C 
ATOM      3  C   LIG d   1       3.094  -0.558 -11.166  0.00  0.00     0.004 C 
ATOM      4  H   LIG d   1       2.046  -0.609 -11.492  0.00  0.00     0.037 H 
ATOM      5  C   LIG d   1       3.307  -1.477  -9.959  0.00  0.00    -0.030 C 
ATOM      6  H   LIG d   1       4.380  -1.568  -9.734  0.00  0.00     0.031 H 
ATOM      7  C   LIG d   1       2.560  -0.878  -8.761  0.00  0.00    -0.042 C 
ATOM      8  C   LIG d   1       3.252   0.427  -8.362  0.00  0.00    -0.012 C 
ATOM      9  H   LIG d   1       2.619   0.979  -7.652  0.00  0.00     0.035 H 
ATOM     10  H   LIG d   1       3.569   1.555 -11.627  0.00  0.00     0.058 H 
ATOM     11  H   LIG d   1       1.516  -0.679  -9.041  0.00  0.00     0.027 H 
ATOM     12  H   LIG d   1       2.585  -1.588  -7.921  0.00  0.00     0.027 H 
ENDROOT
BRANCH   8  13
ATOM     13  C   LIG d   1       4.609   0.109  -7.730  0.00  0.00     0.030 C 
ATOM     14  H   LIG d   1       5.149  -0.611  -8.363  0.00  0.00     0.036 H 
ATOM     15  H   LIG d   1       5.199   1.033  -7.643  0.00  0.00     0.036 H 
BRANCH  13  16
ATOM     16  C   LIG d   1       4.400  -0.484  -6.361  0.00  0.00     0.214 C 
ATOM     17  O   LIG d   1       3.840   0.162  -5.500  0.00  0.00    -0.276 OA
ATOM     18  N   LIG d   1       4.834  -1.732  -6.093  0.00  0.00    -0.313 N 
ATOM     19  H   LIG d   1       5.341  -2.317  -6.873  0.00  0.00     0.149 HD
BRANCH  18  20
ATOM     20  C   LIG d   1       4.630  -2.308  -4.762  0.00  0.00     0.035 C 
ATOM     21  H   LIG d   1       5.192  -1.723  -4.019  0.00  0.00     0.048 H 
ATOM     22  H   LIG d   1       3.558  -2.284  -4.512  0.00  0.00     0.048 H 
BRANCH  20  23
ATOM     23  C   LIG d   1       5.123  -3.755  -4.752  0.00  0.00     0.063 C 
ATOM     24  H   LIG d   1       6.020  -3.842  -5.383  0.00  0.00     0.058 H 
ATOM     25  H   LIG d   1       5.371  -4.052  -3.722  0.00  0.00     0.058 H 
BRANCH  23  26
ATOM     26  O   LIG d   1       4.099  -4.612  -5.261  0.00  0.00    -0.381 OA
BRANCH  26  27
ATOM     27  C   LIG d   1       4.592  -5.766  -5.944  0.00  0.00     0.036 C 
ATOM     28  H   LIG d   1       4.433  -6.658  -5.320  0.00  0.00     0.052 H 
ATOM     29  H   LIG d   1       5.667  -5.644  -6.142  0.00  0.00     0.052 H 
ATOM     30  H   LIG d   1       4.055  -5.885  -6.898  0.00  0.00     0.052 H 
ENDBRANCH  26  27
ENDBRANCH  23  26
ENDBRANCH  20  23
ENDBRANCH  18  20
ENDBRANCH  13  16
ENDBRANCH   8  13
BRANCH   1  31
ATOM     31  C   LIG d   1       3.754   2.754  -9.351  0.00  0.00    -0.043 C 
ATOM     32  H   LIG d   1       2.868   3.351  -9.611  0.00  0.00     0.027 H 
ATOM     33  H   LIG d   1       4.599   3.057  -9.987  0.00  0.00     0.027 H 
ATOM     34  H   LIG d   1       4.011   2.921  -8.295  0.00  0.00     0.027 H 
ENDBRANCH   1  31
BRANCH   5  35
ATOM     35  C   LIG d   1       2.750  -2.868 -10.269  0.00  0.00    -0.043 C 
ATOM     36  H   LIG d   1       3.113  -3.198 -11.255  0.00  0.00     0.030 H 
BRANCH  35  37
ATOM     37  C   LIG d   1       3.217  -3.856  -9.197  0.00  0.00    -0.062 C 
ATOM     38  H   LIG d   1       2.430  -4.603  -9.020  0.00  0.00     0.023 H 
ATOM     39  H   LIG d   1       3.424  -3.312  -8.264  0.00  0.00     0.023 H 
ATOM     40  H   LIG d   1       4.132  -4.361  -9.539  0.00  0.00     0.023 H 
ENDBRANCH  35  37
BRANCH  35  41
ATOM     41  C   LIG d   1       1.221  -2.814 -10.281  0.00  0.00    -0.062 C 
ATOM     42  H   LIG d   1       0.831  -3.265  -9.356  0.00  0.00     0.023 H 
ATOM     43  H   LIG d   1       0.841  -3.374 -11.148  0.00  0.00     0.023 H 
ATOM     44  H   LIG d   1       0.891  -1.767 -10.347  0.00  0.00     0.023 H 
ENDBRANCH  35  41
ENDBRANCH   5  35
BRANCH   3  45
ATOM     45  C   LIG d   1       4.027  -0.991 -12.300  0.00  0.00     0.051 C 
ATOM     46  H   LIG d   1       4.860  -1.579 -11.886  0.00  0.00     0.056 H 
ATOM     47  H   LIG d   1       3.467  -1.606 -13.020  0.00  0.00     0.056 H 
BRANCH  45  48
ATOM     48  O   LIG d   1       4.542   0.167 -12.960  0.00  0.00    -0.394 OA
ATOM     49  H   LIG d   1       5.136   0.056 -13.880  0.00  0.00     0.209 HD
ENDBRANCH  45  48
ENDBRANCH   3  45
TORSDOF 12
ENDMDL
MODEL 7
REMARK VINA RESULT:      -4.4     10.259     12.793
REMARK  12 active torsions:
REMARK  status: ('A' for Active; 'I' for Inactive)
REMARK    1  A    between atoms: C_1  and  C_2 
REMARK    2  A    between atoms: C_4  and  C_22 
REMARK    3  A    between atoms: C_6  and  C_19 
REMARK    4  A    between atoms: C_9  and  C_11 
REMARK    5  A    between atoms: C_11  and  C_12 
REMARK       I    between atoms: C_12  and  N_14 
REMARK    6  A    between atoms: N_14  and  C_15 
REMARK    7  A    between atoms: C_15  and  C_16 
REMARK    8  A    between atoms: C_16  and  O_17 
REMARK    9  A    between atoms: O_17  and  C_18 
REMARK   10  A    between atoms: C_19  and  C_20 
REMARK   11  A    between atoms: C_19  and  C_21 
REMARK   12  A    between atoms: C_22  and  O_23 
ROOT
ATOM      1  C   LIG d   1       6.533 -11.250  -2.001  0.00  0.00    -0.073 C 
ATOM      2  C   LIG d   1       5.286 -11.349  -2.336  0.00  0.00    -0.079 C 
ATOM      3  C   LIG d   1       4.661 -10.603  -3.478  0.00  0.00     0.004 C 
ATOM      4  H   LIG d   1       4.555 -11.300  -4.321  0.00  0.00     0.037 H 
ATOM      5  C   LIG d   1       5.551  -9.426  -3.887  0.00  0.00    -0.030 C 
ATOM      6  H   LIG d   1       5.523  -8.642  -3.115  0.00  0.00     0.031 H 
ATOM      7  C   LIG d   1       6.983  -9.945  -4.067  0.00  0.00    -0.042 C 
ATOM      8  C   LIG d   1       7.522 -10.363  -2.698  0.00  0.00    -0.012 C 
ATOM      9  H   LIG d   1       8.455 -10.930  -2.826  0.00  0.00     0.035 H 
ATOM     10  H   LIG d   1       4.616 -12.013  -1.770  0.00  0.00     0.058 H 
ATOM     11  H   LIG d   1       6.977 -10.809  -4.748  0.00  0.00     0.027 H 
ATOM     12  H   LIG d   1       7.611  -9.148  -4.491  0.00  0.00     0.027 H 
ENDROOT
BRANCH   8  13
ATOM     13  C   LIG d   1       7.770  -9.114  -1.848  0.00  0.00     0.030 C 
ATOM     14  H   LIG d   1       7.469  -8.220  -2.414  0.00  0.00     0.036 H 
ATOM     15  H   LIG d   1       7.181  -9.178  -0.922  0.00  0.00     0.036 H 
BRANCH  13  16
ATOM     16  C   LIG d   1       9.235  -9.021  -1.506  0.00  0.00     0.214 C 
ATOM     17  O   LIG d   1      10.018  -8.563  -2.312  0.00  0.00    -0.276 OA
ATOM     18  N   LIG d   1       9.674  -9.445  -0.305  0.00  0.00    -0.313 N 
ATOM     19  H   LIG d   1       8.965  -9.860   0.425  0.00  0.00     0.149 HD
BRANCH  18  20
ATOM     20  C   LIG d   1      11.098  -9.355   0.027  0.00  0.00     0.035 C 
ATOM     21  H   LIG d   1      11.444 -10.320   0.427  0.00  0.00     0.048 H 
ATOM     22  H   LIG d   1      11.672  -9.108  -0.879  0.00  0.00     0.048 H 
BRANCH  20  23
ATOM     23  C   LIG d   1      11.308  -8.263   1.077  0.00  0.00     0.063 C 
ATOM     24  H   LIG d   1      12.385  -8.074   1.200  0.00  0.00     0.058 H 
ATOM     25  H   LIG d   1      10.810  -7.339   0.751  0.00  0.00     0.058 H 
BRANCH  23  26
ATOM     26  O   LIG d   1      10.755  -8.688   2.325  0.00  0.00    -0.381 OA
BRANCH  26  27
ATOM     27  C   LIG d   1      11.536  -8.320   3.463  0.00  0.00     0.036 C 
ATOM     28  H   LIG d   1      11.586  -7.223   3.534  0.00  0.00     0.052 H 
ATOM     29  H   LIG d   1      12.552  -8.727   3.359  0.00  0.00     0.052 H 
ATOM     30  H   LIG d   1      11.070  -8.726   4.374  0.00  0.00     0.052 H 
ENDBRANCH  26  27
ENDBRANCH  23  26
ENDBRANCH  20  23
ENDBRANCH  18  20
ENDBRANCH  13  16
ENDBRANCH   8  13
BRANCH   1  31
ATOM     31  C   LIG d   1       7.020 -12.076  -0.838  0.00  0.00    -0.043 C 
ATOM     32  H   LIG d   1       6.171 -12.607  -0.385  0.00  0.00     0.027 H 
ATOM     33  H   LIG d   1       7.482 -11.416  -0.088  0.00  0.00     0.027 H 
ATOM     34  H   LIG d   1       7.763 -12.805  -1.193  0.00  0.00     0.027 H 
ENDBRANCH   1  31
BRANCH   5  35
ATOM     35  C   LIG d   1       5.047  -8.837  -5.206  0.00  0.00    -0.043 C 
ATOM     36  H   LIG d   1       3.968  -8.634  -5.130  0.00  0.00     0.030 H 
BRANCH  35  37
ATOM     37  C   LIG d   1       5.792  -7.531  -5.499  0.00  0.00    -0.062 C 
ATOM     38  H   LIG d   1       5.423  -6.742  -4.828  0.00  0.00     0.023 H 
ATOM     39  H   LIG d   1       5.618  -7.237  -6.543  0.00  0.00     0.023 H 
ATOM     40  H   LIG d   1       6.869  -7.679  -5.333  0.00  0.00     0.023 H 
ENDBRANCH  35  37
BRANCH  35  41
ATOM     41  C   LIG d   1       5.301  -9.833  -6.339  0.00  0.00    -0.062 C 
ATOM     42  H   LIG d   1       6.375  -9.854  -6.576  0.00  0.00     0.023 H 
ATOM     43  H   LIG d   1       4.735  -9.524  -7.231  0.00  0.00     0.023 H 
ATOM     44  H   LIG d   1       4.973 -10.835  -6.027  0.00  0.00     0.023 H 
ENDBRANCH  35  41
ENDBRANCH   5  35
BRANCH   3  45
ATOM     45  C   LIG d   1       3.290 -10.074  -3.047  0.00  0.00     0.051 C 
ATOM     46  H   LIG d   1       3.191 -10.158  -1.955  0.00  0.00     0.056 H 
ATOM     47  H   LIG d   1       3.196  -9.019  -3.343  0.00  0.00     0.056 H 
BRANCH  45  48
ATOM     48  O   LIG d   1       2.265 -10.840  -3.681  0.00  0.00    -0.394 OA
ATOM     49  H   LIG d   1       2.369 -11.932  -3.769  0.00  0.00     0.209 HD
ENDBRANCH  45  48
ENDBRANCH   3  45
TORSDOF 12
ENDMDL
MODEL 8
REMARK VINA RESULT:      -4.3      7.851     11.781
REMARK  12 active torsions:
REMARK  status: ('A' for Active; 'I' for Inactive)
REMARK    1  A    between atoms: C_1  and  C_2 
REMARK    2  A    between atoms: C_4  and  C_22 
REMARK    3  A    between atoms: C_6  and  C_19 
REMARK    4  A    between atoms: C_9  and  C_11 
REMARK    5  A    between atoms: C_11  and  C_12 
REMARK       I    between atoms: C_12  and  N_14 
REMARK    6  A    between atoms: N_14  and  C_15 
REMARK    7  A    between atoms: C_15  and  C_16 
REMARK    8  A    between atoms: C_16  and  O_17 
REMARK    9  A    between atoms: O_17  and  C_18 
REMARK   10  A    between atoms: C_19  and  C_20 
REMARK   11  A    between atoms: C_19  and  C_21 
REMARK   12  A    between atoms: C_22  and  O_23 
ROOT
ATOM      1  C   LIG d   1      10.023   6.300  -3.913  0.00  0.00    -0.073 C 
ATOM      2  C   LIG d   1       9.913   7.429  -3.290  0.00  0.00    -0.079 C 
ATOM      3  C   LIG d   1      10.491   7.701  -1.933  0.00  0.00     0.004 C 
ATOM      4  H   LIG d   1      11.408   8.292  -2.066  0.00  0.00     0.037 H 
ATOM      5  C   LIG d   1      10.824   6.381  -1.230  0.00  0.00    -0.030 C 
ATOM      6  H   LIG d   1       9.899   5.862  -0.937  0.00  0.00     0.031 H 
ATOM      7  C   LIG d   1      11.638   5.513  -2.197  0.00  0.00    -0.042 C 
ATOM      8  C   LIG d   1      10.731   5.099  -3.357  0.00  0.00    -0.012 C 
ATOM      9  H   LIG d   1      11.338   4.660  -4.162  0.00  0.00     0.035 H 
ATOM     10  H   LIG d   1       9.367   8.263  -3.756  0.00  0.00     0.058 H 
ATOM     11  H   LIG d   1      12.494   6.090  -2.576  0.00  0.00     0.027 H 
ATOM     12  H   LIG d   1      12.004   4.620  -1.669  0.00  0.00     0.027 H 
ENDROOT
BRANCH   8  13
ATOM     13  C   LIG d   1       9.698   4.087  -2.856  0.00  0.00     0.030 C 
ATOM     14  H   LIG d   1       9.955   3.777  -1.833  0.00  0.00     0.036 H 
ATOM     15  H   LIG d   1       8.700   4.549  -2.860  0.00  0.00     0.036 H 
BRANCH  13  16
ATOM     16  C   LIG d   1       9.696   2.882  -3.761  0.00  0.00     0.214 C 
ATOM     17  O   LIG d   1      10.665   2.153  -3.802  0.00  0.00    -0.276 OA
ATOM     18  N   LIG d   1       8.617   2.613  -4.523  0.00  0.00    -0.313 N 
ATOM     19  H   LIG d   1       7.739   3.273  -4.486  0.00  0.00     0.149 HD
BRANCH  18  20
ATOM     20  C   LIG d   1       8.616   1.441  -5.402  0.00  0.00     0.035 C 
ATOM     21  H   LIG d   1       8.561   1.769  -6.451  0.00  0.00     0.048 H 
ATOM     22  H   LIG d   1       9.540   0.864  -5.246  0.00  0.00     0.048 H 
BRANCH  20  23
ATOM     23  C   LIG d   1       7.407   0.563  -5.078  0.00  0.00     0.063 C 
ATOM     24  H   LIG d   1       6.849   0.350  -6.002  0.00  0.00     0.058 H 
ATOM     25  H   LIG d   1       7.748  -0.383  -4.632  0.00  0.00     0.058 H 
BRANCH  23  26
ATOM     26  O   LIG d   1       6.555   1.245  -4.155  0.00  0.00    -0.381 OA
BRANCH  26  27
ATOM     27  C   LIG d   1       6.014   0.406  -3.133  0.00  0.00     0.036 C 
ATOM     28  H   LIG d   1       6.731   0.335  -2.301  0.00  0.00     0.052 H 
ATOM     29  H   LIG d   1       5.827  -0.597  -3.542  0.00  0.00     0.052 H 
ATOM     30  H   LIG d   1       5.069   0.836  -2.767  0.00  0.00     0.052 H 
ENDBRANCH  26  27
ENDBRANCH  23  26
ENDBRANCH  20  23
ENDBRANCH  18  20
ENDBRANCH  13  16
ENDBRANCH   8  13
BRANCH   1  31
ATOM     31  C   LIG d   1       9.401   6.182  -5.280  0.00  0.00    -0.043 C 
ATOM     32  H   LIG d   1       9.901   5.380  -5.843  0.00  0.00     0.027 H 
ATOM     33  H   LIG d   1       9.517   7.135  -5.819  0.00  0.00     0.027 H 
ATOM     34  H   LIG d   1       8.331   5.948  -5.178  0.00  0.00     0.027 H 
ENDBRANCH   1  31
BRANCH   5  35
ATOM     35  C   LIG d   1      11.649   6.664   0.027  0.00  0.00    -0.043 C 
ATOM     36  H   LIG d   1      11.553   7.727   0.298  0.00  0.00     0.030 H 
BRANCH  35  37
ATOM     37  C   LIG d   1      11.136   5.797   1.180  0.00  0.00    -0.062 C 
ATOM     38  H   LIG d   1      11.885   5.779   1.986  0.00  0.00     0.023 H 
ATOM     39  H   LIG d   1      10.961   4.774   0.819  0.00  0.00     0.023 H 
ATOM     40  H   LIG d   1      10.195   6.217   1.563  0.00  0.00     0.023 H 
ENDBRANCH  35  37
BRANCH  35  41
ATOM     41  C   LIG d   1      13.119   6.336  -0.242  0.00  0.00    -0.062 C 
ATOM     42  H   LIG d   1      13.623   6.105   0.708  0.00  0.00     0.023 H 
ATOM     43  H   LIG d   1      13.607   7.202  -0.714  0.00  0.00     0.023 H 
ATOM     44  H   LIG d   1      13.183   5.467  -0.913  0.00  0.00     0.023 H 
ENDBRANCH  35  41
ENDBRANCH   5  35
BRANCH   3  45
ATOM     45  C   LIG d   1       9.473   8.476  -1.093  0.00  0.00     0.051 C 
ATOM     46  H   LIG d   1       9.822   8.531  -0.052  0.00  0.00     0.056 H 
ATOM     47  H   LIG d   1       9.364   9.494  -1.497  0.00  0.00     0.056 H 
BRANCH  45  48
ATOM     48  O   LIG d   1       8.211   7.807  -1.139  0.00  0.00    -0.394 OA
ATOM     49  H   LIG d   1       7.279   8.385  -1.048  0.00  0.00     0.209 HD
ENDBRANCH  45  48
ENDBRANCH   3  45
TORSDOF 12
ENDMDL
MODEL 9
REMARK VINA RESULT:      -4.3     10.169     12.884
REMARK  12 active torsions:
REMARK  status: ('A' for Active; 'I' for Inactive)
REMARK    1  A    between atoms: C_1  and  C_2 
REMARK    2  A    between atoms: C_4  and  C_22 
REMARK    3  A    between atoms: C_6  and  C_19 
REMARK    4  A    between atoms: C_9  and  C_11 
REMARK    5  A    between atoms: C_11  and  C_12 
REMARK       I    between atoms: C_12  and  N_14 
REMARK    6  A    between atoms: N_14  and  C_15 
REMARK    7  A    between atoms: C_15  and  C_16 
REMARK    8  A    between atoms: C_16  and  O_17 
REMARK    9  A    between atoms: O_17  and  C_18 
REMARK   10  A    between atoms: C_19  and  C_20 
REMARK   11  A    between atoms: C_19  and  C_21 
REMARK   12  A    between atoms: C_22  and  O_23 
ROOT
ATOM      1  C   LIG d   1      10.263   6.811  -3.535  0.00  0.00    -0.073 C 
ATOM      2  C   LIG d   1       9.924   7.915  -2.952  0.00  0.00    -0.079 C 
ATOM      3  C   LIG d   1      10.148   8.200  -1.496  0.00  0.00     0.004 C 
ATOM      4  H   LIG d   1      11.022   8.862  -1.410  0.00  0.00     0.037 H 
ATOM      5  C   LIG d   1      10.410   6.895  -0.739  0.00  0.00    -0.030 C 
ATOM      6  H   LIG d   1       9.486   6.302  -0.672  0.00  0.00     0.031 H 
ATOM      7  C   LIG d   1      11.492   6.111  -1.492  0.00  0.00    -0.042 C 
ATOM      8  C   LIG d   1      10.914   5.655  -2.833  0.00  0.00    -0.012 C 
ATOM      9  H   LIG d   1      11.724   5.280  -3.476  0.00  0.00     0.035 H 
ATOM     10  H   LIG d   1       9.438   8.716  -3.529  0.00  0.00     0.058 H 
ATOM     11  H   LIG d   1      12.365   6.759  -1.659  0.00  0.00     0.027 H 
ATOM     12  H   LIG d   1      11.793   5.237  -0.896  0.00  0.00     0.027 H 
ENDROOT
BRANCH   8  13
ATOM     13  C   LIG d   1       9.875   4.558  -2.591  0.00  0.00     0.030 C 
ATOM     14  H   LIG d   1       9.759   4.395  -1.510  0.00  0.00     0.036 H 
ATOM     15  H   LIG d   1       8.911   4.865  -3.021  0.00  0.00     0.036 H 
BRANCH  13  16
ATOM     16  C   LIG d   1      10.332   3.279  -3.245  0.00  0.00     0.214 C 
ATOM     17  O   LIG d   1       9.597   2.695  -4.013  0.00  0.00    -0.276 OA
ATOM     18  N   LIG d   1      11.556   2.785  -2.976  0.00  0.00    -0.313 N 
ATOM     19  H   LIG d   1      12.222   3.313  -2.279  0.00  0.00     0.149 HD
BRANCH  18  20
ATOM     20  C   LIG d   1      12.000   1.542  -3.611  0.00  0.00     0.035 C 
ATOM     21  H   LIG d   1      12.130   0.763  -2.845  0.00  0.00     0.048 H 
ATOM     22  H   LIG d   1      11.245   1.214  -4.342  0.00  0.00     0.048 H 
BRANCH  20  23
ATOM     23  C   LIG d   1      13.331   1.781  -4.325  0.00  0.00     0.063 C 
ATOM     24  H   LIG d   1      13.421   1.089  -5.176  0.00  0.00     0.058 H 
ATOM     25  H   LIG d   1      13.371   2.817  -4.690  0.00  0.00     0.058 H 
BRANCH  23  26
ATOM     26  O   LIG d   1      14.409   1.556  -3.413  0.00  0.00    -0.381 OA
BRANCH  26  27
ATOM     27  C   LIG d   1      14.544   0.195  -2.998  0.00  0.00     0.036 C 
ATOM     28  H   LIG d   1      13.567  -0.306  -3.059  0.00  0.00     0.052 H 
ATOM     29  H   LIG d   1      14.909   0.163  -1.962  0.00  0.00     0.052 H 
ATOM     30  H   LIG d   1      15.262  -0.319  -3.656  0.00  0.00     0.052 H 
ENDBRANCH  26  27
ENDBRANCH  23  26
ENDBRANCH  20  23
ENDBRANCH  18  20
ENDBRANCH  13  16
ENDBRANCH   8  13
BRANCH   1  31
ATOM     31  C   LIG d   1       9.987   6.677  -5.010  0.00  0.00    -0.043 C 
ATOM     32  H   LIG d   1      10.896   6.330  -5.524  0.00  0.00     0.027 H 
ATOM     33  H   LIG d   1       9.687   7.654  -5.418  0.00  0.00     0.027 H 
ATOM     34  H   LIG d   1       9.177   5.949  -5.167  0.00  0.00     0.027 H 
ENDBRANCH   1  31
BRANCH   5  35
ATOM     35  C   LIG d   1      10.896   7.212   0.677  0.00  0.00    -0.043 C 
ATOM     36  H   LIG d   1      10.144   7.826   1.195  0.00  0.00     0.030 H 
BRANCH  35  37
ATOM     37  C   LIG d   1      11.107   5.906   1.448  0.00  0.00    -0.062 C 
ATOM     38  H   LIG d   1      10.993   5.054   0.762  0.00  0.00     0.023 H 
ATOM     39  H   LIG d   1      10.362   5.832   2.253  0.00  0.00     0.023 H 
ATOM     40  H   LIG d   1      12.118   5.896   1.881  0.00  0.00     0.023 H 
ENDBRANCH  35  37
BRANCH  35  41
ATOM     41  C   LIG d   1      12.218   7.979   0.603  0.00  0.00    -0.062 C 
ATOM     42  H   LIG d   1      12.381   8.332  -0.426  0.00  0.00     0.023 H 
ATOM     43  H   LIG d   1      13.044   7.314   0.896  0.00  0.00     0.023 H 
ATOM     44  H   LIG d   1      12.181   8.840   1.286  0.00  0.00     0.023 H 
ENDBRANCH  35  41
ENDBRANCH   5  35
BRANCH   3  45
ATOM     45  C   LIG d   1       8.906   8.880  -0.915  0.00  0.00     0.051 C 
ATOM     46  H   LIG d   1       9.088   9.137   0.139  0.00  0.00     0.056 H 
ATOM     47  H   LIG d   1       8.689   9.795  -1.484  0.00  0.00     0.056 H 
BRANCH  45  48
ATOM     48  O   LIG d   1       7.792   7.988  -1.002  0.00  0.00    -0.394 OA
ATOM     49  H   LIG d   1       7.683   7.172  -0.272  0.00  0.00     0.209 HD
ENDBRANCH  45  48
ENDBRANCH   3  45
TORSDOF 12
ENDMDL
