MODEL 1
REMARK VINA RESULT:      -7.6      0.000      0.000
REMARK  7 active torsions:
REMARK  status: ('A' for Active; 'I' for Inactive)
REMARK    1  A    between atoms: C_1  and  C_2 
REMARK    2  A    between atoms: C_13  and  O_15 
REMARK    3  A    between atoms: O_15  and  C_16 
REMARK    4  A    between atoms: C_16  and  C_18 
REMARK    5  A    between atoms: C_18  and  C_19 
REMARK    6  A    between atoms: C_19  and  C_20 
REMARK    7  A    between atoms: C_34  and  C_35 
ROOT
ATOM      1  C   LIG d   1       4.897  -0.048  -2.843  0.00  0.00     0.008 C 
ATOM      2  C   LIG d   1       6.159   0.486  -3.483  0.00  0.00    -0.044 C 
ATOM      3  C   LIG d   1       6.277  -0.014  -4.920  0.00  0.00    -0.049 C 
ATOM      4  C   LIG d   1       6.341  -1.549  -4.914  0.00  0.00    -0.029 C 
ATOM      5  H   LIG d   1       7.201  -1.877  -4.331  0.00  0.00     0.031 H 
ATOM      6  C   LIG d   1       5.070  -2.114  -4.308  0.00  0.00    -0.034 C 
ATOM      7  H   LIG d   1       4.226  -1.814  -4.930  0.00  0.00     0.031 H 
ATOM      8  C   LIG d   1       4.818  -1.580  -2.923  0.00  0.00    -0.029 C 
ATOM      9  H   LIG d   1       5.466  -2.059  -2.189  0.00  0.00     0.031 H 
ATOM     10  C   LIG d   1       3.306  -1.831  -2.644  0.00  0.00    -0.046 C 
ATOM     11  C   LIG d   1       2.596  -0.690  -3.406  0.00  0.00    -0.015 C 
ATOM     12  C   LIG d   1       3.623   0.453  -3.538  0.00  0.00     0.109 C 
ATOM     13  H   LIG d   1       3.254   1.351  -3.044  0.00  0.00     0.074 H 
ATOM     14  C   LIG d   1       5.081  -3.638  -4.230  0.00  0.00    -0.046 C 
ATOM     15  C   LIG d   1       5.888  -4.283  -5.346  0.00  0.00    -0.030 C 
ATOM     16  C   LIG d   1       5.910  -3.366  -6.544  0.00  0.00    -0.060 C 
ATOM     17  C   LIG d   1       5.406  -3.762  -7.709  0.00  0.00    -0.019 C 
ATOM     18  C   LIG d   1       5.404  -2.873  -8.869  0.00  0.00     0.156 C 
ATOM     19  O   LIG d   1       4.963  -3.261  -9.930  0.00  0.00    -0.293 OA
ATOM     20  C   LIG d   1       5.951  -1.473  -8.746  0.00  0.00     0.011 C 
ATOM     21  C   LIG d   1       5.793  -1.004  -7.294  0.00  0.00    -0.037 C 
ATOM     22  C   LIG d   1       6.506  -1.995  -6.373  0.00  0.00    -0.007 C 
ATOM     23  H   LIG d   1       6.131   1.575  -3.482  0.00  0.00     0.027 H 
ATOM     24  H   LIG d   1       7.024   0.149  -2.912  0.00  0.00     0.027 H 
ATOM     25  H   LIG d   1       5.409   0.313  -5.493  0.00  0.00     0.027 H 
ATOM     26  H   LIG d   1       7.184   0.388  -5.372  0.00  0.00     0.027 H 
ATOM     27  H   LIG d   1       3.001  -2.802  -3.036  0.00  0.00     0.027 H 
ATOM     28  H   LIG d   1       3.097  -1.766  -1.576  0.00  0.00     0.027 H 
ATOM     29  H   LIG d   1       1.727  -0.349  -2.844  0.00  0.00     0.030 H 
ATOM     30  H   LIG d   1       2.290  -1.034  -4.394  0.00  0.00     0.030 H 
ATOM     31  H   LIG d   1       4.055  -4.004  -4.281  0.00  0.00     0.027 H 
ATOM     32  H   LIG d   1       5.509  -3.929  -3.272  0.00  0.00     0.027 H 
ATOM     33  H   LIG d   1       5.431  -5.234  -5.624  0.00  0.00     0.031 H 
ATOM     34  H   LIG d   1       6.908  -4.457  -5.003  0.00  0.00     0.031 H 
ATOM     35  H   LIG d   1       4.994  -4.755  -7.799  0.00  0.00     0.065 H 
ATOM     36  H   LIG d   1       6.918  -1.468  -8.999  0.00  0.00     0.035 H 
ATOM     37  H   LIG d   1       5.398  -0.806  -9.406  0.00  0.00     0.035 H 
ATOM     38  H   LIG d   1       4.735  -0.963  -7.037  0.00  0.00     0.028 H 
ATOM     39  H   LIG d   1       6.237  -0.015  -7.180  0.00  0.00     0.028 H 
ENDROOT
BRANCH  12  40
ATOM     40  O   LIG d   1       3.892   0.725  -4.938  0.00  0.00    -0.461 OA
BRANCH  40  41
ATOM     41  C   LIG d   1       2.871   1.188  -5.676  0.00  0.00     0.308 C 
ATOM     42  O   LIG d   1       2.207   2.116  -5.274  0.00  0.00    -0.251 OA
BRANCH  41  43
ATOM     43  C   LIG d   1       2.551   0.553  -7.004  0.00  0.00     0.049 C 
ATOM     44  H   LIG d   1       1.495   0.284  -7.033  0.00  0.00     0.038 H 
ATOM     45  H   LIG d   1       3.158  -0.343  -7.134  0.00  0.00     0.038 H 
BRANCH  43  46
ATOM     46  C   LIG d   1       2.855   1.543  -8.130  0.00  0.00    -0.018 C 
ATOM     47  H   LIG d   1       2.035   2.255  -8.220  0.00  0.00     0.032 H 
ATOM     48  H   LIG d   1       3.777   2.079  -7.903  0.00  0.00     0.032 H 
BRANCH  46  49
ATOM     49  C   LIG d   1       3.016   0.795  -9.428  0.00  0.00    -0.047 A 
ATOM     50  C   LIG d   1       2.234  -0.316  -9.686  0.00  0.00    -0.059 A 
ATOM     51  C   LIG d   1       2.381  -1.003 -10.877  0.00  0.00    -0.061 A 
ATOM     52  H   LIG d   1       1.509  -0.647  -8.958  0.00  0.00     0.062 H 
ATOM     53  C   LIG d   1       3.308  -0.578 -11.810  0.00  0.00    -0.062 A 
ATOM     54  H   LIG d   1       1.769  -1.870 -11.079  0.00  0.00     0.062 H 
ATOM     55  C   LIG d   1       4.090   0.532 -11.551  0.00  0.00    -0.061 A 
ATOM     56  H   LIG d   1       3.423  -1.115 -12.740  0.00  0.00     0.062 H 
ATOM     57  C   LIG d   1       3.940   1.221 -10.363  0.00  0.00    -0.059 A 
ATOM     58  H   LIG d   1       4.814   0.863 -12.280  0.00  0.00     0.062 H 
ATOM     59  H   LIG d   1       4.547   2.092 -10.163  0.00  0.00     0.062 H 
ENDBRANCH  46  49
ENDBRANCH  43  46
ENDBRANCH  41  43
ENDBRANCH  40  41
ENDBRANCH  12  40
BRANCH   1  60
ATOM     60  C   LIG d   1       4.863   0.377  -1.374  0.00  0.00    -0.056 C 
ATOM     61  H   LIG d   1       4.827  -0.509  -0.740  0.00  0.00     0.024 H 
ATOM     62  H   LIG d   1       5.758   0.954  -1.141  0.00  0.00     0.024 H 
ATOM     63  H   LIG d   1       3.978   0.990  -1.193  0.00  0.00     0.024 H 
ENDBRANCH   1  60
BRANCH  22  64
ATOM     64  C   LIG d   1       7.995  -2.040  -6.727  0.00  0.00    -0.056 C 
ATOM     65  H   LIG d   1       8.587  -1.870  -5.828  0.00  0.00     0.024 H 
ATOM     66  H   LIG d   1       8.240  -3.017  -7.145  0.00  0.00     0.024 H 
ATOM     67  H   LIG d   1       8.217  -1.265  -7.461  0.00  0.00     0.024 H 
ENDBRANCH  22  64
TORSDOF 7
ENDMDL
MODEL 2
REMARK VINA RESULT:      -7.5      2.195      6.007
REMARK  7 active torsions:
REMARK  status: ('A' for Active; 'I' for Inactive)
REMARK    1  A    between atoms: C_1  and  C_2 
REMARK    2  A    between atoms: C_13  and  O_15 
REMARK    3  A    between atoms: O_15  and  C_16 
REMARK    4  A    between atoms: C_16  and  C_18 
REMARK    5  A    between atoms: C_18  and  C_19 
REMARK    6  A    between atoms: C_19  and  C_20 
REMARK    7  A    between atoms: C_34  and  C_35 
ROOT
ATOM      1  C   LIG d   1       3.509  -0.472  -8.063  0.00  0.00     0.008 C 
ATOM      2  C   LIG d   1       4.429  -1.586  -7.617  0.00  0.00    -0.044 C 
ATOM      3  C   LIG d   1       5.633  -1.015  -6.874  0.00  0.00    -0.049 C 
ATOM      4  C   LIG d   1       6.410  -0.084  -7.817  0.00  0.00    -0.029 C 
ATOM      5  H   LIG d   1       6.741  -0.643  -8.693  0.00  0.00     0.031 H 
ATOM      6  C   LIG d   1       5.520   1.065  -8.253  0.00  0.00    -0.034 C 
ATOM      7  H   LIG d   1       5.238   1.639  -7.371  0.00  0.00     0.031 H 
ATOM      8  C   LIG d   1       4.249   0.582  -8.900  0.00  0.00    -0.029 C 
ATOM      9  H   LIG d   1       4.427   0.240  -9.919  0.00  0.00     0.031 H 
ATOM     10  C   LIG d   1       3.261   1.785  -8.835  0.00  0.00    -0.046 C 
ATOM     11  C   LIG d   1       2.742   1.758  -7.380  0.00  0.00    -0.015 C 
ATOM     12  C   LIG d   1       2.908   0.307  -6.884  0.00  0.00     0.109 C 
ATOM     13  H   LIG d   1       1.940  -0.112  -6.612  0.00  0.00     0.074 H 
ATOM     14  C   LIG d   1       6.215   2.011  -9.229  0.00  0.00    -0.046 C 
ATOM     15  C   LIG d   1       7.717   2.094  -9.007  0.00  0.00    -0.030 C 
ATOM     16  C   LIG d   1       8.029   1.776  -7.565  0.00  0.00    -0.060 C 
ATOM     17  C   LIG d   1       8.630   2.673  -6.789  0.00  0.00    -0.019 C 
ATOM     18  C   LIG d   1       8.917   2.381  -5.386  0.00  0.00     0.156 C 
ATOM     19  O   LIG d   1       9.488   3.202  -4.700  0.00  0.00    -0.293 OA
ATOM     20  C   LIG d   1       8.503   1.058  -4.792  0.00  0.00     0.011 C 
ATOM     21  C   LIG d   1       7.281   0.532  -5.553  0.00  0.00    -0.037 C 
ATOM     22  C   LIG d   1       7.631   0.424  -7.039  0.00  0.00    -0.007 C 
ATOM     23  H   LIG d   1       3.885  -2.261  -6.957  0.00  0.00     0.027 H 
ATOM     24  H   LIG d   1       4.774  -2.140  -8.491  0.00  0.00     0.027 H 
ATOM     25  H   LIG d   1       5.292  -0.452  -6.005  0.00  0.00     0.027 H 
ATOM     26  H   LIG d   1       6.281  -1.829  -6.549  0.00  0.00     0.027 H 
ATOM     27  H   LIG d   1       3.783   2.721  -9.038  0.00  0.00     0.027 H 
ATOM     28  H   LIG d   1       2.440   1.645  -9.537  0.00  0.00     0.027 H 
ATOM     29  H   LIG d   1       1.691   2.045  -7.353  0.00  0.00     0.030 H 
ATOM     30  H   LIG d   1       3.331   2.435  -6.761  0.00  0.00     0.030 H 
ATOM     31  H   LIG d   1       5.788   3.009  -9.122  0.00  0.00     0.027 H 
ATOM     32  H   LIG d   1       6.028   1.657 -10.242  0.00  0.00     0.027 H 
ATOM     33  H   LIG d   1       8.065   3.101  -9.240  0.00  0.00     0.031 H 
ATOM     34  H   LIG d   1       8.221   1.377  -9.655  0.00  0.00     0.031 H 
ATOM     35  H   LIG d   1       8.910   3.630  -7.202  0.00  0.00     0.065 H 
ATOM     36  H   LIG d   1       9.257   0.406  -4.871  0.00  0.00     0.035 H 
ATOM     37  H   LIG d   1       8.248   1.194  -3.741  0.00  0.00     0.035 H 
ATOM     38  H   LIG d   1       6.447   1.221  -5.424  0.00  0.00     0.028 H 
ATOM     39  H   LIG d   1       7.007  -0.451  -5.170  0.00  0.00     0.028 H 
ENDROOT
BRANCH  12  40
ATOM     40  O   LIG d   1       3.810   0.266  -5.747  0.00  0.00    -0.461 OA
BRANCH  40  41
ATOM     41  C   LIG d   1       3.258   0.372  -4.528  0.00  0.00     0.308 C 
ATOM     42  O   LIG d   1       3.221   1.446  -3.973  0.00  0.00    -0.251 OA
BRANCH  41  43
ATOM     43  C   LIG d   1       2.685  -0.846  -3.851  0.00  0.00     0.049 C 
ATOM     44  H   LIG d   1       2.578  -1.650  -4.581  0.00  0.00     0.038 H 
ATOM     45  H   LIG d   1       1.709  -0.604  -3.431  0.00  0.00     0.038 H 
BRANCH  43  46
ATOM     46  C   LIG d   1       3.625  -1.297  -2.731  0.00  0.00    -0.018 C 
ATOM     47  H   LIG d   1       3.975  -0.426  -2.177  0.00  0.00     0.032 H 
ATOM     48  H   LIG d   1       3.092  -1.965  -2.057  0.00  0.00     0.032 H 
BRANCH  46  49
ATOM     49  C   LIG d   1       4.805  -2.021  -3.327  0.00  0.00    -0.047 A 
ATOM     50  C   LIG d   1       6.091  -1.611  -3.026  0.00  0.00    -0.059 A 
ATOM     51  C   LIG d   1       7.173  -2.275  -3.572  0.00  0.00    -0.061 A 
ATOM     52  H   LIG d   1       6.250  -0.771  -2.365  0.00  0.00     0.062 H 
ATOM     53  C   LIG d   1       6.970  -3.349  -4.417  0.00  0.00    -0.062 A 
ATOM     54  H   LIG d   1       8.177  -1.954  -3.337  0.00  0.00     0.062 H 
ATOM     55  C   LIG d   1       5.684  -3.759  -4.718  0.00  0.00    -0.061 A 
ATOM     56  H   LIG d   1       7.816  -3.868  -4.845  0.00  0.00     0.062 H 
ATOM     57  C   LIG d   1       4.603  -3.098  -4.169  0.00  0.00    -0.059 A 
ATOM     58  H   LIG d   1       5.526  -4.598  -5.378  0.00  0.00     0.062 H 
ATOM     59  H   LIG d   1       3.598  -3.421  -4.399  0.00  0.00     0.062 H 
ENDBRANCH  46  49
ENDBRANCH  43  46
ENDBRANCH  41  43
ENDBRANCH  40  41
ENDBRANCH  12  40
BRANCH   1  60
ATOM     60  C   LIG d   1       2.373  -1.065  -8.899  0.00  0.00    -0.056 C 
ATOM     61  H   LIG d   1       1.627  -1.504  -8.237  0.00  0.00     0.024 H 
ATOM     62  H   LIG d   1       1.912  -0.278  -9.495  0.00  0.00     0.024 H 
ATOM     63  H   LIG d   1       2.772  -1.835  -9.559  0.00  0.00     0.024 H 
ENDBRANCH   1  60
BRANCH  22  64
ATOM     64  C   LIG d   1       8.794  -0.555  -7.219  0.00  0.00    -0.056 C 
ATOM     65  H   LIG d   1       8.553  -1.498  -6.729  0.00  0.00     0.024 H 
ATOM     66  H   LIG d   1       8.961  -0.729  -8.282  0.00  0.00     0.024 H 
ATOM     67  H   LIG d   1       9.695  -0.134  -6.773  0.00  0.00     0.024 H 
ENDBRANCH  22  64
TORSDOF 7
ENDMDL
MODEL 3
REMARK VINA RESULT:      -7.0      1.898      6.004
REMARK  7 active torsions:
REMARK  status: ('A' for Active; 'I' for Inactive)
REMARK    1  A    between atoms: C_1  and  C_2 
REMARK    2  A    between atoms: C_13  and  O_15 
REMARK    3  A    between atoms: O_15  and  C_16 
REMARK    4  A    between atoms: C_16  and  C_18 
REMARK    5  A    between atoms: C_18  and  C_19 
REMARK    6  A    between atoms: C_19  and  C_20 
REMARK    7  A    between atoms: C_34  and  C_35 
ROOT
ATOM      1  C   LIG d   1       7.434  -1.070  -6.602  0.00  0.00     0.008 C 
ATOM      2  C   LIG d   1       6.476  -0.072  -5.990  0.00  0.00    -0.044 C 
ATOM      3  C   LIG d   1       5.146  -0.086  -6.738  0.00  0.00    -0.049 C 
ATOM      4  C   LIG d   1       5.390   0.304  -8.203  0.00  0.00    -0.029 C 
ATOM      5  H   LIG d   1       5.836   1.298  -8.248  0.00  0.00     0.031 H 
ATOM      6  C   LIG d   1       6.323  -0.701  -8.854  0.00  0.00    -0.034 C 
ATOM      7  H   LIG d   1       5.840  -1.679  -8.842  0.00  0.00     0.031 H 
ATOM      8  C   LIG d   1       7.623  -0.832  -8.108  0.00  0.00    -0.029 C 
ATOM      9  H   LIG d   1       8.282   0.014  -8.306  0.00  0.00     0.031 H 
ATOM     10  C   LIG d   1       8.236  -2.189  -8.565  0.00  0.00    -0.046 C 
ATOM     11  C   LIG d   1       7.454  -3.241  -7.747  0.00  0.00    -0.015 C 
ATOM     12  C   LIG d   1       6.935  -2.517  -6.488  0.00  0.00     0.109 C 
ATOM     13  H   LIG d   1       7.338  -2.984  -5.590  0.00  0.00     0.074 H 
ATOM     14  C   LIG d   1       6.645  -0.352 -10.304  0.00  0.00    -0.046 C 
ATOM     15  C   LIG d   1       5.512   0.381 -11.005  0.00  0.00    -0.030 C 
ATOM     16  C   LIG d   1       4.200   0.011 -10.357  0.00  0.00    -0.060 C 
ATOM     17  C   LIG d   1       3.239  -0.578 -11.063  0.00  0.00    -0.019 C 
ATOM     18  C   LIG d   1       1.974  -0.959 -10.439  0.00  0.00     0.156 C 
ATOM     19  O   LIG d   1       1.100  -1.474 -11.105  0.00  0.00    -0.293 OA
ATOM     20  C   LIG d   1       1.754  -0.711  -8.968  0.00  0.00     0.011 C 
ATOM     21  C   LIG d   1       3.111  -0.728  -8.254  0.00  0.00    -0.037 C 
ATOM     22  C   LIG d   1       4.021   0.321  -8.896  0.00  0.00    -0.007 C 
ATOM     23  H   LIG d   1       6.304  -0.332  -4.945  0.00  0.00     0.027 H 
ATOM     24  H   LIG d   1       6.911   0.926  -6.044  0.00  0.00     0.027 H 
ATOM     25  H   LIG d   1       4.712  -1.085  -6.694  0.00  0.00     0.027 H 
ATOM     26  H   LIG d   1       4.462   0.628  -6.279  0.00  0.00     0.027 H 
ATOM     27  H   LIG d   1       8.077  -2.340  -9.633  0.00  0.00     0.027 H 
ATOM     28  H   LIG d   1       9.298  -2.231  -8.326  0.00  0.00     0.027 H 
ATOM     29  H   LIG d   1       8.115  -4.059  -7.461  0.00  0.00     0.030 H 
ATOM     30  H   LIG d   1       6.617  -3.623  -8.331  0.00  0.00     0.030 H 
ATOM     31  H   LIG d   1       6.860  -1.270 -10.852  0.00  0.00     0.027 H 
ATOM     32  H   LIG d   1       7.533   0.278 -10.316  0.00  0.00     0.027 H 
ATOM     33  H   LIG d   1       5.490   0.099 -12.058  0.00  0.00     0.031 H 
ATOM     34  H   LIG d   1       5.668   1.457 -10.920  0.00  0.00     0.031 H 
ATOM     35  H   LIG d   1       3.397  -0.778 -12.112  0.00  0.00     0.065 H 
ATOM     36  H   LIG d   1       1.315   0.178  -8.841  0.00  0.00     0.035 H 
ATOM     37  H   LIG d   1       1.117  -1.494  -8.557  0.00  0.00     0.035 H 
ATOM     38  H   LIG d   1       3.564  -1.713  -8.353  0.00  0.00     0.028 H 
ATOM     39  H   LIG d   1       2.971  -0.492  -7.199  0.00  0.00     0.028 H 
ENDROOT
BRANCH  12  40
ATOM     40  O   LIG d   1       5.483  -2.544  -6.458  0.00  0.00    -0.461 OA
BRANCH  40  41
ATOM     41  C   LIG d   1       4.907  -3.231  -5.458  0.00  0.00     0.308 C 
ATOM     42  O   LIG d   1       4.070  -4.067  -5.704  0.00  0.00    -0.251 OA
BRANCH  41  43
ATOM     43  C   LIG d   1       5.306  -2.960  -4.030  0.00  0.00     0.049 C 
ATOM     44  H   LIG d   1       5.975  -2.100  -3.997  0.00  0.00     0.038 H 
ATOM     45  H   LIG d   1       5.815  -3.833  -3.622  0.00  0.00     0.038 H 
BRANCH  43  46
ATOM     46  C   LIG d   1       4.055  -2.664  -3.199  0.00  0.00    -0.018 C 
ATOM     47  H   LIG d   1       3.174  -3.030  -3.726  0.00  0.00     0.032 H 
ATOM     48  H   LIG d   1       4.134  -3.163  -2.234  0.00  0.00     0.032 H 
BRANCH  46  49
ATOM     49  C   LIG d   1       3.933  -1.177  -2.987  0.00  0.00    -0.047 A 
ATOM     50  C   LIG d   1       4.596  -0.572  -1.936  0.00  0.00    -0.059 A 
ATOM     51  C   LIG d   1       4.485   0.792  -1.741  0.00  0.00    -0.061 A 
ATOM     52  H   LIG d   1       5.202  -1.165  -1.266  0.00  0.00     0.062 H 
ATOM     53  C   LIG d   1       3.711   1.551  -2.598  0.00  0.00    -0.062 A 
ATOM     54  H   LIG d   1       5.004   1.264  -0.920  0.00  0.00     0.062 H 
ATOM     55  C   LIG d   1       3.047   0.946  -3.649  0.00  0.00    -0.061 A 
ATOM     56  H   LIG d   1       3.623   2.617  -2.445  0.00  0.00     0.062 H 
ATOM     57  C   LIG d   1       3.162  -0.416  -3.846  0.00  0.00    -0.059 A 
ATOM     58  H   LIG d   1       2.442   1.540  -4.318  0.00  0.00     0.062 H 
ATOM     59  H   LIG d   1       2.648  -0.888  -4.671  0.00  0.00     0.062 H 
ENDBRANCH  46  49
ENDBRANCH  43  46
ENDBRANCH  41  43
ENDBRANCH  40  41
ENDBRANCH  12  40
BRANCH   1  60
ATOM     60  C   LIG d   1       8.790  -0.954  -5.904  0.00  0.00    -0.056 C 
ATOM     61  H   LIG d   1       9.567  -1.365  -6.549  0.00  0.00     0.024 H 
ATOM     62  H   LIG d   1       9.005   0.094  -5.698  0.00  0.00     0.024 H 
ATOM     63  H   LIG d   1       8.765  -1.511  -4.966  0.00  0.00     0.024 H 
ENDBRANCH   1  60
BRANCH  22  64
ATOM     64  C   LIG d   1       3.389   1.707  -8.743  0.00  0.00    -0.056 C 
ATOM     65  H   LIG d   1       3.801   2.199  -7.862  0.00  0.00     0.024 H 
ATOM     66  H   LIG d   1       3.606   2.305  -9.628  0.00  0.00     0.024 H 
ATOM     67  H   LIG d   1       2.310   1.604  -8.630  0.00  0.00     0.024 H 
ENDBRANCH  22  64
TORSDOF 7
ENDMDL
MODEL 4
REMARK VINA RESULT:      -7.0      1.714      4.844
REMARK  7 active torsions:
REMARK  status: ('A' for Active; 'I' for Inactive)
REMARK    1  A    between atoms: C_1  and  C_2 
REMARK    2  A    between atoms: C_13  and  O_15 
REMARK    3  A    between atoms: O_15  and  C_16 
REMARK    4  A    between atoms: C_16  and  C_18 
REMARK    5  A    between atoms: C_18  and  C_19 
REMARK    6  A    between atoms: C_19  and  C_20 
REMARK    7  A    between atoms: C_34  and  C_35 
ROOT
ATOM      1  C   LIG d   1       5.968  -0.742  -8.717  0.00  0.00     0.008 C 
ATOM      2  C   LIG d   1       4.960  -1.788  -8.299  0.00  0.00    -0.044 C 
ATOM      3  C   LIG d   1       4.386  -1.454  -6.925  0.00  0.00    -0.049 C 
ATOM      4  C   LIG d   1       5.526  -1.431  -5.897  0.00  0.00    -0.029 C 
ATOM      5  H   LIG d   1       6.015  -2.405  -5.871  0.00  0.00     0.031 H 
ATOM      6  C   LIG d   1       6.537  -0.364  -6.272  0.00  0.00    -0.034 C 
ATOM      7  H   LIG d   1       6.041   0.607  -6.247  0.00  0.00     0.031 H 
ATOM      8  C   LIG d   1       7.073  -0.558  -7.665  0.00  0.00    -0.029 C 
ATOM      9  H   LIG d   1       7.806  -1.365  -7.700  0.00  0.00     0.031 H 
ATOM     10  C   LIG d   1       7.675   0.817  -8.080  0.00  0.00    -0.046 C 
ATOM     11  C   LIG d   1       6.440   1.655  -8.479  0.00  0.00    -0.015 C 
ATOM     12  C   LIG d   1       5.343   0.650  -8.883  0.00  0.00     0.109 C 
ATOM     13  H   LIG d   1       5.048   0.808  -9.920  0.00  0.00     0.074 H 
ATOM     14  C   LIG d   1       7.724  -0.313  -5.314  0.00  0.00    -0.046 C 
ATOM     15  C   LIG d   1       7.359  -0.722  -3.895  0.00  0.00    -0.030 C 
ATOM     16  C   LIG d   1       5.896  -0.442  -3.654  0.00  0.00    -0.060 C 
ATOM     17  C   LIG d   1       5.516   0.400  -2.699  0.00  0.00    -0.019 C 
ATOM     18  C   LIG d   1       4.102   0.693  -2.472  0.00  0.00     0.156 C 
ATOM     19  O   LIG d   1       3.774   1.446  -1.579  0.00  0.00    -0.293 OA
ATOM     20  C   LIG d   1       3.052   0.057  -3.347  0.00  0.00     0.011 C 
ATOM     21  C   LIG d   1       3.664  -0.242  -4.720  0.00  0.00    -0.037 C 
ATOM     22  C   LIG d   1       4.890  -1.138  -4.531  0.00  0.00    -0.007 C 
ATOM     23  H   LIG d   1       4.152  -1.822  -9.029  0.00  0.00     0.027 H 
ATOM     24  H   LIG d   1       5.447  -2.763  -8.258  0.00  0.00     0.027 H 
ATOM     25  H   LIG d   1       3.905  -0.476  -6.959  0.00  0.00     0.027 H 
ATOM     26  H   LIG d   1       3.653  -2.209  -6.643  0.00  0.00     0.027 H 
ATOM     27  H   LIG d   1       8.194   1.277  -7.238  0.00  0.00     0.027 H 
ATOM     28  H   LIG d   1       8.350   0.701  -8.928  0.00  0.00     0.027 H 
ATOM     29  H   LIG d   1       6.684   2.302  -9.323  0.00  0.00     0.030 H 
ATOM     30  H   LIG d   1       6.106   2.255  -7.633  0.00  0.00     0.030 H 
ATOM     31  H   LIG d   1       8.123   0.701  -5.296  0.00  0.00     0.027 H 
ATOM     32  H   LIG d   1       8.494  -0.986  -5.687  0.00  0.00     0.027 H 
ATOM     33  H   LIG d   1       7.959  -0.152  -3.186  0.00  0.00     0.031 H 
ATOM     34  H   LIG d   1       7.552  -1.786  -3.762  0.00  0.00     0.031 H 
ATOM     35  H   LIG d   1       6.264   0.875  -2.082  0.00  0.00     0.065 H 
ATOM     36  H   LIG d   1       2.734  -0.792  -2.926  0.00  0.00     0.035 H 
ATOM     37  H   LIG d   1       2.212   0.742  -3.464  0.00  0.00     0.035 H 
ATOM     38  H   LIG d   1       3.964   0.690  -5.197  0.00  0.00     0.028 H 
ATOM     39  H   LIG d   1       2.931  -0.754  -5.343  0.00  0.00     0.028 H 
ENDROOT
BRANCH  12  40
ATOM     40  O   LIG d   1       4.191   0.788  -8.009  0.00  0.00    -0.461 OA
BRANCH  40  41
ATOM     41  C   LIG d   1       3.180   1.554  -8.449  0.00  0.00     0.308 C 
ATOM     42  O   LIG d   1       2.778   2.471  -7.772  0.00  0.00    -0.251 OA
BRANCH  41  43
ATOM     43  C   LIG d   1       2.547   1.270  -9.787  0.00  0.00     0.049 C 
ATOM     44  H   LIG d   1       3.304   1.341 -10.569  0.00  0.00     0.038 H 
ATOM     45  H   LIG d   1       1.758   1.997  -9.977  0.00  0.00     0.038 H 
BRANCH  43  46
ATOM     46  C   LIG d   1       1.951  -0.139  -9.780  0.00  0.00    -0.018 C 
ATOM     47  H   LIG d   1       2.450  -0.741  -9.021  0.00  0.00     0.032 H 
ATOM     48  H   LIG d   1       0.887  -0.082  -9.556  0.00  0.00     0.032 H 
BRANCH  46  49
ATOM     49  C   LIG d   1       2.147  -0.773 -11.133  0.00  0.00    -0.047 A 
ATOM     50  C   LIG d   1       1.125  -1.508 -11.706  0.00  0.00    -0.059 A 
ATOM     51  C   LIG d   1       1.304  -2.090 -12.947  0.00  0.00    -0.061 A 
ATOM     52  H   LIG d   1       0.187  -1.628 -11.184  0.00  0.00     0.062 H 
ATOM     53  C   LIG d   1       2.504  -1.936 -13.616  0.00  0.00    -0.062 A 
ATOM     54  H   LIG d   1       0.506  -2.663 -13.395  0.00  0.00     0.062 H 
ATOM     55  C   LIG d   1       3.526  -1.202 -13.042  0.00  0.00    -0.061 A 
ATOM     56  H   LIG d   1       2.644  -2.391 -14.586  0.00  0.00     0.062 H 
ATOM     57  C   LIG d   1       3.345  -0.616 -11.804  0.00  0.00    -0.059 A 
ATOM     58  H   LIG d   1       4.463  -1.082 -13.566  0.00  0.00     0.062 H 
ATOM     59  H   LIG d   1       4.141  -0.038 -11.359  0.00  0.00     0.062 H 
ENDBRANCH  46  49
ENDBRANCH  43  46
ENDBRANCH  41  43
ENDBRANCH  40  41
ENDBRANCH  12  40
BRANCH   1  60
ATOM     60  C   LIG d   1       6.606  -1.162 -10.043  0.00  0.00    -0.056 C 
ATOM     61  H   LIG d   1       5.863  -1.104 -10.838  0.00  0.00     0.024 H 
ATOM     62  H   LIG d   1       7.438  -0.497 -10.273  0.00  0.00     0.024 H 
ATOM     63  H   LIG d   1       6.972  -2.187  -9.961  0.00  0.00     0.024 H 
ENDBRANCH   1  60
BRANCH  22  64
ATOM     64  C   LIG d   1       4.464  -2.453  -3.874  0.00  0.00    -0.056 C 
ATOM     65  H   LIG d   1       5.316  -3.131  -3.831  0.00  0.00     0.024 H 
ATOM     66  H   LIG d   1       4.106  -2.255  -2.863  0.00  0.00     0.024 H 
ATOM     67  H   LIG d   1       3.665  -2.909  -4.458  0.00  0.00     0.024 H 
ENDBRANCH  22  64
TORSDOF 7
ENDMDL
MODEL 5
REMARK VINA RESULT:      -6.9      1.816      2.090
REMARK  7 active torsions:
REMARK  status: ('A' for Active; 'I' for Inactive)
REMARK    1  A    between atoms: C_1  and  C_2 
REMARK    2  A    between atoms: C_13  and  O_15 
REMARK    3  A    between atoms: O_15  and  C_16 
REMARK    4  A    between atoms: C_16  and  C_18 
REMARK    5  A    between atoms: C_18  and  C_19 
REMARK    6  A    between atoms: C_19  and  C_20 
REMARK    7  A    between atoms: C_34  and  C_35 
ROOT
ATOM      1  C   LIG d   1       5.196   0.300  -2.977  0.00  0.00     0.008 C 
ATOM      2  C   LIG d   1       6.226   1.310  -3.433  0.00  0.00    -0.044 C 
ATOM      3  C   LIG d   1       6.996   0.775  -4.636  0.00  0.00    -0.049 C 
ATOM      4  C   LIG d   1       7.722  -0.517  -4.234  0.00  0.00    -0.029 C 
ATOM      5  H   LIG d   1       8.407  -0.312  -3.411  0.00  0.00     0.031 H 
ATOM      6  C   LIG d   1       6.709  -1.563  -3.803  0.00  0.00    -0.034 C 
ATOM      7  H   LIG d   1       6.064  -1.789  -4.652  0.00  0.00     0.031 H 
ATOM      8  C   LIG d   1       5.828  -1.070  -2.687  0.00  0.00    -0.029 C 
ATOM      9  H   LIG d   1       6.352  -1.083  -1.732  0.00  0.00     0.031 H 
ATOM     10  C   LIG d   1       4.577  -2.000  -2.697  0.00  0.00    -0.046 C 
ATOM     11  C   LIG d   1       3.719  -1.450  -3.859  0.00  0.00    -0.015 C 
ATOM     12  C   LIG d   1       4.123   0.027  -4.039  0.00  0.00     0.109 C 
ATOM     13  H   LIG d   1       3.262   0.676  -3.880  0.00  0.00     0.074 H 
ATOM     14  C   LIG d   1       7.363  -2.864  -3.348  0.00  0.00    -0.046 C 
ATOM     15  C   LIG d   1       8.677  -3.149  -4.059  0.00  0.00    -0.030 C 
ATOM     16  C   LIG d   1       8.669  -2.482  -5.413  0.00  0.00    -0.060 C 
ATOM     17  C   LIG d   1       8.786  -3.202  -6.523  0.00  0.00    -0.019 C 
ATOM     18  C   LIG d   1       8.758  -2.566  -7.839  0.00  0.00     0.156 C 
ATOM     19  O   LIG d   1       8.891  -3.238  -8.840  0.00  0.00    -0.293 OA
ATOM     20  C   LIG d   1       8.565  -1.075  -7.951  0.00  0.00     0.011 C 
ATOM     21  C   LIG d   1       7.770  -0.584  -6.735  0.00  0.00    -0.037 C 
ATOM     22  C   LIG d   1       8.516  -0.986  -5.460  0.00  0.00    -0.007 C 
ATOM     23  H   LIG d   1       5.723   2.237  -3.710  0.00  0.00     0.027 H 
ATOM     24  H   LIG d   1       6.922   1.509  -2.618  0.00  0.00     0.027 H 
ATOM     25  H   LIG d   1       6.303   0.566  -5.451  0.00  0.00     0.027 H 
ATOM     26  H   LIG d   1       7.725   1.517  -4.961  0.00  0.00     0.027 H 
ATOM     27  H   LIG d   1       4.870  -3.032  -2.893  0.00  0.00     0.027 H 
ATOM     28  H   LIG d   1       4.037  -1.927  -1.754  0.00  0.00     0.027 H 
ATOM     29  H   LIG d   1       2.660  -1.520  -3.606  0.00  0.00     0.030 H 
ATOM     30  H   LIG d   1       3.923  -2.009  -4.772  0.00  0.00     0.030 H 
ATOM     31  H   LIG d   1       6.677  -3.691  -3.533  0.00  0.00     0.027 H 
ATOM     32  H   LIG d   1       7.550  -2.797  -2.277  0.00  0.00     0.027 H 
ATOM     33  H   LIG d   1       8.797  -4.226  -4.186  0.00  0.00     0.031 H 
ATOM     34  H   LIG d   1       9.504  -2.759  -3.466  0.00  0.00     0.031 H 
ATOM     35  H   LIG d   1       8.903  -4.273  -6.452  0.00  0.00     0.065 H 
ATOM     36  H   LIG d   1       9.457  -0.623  -7.976  0.00  0.00     0.035 H 
ATOM     37  H   LIG d   1       8.015  -0.845  -8.863  0.00  0.00     0.035 H 
ATOM     38  H   LIG d   1       6.781  -1.041  -6.738  0.00  0.00     0.028 H 
ATOM     39  H   LIG d   1       7.674   0.500  -6.775  0.00  0.00     0.028 H 
ENDROOT
BRANCH  12  40
ATOM     40  O   LIG d   1       4.670   0.237  -5.368  0.00  0.00    -0.461 OA
BRANCH  40  41
ATOM     41  C   LIG d   1       4.007  -0.318  -6.395  0.00  0.00     0.308 C 
ATOM     42  O   LIG d   1       4.443  -1.311  -6.929  0.00  0.00    -0.251 OA
BRANCH  41  43
ATOM     43  C   LIG d   1       2.720   0.296  -6.881  0.00  0.00     0.049 C 
ATOM     44  H   LIG d   1       2.198   0.757  -6.042  0.00  0.00     0.038 H 
ATOM     45  H   LIG d   1       2.091  -0.478  -7.319  0.00  0.00     0.038 H 
BRANCH  43  46
ATOM     46  C   LIG d   1       3.029   1.361  -7.936  0.00  0.00    -0.018 C 
ATOM     47  H   LIG d   1       2.272   2.144  -7.895  0.00  0.00     0.032 H 
ATOM     48  H   LIG d   1       4.009   1.793  -7.739  0.00  0.00     0.032 H 
BRANCH  46  49
ATOM     49  C   LIG d   1       3.025   0.728  -9.304  0.00  0.00    -0.047 A 
ATOM     50  C   LIG d   1       2.061  -0.208  -9.629  0.00  0.00    -0.059 A 
ATOM     51  C   LIG d   1       2.056  -0.788 -10.883  0.00  0.00    -0.061 A 
ATOM     52  H   LIG d   1       1.311  -0.486  -8.903  0.00  0.00     0.062 H 
ATOM     53  C   LIG d   1       3.015  -0.431 -11.813  0.00  0.00    -0.062 A 
ATOM     54  H   LIG d   1       1.303  -1.518 -11.138  0.00  0.00     0.062 H 
ATOM     55  C   LIG d   1       3.979   0.504 -11.487  0.00  0.00    -0.061 A 
ATOM     56  H   LIG d   1       3.012  -0.885 -12.794  0.00  0.00     0.062 H 
ATOM     57  C   LIG d   1       3.981   1.088 -10.235  0.00  0.00    -0.059 A 
ATOM     58  H   LIG d   1       4.728   0.783 -12.214  0.00  0.00     0.062 H 
ATOM     59  H   LIG d   1       4.731   1.823  -9.982  0.00  0.00     0.062 H 
ENDBRANCH  46  49
ENDBRANCH  43  46
ENDBRANCH  41  43
ENDBRANCH  40  41
ENDBRANCH  12  40
BRANCH   1  60
ATOM     60  C   LIG d   1       4.519   0.816  -1.705  0.00  0.00    -0.056 C 
ATOM     61  H   LIG d   1       3.542   1.229  -1.956  0.00  0.00     0.024 H 
ATOM     62  H   LIG d   1       4.395  -0.006  -1.000  0.00  0.00     0.024 H 
ATOM     63  H   LIG d   1       5.137   1.593  -1.254  0.00  0.00     0.024 H 
ENDBRANCH   1  60
BRANCH  22  64
ATOM     64  C   LIG d   1       9.900  -0.331  -5.452  0.00  0.00    -0.056 C 
ATOM     65  H   LIG d   1       9.870   0.589  -6.035  0.00  0.00     0.024 H 
ATOM     66  H   LIG d   1      10.188  -0.104  -4.426  0.00  0.00     0.024 H 
ATOM     67  H   LIG d   1      10.627  -1.015  -5.890  0.00  0.00     0.024 H 
ENDBRANCH  22  64
TORSDOF 7
ENDMDL
MODEL 6
REMARK VINA RESULT:      -6.8      1.715      5.228
REMARK  7 active torsions:
REMARK  status: ('A' for Active; 'I' for Inactive)
REMARK    1  A    between atoms: C_1  and  C_2 
REMARK    2  A    between atoms: C_13  and  O_15 
REMARK    3  A    between atoms: O_15  and  C_16 
REMARK    4  A    between atoms: C_16  and  C_18 
REMARK    5  A    between atoms: C_18  and  C_19 
REMARK    6  A    between atoms: C_19  and  C_20 
REMARK    7  A    between atoms: C_34  and  C_35 
ROOT
ATOM      1  C   LIG d   1       6.144  -4.758  -6.400  0.00  0.00     0.008 C 
ATOM      2  C   LIG d   1       4.963  -5.136  -5.534  0.00  0.00    -0.044 C 
ATOM      3  C   LIG d   1       4.299  -3.885  -4.967  0.00  0.00    -0.049 C 
ATOM      4  C   LIG d   1       5.317  -3.124  -4.104  0.00  0.00    -0.029 C 
ATOM      5  H   LIG d   1       5.662  -3.765  -3.293  0.00  0.00     0.031 H 
ATOM      6  C   LIG d   1       6.499  -2.701  -4.957  0.00  0.00    -0.034 C 
ATOM      7  H   LIG d   1       6.142  -2.023  -5.732  0.00  0.00     0.031 H 
ATOM      8  C   LIG d   1       7.146  -3.872  -5.646  0.00  0.00    -0.029 C 
ATOM      9  H   LIG d   1       7.761  -4.449  -4.955  0.00  0.00     0.031 H 
ATOM     10  C   LIG d   1       7.973  -3.265  -6.819  0.00  0.00    -0.046 C 
ATOM     11  C   LIG d   1       6.913  -2.980  -7.908  0.00  0.00    -0.015 C 
ATOM     12  C   LIG d   1       5.736  -3.938  -7.632  0.00  0.00     0.109 C 
ATOM     13  H   LIG d   1       5.577  -4.596  -8.486  0.00  0.00     0.074 H 
ATOM     14  C   LIG d   1       7.574  -1.973  -4.154  0.00  0.00    -0.046 C 
ATOM     15  C   LIG d   1       7.010  -1.191  -2.978  0.00  0.00    -0.030 C 
ATOM     16  C   LIG d   1       5.581  -0.803  -3.274  0.00  0.00    -0.060 C 
ATOM     17  C   LIG d   1       5.223   0.476  -3.320  0.00  0.00    -0.019 C 
ATOM     18  C   LIG d   1       3.847   0.861  -3.627  0.00  0.00     0.156 C 
ATOM     19  O   LIG d   1       3.534   2.033  -3.640  0.00  0.00    -0.293 OA
ATOM     20  C   LIG d   1       2.817  -0.199  -3.925  0.00  0.00     0.011 C 
ATOM     21  C   LIG d   1       3.524  -1.427  -4.512  0.00  0.00    -0.037 C 
ATOM     22  C   LIG d   1       4.588  -1.905  -3.522  0.00  0.00    -0.007 C 
ATOM     23  H   LIG d   1       4.239  -5.688  -6.133  0.00  0.00     0.027 H 
ATOM     24  H   LIG d   1       5.305  -5.767  -4.713  0.00  0.00     0.027 H 
ATOM     25  H   LIG d   1       3.964  -3.246  -5.784  0.00  0.00     0.027 H 
ATOM     26  H   LIG d   1       3.444  -4.171  -4.355  0.00  0.00     0.027 H 
ATOM     27  H   LIG d   1       8.458  -2.340  -6.507  0.00  0.00     0.027 H 
ATOM     28  H   LIG d   1       8.710  -3.981  -7.181  0.00  0.00     0.027 H 
ATOM     29  H   LIG d   1       7.331  -3.175  -8.896  0.00  0.00     0.030 H 
ATOM     30  H   LIG d   1       6.577  -1.946  -7.841  0.00  0.00     0.030 H 
ATOM     31  H   LIG d   1       8.105  -1.285  -4.812  0.00  0.00     0.027 H 
ATOM     32  H   LIG d   1       8.280  -2.713  -3.778  0.00  0.00     0.027 H 
ATOM     33  H   LIG d   1       7.605  -0.291  -2.820  0.00  0.00     0.031 H 
ATOM     34  H   LIG d   1       7.040  -1.809  -2.082  0.00  0.00     0.031 H 
ATOM     35  H   LIG d   1       5.960   1.241  -3.129  0.00  0.00     0.065 H 
ATOM     36  H   LIG d   1       2.343  -0.452  -3.082  0.00  0.00     0.035 H 
ATOM     37  H   LIG d   1       2.096   0.186  -4.646  0.00  0.00     0.035 H 
ATOM     38  H   LIG d   1       3.997  -1.159  -5.455  0.00  0.00     0.028 H 
ATOM     39  H   LIG d   1       2.796  -2.221  -4.678  0.00  0.00     0.028 H 
ENDROOT
BRANCH  12  40
ATOM     40  O   LIG d   1       4.530  -3.181  -7.351  0.00  0.00    -0.461 OA
BRANCH  40  41
ATOM     41  C   LIG d   1       3.718  -2.921  -8.389  0.00  0.00     0.308 C 
ATOM     42  O   LIG d   1       3.116  -3.822  -8.925  0.00  0.00    -0.251 OA
BRANCH  41  43
ATOM     43  C   LIG d   1       3.558  -1.507  -8.885  0.00  0.00     0.049 C 
ATOM     44  H   LIG d   1       2.578  -1.395  -9.349  0.00  0.00     0.038 H 
ATOM     45  H   LIG d   1       4.335  -1.288  -9.617  0.00  0.00     0.038 H 
BRANCH  43  46
ATOM     46  C   LIG d   1       3.677  -0.538  -7.707  0.00  0.00    -0.018 C 
ATOM     47  H   LIG d   1       2.836   0.155  -7.720  0.00  0.00     0.032 H 
ATOM     48  H   LIG d   1       3.672  -1.098  -6.773  0.00  0.00     0.032 H 
BRANCH  46  49
ATOM     49  C   LIG d   1       4.966   0.235  -7.822  0.00  0.00    -0.047 A 
ATOM     50  C   LIG d   1       5.134   1.150  -8.845  0.00  0.00    -0.059 A 
ATOM     51  C   LIG d   1       6.316   1.859  -8.951  0.00  0.00    -0.061 A 
ATOM     52  H   LIG d   1       4.343   1.311  -9.562  0.00  0.00     0.062 H 
ATOM     53  C   LIG d   1       7.330   1.654  -8.033  0.00  0.00    -0.062 A 
ATOM     54  H   LIG d   1       6.447   2.574  -9.749  0.00  0.00     0.062 H 
ATOM     55  C   LIG d   1       7.161   0.738  -7.011  0.00  0.00    -0.061 A 
ATOM     56  H   LIG d   1       8.254   2.207  -8.116  0.00  0.00     0.062 H 
ATOM     57  C   LIG d   1       5.978   0.033  -6.903  0.00  0.00    -0.059 A 
ATOM     58  H   LIG d   1       7.953   0.578  -6.295  0.00  0.00     0.062 H 
ATOM     59  H   LIG d   1       5.845  -0.678  -6.101  0.00  0.00     0.062 H 
ENDBRANCH  46  49
ENDBRANCH  43  46
ENDBRANCH  41  43
ENDBRANCH  40  41
ENDBRANCH  12  40
BRANCH   1  60
ATOM     60  C   LIG d   1       6.854  -6.032  -6.862  0.00  0.00    -0.056 C 
ATOM     61  H   LIG d   1       7.286  -6.540  -6.000  0.00  0.00     0.024 H 
ATOM     62  H   LIG d   1       6.136  -6.691  -7.351  0.00  0.00     0.024 H 
ATOM     63  H   LIG d   1       7.646  -5.772  -7.566  0.00  0.00     0.024 H 
ENDBRANCH   1  60
BRANCH  22  64
ATOM     64  C   LIG d   1       3.918  -2.294  -2.202  0.00  0.00    -0.056 C 
ATOM     65  H   LIG d   1       3.028  -1.684  -2.052  0.00  0.00     0.024 H 
ATOM     66  H   LIG d   1       3.637  -3.347  -2.234  0.00  0.00     0.024 H 
ATOM     67  H   LIG d   1       4.614  -2.129  -1.379  0.00  0.00     0.024 H 
ENDBRANCH  22  64
TORSDOF 7
ENDMDL
MODEL 7
REMARK VINA RESULT:      -6.7      4.068      6.699
REMARK  7 active torsions:
REMARK  status: ('A' for Active; 'I' for Inactive)
REMARK    1  A    between atoms: C_1  and  C_2 
REMARK    2  A    between atoms: C_13  and  O_15 
REMARK    3  A    between atoms: O_15  and  C_16 
REMARK    4  A    between atoms: C_16  and  C_18 
REMARK    5  A    between atoms: C_18  and  C_19 
REMARK    6  A    between atoms: C_19  and  C_20 
REMARK    7  A    between atoms: C_34  and  C_35 
ROOT
ATOM      1  C   LIG d   1       9.846  -3.960  -4.557  0.00  0.00     0.008 C 
ATOM      2  C   LIG d   1       9.466  -4.135  -6.011  0.00  0.00    -0.044 C 
ATOM      3  C   LIG d   1       8.278  -5.083  -6.139  0.00  0.00    -0.049 C 
ATOM      4  C   LIG d   1       8.666  -6.454  -5.565  0.00  0.00    -0.029 C 
ATOM      5  H   LIG d   1       9.522  -6.850  -6.111  0.00  0.00     0.031 H 
ATOM      6  C   LIG d   1       9.019  -6.315  -4.096  0.00  0.00    -0.034 C 
ATOM      7  H   LIG d   1       8.137  -5.963  -3.560  0.00  0.00     0.031 H 
ATOM      8  C   LIG d   1      10.114  -5.308  -3.870  0.00  0.00    -0.029 C 
ATOM      9  H   LIG d   1      11.089  -5.715  -4.139  0.00  0.00     0.031 H 
ATOM     10  C   LIG d   1      10.022  -4.916  -2.365  0.00  0.00    -0.046 C 
ATOM     11  C   LIG d   1       8.846  -3.915  -2.316  0.00  0.00    -0.015 C 
ATOM     12  C   LIG d   1       8.732  -3.307  -3.729  0.00  0.00     0.109 C 
ATOM     13  H   LIG d   1       8.878  -2.227  -3.688  0.00  0.00     0.074 H 
ATOM     14  C   LIG d   1       9.456  -7.636  -3.468  0.00  0.00    -0.046 C 
ATOM     15  C   LIG d   1       8.790  -8.846  -4.104  0.00  0.00    -0.030 C 
ATOM     16  C   LIG d   1       7.461  -8.435  -4.689  0.00  0.00    -0.060 C 
ATOM     17  C   LIG d   1       6.332  -8.990  -4.259  0.00  0.00    -0.019 C 
ATOM     18  C   LIG d   1       5.038  -8.583  -4.805  0.00  0.00     0.156 C 
ATOM     19  O   LIG d   1       4.021  -9.118  -4.417  0.00  0.00    -0.293 OA
ATOM     20  C   LIG d   1       4.970  -7.500  -5.852  0.00  0.00     0.011 C 
ATOM     21  C   LIG d   1       6.168  -6.560  -5.673  0.00  0.00    -0.037 C 
ATOM     22  C   LIG d   1       7.457  -7.379  -5.761  0.00  0.00    -0.007 C 
ATOM     23  H   LIG d   1       9.201  -3.165  -6.433  0.00  0.00     0.027 H 
ATOM     24  H   LIG d   1      10.315  -4.544  -6.559  0.00  0.00     0.027 H 
ATOM     25  H   LIG d   1       7.429  -4.682  -5.584  0.00  0.00     0.027 H 
ATOM     26  H   LIG d   1       8.008  -5.190  -7.189  0.00  0.00     0.027 H 
ATOM     27  H   LIG d   1       9.804  -5.793  -1.754  0.00  0.00     0.027 H 
ATOM     28  H   LIG d   1      10.945  -4.440  -2.035  0.00  0.00     0.027 H 
ATOM     29  H   LIG d   1       9.053  -3.132  -1.587  0.00  0.00     0.030 H 
ATOM     30  H   LIG d   1       7.924  -4.434  -2.056  0.00  0.00     0.030 H 
ATOM     31  H   LIG d   1       9.216  -7.621  -2.404  0.00  0.00     0.027 H 
ATOM     32  H   LIG d   1      10.536  -7.728  -3.581  0.00  0.00     0.027 H 
ATOM     33  H   LIG d   1       8.632  -9.615  -3.347  0.00  0.00     0.031 H 
ATOM     34  H   LIG d   1       9.429  -9.239  -4.895  0.00  0.00     0.031 H 
ATOM     35  H   LIG d   1       6.371  -9.751  -3.495  0.00  0.00     0.065 H 
ATOM     36  H   LIG d   1       4.996  -7.912  -6.762  0.00  0.00     0.035 H 
ATOM     37  H   LIG d   1       4.044  -6.937  -5.733  0.00  0.00     0.035 H 
ATOM     38  H   LIG d   1       6.110  -6.075  -4.699  0.00  0.00     0.028 H 
ATOM     39  H   LIG d   1       6.160  -5.806  -6.459  0.00  0.00     0.028 H 
ENDROOT
BRANCH  12  40
ATOM     40  O   LIG d   1       7.435  -3.615  -4.303  0.00  0.00    -0.461 OA
BRANCH  40  41
ATOM     41  C   LIG d   1       6.552  -2.607  -4.391  0.00  0.00     0.308 C 
ATOM     42  O   LIG d   1       6.941  -1.463  -4.414  0.00  0.00    -0.251 OA
BRANCH  41  43
ATOM     43  C   LIG d   1       5.076  -2.903  -4.461  0.00  0.00     0.049 C 
ATOM     44  H   LIG d   1       4.927  -3.944  -4.748  0.00  0.00     0.038 H 
ATOM     45  H   LIG d   1       4.609  -2.251  -5.199  0.00  0.00     0.038 H 
BRANCH  43  46
ATOM     46  C   LIG d   1       4.441  -2.657  -3.090  0.00  0.00    -0.018 C 
ATOM     47  H   LIG d   1       3.514  -3.224  -3.012  0.00  0.00     0.032 H 
ATOM     48  H   LIG d   1       5.130  -2.977  -2.309  0.00  0.00     0.032 H 
BRANCH  46  49
ATOM     49  C   LIG d   1       4.147  -1.187  -2.929  0.00  0.00    -0.047 A 
ATOM     50  C   LIG d   1       3.376  -0.530  -3.870  0.00  0.00    -0.059 A 
ATOM     51  C   LIG d   1       3.106   0.817  -3.723  0.00  0.00    -0.061 A 
ATOM     52  H   LIG d   1       2.985  -1.069  -4.720  0.00  0.00     0.062 H 
ATOM     53  C   LIG d   1       3.606   1.508  -2.634  0.00  0.00    -0.062 A 
ATOM     54  H   LIG d   1       2.504   1.331  -4.458  0.00  0.00     0.062 H 
ATOM     55  C   LIG d   1       4.378   0.850  -1.694  0.00  0.00    -0.061 A 
ATOM     56  H   LIG d   1       3.395   2.561  -2.520  0.00  0.00     0.062 H 
ATOM     57  C   LIG d   1       4.643  -0.498  -1.839  0.00  0.00    -0.059 A 
ATOM     58  H   LIG d   1       4.767   1.390  -0.844  0.00  0.00     0.062 H 
ATOM     59  H   LIG d   1       5.241  -1.013  -1.101  0.00  0.00     0.062 H 
ENDBRANCH  46  49
ENDBRANCH  43  46
ENDBRANCH  41  43
ENDBRANCH  40  41
ENDBRANCH  12  40
BRANCH   1  60
ATOM     60  C   LIG d   1      11.106  -3.096  -4.469  0.00  0.00    -0.056 C 
ATOM     61  H   LIG d   1      11.068  -2.492  -3.563  0.00  0.00     0.024 H 
ATOM     62  H   LIG d   1      11.986  -3.738  -4.442  0.00  0.00     0.024 H 
ATOM     63  H   LIG d   1      11.159  -2.442  -5.340  0.00  0.00     0.024 H 
ENDBRANCH   1  60
BRANCH  22  64
ATOM     64  C   LIG d   1       7.544  -8.048  -7.135  0.00  0.00    -0.056 C 
ATOM     65  H   LIG d   1       7.200  -9.079  -7.060  0.00  0.00     0.024 H 
ATOM     66  H   LIG d   1       6.916  -7.506  -7.843  0.00  0.00     0.024 H 
ATOM     67  H   LIG d   1       8.577  -8.033  -7.482  0.00  0.00     0.024 H 
ENDBRANCH  22  64
TORSDOF 7
ENDMDL
MODEL 8
REMARK VINA RESULT:      -6.6      3.342      5.560
REMARK  7 active torsions:
REMARK  status: ('A' for Active; 'I' for Inactive)
REMARK    1  A    between atoms: C_1  and  C_2 
REMARK    2  A    between atoms: C_13  and  O_15 
REMARK    3  A    between atoms: O_15  and  C_16 
REMARK    4  A    between atoms: C_16  and  C_18 
REMARK    5  A    between atoms: C_18  and  C_19 
REMARK    6  A    between atoms: C_19  and  C_20 
REMARK    7  A    between atoms: C_34  and  C_35 
ROOT
ATOM      1  C   LIG d   1       4.943  -0.994  -2.956  0.00  0.00     0.008 C 
ATOM      2  C   LIG d   1       5.460  -2.138  -3.799  0.00  0.00    -0.044 C 
ATOM      3  C   LIG d   1       5.637  -1.692  -5.248  0.00  0.00    -0.049 C 
ATOM      4  C   LIG d   1       4.278  -1.246  -5.806  0.00  0.00    -0.029 C 
ATOM      5  H   LIG d   1       3.571  -2.074  -5.752  0.00  0.00     0.031 H 
ATOM      6  C   LIG d   1       3.750  -0.074  -4.999  0.00  0.00    -0.034 C 
ATOM      7  H   LIG d   1       4.445   0.759  -5.102  0.00  0.00     0.031 H 
ATOM      8  C   LIG d   1       3.650  -0.397  -3.532  0.00  0.00    -0.029 C 
ATOM      9  H   LIG d   1       2.784  -1.023  -3.321  0.00  0.00     0.031 H 
ATOM     10  C   LIG d   1       3.587   0.978  -2.802  0.00  0.00    -0.046 C 
ATOM     11  C   LIG d   1       5.058   1.452  -2.781  0.00  0.00    -0.015 C 
ATOM     12  C   LIG d   1       5.927   0.182  -2.886  0.00  0.00     0.109 C 
ATOM     13  H   LIG d   1       6.564   0.087  -2.007  0.00  0.00     0.074 H 
ATOM     14  C   LIG d   1       2.377   0.396  -5.472  0.00  0.00    -0.046 C 
ATOM     15  C   LIG d   1       2.156   0.180  -6.961  0.00  0.00    -0.030 C 
ATOM     16  C   LIG d   1       3.488   0.183  -7.671  0.00  0.00    -0.060 C 
ATOM     17  C   LIG d   1       3.751   1.084  -8.612  0.00  0.00    -0.019 C 
ATOM     18  C   LIG d   1       5.046   1.107  -9.290  0.00  0.00     0.156 C 
ATOM     19  O   LIG d   1       5.258   1.921 -10.164  0.00  0.00    -0.293 OA
ATOM     20  C   LIG d   1       6.117   0.118  -8.903  0.00  0.00     0.011 C 
ATOM     21  C   LIG d   1       5.913  -0.285  -7.438  0.00  0.00    -0.037 C 
ATOM     22  C   LIG d   1       4.502  -0.854  -7.272  0.00  0.00    -0.007 C 
ATOM     23  H   LIG d   1       6.420  -2.471  -3.405  0.00  0.00     0.027 H 
ATOM     24  H   LIG d   1       4.750  -2.964  -3.761  0.00  0.00     0.027 H 
ATOM     25  H   LIG d   1       6.340  -0.859  -5.290  0.00  0.00     0.027 H 
ATOM     26  H   LIG d   1       6.022  -2.522  -5.840  0.00  0.00     0.027 H 
ATOM     27  H   LIG d   1       2.967   1.680  -3.361  0.00  0.00     0.027 H 
ATOM     28  H   LIG d   1       3.210   0.858  -1.787  0.00  0.00     0.027 H 
ATOM     29  H   LIG d   1       5.269   1.974  -1.848  0.00  0.00     0.030 H 
ATOM     30  H   LIG d   1       5.252   2.109  -3.629  0.00  0.00     0.030 H 
ATOM     31  H   LIG d   1       2.270   1.458  -5.251  0.00  0.00     0.027 H 
ATOM     32  H   LIG d   1       1.617  -0.155  -4.919  0.00  0.00     0.027 H 
ATOM     33  H   LIG d   1       1.532   0.981  -7.357  0.00  0.00     0.031 H 
ATOM     34  H   LIG d   1       1.662  -0.778  -7.120  0.00  0.00     0.031 H 
ATOM     35  H   LIG d   1       2.997   1.808  -8.880  0.00  0.00     0.065 H 
ATOM     36  H   LIG d   1       6.053  -0.689  -9.489  0.00  0.00     0.035 H 
ATOM     37  H   LIG d   1       7.097   0.578  -9.022  0.00  0.00     0.035 H 
ATOM     38  H   LIG d   1       6.032   0.588  -6.799  0.00  0.00     0.028 H 
ATOM     39  H   LIG d   1       6.647  -1.043  -7.163  0.00  0.00     0.028 H 
ENDROOT
BRANCH  12  40
ATOM     40  O   LIG d   1       6.738   0.228  -4.090  0.00  0.00    -0.461 OA
BRANCH  40  41
ATOM     41  C   LIG d   1       7.683   1.179  -4.152  0.00  0.00     0.308 C 
ATOM     42  O   LIG d   1       8.202   1.582  -3.137  0.00  0.00    -0.251 OA
BRANCH  41  43
ATOM     43  C   LIG d   1       8.099   1.743  -5.486  0.00  0.00     0.049 C 
ATOM     44  H   LIG d   1       7.449   2.579  -5.744  0.00  0.00     0.038 H 
ATOM     45  H   LIG d   1       8.018   0.969  -6.249  0.00  0.00     0.038 H 
BRANCH  43  46
ATOM     46  C   LIG d   1       9.547   2.230  -5.405  0.00  0.00    -0.018 C 
ATOM     47  H   LIG d   1       9.948   2.015  -4.414  0.00  0.00     0.032 H 
ATOM     48  H   LIG d   1      10.145   1.717  -6.157  0.00  0.00     0.032 H 
BRANCH  46  49
ATOM     49  C   LIG d   1       9.593   3.715  -5.654  0.00  0.00    -0.047 A 
ATOM     50  C   LIG d   1       9.936   4.196  -6.904  0.00  0.00    -0.059 A 
ATOM     51  C   LIG d   1       9.978   5.558  -7.133  0.00  0.00    -0.061 A 
ATOM     52  H   LIG d   1      10.172   3.507  -7.701  0.00  0.00     0.062 H 
ATOM     53  C   LIG d   1       9.675   6.440  -6.112  0.00  0.00    -0.062 A 
ATOM     54  H   LIG d   1      10.245   5.934  -8.109  0.00  0.00     0.062 H 
ATOM     55  C   LIG d   1       9.332   5.959  -4.862  0.00  0.00    -0.061 A 
ATOM     56  H   LIG d   1       9.708   7.505  -6.291  0.00  0.00     0.062 H 
ATOM     57  C   LIG d   1       9.286   4.597  -4.635  0.00  0.00    -0.059 A 
ATOM     58  H   LIG d   1       9.095   6.648  -4.066  0.00  0.00     0.062 H 
ATOM     59  H   LIG d   1       9.013   4.221  -3.660  0.00  0.00     0.062 H 
ENDBRANCH  46  49
ENDBRANCH  43  46
ENDBRANCH  41  43
ENDBRANCH  40  41
ENDBRANCH  12  40
BRANCH   1  60
ATOM     60  C   LIG d   1       4.670  -1.500  -1.538  0.00  0.00    -0.056 C 
ATOM     61  H   LIG d   1       5.206  -2.436  -1.378  0.00  0.00     0.024 H 
ATOM     62  H   LIG d   1       5.010  -0.759  -0.816  0.00  0.00     0.024 H 
ATOM     63  H   LIG d   1       3.600  -1.668  -1.412  0.00  0.00     0.024 H 
ENDBRANCH   1  60
BRANCH  22  64
ATOM     64  C   LIG d   1       4.343  -2.090  -8.161  0.00  0.00    -0.056 C 
ATOM     65  H   LIG d   1       5.274  -2.274  -8.698  0.00  0.00     0.024 H 
ATOM     66  H   LIG d   1       4.104  -2.955  -7.541  0.00  0.00     0.024 H 
ATOM     67  H   LIG d   1       3.538  -1.922  -8.876  0.00  0.00     0.024 H 
ENDBRANCH  22  64
TORSDOF 7
ENDMDL
MODEL 9
REMARK VINA RESULT:      -6.5      2.106      5.688
REMARK  7 active torsions:
REMARK  status: ('A' for Active; 'I' for Inactive)
REMARK    1  A    between atoms: C_1  and  C_2 
REMARK    2  A    between atoms: C_13  and  O_15 
REMARK    3  A    between atoms: O_15  and  C_16 
REMARK    4  A    between atoms: C_16  and  C_18 
REMARK    5  A    between atoms: C_18  and  C_19 
REMARK    6  A    between atoms: C_19  and  C_20 
REMARK    7  A    between atoms: C_34  and  C_35 
ROOT
ATOM      1  C   LIG d   1       4.527   0.064  -8.021  0.00  0.00     0.008 C 
ATOM      2  C   LIG d   1       3.875  -0.472  -6.766  0.00  0.00    -0.044 C 
ATOM      3  C   LIG d   1       4.655  -1.669  -6.232  0.00  0.00    -0.049 C 
ATOM      4  C   LIG d   1       4.662  -2.779  -7.293  0.00  0.00    -0.029 C 
ATOM      5  H   LIG d   1       3.637  -3.072  -7.523  0.00  0.00     0.031 H 
ATOM      6  C   LIG d   1       5.343  -2.280  -8.554  0.00  0.00    -0.034 C 
ATOM      7  H   LIG d   1       6.378  -2.037  -8.315  0.00  0.00     0.031 H 
ATOM      8  C   LIG d   1       4.699  -1.029  -9.087  0.00  0.00    -0.029 C 
ATOM      9  H   LIG d   1       3.761  -1.250  -9.597  0.00  0.00     0.031 H 
ATOM     10  C   LIG d   1       5.756  -0.381 -10.032  0.00  0.00    -0.046 C 
ATOM     11  C   LIG d   1       6.735   0.320  -9.063  0.00  0.00    -0.015 C 
ATOM     12  C   LIG d   1       5.943   0.599  -7.769  0.00  0.00     0.109 C 
ATOM     13  H   LIG d   1       5.910   1.671  -7.571  0.00  0.00     0.074 H 
ATOM     14  C   LIG d   1       5.348  -3.320  -9.672  0.00  0.00    -0.046 C 
ATOM     15  C   LIG d   1       5.390  -4.749  -9.153  0.00  0.00    -0.030 C 
ATOM     16  C   LIG d   1       6.050  -4.770  -7.796  0.00  0.00    -0.060 C 
ATOM     17  C   LIG d   1       7.163  -5.469  -7.595  0.00  0.00    -0.019 C 
ATOM     18  C   LIG d   1       7.820  -5.478  -6.290  0.00  0.00     0.156 C 
ATOM     19  O   LIG d   1       8.822  -6.141  -6.120  0.00  0.00    -0.293 OA
ATOM     20  C   LIG d   1       7.253  -4.663  -5.155  0.00  0.00     0.011 C 
ATOM     21  C   LIG d   1       6.497  -3.462  -5.735  0.00  0.00    -0.037 C 
ATOM     22  C   LIG d   1       5.415  -3.972  -6.690  0.00  0.00    -0.007 C 
ATOM     23  H   LIG d   1       3.854   0.312  -6.008  0.00  0.00     0.027 H 
ATOM     24  H   LIG d   1       2.854  -0.779  -6.993  0.00  0.00     0.027 H 
ATOM     25  H   LIG d   1       5.680  -1.369  -6.012  0.00  0.00     0.027 H 
ATOM     26  H   LIG d   1       4.181  -2.037  -5.322  0.00  0.00     0.027 H 
ATOM     27  H   LIG d   1       6.273  -1.148 -10.610  0.00  0.00     0.027 H 
ATOM     28  H   LIG d   1       5.286   0.345 -10.694  0.00  0.00     0.027 H 
ATOM     29  H   LIG d   1       7.083   1.257  -9.498  0.00  0.00     0.030 H 
ATOM     30  H   LIG d   1       7.582  -0.332  -8.851  0.00  0.00     0.030 H 
ATOM     31  H   LIG d   1       6.216  -3.152 -10.310  0.00  0.00     0.027 H 
ATOM     32  H   LIG d   1       4.445  -3.188 -10.267  0.00  0.00     0.027 H 
ATOM     33  H   LIG d   1       5.960  -5.371  -9.844  0.00  0.00     0.031 H 
ATOM     34  H   LIG d   1       4.375  -5.135  -9.069  0.00  0.00     0.031 H 
ATOM     35  H   LIG d   1       7.587  -6.037  -8.408  0.00  0.00     0.065 H 
ATOM     36  H   LIG d   1       6.628  -5.229  -4.617  0.00  0.00     0.035 H 
ATOM     37  H   LIG d   1       8.064  -4.310  -4.518  0.00  0.00     0.035 H 
ATOM     38  H   LIG d   1       7.191  -2.822  -6.279  0.00  0.00     0.028 H 
ATOM     39  H   LIG d   1       6.034  -2.897  -4.927  0.00  0.00     0.028 H 
ENDROOT
BRANCH  12  40
ATOM     40  O   LIG d   1       6.551  -0.099  -6.650  0.00  0.00    -0.461 OA
BRANCH  40  41
ATOM     41  C   LIG d   1       7.268   0.640  -5.789  0.00  0.00     0.308 C 
ATOM     42  O   LIG d   1       7.672   1.731  -6.118  0.00  0.00    -0.251 OA
BRANCH  41  43
ATOM     43  C   LIG d   1       7.570   0.109  -4.411  0.00  0.00     0.049 C 
ATOM     44  H   LIG d   1       8.627   0.257  -4.189  0.00  0.00     0.038 H 
ATOM     45  H   LIG d   1       7.334  -0.954  -4.371  0.00  0.00     0.038 H 
BRANCH  43  46
ATOM     46  C   LIG d   1       6.724   0.859  -3.380  0.00  0.00    -0.018 C 
ATOM     47  H   LIG d   1       7.289   0.965  -2.454  0.00  0.00     0.032 H 
ATOM     48  H   LIG d   1       6.471   1.845  -3.766  0.00  0.00     0.032 H 
BRANCH  46  49
ATOM     49  C   LIG d   1       5.459   0.085  -3.110  0.00  0.00    -0.047 A 
ATOM     50  C   LIG d   1       5.520  -1.272  -2.856  0.00  0.00    -0.059 A 
ATOM     51  C   LIG d   1       4.360  -1.982  -2.609  0.00  0.00    -0.061 A 
ATOM     52  H   LIG d   1       6.474  -1.779  -2.851  0.00  0.00     0.062 H 
ATOM     53  C   LIG d   1       3.139  -1.334  -2.615  0.00  0.00    -0.062 A 
ATOM     54  H   LIG d   1       4.408  -3.043  -2.410  0.00  0.00     0.062 H 
ATOM     55  C   LIG d   1       3.078   0.023  -2.870  0.00  0.00    -0.061 A 
ATOM     56  H   LIG d   1       2.232  -1.890  -2.423  0.00  0.00     0.062 H 
ATOM     57  C   LIG d   1       4.238   0.733  -3.112  0.00  0.00    -0.059 A 
ATOM     58  H   LIG d   1       2.124   0.528  -2.875  0.00  0.00     0.062 H 
ATOM     59  H   LIG d   1       4.191   1.795  -3.306  0.00  0.00     0.062 H 
ENDBRANCH  46  49
ENDBRANCH  43  46
ENDBRANCH  41  43
ENDBRANCH  40  41
ENDBRANCH  12  40
BRANCH   1  60
ATOM     60  C   LIG d   1       3.663   1.189  -8.593  0.00  0.00    -0.056 C 
ATOM     61  H   LIG d   1       4.306   1.972  -8.994  0.00  0.00     0.024 H 
ATOM     62  H   LIG d   1       3.032   0.793  -9.389  0.00  0.00     0.024 H 
ATOM     63  H   LIG d   1       3.035   1.602  -7.803  0.00  0.00     0.024 H 
ENDBRANCH   1  60
BRANCH  22  64
ATOM     64  C   LIG d   1       4.433  -4.859  -5.920  0.00  0.00    -0.056 C 
ATOM     65  H   LIG d   1       4.903  -5.819  -5.705  0.00  0.00     0.024 H 
ATOM     66  H   LIG d   1       4.159  -4.370  -4.985  0.00  0.00     0.024 H 
ATOM     67  H   LIG d   1       3.539  -5.018  -6.523  0.00  0.00     0.024 H 
ENDBRANCH  22  64
TORSDOF 7
ENDMDL
