MODEL 1
REMARK VINA RESULT:      -6.7      0.000      0.000
REMARK  8 active torsions:
REMARK  status: ('A' for Active; 'I' for Inactive)
REMARK    1  A    between atoms: C_1  and  C_2 
REMARK    2  A    between atoms: C_3  and  C_31 
REMARK    3  A    between atoms: C_9  and  C_30 
REMARK    4  A    between atoms: C_10  and  C_17 
REMARK    5  A    between atoms: C_15  and  C_16 
REMARK    6  A    between atoms: C_17  and  C_18 
REMARK    7  A    between atoms: C_18  and  C_19 
REMARK       I    between atoms: C_19  and  N_21 
REMARK    8  A    between atoms: C_25  and  C_27 
REMARK       I    between atoms: C_27  and  N_29 
ROOT
ATOM      1  C   LIG d   1       9.213 -10.194  -4.189  0.00  0.00    -0.002 A 
ATOM      2  C   LIG d   1       8.600 -11.382  -4.108  0.00  0.00     0.106 A 
ATOM      3  O   LIG d   1       7.286 -11.247  -4.367  0.00  0.00    -0.459 OA
ATOM      4  C   LIG d   1       6.976  -9.961  -4.631  0.00  0.00     0.142 A 
ATOM      5  C   LIG d   1       8.171  -9.217  -4.536  0.00  0.00     0.024 A 
ATOM      6  C   LIG d   1       8.168  -7.849  -4.762  0.00  0.00    -0.040 A 
ATOM      7  C   LIG d   1       6.967  -7.211  -5.077  0.00  0.00     0.022 A 
ATOM      8  C   LIG d   1       6.928  -5.765  -5.319  0.00  0.00    -0.030 A 
ATOM      9  C   LIG d   1       5.733  -5.199  -5.628  0.00  0.00     0.041 A 
ATOM     10  C   LIG d   1       4.576  -6.003  -5.706  0.00  0.00     0.341 A 
ATOM     11  O   LIG d   1       3.511  -5.481  -5.984  0.00  0.00    -0.245 OA
ATOM     12  O   LIG d   1       4.617  -7.325  -5.484  0.00  0.00    -0.422 OA
ATOM     13  C   LIG d   1       5.773  -7.954  -5.172  0.00  0.00     0.146 A 
ATOM     14  C   LIG d   1       5.788  -9.320  -4.949  0.00  0.00     0.035 A 
ATOM     15  H   LIG d   1       9.084  -7.281  -4.689  0.00  0.00     0.063 H 
ENDROOT
BRANCH   9  16
ATOM     16  C   LIG d   1       5.644  -3.717  -5.885  0.00  0.00    -0.012 C 
ATOM     17  H   LIG d   1       6.583  -3.367  -6.339  0.00  0.00     0.032 H 
ATOM     18  H   LIG d   1       4.807  -3.514  -6.570  0.00  0.00     0.032 H 
BRANCH  16  19
ATOM     19  C   LIG d   1       5.411  -2.983  -4.564  0.00  0.00     0.028 C 
ATOM     20  H   LIG d   1       4.816  -3.618  -3.891  0.00  0.00     0.036 H 
ATOM     21  H   LIG d   1       6.380  -2.759  -4.092  0.00  0.00     0.036 H 
BRANCH  19  22
ATOM     22  C   LIG d   1       4.671  -1.697  -4.826  0.00  0.00     0.216 C 
ATOM     23  O   LIG d   1       4.218  -1.473  -5.929  0.00  0.00    -0.276 OA
ATOM     24  N   LIG d   1       4.512  -0.795  -3.837  0.00  0.00    -0.290 N 
ATOM     25  C   LIG d   1       3.904   0.539  -3.980  0.00  0.00     0.102 C 
ATOM     26  C   LIG d   1       4.924  -0.979  -2.437  0.00  0.00     0.015 C 
ATOM     27  C   LIG d   1       3.396   0.895  -2.558  0.00  0.00    -0.024 C 
ATOM     28  H   LIG d   1       4.632   1.253  -4.392  0.00  0.00     0.060 H 
ATOM     29  C   LIG d   1       4.519   0.297  -1.670  0.00  0.00    -0.035 C 
ATOM     30  H   LIG d   1       2.437   0.419  -2.307  0.00  0.00     0.029 H 
ATOM     31  H   LIG d   1       3.325   1.978  -2.380  0.00  0.00     0.029 H 
ATOM     32  H   LIG d   1       4.164   0.024  -0.665  0.00  0.00     0.028 H 
ATOM     33  H   LIG d   1       5.390   0.963  -1.583  0.00  0.00     0.028 H 
ATOM     34  H   LIG d   1       4.414  -1.859  -2.018  0.00  0.00     0.046 H 
ATOM     35  H   LIG d   1       6.012  -1.129  -2.391  0.00  0.00     0.046 H 
BRANCH  25  36
ATOM     36  C   LIG d   1       2.752   0.489  -4.951  0.00  0.00     0.231 C 
ATOM     37  O   LIG d   1       1.704  -0.025  -4.622  0.00  0.00    -0.274 OA
ATOM     38  N   LIG d   1       2.887   1.017  -6.184  0.00  0.00    -0.328 N 
ATOM     39  H   LIG d   1       2.046   0.981  -6.892  0.00  0.00     0.145 HD
ATOM     40  H   LIG d   1       3.837   1.484  -6.481  0.00  0.00     0.145 HD
ENDBRANCH  25  36
ENDBRANCH  19  22
ENDBRANCH  16  19
ENDBRANCH   9  16
BRANCH   8  41
ATOM     41  C   LIG d   1       8.179  -4.931  -5.228  0.00  0.00    -0.039 C 
ATOM     42  H   LIG d   1       8.192  -4.394  -4.267  0.00  0.00     0.028 H 
ATOM     43  H   LIG d   1       8.198  -4.205  -6.053  0.00  0.00     0.028 H 
ATOM     44  H   LIG d   1       9.061  -5.585  -5.294  0.00  0.00     0.028 H 
ENDBRANCH   8  41
BRANCH  14  45
ATOM     45  C   LIG d   1       4.509 -10.113  -5.050  0.00  0.00    -0.033 C 
ATOM     46  H   LIG d   1       3.734  -9.497  -5.529  0.00  0.00     0.028 H 
ATOM     47  H   LIG d   1       4.177 -10.403  -4.043  0.00  0.00     0.028 H 
ATOM     48  H   LIG d   1       4.686 -11.016  -5.653  0.00  0.00     0.028 H 
ENDBRANCH  14  45
BRANCH   1  49
ATOM     49  C   LIG d   1      10.678  -9.916  -3.970  0.00  0.00    -0.036 C 
ATOM     50  H   LIG d   1      10.790  -9.018  -3.344  0.00  0.00     0.028 H 
ATOM     51  H   LIG d   1      11.168  -9.750  -4.939  0.00  0.00     0.028 H 
ATOM     52  H   LIG d   1      11.143 -10.775  -3.465  0.00  0.00     0.028 H 
ENDBRANCH   1  49
BRANCH   2  53
ATOM     53  C   LIG d   1       9.281 -12.683  -3.774  0.00  0.00    -0.006 C 
ATOM     54  H   LIG d   1       9.588 -12.676  -2.718  0.00  0.00     0.031 H 
ATOM     55  H   LIG d   1      10.168 -12.807  -4.414  0.00  0.00     0.031 H 
ATOM     56  H   LIG d   1       8.585 -13.516  -3.948  0.00  0.00     0.031 H 
ENDBRANCH   2  53
TORSDOF 8
ENDMDL
MODEL 2
REMARK VINA RESULT:      -6.7      3.351      8.493
REMARK  8 active torsions:
REMARK  status: ('A' for Active; 'I' for Inactive)
REMARK    1  A    between atoms: C_1  and  C_2 
REMARK    2  A    between atoms: C_3  and  C_31 
REMARK    3  A    between atoms: C_9  and  C_30 
REMARK    4  A    between atoms: C_10  and  C_17 
REMARK    5  A    between atoms: C_15  and  C_16 
REMARK    6  A    between atoms: C_17  and  C_18 
REMARK    7  A    between atoms: C_18  and  C_19 
REMARK       I    between atoms: C_19  and  N_21 
REMARK    8  A    between atoms: C_25  and  C_27 
REMARK       I    between atoms: C_27  and  N_29 
ROOT
ATOM      1  C   LIG d   1       4.192  -1.086  -3.196  0.00  0.00    -0.002 A 
ATOM      2  C   LIG d   1       5.081  -0.290  -2.590  0.00  0.00     0.106 A 
ATOM      3  O   LIG d   1       6.329  -0.757  -2.779  0.00  0.00    -0.459 OA
ATOM      4  C   LIG d   1       6.316  -1.884  -3.519  0.00  0.00     0.142 A 
ATOM      5  C   LIG d   1       4.968  -2.162  -3.829  0.00  0.00     0.024 A 
ATOM      6  C   LIG d   1       4.636  -3.271  -4.593  0.00  0.00    -0.040 A 
ATOM      7  C   LIG d   1       5.649  -4.117  -5.046  0.00  0.00     0.022 A 
ATOM      8  C   LIG d   1       5.333  -5.300  -5.852  0.00  0.00    -0.030 A 
ATOM      9  C   LIG d   1       6.359  -6.084  -6.271  0.00  0.00     0.041 A 
ATOM     10  C   LIG d   1       7.685  -5.747  -5.924  0.00  0.00     0.341 A 
ATOM     11  O   LIG d   1       8.596  -6.459  -6.307  0.00  0.00    -0.245 OA
ATOM     12  O   LIG d   1       7.970  -4.663  -5.187  0.00  0.00    -0.422 OA
ATOM     13  C   LIG d   1       6.996  -3.839  -4.736  0.00  0.00     0.146 A 
ATOM     14  C   LIG d   1       7.317  -2.727  -3.977  0.00  0.00     0.035 A 
ATOM     15  H   LIG d   1       3.603  -3.482  -4.828  0.00  0.00     0.063 H 
ENDROOT
BRANCH   9  16
ATOM     16  C   LIG d   1       6.083  -7.310  -7.102  0.00  0.00    -0.012 C 
ATOM     17  H   LIG d   1       5.004  -7.377  -7.308  0.00  0.00     0.032 H 
ATOM     18  H   LIG d   1       6.634  -7.240  -8.052  0.00  0.00     0.032 H 
BRANCH  16  19
ATOM     19  C   LIG d   1       6.536  -8.556  -6.340  0.00  0.00     0.028 C 
ATOM     20  H   LIG d   1       6.702  -9.380  -7.048  0.00  0.00     0.036 H 
ATOM     21  H   LIG d   1       7.475  -8.339  -5.807  0.00  0.00     0.036 H 
BRANCH  19  22
ATOM     22  C   LIG d   1       5.475  -8.952  -5.347  0.00  0.00     0.216 C 
ATOM     23  O   LIG d   1       4.304  -8.914  -5.663  0.00  0.00    -0.276 OA
ATOM     24  N   LIG d   1       5.824  -9.348  -4.107  0.00  0.00    -0.290 N 
ATOM     25  C   LIG d   1       4.892  -9.663  -3.010  0.00  0.00     0.102 C 
ATOM     26  C   LIG d   1       7.201  -9.532  -3.623  0.00  0.00     0.015 C 
ATOM     27  C   LIG d   1       5.684 -10.620  -2.081  0.00  0.00    -0.024 C 
ATOM     28  H   LIG d   1       4.546  -8.740  -2.521  0.00  0.00     0.060 H 
ATOM     29  C   LIG d   1       7.111 -10.016  -2.161  0.00  0.00    -0.035 C 
ATOM     30  H   LIG d   1       5.705 -11.659  -2.442  0.00  0.00     0.029 H 
ATOM     31  H   LIG d   1       5.335 -10.601  -1.038  0.00  0.00     0.029 H 
ATOM     32  H   LIG d   1       7.897 -10.762  -1.972  0.00  0.00     0.028 H 
ATOM     33  H   LIG d   1       7.247  -9.160  -1.483  0.00  0.00     0.028 H 
ATOM     34  H   LIG d   1       7.712 -10.281  -4.247  0.00  0.00     0.046 H 
ATOM     35  H   LIG d   1       7.741  -8.576  -3.682  0.00  0.00     0.046 H 
BRANCH  25  36
ATOM     36  C   LIG d   1       3.664 -10.352  -3.548  0.00  0.00     0.231 C 
ATOM     37  O   LIG d   1       2.563  -9.904  -3.307  0.00  0.00    -0.274 OA
ATOM     38  N   LIG d   1       3.789 -11.464  -4.298  0.00  0.00    -0.328 N 
ATOM     39  H   LIG d   1       2.893 -11.966  -4.692  0.00  0.00     0.145 HD
ATOM     40  H   LIG d   1       4.788 -11.870  -4.519  0.00  0.00     0.145 HD
ENDBRANCH  25  36
ENDBRANCH  19  22
ENDBRANCH  16  19
ENDBRANCH   9  16
BRANCH   8  41
ATOM     41  C   LIG d   1       3.908  -5.637  -6.206  0.00  0.00    -0.039 C 
ATOM     42  H   LIG d   1       3.325  -4.708  -6.304  0.00  0.00     0.028 H 
ATOM     43  H   LIG d   1       3.470  -6.262  -5.414  0.00  0.00     0.028 H 
ATOM     44  H   LIG d   1       3.886  -6.184  -7.160  0.00  0.00     0.028 H 
ENDBRANCH   8  41
BRANCH  14  45
ATOM     45  C   LIG d   1       8.758  -2.432  -3.647  0.00  0.00    -0.033 C 
ATOM     46  H   LIG d   1       8.985  -2.798  -2.636  0.00  0.00     0.028 H 
ATOM     47  H   LIG d   1       8.930  -1.346  -3.692  0.00  0.00     0.028 H 
ATOM     48  H   LIG d   1       9.411  -2.936  -4.375  0.00  0.00     0.028 H 
ENDBRANCH  14  45
BRANCH   1  49
ATOM     49  C   LIG d   1       2.695  -0.914  -3.224  0.00  0.00    -0.036 C 
ATOM     50  H   LIG d   1       2.231  -1.621  -2.520  0.00  0.00     0.028 H 
ATOM     51  H   LIG d   1       2.323  -1.111  -4.240  0.00  0.00     0.028 H 
ATOM     52  H   LIG d   1       2.438   0.115  -2.932  0.00  0.00     0.028 H 
ENDBRANCH   1  49
BRANCH   2  53
ATOM     53  C   LIG d   1       4.736   0.952  -1.809  0.00  0.00    -0.006 C 
ATOM     54  H   LIG d   1       5.299   1.806  -2.211  0.00  0.00     0.031 H 
ATOM     55  H   LIG d   1       4.998   0.802  -0.751  0.00  0.00     0.031 H 
ATOM     56  H   LIG d   1       3.657   1.149  -1.895  0.00  0.00     0.031 H 
ENDBRANCH   2  53
TORSDOF 8
ENDMDL
MODEL 3
REMARK VINA RESULT:      -6.5      7.280     12.550
REMARK  8 active torsions:
REMARK  status: ('A' for Active; 'I' for Inactive)
REMARK    1  A    between atoms: C_1  and  C_2 
REMARK    2  A    between atoms: C_3  and  C_31 
REMARK    3  A    between atoms: C_9  and  C_30 
REMARK    4  A    between atoms: C_10  and  C_17 
REMARK    5  A    between atoms: C_15  and  C_16 
REMARK    6  A    between atoms: C_17  and  C_18 
REMARK    7  A    between atoms: C_18  and  C_19 
REMARK       I    between atoms: C_19  and  N_21 
REMARK    8  A    between atoms: C_25  and  C_27 
REMARK       I    between atoms: C_27  and  N_29 
ROOT
ATOM      1  C   LIG d   1      10.603   7.302  -0.522  0.00  0.00    -0.002 A 
ATOM      2  C   LIG d   1      10.434   8.604  -0.784  0.00  0.00     0.106 A 
ATOM      3  O   LIG d   1      10.159   8.786  -2.088  0.00  0.00    -0.459 OA
ATOM      4  C   LIG d   1      10.135   7.608  -2.745  0.00  0.00     0.142 A 
ATOM      5  C   LIG d   1      10.412   6.599  -1.800  0.00  0.00     0.024 A 
ATOM      6  C   LIG d   1      10.451   5.267  -2.183  0.00  0.00    -0.040 A 
ATOM      7  C   LIG d   1      10.221   4.933  -3.518  0.00  0.00     0.022 A 
ATOM      8  C   LIG d   1      10.259   3.535  -3.959  0.00  0.00    -0.030 A 
ATOM      9  C   LIG d   1      10.022   3.269  -5.268  0.00  0.00     0.041 A 
ATOM     10  C   LIG d   1       9.751   4.327  -6.161  0.00  0.00     0.341 A 
ATOM     11  O   LIG d   1       9.540   4.073  -7.334  0.00  0.00    -0.245 OA
ATOM     12  O   LIG d   1       9.717   5.605  -5.754  0.00  0.00    -0.422 OA
ATOM     13  C   LIG d   1       9.944   5.942  -4.463  0.00  0.00     0.146 A 
ATOM     14  C   LIG d   1       9.903   7.268  -4.070  0.00  0.00     0.035 A 
ATOM     15  H   LIG d   1      10.664   4.496  -1.457  0.00  0.00     0.063 H 
ENDROOT
BRANCH   9  16
ATOM     16  C   LIG d   1      10.049   1.847  -5.767  0.00  0.00    -0.012 C 
ATOM     17  H   LIG d   1      10.753   1.768  -6.609  0.00  0.00     0.032 H 
ATOM     18  H   LIG d   1      10.374   1.180  -4.954  0.00  0.00     0.032 H 
BRANCH  16  19
ATOM     19  C   LIG d   1       8.649   1.442  -6.231  0.00  0.00     0.028 C 
ATOM     20  H   LIG d   1       8.224   2.240  -6.856  0.00  0.00     0.036 H 
ATOM     21  H   LIG d   1       8.711   0.512  -6.817  0.00  0.00     0.036 H 
BRANCH  19  22
ATOM     22  C   LIG d   1       7.767   1.220  -5.030  0.00  0.00     0.216 C 
ATOM     23  O   LIG d   1       7.184   2.156  -4.525  0.00  0.00    -0.276 OA
ATOM     24  N   LIG d   1       7.625  -0.018  -4.516  0.00  0.00    -0.290 N 
ATOM     25  C   LIG d   1       6.880  -0.360  -3.291  0.00  0.00     0.102 C 
ATOM     26  C   LIG d   1       8.193  -1.250  -5.082  0.00  0.00     0.015 C 
ATOM     27  C   LIG d   1       6.488  -1.850  -3.471  0.00  0.00    -0.024 C 
ATOM     28  H   LIG d   1       7.490  -0.157  -2.399  0.00  0.00     0.060 H 
ATOM     29  C   LIG d   1       7.749  -2.417  -4.177  0.00  0.00    -0.035 C 
ATOM     30  H   LIG d   1       5.610  -1.994  -4.118  0.00  0.00     0.029 H 
ATOM     31  H   LIG d   1       6.332  -2.377  -2.518  0.00  0.00     0.029 H 
ATOM     32  H   LIG d   1       7.526  -3.299  -4.796  0.00  0.00     0.028 H 
ATOM     33  H   LIG d   1       8.556  -2.660  -3.470  0.00  0.00     0.028 H 
ATOM     34  H   LIG d   1       7.816  -1.391  -6.106  0.00  0.00     0.046 H 
ATOM     35  H   LIG d   1       9.289  -1.173  -5.103  0.00  0.00     0.046 H 
BRANCH  25  36
ATOM     36  C   LIG d   1       5.645   0.496  -3.173  0.00  0.00     0.231 C 
ATOM     37  O   LIG d   1       5.508   1.233  -2.220  0.00  0.00    -0.274 OA
ATOM     38  N   LIG d   1       4.694   0.444  -4.126  0.00  0.00    -0.328 N 
ATOM     39  H   LIG d   1       3.794   1.069  -4.040  0.00  0.00     0.145 HD
ATOM     40  H   LIG d   1       4.819  -0.224  -4.992  0.00  0.00     0.145 HD
ENDBRANCH  25  36
ENDBRANCH  19  22
ENDBRANCH  16  19
ENDBRANCH   9  16
BRANCH   8  41
ATOM     41  C   LIG d   1      10.552   2.424  -2.983  0.00  0.00    -0.039 C 
ATOM     42  H   LIG d   1      11.382   1.811  -3.366  0.00  0.00     0.028 H 
ATOM     43  H   LIG d   1       9.657   1.796  -2.862  0.00  0.00     0.028 H 
ATOM     44  H   LIG d   1      10.832   2.855  -2.011  0.00  0.00     0.028 H 
ENDBRANCH   8  41
BRANCH  14  45
ATOM     45  C   LIG d   1       9.607   8.345  -5.082  0.00  0.00    -0.033 C 
ATOM     46  H   LIG d   1      10.529   8.605  -5.621  0.00  0.00     0.028 H 
ATOM     47  H   LIG d   1       9.219   9.236  -4.567  0.00  0.00     0.028 H 
ATOM     48  H   LIG d   1       8.855   7.978  -5.797  0.00  0.00     0.028 H 
ENDBRANCH  14  45
BRANCH   1  49
ATOM     49  C   LIG d   1      10.923   6.681   0.813  0.00  0.00    -0.036 C 
ATOM     50  H   LIG d   1      11.659   7.306   1.340  0.00  0.00     0.028 H 
ATOM     51  H   LIG d   1      11.339   5.676   0.659  0.00  0.00     0.028 H 
ATOM     52  H   LIG d   1      10.005   6.611   1.414  0.00  0.00     0.028 H 
ENDBRANCH   1  49
BRANCH   2  53
ATOM     53  C   LIG d   1      10.537   9.709   0.236  0.00  0.00    -0.006 C 
ATOM     54  H   LIG d   1      11.446  10.298   0.047  0.00  0.00     0.031 H 
ATOM     55  H   LIG d   1      10.585   9.272   1.245  0.00  0.00     0.031 H 
ATOM     56  H   LIG d   1       9.655  10.361   0.159  0.00  0.00     0.031 H 
ENDBRANCH   2  53
TORSDOF 8
ENDMDL
MODEL 4
REMARK VINA RESULT:      -6.5     11.824     15.492
REMARK  8 active torsions:
REMARK  status: ('A' for Active; 'I' for Inactive)
REMARK    1  A    between atoms: C_1  and  C_2 
REMARK    2  A    between atoms: C_3  and  C_31 
REMARK    3  A    between atoms: C_9  and  C_30 
REMARK    4  A    between atoms: C_10  and  C_17 
REMARK    5  A    between atoms: C_15  and  C_16 
REMARK    6  A    between atoms: C_17  and  C_18 
REMARK    7  A    between atoms: C_18  and  C_19 
REMARK       I    between atoms: C_19  and  N_21 
REMARK    8  A    between atoms: C_25  and  C_27 
REMARK       I    between atoms: C_27  and  N_29 
ROOT
ATOM      1  C   LIG d   1      11.787  10.282   1.418  0.00  0.00    -0.002 A 
ATOM      2  C   LIG d   1      12.060   9.684   2.584  0.00  0.00     0.106 A 
ATOM      3  O   LIG d   1      11.831   8.361   2.495  0.00  0.00    -0.459 OA
ATOM      4  C   LIG d   1      11.395   8.029   1.262  0.00  0.00     0.142 A 
ATOM      5  C   LIG d   1      11.341   9.218   0.506  0.00  0.00     0.024 A 
ATOM      6  C   LIG d   1      10.928   9.192  -0.817  0.00  0.00    -0.040 A 
ATOM      7  C   LIG d   1      10.558   7.977  -1.394  0.00  0.00     0.022 A 
ATOM      8  C   LIG d   1      10.113   7.914  -2.790  0.00  0.00    -0.030 A 
ATOM      9  C   LIG d   1       9.771   6.704  -3.300  0.00  0.00     0.041 A 
ATOM     10  C   LIG d   1       9.849   5.553  -2.487  0.00  0.00     0.341 A 
ATOM     11  O   LIG d   1       9.539   4.473  -2.958  0.00  0.00    -0.245 OA
ATOM     12  O   LIG d   1      10.257   5.615  -1.211  0.00  0.00    -0.422 OA
ATOM     13  C   LIG d   1      10.613   6.788  -0.638  0.00  0.00     0.146 A 
ATOM     14  C   LIG d   1      11.030   6.824   0.680  0.00  0.00     0.035 A 
ATOM     15  H   LIG d   1      10.887  10.105  -1.394  0.00  0.00     0.063 H 
ENDROOT
BRANCH   9  16
ATOM     16  C   LIG d   1       9.308   6.590  -4.730  0.00  0.00    -0.012 C 
ATOM     17  H   LIG d   1       8.622   5.735  -4.825  0.00  0.00     0.032 H 
ATOM     18  H   LIG d   1       8.786   7.513  -5.020  0.00  0.00     0.032 H 
BRANCH  16  19
ATOM     19  C   LIG d   1      10.517   6.379  -5.642  0.00  0.00     0.028 C 
ATOM     20  H   LIG d   1      11.371   6.958  -5.260  0.00  0.00     0.036 H 
ATOM     21  H   LIG d   1      10.781   5.310  -5.661  0.00  0.00     0.036 H 
BRANCH  19  22
ATOM     22  C   LIG d   1      10.181   6.839  -7.036  0.00  0.00     0.216 C 
ATOM     23  O   LIG d   1      10.316   8.005  -7.339  0.00  0.00    -0.276 OA
ATOM     24  N   LIG d   1       9.730   5.954  -7.948  0.00  0.00    -0.290 N 
ATOM     25  C   LIG d   1       9.269   6.282  -9.309  0.00  0.00     0.102 C 
ATOM     26  C   LIG d   1       9.610   4.502  -7.747  0.00  0.00     0.015 C 
ATOM     27  C   LIG d   1       9.462   4.972 -10.118  0.00  0.00    -0.024 C 
ATOM     28  H   LIG d   1       8.233   6.652  -9.287  0.00  0.00     0.060 H 
ATOM     29  C   LIG d   1       9.078   3.900  -9.063  0.00  0.00    -0.035 C 
ATOM     30  H   LIG d   1      10.500   4.811 -10.443  0.00  0.00     0.029 H 
ATOM     31  H   LIG d   1       8.790   4.893 -10.984  0.00  0.00     0.029 H 
ATOM     32  H   LIG d   1       9.566   2.931  -9.248  0.00  0.00     0.028 H 
ATOM     33  H   LIG d   1       7.990   3.754  -8.986  0.00  0.00     0.028 H 
ATOM     34  H   LIG d   1      10.598   4.084  -7.503  0.00  0.00     0.046 H 
ATOM     35  H   LIG d   1       8.913   4.303  -6.920  0.00  0.00     0.046 H 
BRANCH  25  36
ATOM     36  C   LIG d   1      10.109   7.388  -9.895  0.00  0.00     0.231 C 
ATOM     37  O   LIG d   1      11.245   7.161 -10.254  0.00  0.00    -0.274 OA
ATOM     38  N   LIG d   1       9.598   8.628 -10.021  0.00  0.00    -0.328 N 
ATOM     39  H   LIG d   1      10.211   9.435 -10.449  0.00  0.00     0.145 HD
ATOM     40  H   LIG d   1       8.566   8.834  -9.697  0.00  0.00     0.145 HD
ENDBRANCH  25  36
ENDBRANCH  19  22
ENDBRANCH  16  19
ENDBRANCH   9  16
BRANCH   8  41
ATOM     41  C   LIG d   1      10.038   9.160  -3.635  0.00  0.00    -0.039 C 
ATOM     42  H   LIG d   1       9.018   9.272  -4.032  0.00  0.00     0.028 H 
ATOM     43  H   LIG d   1      10.749   9.080  -4.470  0.00  0.00     0.028 H 
ATOM     44  H   LIG d   1      10.291  10.035  -3.020  0.00  0.00     0.028 H 
ENDBRANCH   8  41
BRANCH  14  45
ATOM     45  C   LIG d   1      11.087   5.551   1.487  0.00  0.00    -0.033 C 
ATOM     46  H   LIG d   1      11.561   4.760   0.888  0.00  0.00     0.028 H 
ATOM     47  H   LIG d   1      10.067   5.244   1.759  0.00  0.00     0.028 H 
ATOM     48  H   LIG d   1      11.675   5.723   2.400  0.00  0.00     0.028 H 
ENDBRANCH  14  45
BRANCH   1  49
ATOM     49  C   LIG d   1      11.912  11.750   1.103  0.00  0.00    -0.036 C 
ATOM     50  H   LIG d   1      11.181  12.022   0.327  0.00  0.00     0.028 H 
ATOM     51  H   LIG d   1      12.928  11.961   0.739  0.00  0.00     0.028 H 
ATOM     52  H   LIG d   1      11.717  12.338   2.012  0.00  0.00     0.028 H 
ENDBRANCH   1  49
BRANCH   2  53
ATOM     53  C   LIG d   1      12.554  10.390   3.821  0.00  0.00    -0.006 C 
ATOM     54  H   LIG d   1      13.333   9.783   4.303  0.00  0.00     0.031 H 
ATOM     55  H   LIG d   1      11.715  10.535   4.518  0.00  0.00     0.031 H 
ATOM     56  H   LIG d   1      12.972  11.368   3.541  0.00  0.00     0.031 H 
ENDBRANCH   2  53
TORSDOF 8
ENDMDL
MODEL 5
REMARK VINA RESULT:      -6.4      5.528      7.780
REMARK  8 active torsions:
REMARK  status: ('A' for Active; 'I' for Inactive)
REMARK    1  A    between atoms: C_1  and  C_2 
REMARK    2  A    between atoms: C_3  and  C_31 
REMARK    3  A    between atoms: C_9  and  C_30 
REMARK    4  A    between atoms: C_10  and  C_17 
REMARK    5  A    between atoms: C_15  and  C_16 
REMARK    6  A    between atoms: C_17  and  C_18 
REMARK    7  A    between atoms: C_18  and  C_19 
REMARK       I    between atoms: C_19  and  N_21 
REMARK    8  A    between atoms: C_25  and  C_27 
REMARK       I    between atoms: C_27  and  N_29 
ROOT
ATOM      1  C   LIG d   1      -0.622  -4.846 -11.979  0.00  0.00    -0.002 A 
ATOM      2  C   LIG d   1      -0.516  -6.176 -12.099  0.00  0.00     0.106 A 
ATOM      3  O   LIG d   1       0.559  -6.620 -11.423  0.00  0.00    -0.459 OA
ATOM      4  C   LIG d   1       1.210  -5.601 -10.825  0.00  0.00     0.142 A 
ATOM      5  C   LIG d   1       0.506  -4.419 -11.138  0.00  0.00     0.024 A 
ATOM      6  C   LIG d   1       0.940  -3.194 -10.655  0.00  0.00    -0.040 A 
ATOM      7  C   LIG d   1       2.087  -3.139  -9.862  0.00  0.00     0.022 A 
ATOM      8  C   LIG d   1       2.575  -1.859  -9.338  0.00  0.00    -0.030 A 
ATOM      9  C   LIG d   1       3.692  -1.867  -8.568  0.00  0.00     0.041 A 
ATOM     10  C   LIG d   1       4.348  -3.086  -8.294  0.00  0.00     0.341 A 
ATOM     11  O   LIG d   1       5.349  -3.077  -7.601  0.00  0.00    -0.245 OA
ATOM     12  O   LIG d   1       3.897  -4.254  -8.775  0.00  0.00    -0.422 OA
ATOM     13  C   LIG d   1       2.790  -4.320  -9.550  0.00  0.00     0.146 A 
ATOM     14  C   LIG d   1       2.346  -5.538 -10.033  0.00  0.00     0.035 A 
ATOM     15  H   LIG d   1       0.399  -2.290 -10.896  0.00  0.00     0.063 H 
ENDROOT
BRANCH   9  16
ATOM     16  C   LIG d   1       4.232  -0.576  -8.006  0.00  0.00    -0.012 C 
ATOM     17  H   LIG d   1       5.328  -0.638  -7.933  0.00  0.00     0.032 H 
ATOM     18  H   LIG d   1       3.955   0.256  -8.671  0.00  0.00     0.032 H 
BRANCH  16  19
ATOM     19  C   LIG d   1       3.640  -0.337  -6.616  0.00  0.00     0.028 C 
ATOM     20  H   LIG d   1       3.063   0.599  -6.618  0.00  0.00     0.036 H 
ATOM     21  H   LIG d   1       2.976  -1.175  -6.351  0.00  0.00     0.036 H 
BRANCH  19  22
ATOM     22  C   LIG d   1       4.753  -0.239  -5.606  0.00  0.00     0.216 C 
ATOM     23  O   LIG d   1       5.799   0.296  -5.907  0.00  0.00    -0.276 OA
ATOM     24  N   LIG d   1       4.588  -0.747  -4.368  0.00  0.00    -0.290 N 
ATOM     25  C   LIG d   1       5.622  -0.811  -3.320  0.00  0.00     0.102 C 
ATOM     26  C   LIG d   1       3.346  -1.333  -3.842  0.00  0.00     0.015 C 
ATOM     27  C   LIG d   1       4.830  -0.865  -1.987  0.00  0.00    -0.024 C 
ATOM     28  H   LIG d   1       6.286  -1.672  -3.487  0.00  0.00     0.060 H 
ATOM     29  C   LIG d   1       3.620  -1.753  -2.383  0.00  0.00    -0.035 C 
ATOM     30  H   LIG d   1       4.469   0.119  -1.655  0.00  0.00     0.029 H 
ATOM     31  H   LIG d   1       5.387  -1.347  -1.170  0.00  0.00     0.029 H 
ATOM     32  H   LIG d   1       2.729  -1.551  -1.769  0.00  0.00     0.028 H 
ATOM     33  H   LIG d   1       3.854  -2.827  -2.349  0.00  0.00     0.028 H 
ATOM     34  H   LIG d   1       2.541  -0.585  -3.884  0.00  0.00     0.046 H 
ATOM     35  H   LIG d   1       3.067  -2.206  -4.450  0.00  0.00     0.046 H 
BRANCH  25  36
ATOM     36  C   LIG d   1       6.490   0.420  -3.365  0.00  0.00     0.231 C 
ATOM     37  O   LIG d   1       6.033   1.496  -3.044  0.00  0.00    -0.274 OA
ATOM     38  N   LIG d   1       7.775   0.324  -3.759  0.00  0.00    -0.328 N 
ATOM     39  H   LIG d   1       8.410   1.222  -3.791  0.00  0.00     0.145 HD
ATOM     40  H   LIG d   1       8.191  -0.653  -4.049  0.00  0.00     0.145 HD
ENDBRANCH  25  36
ENDBRANCH  19  22
ENDBRANCH  16  19
ENDBRANCH   9  16
BRANCH   8  41
ATOM     41  C   LIG d   1       1.856  -0.571  -9.647  0.00  0.00    -0.039 C 
ATOM     42  H   LIG d   1       2.533   0.105 -10.190  0.00  0.00     0.028 H 
ATOM     43  H   LIG d   1       1.537  -0.095  -8.709  0.00  0.00     0.028 H 
ATOM     44  H   LIG d   1       0.975  -0.784 -10.269  0.00  0.00     0.028 H 
ENDBRANCH   8  41
BRANCH  14  45
ATOM     45  C   LIG d   1       3.100  -6.800  -9.698  0.00  0.00    -0.033 C 
ATOM     46  H   LIG d   1       4.101  -6.541  -9.324  0.00  0.00     0.028 H 
ATOM     47  H   LIG d   1       3.195  -7.421 -10.601  0.00  0.00     0.028 H 
ATOM     48  H   LIG d   1       2.553  -7.359  -8.925  0.00  0.00     0.028 H 
ENDBRANCH  14  45
BRANCH   1  49
ATOM     49  C   LIG d   1      -1.685  -3.965 -12.583  0.00  0.00    -0.036 C 
ATOM     50  H   LIG d   1      -2.331  -4.567 -13.238  0.00  0.00     0.028 H 
ATOM     51  H   LIG d   1      -1.208  -3.168 -13.171  0.00  0.00     0.028 H 
ATOM     52  H   LIG d   1      -2.290  -3.519 -11.781  0.00  0.00     0.028 H 
ENDBRANCH   1  49
BRANCH   2  53
ATOM     53  C   LIG d   1      -1.463  -7.049 -12.880  0.00  0.00    -0.006 C 
ATOM     54  H   LIG d   1      -0.915  -7.908 -13.291  0.00  0.00     0.031 H 
ATOM     55  H   LIG d   1      -1.905  -6.466 -13.702  0.00  0.00     0.031 H 
ATOM     56  H   LIG d   1      -2.262  -7.408 -12.214  0.00  0.00     0.031 H 
ENDBRANCH   2  53
TORSDOF 8
ENDMDL
MODEL 6
REMARK VINA RESULT:      -6.4      5.268      8.349
REMARK  8 active torsions:
REMARK  status: ('A' for Active; 'I' for Inactive)
REMARK    1  A    between atoms: C_1  and  C_2 
REMARK    2  A    between atoms: C_3  and  C_31 
REMARK    3  A    between atoms: C_9  and  C_30 
REMARK    4  A    between atoms: C_10  and  C_17 
REMARK    5  A    between atoms: C_15  and  C_16 
REMARK    6  A    between atoms: C_17  and  C_18 
REMARK    7  A    between atoms: C_18  and  C_19 
REMARK       I    between atoms: C_19  and  N_21 
REMARK    8  A    between atoms: C_25  and  C_27 
REMARK       I    between atoms: C_27  and  N_29 
ROOT
ATOM      1  C   LIG d   1       4.568  -1.593 -10.811  0.00  0.00    -0.002 A 
ATOM      2  C   LIG d   1       4.177  -0.543 -11.544  0.00  0.00     0.106 A 
ATOM      3  O   LIG d   1       3.696   0.429 -10.747  0.00  0.00    -0.459 OA
ATOM      4  C   LIG d   1       3.750   0.061  -9.450  0.00  0.00     0.142 A 
ATOM      5  C   LIG d   1       4.303  -1.236  -9.410  0.00  0.00     0.024 A 
ATOM      6  C   LIG d   1       4.489  -1.884  -8.198  0.00  0.00    -0.040 A 
ATOM      7  C   LIG d   1       4.114  -1.244  -7.016  0.00  0.00     0.022 A 
ATOM      8  C   LIG d   1       4.293  -1.902  -5.717  0.00  0.00    -0.030 A 
ATOM      9  C   LIG d   1       3.916  -1.229  -4.601  0.00  0.00     0.041 A 
ATOM     10  C   LIG d   1       3.369   0.066  -4.714  0.00  0.00     0.341 A 
ATOM     11  O   LIG d   1       3.036   0.659  -3.703  0.00  0.00    -0.245 OA
ATOM     12  O   LIG d   1       3.208   0.665  -5.903  0.00  0.00    -0.422 OA
ATOM     13  C   LIG d   1       3.562   0.052  -7.057  0.00  0.00     0.146 A 
ATOM     14  C   LIG d   1       3.385   0.692  -8.271  0.00  0.00     0.035 A 
ATOM     15  H   LIG d   1       4.912  -2.878  -8.169  0.00  0.00     0.063 H 
ENDROOT
BRANCH   9  16
ATOM     16  C   LIG d   1       4.081  -1.864  -3.244  0.00  0.00    -0.012 C 
ATOM     17  H   LIG d   1       3.123  -1.831  -2.705  0.00  0.00     0.032 H 
ATOM     18  H   LIG d   1       4.397  -2.911  -3.366  0.00  0.00     0.032 H 
BRANCH  16  19
ATOM     19  C   LIG d   1       5.142  -1.101  -2.449  0.00  0.00     0.028 C 
ATOM     20  H   LIG d   1       4.865  -0.038  -2.394  0.00  0.00     0.036 H 
ATOM     21  H   LIG d   1       5.205  -1.515  -1.431  0.00  0.00     0.036 H 
BRANCH  19  22
ATOM     22  C   LIG d   1       6.477  -1.238  -3.131  0.00  0.00     0.216 C 
ATOM     23  O   LIG d   1       6.973  -2.336  -3.279  0.00  0.00    -0.276 OA
ATOM     24  N   LIG d   1       7.123  -0.143  -3.578  0.00  0.00    -0.290 N 
ATOM     25  C   LIG d   1       8.473  -0.121  -4.168  0.00  0.00     0.102 C 
ATOM     26  C   LIG d   1       6.598   1.231  -3.551  0.00  0.00     0.015 C 
ATOM     27  C   LIG d   1       8.498   1.155  -5.050  0.00  0.00    -0.024 C 
ATOM     28  H   LIG d   1       9.239  -0.141  -3.379  0.00  0.00     0.060 H 
ATOM     29  C   LIG d   1       7.668   2.142  -4.187  0.00  0.00    -0.035 C 
ATOM     30  H   LIG d   1       8.009   1.019  -6.025  0.00  0.00     0.029 H 
ATOM     31  H   LIG d   1       9.510   1.560  -5.200  0.00  0.00     0.029 H 
ATOM     32  H   LIG d   1       7.177   2.921  -4.790  0.00  0.00     0.028 H 
ATOM     33  H   LIG d   1       8.265   2.616  -3.393  0.00  0.00     0.028 H 
ATOM     34  H   LIG d   1       5.661   1.276  -4.127  0.00  0.00     0.046 H 
ATOM     35  H   LIG d   1       6.404   1.529  -2.511  0.00  0.00     0.046 H 
BRANCH  25  36
ATOM     36  C   LIG d   1       8.695  -1.348  -5.015  0.00  0.00     0.231 C 
ATOM     37  O   LIG d   1       8.151  -1.446  -6.094  0.00  0.00    -0.274 OA
ATOM     38  N   LIG d   1       9.499  -2.335  -4.573  0.00  0.00    -0.328 N 
ATOM     39  H   LIG d   1       9.661  -3.230  -5.192  0.00  0.00     0.145 HD
ATOM     40  H   LIG d   1       9.994  -2.246  -3.595  0.00  0.00     0.145 HD
ENDBRANCH  25  36
ENDBRANCH  19  22
ENDBRANCH  16  19
ENDBRANCH   9  16
BRANCH   8  41
ATOM     41  C   LIG d   1       4.879  -3.287  -5.626  0.00  0.00    -0.039 C 
ATOM     42  H   LIG d   1       4.501  -3.786  -4.721  0.00  0.00     0.028 H 
ATOM     43  H   LIG d   1       5.975  -3.219  -5.576  0.00  0.00     0.028 H 
ATOM     44  H   LIG d   1       4.587  -3.867  -6.514  0.00  0.00     0.028 H 
ENDBRANCH   8  41
BRANCH  14  45
ATOM     45  C   LIG d   1       2.793   2.078  -8.312  0.00  0.00    -0.033 C 
ATOM     46  H   LIG d   1       3.124   2.590  -9.227  0.00  0.00     0.028 H 
ATOM     47  H   LIG d   1       3.128   2.646  -7.431  0.00  0.00     0.028 H 
ATOM     48  H   LIG d   1       1.695   2.008  -8.307  0.00  0.00     0.028 H 
ENDBRANCH  14  45
BRANCH   1  49
ATOM     49  C   LIG d   1       5.161  -2.881 -11.321  0.00  0.00    -0.036 C 
ATOM     50  H   LIG d   1       4.406  -3.679 -11.265  0.00  0.00     0.028 H 
ATOM     51  H   LIG d   1       6.028  -3.154 -10.703  0.00  0.00     0.028 H 
ATOM     52  H   LIG d   1       5.480  -2.750 -12.365  0.00  0.00     0.028 H 
ENDBRANCH   1  49
BRANCH   2  53
ATOM     53  C   LIG d   1       4.261  -0.460 -13.046  0.00  0.00    -0.006 C 
ATOM     54  H   LIG d   1       3.304  -0.774 -13.485  0.00  0.00     0.031 H 
ATOM     55  H   LIG d   1       5.065  -1.121 -13.404  0.00  0.00     0.031 H 
ATOM     56  H   LIG d   1       4.479   0.576 -13.344  0.00  0.00     0.031 H 
ENDBRANCH   2  53
TORSDOF 8
ENDMDL
MODEL 7
REMARK VINA RESULT:      -6.4      6.674      9.562
REMARK  8 active torsions:
REMARK  status: ('A' for Active; 'I' for Inactive)
REMARK    1  A    between atoms: C_1  and  C_2 
REMARK    2  A    between atoms: C_3  and  C_31 
REMARK    3  A    between atoms: C_9  and  C_30 
REMARK    4  A    between atoms: C_10  and  C_17 
REMARK    5  A    between atoms: C_15  and  C_16 
REMARK    6  A    between atoms: C_17  and  C_18 
REMARK    7  A    between atoms: C_18  and  C_19 
REMARK       I    between atoms: C_19  and  N_21 
REMARK    8  A    between atoms: C_25  and  C_27 
REMARK       I    between atoms: C_27  and  N_29 
ROOT
ATOM      1  C   LIG d   1       1.697  -2.197 -14.416  0.00  0.00    -0.002 A 
ATOM      2  C   LIG d   1       2.504  -2.333 -15.475  0.00  0.00     0.106 A 
ATOM      3  O   LIG d   1       3.750  -1.931 -15.167  0.00  0.00    -0.459 OA
ATOM      4  C   LIG d   1       3.819  -1.510 -13.887  0.00  0.00     0.142 A 
ATOM      5  C   LIG d   1       2.530  -1.653 -13.333  0.00  0.00     0.024 A 
ATOM      6  C   LIG d   1       2.288  -1.301 -12.014  0.00  0.00    -0.040 A 
ATOM      7  C   LIG d   1       3.333  -0.795 -11.239  0.00  0.00     0.022 A 
ATOM      8  C   LIG d   1       3.111  -0.410  -9.842  0.00  0.00    -0.030 A 
ATOM      9  C   LIG d   1       4.165   0.070  -9.135  0.00  0.00     0.041 A 
ATOM     10  C   LIG d   1       5.429   0.187  -9.751  0.00  0.00     0.341 A 
ATOM     11  O   LIG d   1       6.366   0.619  -9.104  0.00  0.00    -0.245 OA
ATOM     12  O   LIG d   1       5.627  -0.167 -11.030  0.00  0.00    -0.422 OA
ATOM     13  C   LIG d   1       4.621  -0.653 -11.793  0.00  0.00     0.146 A 
ATOM     14  C   LIG d   1       4.853  -1.011 -13.109  0.00  0.00     0.035 A 
ATOM     15  H   LIG d   1       1.299  -1.410 -11.592  0.00  0.00     0.063 H 
ENDROOT
BRANCH   9  16
ATOM     16  C   LIG d   1       3.986   0.479  -7.695  0.00  0.00    -0.012 C 
ATOM     17  H   LIG d   1       4.746   1.229  -7.430  0.00  0.00     0.032 H 
ATOM     18  H   LIG d   1       2.983   0.909  -7.558  0.00  0.00     0.032 H 
BRANCH  16  19
ATOM     19  C   LIG d   1       4.143  -0.747  -6.794  0.00  0.00     0.028 C 
ATOM     20  H   LIG d   1       3.163  -1.027  -6.381  0.00  0.00     0.036 H 
ATOM     21  H   LIG d   1       4.545  -1.586  -7.382  0.00  0.00     0.036 H 
BRANCH  19  22
ATOM     22  C   LIG d   1       5.089  -0.425  -5.667  0.00  0.00     0.216 C 
ATOM     23  O   LIG d   1       6.087   0.231  -5.882  0.00  0.00    -0.276 OA
ATOM     24  N   LIG d   1       4.829  -0.865  -4.420  0.00  0.00    -0.290 N 
ATOM     25  C   LIG d   1       5.714  -0.712  -3.251  0.00  0.00     0.102 C 
ATOM     26  C   LIG d   1       3.616  -1.583  -4.001  0.00  0.00     0.015 C 
ATOM     27  C   LIG d   1       4.766  -0.786  -2.026  0.00  0.00    -0.024 C 
ATOM     28  H   LIG d   1       6.502  -1.479  -3.261  0.00  0.00     0.060 H 
ATOM     29  C   LIG d   1       3.747  -1.860  -2.489  0.00  0.00    -0.035 C 
ATOM     30  H   LIG d   1       4.239   0.158  -1.826  0.00  0.00     0.029 H 
ATOM     31  H   LIG d   1       5.268  -1.127  -1.108  0.00  0.00     0.029 H 
ATOM     32  H   LIG d   1       2.763  -1.744  -2.008  0.00  0.00     0.028 H 
ATOM     33  H   LIG d   1       4.112  -2.886  -2.334  0.00  0.00     0.028 H 
ATOM     34  H   LIG d   1       2.732  -0.960  -4.205  0.00  0.00     0.046 H 
ATOM     35  H   LIG d   1       3.536  -2.526  -4.561  0.00  0.00     0.046 H 
BRANCH  25  36
ATOM     36  C   LIG d   1       6.412   0.623  -3.295  0.00  0.00     0.231 C 
ATOM     37  O   LIG d   1       5.799   1.637  -3.035  0.00  0.00    -0.274 OA
ATOM     38  N   LIG d   1       7.718   0.691  -3.619  0.00  0.00    -0.328 N 
ATOM     39  H   LIG d   1       8.228   1.665  -3.650  0.00  0.00     0.145 HD
ATOM     40  H   LIG d   1       8.276  -0.229  -3.853  0.00  0.00     0.145 HD
ENDBRANCH  25  36
ENDBRANCH  19  22
ENDBRANCH  16  19
ENDBRANCH   9  16
BRANCH   8  41
ATOM     41  C   LIG d   1       1.750  -0.543  -9.209  0.00  0.00    -0.039 C 
ATOM     42  H   LIG d   1       1.735  -1.431  -8.558  0.00  0.00     0.028 H 
ATOM     43  H   LIG d   1       0.989  -0.652  -9.995  0.00  0.00     0.028 H 
ATOM     44  H   LIG d   1       1.535   0.354  -8.611  0.00  0.00     0.028 H 
ENDBRANCH   8  41
BRANCH  14  45
ATOM     45  C   LIG d   1       6.232  -0.858 -13.699  0.00  0.00    -0.033 C 
ATOM     46  H   LIG d   1       6.496  -1.770 -14.253  0.00  0.00     0.028 H 
ATOM     47  H   LIG d   1       6.960  -0.694 -12.891  0.00  0.00     0.028 H 
ATOM     48  H   LIG d   1       6.244   0.003 -14.384  0.00  0.00     0.028 H 
ENDBRANCH  14  45
BRANCH   1  49
ATOM     49  C   LIG d   1       0.230  -2.535 -14.346  0.00  0.00    -0.036 C 
ATOM     50  H   LIG d   1       0.100  -3.502 -13.836  0.00  0.00     0.028 H 
ATOM     51  H   LIG d   1      -0.180  -2.600 -15.364  0.00  0.00     0.028 H 
ATOM     52  H   LIG d   1      -0.301  -1.751 -13.786  0.00  0.00     0.028 H 
ENDBRANCH   1  49
BRANCH   2  53
ATOM     53  C   LIG d   1       2.078  -2.862 -16.821  0.00  0.00    -0.006 C 
ATOM     54  H   LIG d   1       2.534  -3.847 -16.988  0.00  0.00     0.031 H 
ATOM     55  H   LIG d   1       2.406  -2.166 -17.608  0.00  0.00     0.031 H 
ATOM     56  H   LIG d   1       0.982  -2.955 -16.847  0.00  0.00     0.031 H 
ENDBRANCH   2  53
TORSDOF 8
ENDMDL
MODEL 8
REMARK VINA RESULT:      -6.4      8.046     13.663
REMARK  8 active torsions:
REMARK  status: ('A' for Active; 'I' for Inactive)
REMARK    1  A    between atoms: C_1  and  C_2 
REMARK    2  A    between atoms: C_3  and  C_31 
REMARK    3  A    between atoms: C_9  and  C_30 
REMARK    4  A    between atoms: C_10  and  C_17 
REMARK    5  A    between atoms: C_15  and  C_16 
REMARK    6  A    between atoms: C_17  and  C_18 
REMARK    7  A    between atoms: C_18  and  C_19 
REMARK       I    between atoms: C_19  and  N_21 
REMARK    8  A    between atoms: C_25  and  C_27 
REMARK       I    between atoms: C_27  and  N_29 
ROOT
ATOM      1  C   LIG d   1       9.963  10.017  -1.362  0.00  0.00    -0.002 A 
ATOM      2  C   LIG d   1      10.297  10.147  -0.072  0.00  0.00     0.106 A 
ATOM      3  O   LIG d   1      10.602   8.947   0.453  0.00  0.00    -0.459 OA
ATOM      4  C   LIG d   1      10.482   7.971  -0.470  0.00  0.00     0.142 A 
ATOM      5  C   LIG d   1      10.073   8.584  -1.672  0.00  0.00     0.024 A 
ATOM      6  C   LIG d   1       9.869   7.826  -2.815  0.00  0.00    -0.040 A 
ATOM      7  C   LIG d   1      10.064   6.445  -2.763  0.00  0.00     0.022 A 
ATOM      8  C   LIG d   1       9.854   5.613  -3.952  0.00  0.00    -0.030 A 
ATOM      9  C   LIG d   1      10.064   4.277  -3.844  0.00  0.00     0.041 A 
ATOM     10  C   LIG d   1      10.473   3.728  -2.610  0.00  0.00     0.341 A 
ATOM     11  O   LIG d   1      10.659   2.527  -2.528  0.00  0.00    -0.245 OA
ATOM     12  O   LIG d   1      10.665   4.493  -1.525  0.00  0.00    -0.422 OA
ATOM     13  C   LIG d   1      10.473   5.832  -1.561  0.00  0.00     0.146 A 
ATOM     14  C   LIG d   1      10.678   6.598  -0.427  0.00  0.00     0.035 A 
ATOM     15  H   LIG d   1       9.555   8.298  -3.735  0.00  0.00     0.063 H 
ENDROOT
BRANCH   9  16
ATOM     16  C   LIG d   1       9.861   3.381  -5.039  0.00  0.00    -0.012 C 
ATOM     17  H   LIG d   1      10.065   3.948  -5.960  0.00  0.00     0.032 H 
ATOM     18  H   LIG d   1      10.549   2.524  -4.976  0.00  0.00     0.032 H 
BRANCH  16  19
ATOM     19  C   LIG d   1       8.418   2.876  -5.059  0.00  0.00     0.028 C 
ATOM     20  H   LIG d   1       7.956   3.045  -4.076  0.00  0.00     0.036 H 
ATOM     21  H   LIG d   1       7.849   3.421  -5.829  0.00  0.00     0.036 H 
BRANCH  19  22
ATOM     22  C   LIG d   1       8.404   1.403  -5.374  0.00  0.00     0.216 C 
ATOM     23  O   LIG d   1       9.107   0.966  -6.261  0.00  0.00    -0.276 OA
ATOM     24  N   LIG d   1       7.612   0.570  -4.671  0.00  0.00    -0.290 N 
ATOM     25  C   LIG d   1       7.424  -0.867  -4.937  0.00  0.00     0.102 C 
ATOM     26  C   LIG d   1       6.786   0.947  -3.513  0.00  0.00     0.015 C 
ATOM     27  C   LIG d   1       6.979  -1.466  -3.577  0.00  0.00    -0.024 C 
ATOM     28  H   LIG d   1       6.704  -1.017  -5.755  0.00  0.00     0.060 H 
ATOM     29  C   LIG d   1       6.077  -0.332  -3.021  0.00  0.00    -0.035 C 
ATOM     30  H   LIG d   1       7.815  -1.642  -2.884  0.00  0.00     0.029 H 
ATOM     31  H   LIG d   1       6.388  -2.388  -3.680  0.00  0.00     0.029 H 
ATOM     32  H   LIG d   1       6.033  -0.327  -1.922  0.00  0.00     0.028 H 
ATOM     33  H   LIG d   1       5.056  -0.365  -3.429  0.00  0.00     0.028 H 
ATOM     34  H   LIG d   1       7.430   1.359  -2.723  0.00  0.00     0.046 H 
ATOM     35  H   LIG d   1       6.050   1.704  -3.819  0.00  0.00     0.046 H 
BRANCH  25  36
ATOM     36  C   LIG d   1       8.721  -1.491  -5.385  0.00  0.00     0.231 C 
ATOM     37  O   LIG d   1       8.789  -2.038  -6.465  0.00  0.00    -0.274 OA
ATOM     38  N   LIG d   1       9.805  -1.439  -4.586  0.00  0.00    -0.328 N 
ATOM     39  H   LIG d   1      10.752  -1.893  -4.914  0.00  0.00     0.145 HD
ATOM     40  H   LIG d   1       9.744  -0.941  -3.607  0.00  0.00     0.145 HD
ENDBRANCH  25  36
ENDBRANCH  19  22
ENDBRANCH  16  19
ENDBRANCH   9  16
BRANCH   8  41
ATOM     41  C   LIG d   1       9.415   6.225  -5.257  0.00  0.00    -0.039 C 
ATOM     42  H   LIG d   1      10.275   6.716  -5.738  0.00  0.00     0.028 H 
ATOM     43  H   LIG d   1       8.628   6.969  -5.068  0.00  0.00     0.028 H 
ATOM     44  H   LIG d   1       9.025   5.438  -5.918  0.00  0.00     0.028 H 
ENDBRANCH   8  41
BRANCH  14  45
ATOM     45  C   LIG d   1      11.115   5.940   0.857  0.00  0.00    -0.033 C 
ATOM     46  H   LIG d   1      10.564   4.999   0.992  0.00  0.00     0.028 H 
ATOM     47  H   LIG d   1      10.907   6.613   1.702  0.00  0.00     0.028 H 
ATOM     48  H   LIG d   1      12.194   5.731   0.812  0.00  0.00     0.028 H 
ENDBRANCH  14  45
BRANCH   1  49
ATOM     49  C   LIG d   1       9.558  11.119  -2.307  0.00  0.00    -0.036 C 
ATOM     50  H   LIG d   1      10.265  11.957  -2.218  0.00  0.00     0.028 H 
ATOM     51  H   LIG d   1       8.546  11.465  -2.053  0.00  0.00     0.028 H 
ATOM     52  H   LIG d   1       9.568  10.739  -3.339  0.00  0.00     0.028 H 
ENDBRANCH   1  49
BRANCH   2  53
ATOM     53  C   LIG d   1      10.327  11.450   0.684  0.00  0.00    -0.006 C 
ATOM     54  H   LIG d   1       9.303  11.732   0.968  0.00  0.00     0.031 H 
ATOM     55  H   LIG d   1      10.761  12.234   0.045  0.00  0.00     0.031 H 
ATOM     56  H   LIG d   1      10.940  11.334   1.590  0.00  0.00     0.031 H 
ENDBRANCH   2  53
TORSDOF 8
ENDMDL
MODEL 9
REMARK VINA RESULT:      -6.4      7.608     13.114
REMARK  8 active torsions:
REMARK  status: ('A' for Active; 'I' for Inactive)
REMARK    1  A    between atoms: C_1  and  C_2 
REMARK    2  A    between atoms: C_3  and  C_31 
REMARK    3  A    between atoms: C_9  and  C_30 
REMARK    4  A    between atoms: C_10  and  C_17 
REMARK    5  A    between atoms: C_15  and  C_16 
REMARK    6  A    between atoms: C_17  and  C_18 
REMARK    7  A    between atoms: C_18  and  C_19 
REMARK       I    between atoms: C_19  and  N_21 
REMARK    8  A    between atoms: C_25  and  C_27 
REMARK       I    between atoms: C_27  and  N_29 
ROOT
ATOM      1  C   LIG d   1       9.853   9.743  -5.654  0.00  0.00    -0.002 A 
ATOM      2  C   LIG d   1       9.880  10.266  -6.886  0.00  0.00     0.106 A 
ATOM      3  O   LIG d   1       9.826   9.288  -7.809  0.00  0.00    -0.459 OA
ATOM      4  C   LIG d   1       9.760   8.075  -7.224  0.00  0.00     0.142 A 
ATOM      5  C   LIG d   1       9.773   8.285  -5.829  0.00  0.00     0.024 A 
ATOM      6  C   LIG d   1       9.710   7.210  -4.955  0.00  0.00    -0.040 A 
ATOM      7  C   LIG d   1       9.644   5.914  -5.469  0.00  0.00     0.022 A 
ATOM      8  C   LIG d   1       9.581   4.755  -4.573  0.00  0.00    -0.030 A 
ATOM      9  C   LIG d   1       9.511   3.519  -5.129  0.00  0.00     0.041 A 
ATOM     10  C   LIG d   1       9.502   3.381  -6.532  0.00  0.00     0.341 A 
ATOM     11  O   LIG d   1       9.439   2.265  -7.018  0.00  0.00    -0.245 OA
ATOM     12  O   LIG d   1       9.560   4.444  -7.348  0.00  0.00    -0.422 OA
ATOM     13  C   LIG d   1       9.631   5.705  -6.863  0.00  0.00     0.146 A 
ATOM     14  C   LIG d   1       9.689   6.784  -7.726  0.00  0.00     0.035 A 
ATOM     15  H   LIG d   1       9.721   7.373  -3.887  0.00  0.00     0.063 H 
ENDROOT
BRANCH   9  16
ATOM     16  C   LIG d   1       9.444   2.297  -4.248  0.00  0.00    -0.012 C 
ATOM     17  H   LIG d   1       9.818   1.425  -4.804  0.00  0.00     0.032 H 
ATOM     18  H   LIG d   1      10.065   2.456  -3.354  0.00  0.00     0.032 H 
BRANCH  16  19
ATOM     19  C   LIG d   1       7.994   2.052  -3.826  0.00  0.00     0.028 C 
ATOM     20  H   LIG d   1       7.888   2.245  -2.749  0.00  0.00     0.036 H 
ATOM     21  H   LIG d   1       7.330   2.727  -4.386  0.00  0.00     0.036 H 
BRANCH  19  22
ATOM     22  C   LIG d   1       7.621   0.622  -4.119  0.00  0.00     0.216 C 
ATOM     23  O   LIG d   1       8.335  -0.059  -4.825  0.00  0.00    -0.276 OA
ATOM     24  N   LIG d   1       6.492   0.099  -3.599  0.00  0.00    -0.290 N 
ATOM     25  C   LIG d   1       5.956  -1.244  -3.885  0.00  0.00     0.102 C 
ATOM     26  C   LIG d   1       5.590   0.777  -2.657  0.00  0.00     0.015 C 
ATOM     27  C   LIG d   1       5.084  -1.591  -2.650  0.00  0.00    -0.024 C 
ATOM     28  H   LIG d   1       5.410  -1.246  -4.840  0.00  0.00     0.060 H 
ATOM     29  C   LIG d   1       4.455  -0.211  -2.319  0.00  0.00    -0.035 C 
ATOM     30  H   LIG d   1       5.670  -1.942  -1.788  0.00  0.00     0.029 H 
ATOM     31  H   LIG d   1       4.286  -2.315  -2.871  0.00  0.00     0.029 H 
ATOM     32  H   LIG d   1       4.185  -0.113  -1.257  0.00  0.00     0.028 H 
ATOM     33  H   LIG d   1       3.576   0.013  -2.942  0.00  0.00     0.028 H 
ATOM     34  H   LIG d   1       6.146   1.050  -1.748  0.00  0.00     0.046 H 
ATOM     35  H   LIG d   1       5.185   1.686  -3.125  0.00  0.00     0.046 H 
BRANCH  25  36
ATOM     36  C   LIG d   1       7.080  -2.237  -4.029  0.00  0.00     0.231 C 
ATOM     37  O   LIG d   1       7.191  -2.883  -5.049  0.00  0.00    -0.274 OA
ATOM     38  N   LIG d   1       7.964  -2.405  -3.025  0.00  0.00    -0.328 N 
ATOM     39  H   LIG d   1       8.785  -3.130  -3.130  0.00  0.00     0.145 HD
ATOM     40  H   LIG d   1       7.864  -1.818  -2.100  0.00  0.00     0.145 HD
ENDBRANCH  25  36
ENDBRANCH  19  22
ENDBRANCH  16  19
ENDBRANCH   9  16
BRANCH   8  41
ATOM     41  C   LIG d   1       9.593   4.932  -3.076  0.00  0.00    -0.039 C 
ATOM     42  H   LIG d   1       9.716   3.951  -2.593  0.00  0.00     0.028 H 
ATOM     43  H   LIG d   1       8.644   5.384  -2.753  0.00  0.00     0.028 H 
ATOM     44  H   LIG d   1      10.428   5.589  -2.792  0.00  0.00     0.028 H 
ENDBRANCH   8  41
BRANCH  14  45
ATOM     45  C   LIG d   1       9.675   6.557  -9.217  0.00  0.00    -0.033 C 
ATOM     46  H   LIG d   1      10.419   5.791  -9.477  0.00  0.00     0.028 H 
ATOM     47  H   LIG d   1       9.921   7.497  -9.733  0.00  0.00     0.028 H 
ATOM     48  H   LIG d   1       8.675   6.219  -9.526  0.00  0.00     0.028 H 
ENDBRANCH  14  45
BRANCH   1  49
ATOM     49  C   LIG d   1       9.896  10.496  -4.349  0.00  0.00    -0.036 C 
ATOM     50  H   LIG d   1      10.645  10.038  -3.686  0.00  0.00     0.028 H 
ATOM     51  H   LIG d   1       8.908  10.454  -3.870  0.00  0.00     0.028 H 
ATOM     52  H   LIG d   1      10.168  11.544  -4.540  0.00  0.00     0.028 H 
ENDBRANCH   1  49
BRANCH   2  53
ATOM     53  C   LIG d   1       9.961  11.738  -7.196  0.00  0.00    -0.006 C 
ATOM     54  H   LIG d   1       8.946  12.148  -7.293  0.00  0.00     0.031 H 
ATOM     55  H   LIG d   1      10.510  11.884  -8.138  0.00  0.00     0.031 H 
ATOM     56  H   LIG d   1      10.488  12.255  -6.380  0.00  0.00     0.031 H 
ENDBRANCH   2  53
TORSDOF 8
ENDMDL
MODEL 10
REMARK VINA RESULT:      -6.3      7.471     12.428
REMARK  8 active torsions:
REMARK  status: ('A' for Active; 'I' for Inactive)
REMARK    1  A    between atoms: C_1  and  C_2 
REMARK    2  A    between atoms: C_3  and  C_31 
REMARK    3  A    between atoms: C_9  and  C_30 
REMARK    4  A    between atoms: C_10  and  C_17 
REMARK    5  A    between atoms: C_15  and  C_16 
REMARK    6  A    between atoms: C_17  and  C_18 
REMARK    7  A    between atoms: C_18  and  C_19 
REMARK       I    between atoms: C_19  and  N_21 
REMARK    8  A    between atoms: C_25  and  C_27 
REMARK       I    between atoms: C_27  and  N_29 
ROOT
ATOM      1  C   LIG d   1       9.927   6.340 -10.409  0.00  0.00    -0.002 A 
ATOM      2  C   LIG d   1      10.142   7.661 -10.382  0.00  0.00     0.106 A 
ATOM      3  O   LIG d   1      10.209   8.098  -9.112  0.00  0.00    -0.459 OA
ATOM      4  C   LIG d   1      10.041   7.080  -8.242  0.00  0.00     0.142 A 
ATOM      5  C   LIG d   1       9.854   5.909  -9.005  0.00  0.00     0.024 A 
ATOM      6  C   LIG d   1       9.658   4.686  -8.380  0.00  0.00    -0.040 A 
ATOM      7  C   LIG d   1       9.639   4.626  -6.986  0.00  0.00     0.022 A 
ATOM      8  C   LIG d   1       9.431   3.351  -6.293  0.00  0.00    -0.030 A 
ATOM      9  C   LIG d   1       9.428   3.352  -4.936  0.00  0.00     0.041 A 
ATOM     10  C   LIG d   1       9.622   4.560  -4.235  0.00  0.00     0.341 A 
ATOM     11  O   LIG d   1       9.617   4.546  -3.017  0.00  0.00    -0.245 OA
ATOM     12  O   LIG d   1       9.812   5.725  -4.873  0.00  0.00    -0.422 OA
ATOM     13  C   LIG d   1       9.827   5.797  -6.224  0.00  0.00     0.146 A 
ATOM     14  C   LIG d   1      10.025   7.011  -6.857  0.00  0.00     0.035 A 
ATOM     15  H   LIG d   1       9.514   3.790  -8.967  0.00  0.00     0.063 H 
ENDROOT
BRANCH   9  16
ATOM     16  C   LIG d   1       9.218   2.064  -4.180  0.00  0.00    -0.012 C 
ATOM     17  H   LIG d   1       9.533   1.217  -4.807  0.00  0.00     0.032 H 
ATOM     18  H   LIG d   1       9.816   2.080  -3.257  0.00  0.00     0.032 H 
BRANCH  16  19
ATOM     19  C   LIG d   1       7.738   1.916  -3.827  0.00  0.00     0.028 C 
ATOM     20  H   LIG d   1       7.585   2.177  -2.770  0.00  0.00     0.036 H 
ATOM     21  H   LIG d   1       7.140   2.589  -4.460  0.00  0.00     0.036 H 
BRANCH  19  22
ATOM     22  C   LIG d   1       7.305   0.492  -4.060  0.00  0.00     0.216 C 
ATOM     23  O   LIG d   1       7.954  -0.226  -4.791  0.00  0.00    -0.276 OA
ATOM     24  N   LIG d   1       6.198   0.015  -3.457  0.00  0.00    -0.290 N 
ATOM     25  C   LIG d   1       5.607  -1.317  -3.673  0.00  0.00     0.102 C 
ATOM     26  C   LIG d   1       5.377   0.742  -2.476  0.00  0.00     0.015 C 
ATOM     27  C   LIG d   1       4.805  -1.609  -2.378  0.00  0.00    -0.024 C 
ATOM     28  H   LIG d   1       5.001  -1.325  -4.592  0.00  0.00     0.060 H 
ATOM     29  C   LIG d   1       4.238  -0.204  -2.043  0.00  0.00    -0.035 C 
ATOM     30  H   LIG d   1       5.435  -1.958  -1.546  0.00  0.00     0.029 H 
ATOM     31  H   LIG d   1       3.975  -2.314  -2.530  0.00  0.00     0.029 H 
ATOM     32  H   LIG d   1       4.040  -0.073  -0.969  0.00  0.00     0.028 H 
ATOM     33  H   LIG d   1       3.328   0.033  -2.615  0.00  0.00     0.028 H 
ATOM     34  H   LIG d   1       5.998   1.019  -1.612  0.00  0.00     0.046 H 
ATOM     35  H   LIG d   1       4.969   1.651  -2.941  0.00  0.00     0.046 H 
BRANCH  25  36
ATOM     36  C   LIG d   1       6.691  -2.347  -3.863  0.00  0.00     0.231 C 
ATOM     37  O   LIG d   1       6.626  -3.132  -4.785  0.00  0.00    -0.274 OA
ATOM     38  N   LIG d   1       7.732  -2.394  -3.009  0.00  0.00    -0.328 N 
ATOM     39  H   LIG d   1       8.524  -3.145  -3.148  0.00  0.00     0.145 HD
ATOM     40  H   LIG d   1       7.791  -1.681  -2.173  0.00  0.00     0.145 HD
ENDBRANCH  25  36
ENDBRANCH  19  22
ENDBRANCH  16  19
ENDBRANCH   9  16
BRANCH   8  41
ATOM     41  C   LIG d   1       9.225   2.074  -7.067  0.00  0.00    -0.039 C 
ATOM     42  H   LIG d   1       9.440   1.213  -6.417  0.00  0.00     0.028 H 
ATOM     43  H   LIG d   1       9.902   2.057  -7.934  0.00  0.00     0.028 H 
ATOM     44  H   LIG d   1       8.183   2.021  -7.415  0.00  0.00     0.028 H 
ENDBRANCH   8  41
BRANCH  14  45
ATOM     45  C   LIG d   1      10.226   8.262  -6.040  0.00  0.00    -0.033 C 
ATOM     46  H   LIG d   1       9.270   8.799  -5.952  0.00  0.00     0.028 H 
ATOM     47  H   LIG d   1      10.966   8.909  -6.534  0.00  0.00     0.028 H 
ATOM     48  H   LIG d   1      10.588   7.990  -5.037  0.00  0.00     0.028 H 
ENDBRANCH  14  45
BRANCH   1  49
ATOM     49  C   LIG d   1       9.789   5.469 -11.631  0.00  0.00    -0.036 C 
ATOM     50  H   LIG d   1      10.584   5.719 -12.350  0.00  0.00     0.028 H 
ATOM     51  H   LIG d   1       8.807   5.643 -12.095  0.00  0.00     0.028 H 
ATOM     52  H   LIG d   1       9.877   4.413 -11.340  0.00  0.00     0.028 H 
ENDBRANCH   1  49
BRANCH   2  53
ATOM     53  C   LIG d   1      10.287   8.535 -11.601  0.00  0.00    -0.006 C 
ATOM     54  H   LIG d   1       9.315   8.987 -11.846  0.00  0.00     0.031 H 
ATOM     55  H   LIG d   1      10.634   7.926 -12.449  0.00  0.00     0.031 H 
ATOM     56  H   LIG d   1      11.019   9.330 -11.396  0.00  0.00     0.031 H 
ENDBRANCH   2  53
TORSDOF 8
ENDMDL
