MODEL 1
REMARK VINA RESULT:      -5.5      0.000      0.000
REMARK  12 active torsions:
REMARK  status: ('A' for Active; 'I' for Inactive)
REMARK    1  A    between atoms: C_1  and  O_2 
REMARK    2  A    between atoms: O_2  and  C_3 
REMARK    3  A    between atoms: C_3  and  C_4 
REMARK    4  A    between atoms: C_4  and  N_5 
REMARK    5  A    between atoms: N_5  and  C_6 
REMARK    6  A    between atoms: N_5  and  C_10 
REMARK    7  A    between atoms: C_6  and  C_7 
REMARK    8  A    between atoms: C_7  and  O_8 
REMARK    9  A    between atoms: O_8  and  C_9 
REMARK   10  A    between atoms: C_10  and  C_11 
REMARK   11  A    between atoms: C_12  and  O_30 
REMARK   12  A    between atoms: C_20  and  C_23 
ROOT
ATOM      1  C   LIG d   1       7.283  -2.901  -5.004  0.00  0.00     0.081 A 
ATOM      2  C   LIG d   1       8.631  -2.675  -4.776  0.00  0.00     0.129 A 
ATOM      3  C   LIG d   1       9.528  -3.740  -4.717  0.00  0.00    -0.019 A 
ATOM      4  C   LIG d   1       9.089  -5.021  -4.885  0.00  0.00    -0.048 A 
ATOM      5  C   LIG d   1       7.732  -5.267  -5.115  0.00  0.00     0.011 A 
ATOM      6  C   LIG d   1       6.820  -4.198  -5.176  0.00  0.00     0.150 A 
ATOM      7  O   LIG d   1       5.510  -4.434  -5.398  0.00  0.00    -0.421 OA
ATOM      8  C   LIG d   1       5.031  -5.675  -5.573  0.00  0.00     0.344 A 
ATOM      9  O   LIG d   1       3.840  -5.828  -5.777  0.00  0.00    -0.244 OA
ATOM     10  C   LIG d   1       5.873  -6.808  -5.524  0.00  0.00     0.059 A 
ATOM     11  C   LIG d   1       7.234  -6.636  -5.297  0.00  0.00    -0.083 A 
ATOM     12  O   LIG d   1       8.073  -7.696  -5.247  0.00  0.00    -0.873 OA
ATOM     13  H   LIG d   1      10.576  -3.550  -4.539  0.00  0.00     0.065 H 
ATOM     14  H   LIG d   1       9.787  -5.844  -4.839  0.00  0.00     0.063 H 
ENDROOT
BRANCH   1  15
ATOM     15  C   LIG d   1       6.322  -1.741  -5.065  0.00  0.00     0.001 C 
ATOM     16  H   LIG d   1       5.815  -1.737  -6.041  0.00  0.00     0.087 H 
ATOM     17  H   LIG d   1       6.876  -0.800  -4.936  0.00  0.00     0.087 H 
BRANCH  15  18
ATOM     18  N   LIG d   1       5.325  -1.876  -3.995  0.00  0.00     0.242 N 
ATOM     19  H   LIG d   1       5.287  -2.934  -3.698  0.00  0.00     0.204 HD
BRANCH  18  20
ATOM     20  C   LIG d   1       5.711  -1.090  -2.814  0.00  0.00    -0.007 C 
ATOM     21  H   LIG d   1       6.462  -1.646  -2.234  0.00  0.00     0.084 H 
ATOM     22  H   LIG d   1       4.824  -0.909  -2.190  0.00  0.00     0.084 H 
BRANCH  20  23
ATOM     23  C   LIG d   1       6.300   0.249  -3.263  0.00  0.00     0.087 C 
ATOM     24  H   LIG d   1       6.209   0.341  -4.356  0.00  0.00     0.061 H 
ATOM     25  H   LIG d   1       7.362   0.294  -2.980  0.00  0.00     0.061 H 
BRANCH  23  26
ATOM     26  O   LIG d   1       5.592   1.317  -2.633  0.00  0.00    -0.378 OA
BRANCH  26  27
ATOM     27  C   LIG d   1       4.615   0.885  -1.682  0.00  0.00     0.037 C 
ATOM     28  H   LIG d   1       4.058   0.030  -2.091  0.00  0.00     0.052 H 
ATOM     29  H   LIG d   1       3.918   1.710  -1.473  0.00  0.00     0.052 H 
ATOM     30  H   LIG d   1       5.118   0.586  -0.751  0.00  0.00     0.052 H 
ENDBRANCH  26  27
ENDBRANCH  23  26
ENDBRANCH  20  23
ENDBRANCH  18  20
BRANCH  18  31
ATOM     31  C   LIG d   1       3.989  -1.491  -4.470  0.00  0.00    -0.007 C 
ATOM     32  H   LIG d   1       3.355  -2.386  -4.545  0.00  0.00     0.084 H 
ATOM     33  H   LIG d   1       3.539  -0.781  -3.762  0.00  0.00     0.084 H 
BRANCH  31  34
ATOM     34  C   LIG d   1       4.107  -0.833  -5.846  0.00  0.00     0.087 C 
ATOM     35  H   LIG d   1       5.168  -0.755  -6.125  0.00  0.00     0.061 H 
ATOM     36  H   LIG d   1       3.576  -1.444  -6.592  0.00  0.00     0.061 H 
BRANCH  34  37
ATOM     37  O   LIG d   1       3.529   0.473  -5.801  0.00  0.00    -0.378 OA
BRANCH  37  38
ATOM     38  C   LIG d   1       2.525   0.630  -4.797  0.00  0.00     0.037 C 
ATOM     39  H   LIG d   1       1.535   0.686  -5.274  0.00  0.00     0.052 H 
ATOM     40  H   LIG d   1       2.713   1.555  -4.231  0.00  0.00     0.052 H 
ATOM     41  H   LIG d   1       2.553  -0.230  -4.112  0.00  0.00     0.052 H 
ENDBRANCH  37  38
ENDBRANCH  34  37
ENDBRANCH  31  34
ENDBRANCH  18  31
ENDBRANCH  15  18
ENDBRANCH   1  15
BRANCH   2  42
ATOM     42  O   LIG d   1       9.082  -1.405  -4.609  0.00  0.00    -0.506 OA
ATOM     43  H   LIG d   1       9.225  -0.754  -5.484  0.00  0.00     0.292 HD
ENDBRANCH   2  42
BRANCH  10  44
ATOM     44  C   LIG d   1       5.312  -8.166  -5.715  0.00  0.00    -0.011 A 
ATOM     45  C   LIG d   1       4.919  -8.923  -4.611  0.00  0.00    -0.052 A 
ATOM     46  C   LIG d   1       4.392 -10.185  -4.795  0.00  0.00    -0.043 A 
ATOM     47  H   LIG d   1       5.027  -8.522  -3.614  0.00  0.00     0.062 H 
ATOM     48  C   LIG d   1       4.252 -10.699  -6.073  0.00  0.00     0.041 A 
ATOM     49  H   LIG d   1       4.087 -10.772  -3.942  0.00  0.00     0.063 H 
ATOM     50  C   LIG d   1       4.642  -9.952  -7.173  0.00  0.00    -0.043 A 
ATOM     51 CL   LIG d   1       3.587 -12.287  -6.298  0.00  0.00    -0.084 Cl
ATOM     52  C   LIG d   1       5.169  -8.689  -6.999  0.00  0.00    -0.052 A 
ATOM     53  H   LIG d   1       4.531 -10.358  -8.167  0.00  0.00     0.063 H 
ATOM     54  H   LIG d   1       5.473  -8.108  -7.858  0.00  0.00     0.062 H 
ENDBRANCH  10  44
TORSDOF 12
ENDMDL
MODEL 2
REMARK VINA RESULT:      -5.3      4.716      6.740
REMARK  12 active torsions:
REMARK  status: ('A' for Active; 'I' for Inactive)
REMARK    1  A    between atoms: C_1  and  O_2 
REMARK    2  A    between atoms: O_2  and  C_3 
REMARK    3  A    between atoms: C_3  and  C_4 
REMARK    4  A    between atoms: C_4  and  N_5 
REMARK    5  A    between atoms: N_5  and  C_6 
REMARK    6  A    between atoms: N_5  and  C_10 
REMARK    7  A    between atoms: C_6  and  C_7 
REMARK    8  A    between atoms: C_7  and  O_8 
REMARK    9  A    between atoms: O_8  and  C_9 
REMARK   10  A    between atoms: C_10  and  C_11 
REMARK   11  A    between atoms: C_12  and  O_30 
REMARK   12  A    between atoms: C_20  and  C_23 
ROOT
ATOM      1  C   LIG d   1       7.546   0.290  -6.138  0.00  0.00     0.081 A 
ATOM      2  C   LIG d   1       8.421   1.347  -6.332  0.00  0.00     0.129 A 
ATOM      3  C   LIG d   1       8.297   2.173  -7.446  0.00  0.00    -0.019 A 
ATOM      4  C   LIG d   1       7.311   1.952  -8.363  0.00  0.00    -0.048 A 
ATOM      5  C   LIG d   1       6.420   0.889  -8.183  0.00  0.00     0.011 A 
ATOM      6  C   LIG d   1       6.538   0.050  -7.061  0.00  0.00     0.150 A 
ATOM      7  O   LIG d   1       5.679  -0.976  -6.886  0.00  0.00    -0.421 OA
ATOM      8  C   LIG d   1       4.691  -1.232  -7.756  0.00  0.00     0.344 A 
ATOM      9  O   LIG d   1       3.941  -2.168  -7.545  0.00  0.00    -0.244 OA
ATOM     10  C   LIG d   1       4.501  -0.445  -8.914  0.00  0.00     0.059 A 
ATOM     11  C   LIG d   1       5.351   0.629  -9.155  0.00  0.00    -0.083 A 
ATOM     12  O   LIG d   1       5.198   1.408 -10.250  0.00  0.00    -0.873 OA
ATOM     13  H   LIG d   1       8.985   2.994  -7.585  0.00  0.00     0.065 H 
ATOM     14  H   LIG d   1       7.218   2.595  -9.226  0.00  0.00     0.063 H 
ENDROOT
BRANCH   1  15
ATOM     15  C   LIG d   1       7.690  -0.598  -4.928  0.00  0.00     0.001 C 
ATOM     16  H   LIG d   1       8.495  -0.213  -4.286  0.00  0.00     0.087 H 
ATOM     17  H   LIG d   1       7.934  -1.620  -5.251  0.00  0.00     0.087 H 
BRANCH  15  18
ATOM     18  N   LIG d   1       6.427  -0.608  -4.176  0.00  0.00     0.242 N 
ATOM     19  H   LIG d   1       5.601  -0.563  -4.901  0.00  0.00     0.204 HD
BRANCH  18  20
ATOM     20  C   LIG d   1       6.284  -1.851  -3.405  0.00  0.00    -0.007 C 
ATOM     21  H   LIG d   1       5.828  -1.627  -2.430  0.00  0.00     0.084 H 
ATOM     22  H   LIG d   1       7.275  -2.303  -3.252  0.00  0.00     0.084 H 
BRANCH  20  23
ATOM     23  C   LIG d   1       5.392  -2.828  -4.173  0.00  0.00     0.087 C 
ATOM     24  H   LIG d   1       5.714  -3.860  -3.964  0.00  0.00     0.061 H 
ATOM     25  H   LIG d   1       5.477  -2.630  -5.252  0.00  0.00     0.061 H 
BRANCH  23  26
ATOM     26  O   LIG d   1       4.036  -2.659  -3.761  0.00  0.00    -0.378 OA
BRANCH  26  27
ATOM     27  C   LIG d   1       3.886  -2.298  -2.386  0.00  0.00     0.037 C 
ATOM     28  H   LIG d   1       2.846  -2.470  -2.073  0.00  0.00     0.052 H 
ATOM     29  H   LIG d   1       4.137  -1.235  -2.257  0.00  0.00     0.052 H 
ATOM     30  H   LIG d   1       4.561  -2.911  -1.771  0.00  0.00     0.052 H 
ENDBRANCH  26  27
ENDBRANCH  23  26
ENDBRANCH  20  23
ENDBRANCH  18  20
BRANCH  18  31
ATOM     31  C   LIG d   1       6.326   0.568  -3.302  0.00  0.00    -0.007 C 
ATOM     32  H   LIG d   1       6.675   0.305  -2.292  0.00  0.00     0.084 H 
ATOM     33  H   LIG d   1       6.949   1.379  -3.705  0.00  0.00     0.084 H 
BRANCH  31  34
ATOM     34  C   LIG d   1       4.869   1.029  -3.233  0.00  0.00     0.087 C 
ATOM     35  H   LIG d   1       4.360   0.512  -2.406  0.00  0.00     0.061 H 
ATOM     36  H   LIG d   1       4.835   2.116  -3.064  0.00  0.00     0.061 H 
BRANCH  34  37
ATOM     37  O   LIG d   1       4.213   0.719  -4.465  0.00  0.00    -0.378 OA
BRANCH  37  38
ATOM     38  C   LIG d   1       2.794   0.600  -4.353  0.00  0.00     0.037 C 
ATOM     39  H   LIG d   1       2.525  -0.455  -4.197  0.00  0.00     0.052 H 
ATOM     40  H   LIG d   1       2.320   0.967  -5.276  0.00  0.00     0.052 H 
ATOM     41  H   LIG d   1       2.441   1.198  -3.499  0.00  0.00     0.052 H 
ENDBRANCH  37  38
ENDBRANCH  34  37
ENDBRANCH  31  34
ENDBRANCH  18  31
ENDBRANCH  15  18
ENDBRANCH   1  15
BRANCH   2  42
ATOM     42  O   LIG d   1       9.406   1.580  -5.426  0.00  0.00    -0.506 OA
ATOM     43  H   LIG d   1       9.202   1.465  -4.351  0.00  0.00     0.292 HD
ENDBRANCH   2  42
BRANCH  10  44
ATOM     44  C   LIG d   1       3.403  -0.757  -9.859  0.00  0.00    -0.011 A 
ATOM     45  C   LIG d   1       2.113  -0.285  -9.615  0.00  0.00    -0.052 A 
ATOM     46  C   LIG d   1       1.096  -0.575 -10.501  0.00  0.00    -0.043 A 
ATOM     47  H   LIG d   1       1.911   0.307  -8.734  0.00  0.00     0.062 H 
ATOM     48  C   LIG d   1       1.354  -1.333 -11.631  0.00  0.00     0.041 A 
ATOM     49  H   LIG d   1       0.098  -0.209 -10.314  0.00  0.00     0.063 H 
ATOM     50  C   LIG d   1       2.632  -1.805 -11.877  0.00  0.00    -0.043 A 
ATOM     51 CL   LIG d   1       0.070  -1.693 -12.742  0.00  0.00    -0.084 Cl
ATOM     52  C   LIG d   1       3.656  -1.520 -10.998  0.00  0.00    -0.052 A 
ATOM     53  H   LIG d   1       2.828  -2.396 -12.760  0.00  0.00     0.063 H 
ATOM     54  H   LIG d   1       4.653  -1.889 -11.192  0.00  0.00     0.062 H 
ENDBRANCH  10  44
TORSDOF 12
ENDMDL
MODEL 3
REMARK VINA RESULT:      -5.2      6.667      9.680
REMARK  12 active torsions:
REMARK  status: ('A' for Active; 'I' for Inactive)
REMARK    1  A    between atoms: C_1  and  O_2 
REMARK    2  A    between atoms: O_2  and  C_3 
REMARK    3  A    between atoms: C_3  and  C_4 
REMARK    4  A    between atoms: C_4  and  N_5 
REMARK    5  A    between atoms: N_5  and  C_6 
REMARK    6  A    between atoms: N_5  and  C_10 
REMARK    7  A    between atoms: C_6  and  C_7 
REMARK    8  A    between atoms: C_7  and  O_8 
REMARK    9  A    between atoms: O_8  and  C_9 
REMARK   10  A    between atoms: C_10  and  C_11 
REMARK   11  A    between atoms: C_12  and  O_30 
REMARK   12  A    between atoms: C_20  and  C_23 
ROOT
ATOM      1  C   LIG d   1       6.431   0.008  -7.471  0.00  0.00     0.081 A 
ATOM      2  C   LIG d   1       6.608  -0.071  -8.844  0.00  0.00     0.129 A 
ATOM      3  C   LIG d   1       7.567   0.713  -9.480  0.00  0.00    -0.019 A 
ATOM      4  C   LIG d   1       8.346   1.571  -8.760  0.00  0.00    -0.048 A 
ATOM      5  C   LIG d   1       8.180   1.664  -7.374  0.00  0.00     0.011 A 
ATOM      6  C   LIG d   1       7.214   0.875  -6.724  0.00  0.00     0.150 A 
ATOM      7  O   LIG d   1       7.053   0.964  -5.387  0.00  0.00    -0.421 OA
ATOM      8  C   LIG d   1       7.797   1.789  -4.634  0.00  0.00     0.344 A 
ATOM      9  O   LIG d   1       7.612   1.823  -3.430  0.00  0.00    -0.244 OA
ATOM     10  C   LIG d   1       8.787   2.621  -5.203  0.00  0.00     0.059 A 
ATOM     11  C   LIG d   1       9.004   2.580  -6.576  0.00  0.00    -0.083 A 
ATOM     12  O   LIG d   1       9.945   3.358  -7.157  0.00  0.00    -0.873 OA
ATOM     13  H   LIG d   1       7.695   0.641 -10.550  0.00  0.00     0.065 H 
ATOM     14  H   LIG d   1       9.088   2.177  -9.257  0.00  0.00     0.063 H 
ENDROOT
BRANCH   1  15
ATOM     15  C   LIG d   1       5.390  -0.846  -6.793  0.00  0.00     0.001 C 
ATOM     16  H   LIG d   1       5.839  -1.352  -5.927  0.00  0.00     0.087 H 
ATOM     17  H   LIG d   1       5.013  -1.597  -7.502  0.00  0.00     0.087 H 
BRANCH  15  18
ATOM     18  N   LIG d   1       4.279   0.003  -6.342  0.00  0.00     0.242 N 
ATOM     19  H   LIG d   1       4.629   1.046  -6.341  0.00  0.00     0.204 HD
BRANCH  18  20
ATOM     20  C   LIG d   1       3.138  -0.089  -7.264  0.00  0.00    -0.007 C 
ATOM     21  H   LIG d   1       2.205  -0.164  -6.686  0.00  0.00     0.084 H 
ATOM     22  H   LIG d   1       3.251  -0.981  -7.898  0.00  0.00     0.084 H 
BRANCH  20  23
ATOM     23  C   LIG d   1       3.093   1.160  -8.146  0.00  0.00     0.087 C 
ATOM     24  H   LIG d   1       3.879   1.862  -7.828  0.00  0.00     0.061 H 
ATOM     25  H   LIG d   1       2.109   1.643  -8.045  0.00  0.00     0.061 H 
BRANCH  23  26
ATOM     26  O   LIG d   1       3.306   0.790  -9.508  0.00  0.00    -0.378 OA
BRANCH  26  27
ATOM     27  C   LIG d   1       3.782   1.857 -10.333  0.00  0.00     0.037 C 
ATOM     28  H   LIG d   1       2.930   2.457 -10.684  0.00  0.00     0.052 H 
ATOM     29  H   LIG d   1       4.318   1.440 -11.198  0.00  0.00     0.052 H 
ATOM     30  H   LIG d   1       4.465   2.493  -9.751  0.00  0.00     0.052 H 
ENDBRANCH  26  27
ENDBRANCH  23  26
ENDBRANCH  20  23
ENDBRANCH  18  20
BRANCH  18  31
ATOM     31  C   LIG d   1       3.877  -0.340  -4.971  0.00  0.00    -0.007 C 
ATOM     32  H   LIG d   1       3.519  -1.380  -4.944  0.00  0.00     0.084 H 
ATOM     33  H   LIG d   1       4.739  -0.232  -4.299  0.00  0.00     0.084 H 
BRANCH  31  34
ATOM     34  C   LIG d   1       2.756   0.597  -4.519  0.00  0.00     0.087 C 
ATOM     35  H   LIG d   1       2.211   0.968  -5.399  0.00  0.00     0.061 H 
ATOM     36  H   LIG d   1       2.063   0.049  -3.862  0.00  0.00     0.061 H 
BRANCH  34  37
ATOM     37  O   LIG d   1       3.316   1.701  -3.805  0.00  0.00    -0.378 OA
BRANCH  37  38
ATOM     38  C   LIG d   1       3.900   1.346  -2.550  0.00  0.00     0.037 C 
ATOM     39  H   LIG d   1       3.911   0.251  -2.448  0.00  0.00     0.052 H 
ATOM     40  H   LIG d   1       3.309   1.785  -1.733  0.00  0.00     0.052 H 
ATOM     41  H   LIG d   1       4.930   1.729  -2.503  0.00  0.00     0.052 H 
ENDBRANCH  37  38
ENDBRANCH  34  37
ENDBRANCH  31  34
ENDBRANCH  18  31
ENDBRANCH  15  18
ENDBRANCH   1  15
BRANCH   2  42
ATOM     42  O   LIG d   1       5.840  -0.922  -9.573  0.00  0.00    -0.506 OA
ATOM     43  H   LIG d   1       4.953  -0.545 -10.102  0.00  0.00     0.292 HD
ENDBRANCH   2  42
BRANCH  10  44
ATOM     44  C   LIG d   1       9.588   3.525  -4.345  0.00  0.00    -0.011 A 
ATOM     45  C   LIG d   1      10.687   3.031  -3.642  0.00  0.00    -0.052 A 
ATOM     46  C   LIG d   1      11.432   3.879  -2.848  0.00  0.00    -0.043 A 
ATOM     47  H   LIG d   1      10.954   1.988  -3.718  0.00  0.00     0.062 H 
ATOM     48  C   LIG d   1      11.091   5.217  -2.749  0.00  0.00     0.041 A 
ATOM     49  H   LIG d   1      12.283   3.498  -2.304  0.00  0.00     0.063 H 
ATOM     50  C   LIG d   1      10.000   5.712  -3.445  0.00  0.00    -0.043 A 
ATOM     51 CL   LIG d   1      12.033   6.278  -1.750  0.00  0.00    -0.084 Cl
ATOM     52  C   LIG d   1       9.249   4.873  -4.242  0.00  0.00    -0.052 A 
ATOM     53  H   LIG d   1       9.738   6.757  -3.364  0.00  0.00     0.063 H 
ATOM     54  H   LIG d   1       8.398   5.261  -4.784  0.00  0.00     0.062 H 
ENDBRANCH  10  44
TORSDOF 12
ENDMDL
MODEL 4
REMARK VINA RESULT:      -5.2      3.467      7.382
REMARK  12 active torsions:
REMARK  status: ('A' for Active; 'I' for Inactive)
REMARK    1  A    between atoms: C_1  and  O_2 
REMARK    2  A    between atoms: O_2  and  C_3 
REMARK    3  A    between atoms: C_3  and  C_4 
REMARK    4  A    between atoms: C_4  and  N_5 
REMARK    5  A    between atoms: N_5  and  C_6 
REMARK    6  A    between atoms: N_5  and  C_10 
REMARK    7  A    between atoms: C_6  and  C_7 
REMARK    8  A    between atoms: C_7  and  O_8 
REMARK    9  A    between atoms: O_8  and  C_9 
REMARK   10  A    between atoms: C_10  and  C_11 
REMARK   11  A    between atoms: C_12  and  O_30 
REMARK   12  A    between atoms: C_20  and  C_23 
ROOT
ATOM      1  C   LIG d   1       7.496  -6.897  -6.569  0.00  0.00     0.081 A 
ATOM      2  C   LIG d   1       8.805  -7.293  -6.345  0.00  0.00     0.129 A 
ATOM      3  C   LIG d   1       9.632  -6.558  -5.499  0.00  0.00    -0.019 A 
ATOM      4  C   LIG d   1       9.163  -5.437  -4.877  0.00  0.00    -0.048 A 
ATOM      5  C   LIG d   1       7.844  -5.024  -5.093  0.00  0.00     0.011 A 
ATOM      6  C   LIG d   1       7.003  -5.760  -5.946  0.00  0.00     0.150 A 
ATOM      7  O   LIG d   1       5.730  -5.362  -6.154  0.00  0.00    -0.421 OA
ATOM      8  C   LIG d   1       5.221  -4.271  -5.563  0.00  0.00     0.344 A 
ATOM      9  O   LIG d   1       4.063  -3.962  -5.783  0.00  0.00    -0.244 OA
ATOM     10  C   LIG d   1       5.995  -3.468  -4.695  0.00  0.00     0.059 A 
ATOM     11  C   LIG d   1       7.315  -3.822  -4.437  0.00  0.00    -0.083 A 
ATOM     12  O   LIG d   1       8.086  -3.082  -3.608  0.00  0.00    -0.873 OA
ATOM     13  H   LIG d   1      10.651  -6.878  -5.332  0.00  0.00     0.065 H 
ATOM     14  H   LIG d   1       9.807  -4.871  -4.221  0.00  0.00     0.063 H 
ENDROOT
BRANCH   1  15
ATOM     15  C   LIG d   1       6.611  -7.700  -7.487  0.00  0.00     0.001 C 
ATOM     16  H   LIG d   1       7.147  -8.602  -7.817  0.00  0.00     0.087 H 
ATOM     17  H   LIG d   1       6.343  -7.091  -8.363  0.00  0.00     0.087 H 
BRANCH  15  18
ATOM     18  N   LIG d   1       5.389  -8.092  -6.770  0.00  0.00     0.242 N 
ATOM     19  H   LIG d   1       5.108  -7.264  -6.103  0.00  0.00     0.204 HD
BRANCH  18  20
ATOM     20  C   LIG d   1       4.278  -8.314  -7.706  0.00  0.00    -0.007 C 
ATOM     21  H   LIG d   1       3.331  -8.349  -7.148  0.00  0.00     0.084 H 
ATOM     22  H   LIG d   1       4.429  -9.268  -8.233  0.00  0.00     0.084 H 
BRANCH  20  23
ATOM     23  C   LIG d   1       4.231  -7.172  -8.722  0.00  0.00     0.087 C 
ATOM     24  H   LIG d   1       4.034  -7.581  -9.725  0.00  0.00     0.061 H 
ATOM     25  H   LIG d   1       5.196  -6.645  -8.726  0.00  0.00     0.061 H 
BRANCH  23  26
ATOM     26  O   LIG d   1       3.190  -6.261  -8.367  0.00  0.00    -0.378 OA
BRANCH  26  27
ATOM     27  C   LIG d   1       3.290  -4.986  -9.004  0.00  0.00     0.037 C 
ATOM     28  H   LIG d   1       4.219  -4.942  -9.592  0.00  0.00     0.052 H 
ATOM     29  H   LIG d   1       3.301  -4.194  -8.241  0.00  0.00     0.052 H 
ATOM     30  H   LIG d   1       2.426  -4.840  -9.671  0.00  0.00     0.052 H 
ENDBRANCH  26  27
ENDBRANCH  23  26
ENDBRANCH  20  23
ENDBRANCH  18  20
BRANCH  18  31
ATOM     31  C   LIG d   1       5.625  -9.281  -5.941  0.00  0.00    -0.007 C 
ATOM     32  H   LIG d   1       5.113 -10.146  -6.387  0.00  0.00     0.084 H 
ATOM     33  H   LIG d   1       6.704  -9.482  -5.886  0.00  0.00     0.084 H 
BRANCH  31  34
ATOM     34  C   LIG d   1       5.080  -9.037  -4.533  0.00  0.00     0.087 C 
ATOM     35  H   LIG d   1       5.735  -9.525  -3.796  0.00  0.00     0.061 H 
ATOM     36  H   LIG d   1       5.048  -7.955  -4.334  0.00  0.00     0.061 H 
BRANCH  34  37
ATOM     37  O   LIG d   1       3.762  -9.579  -4.431  0.00  0.00    -0.378 OA
BRANCH  37  38
ATOM     38  C   LIG d   1       3.482 -10.196  -3.173  0.00  0.00     0.037 C 
ATOM     39  H   LIG d   1       2.613 -10.862  -3.277  0.00  0.00     0.052 H 
ATOM     40  H   LIG d   1       3.264  -9.421  -2.424  0.00  0.00     0.052 H 
ATOM     41  H   LIG d   1       4.356 -10.782  -2.850  0.00  0.00     0.052 H 
ENDBRANCH  37  38
ENDBRANCH  34  37
ENDBRANCH  31  34
ENDBRANCH  18  31
ENDBRANCH  15  18
ENDBRANCH   1  15
BRANCH   2  42
ATOM     42  O   LIG d   1       9.286  -8.407  -6.956  0.00  0.00    -0.506 OA
ATOM     43  H   LIG d   1       8.751  -9.363  -6.854  0.00  0.00     0.292 HD
ENDBRANCH   2  42
BRANCH  10  44
ATOM     44  C   LIG d   1       5.405  -2.266  -4.063  0.00  0.00    -0.011 A 
ATOM     45  C   LIG d   1       4.600  -2.394  -2.930  0.00  0.00    -0.052 A 
ATOM     46  C   LIG d   1       4.057  -1.270  -2.342  0.00  0.00    -0.043 A 
ATOM     47  H   LIG d   1       4.403  -3.371  -2.513  0.00  0.00     0.062 H 
ATOM     48  C   LIG d   1       4.309  -0.017  -2.874  0.00  0.00     0.041 A 
ATOM     49  H   LIG d   1       3.435  -1.367  -1.465  0.00  0.00     0.063 H 
ATOM     50  C   LIG d   1       5.106   0.116  -4.000  0.00  0.00    -0.043 A 
ATOM     51 CL   LIG d   1       3.624   1.393  -2.130  0.00  0.00    -0.084 Cl
ATOM     52  C   LIG d   1       5.655  -1.002  -4.595  0.00  0.00    -0.052 A 
ATOM     53  H   LIG d   1       5.299   1.095  -4.411  0.00  0.00     0.063 H 
ATOM     54  H   LIG d   1       6.276  -0.896  -5.472  0.00  0.00     0.062 H 
ENDBRANCH  10  44
TORSDOF 12
ENDMDL
MODEL 5
REMARK VINA RESULT:      -5.2      5.286      8.792
REMARK  12 active torsions:
REMARK  status: ('A' for Active; 'I' for Inactive)
REMARK    1  A    between atoms: C_1  and  O_2 
REMARK    2  A    between atoms: O_2  and  C_3 
REMARK    3  A    between atoms: C_3  and  C_4 
REMARK    4  A    between atoms: C_4  and  N_5 
REMARK    5  A    between atoms: N_5  and  C_6 
REMARK    6  A    between atoms: N_5  and  C_10 
REMARK    7  A    between atoms: C_6  and  C_7 
REMARK    8  A    between atoms: C_7  and  O_8 
REMARK    9  A    between atoms: O_8  and  C_9 
REMARK   10  A    between atoms: C_10  and  C_11 
REMARK   11  A    between atoms: C_12  and  O_30 
REMARK   12  A    between atoms: C_20  and  C_23 
ROOT
ATOM      1  C   LIG d   1       7.229  -2.375  -4.639  0.00  0.00     0.081 A 
ATOM      2  C   LIG d   1       7.989  -3.367  -5.238  0.00  0.00     0.129 A 
ATOM      3  C   LIG d   1       9.263  -3.086  -5.724  0.00  0.00    -0.019 A 
ATOM      4  C   LIG d   1       9.781  -1.828  -5.616  0.00  0.00    -0.048 A 
ATOM      5  C   LIG d   1       9.027  -0.815  -5.015  0.00  0.00     0.011 A 
ATOM      6  C   LIG d   1       7.739  -1.091  -4.522  0.00  0.00     0.150 A 
ATOM      7  O   LIG d   1       7.011  -0.114  -3.942  0.00  0.00    -0.421 OA
ATOM      8  C   LIG d   1       7.477   1.137  -3.808  0.00  0.00     0.344 A 
ATOM      9  O   LIG d   1       6.778   1.978  -3.271  0.00  0.00    -0.244 OA
ATOM     10  C   LIG d   1       8.757   1.505  -4.279  0.00  0.00     0.059 A 
ATOM     11  C   LIG d   1       9.560   0.547  -4.888  0.00  0.00    -0.083 A 
ATOM     12  O   LIG d   1      10.793   0.860  -5.348  0.00  0.00    -0.873 OA
ATOM     13  H   LIG d   1       9.846  -3.868  -6.188  0.00  0.00     0.065 H 
ATOM     14  H   LIG d   1      10.770  -1.614  -5.994  0.00  0.00     0.063 H 
ENDROOT
BRANCH   1  15
ATOM     15  C   LIG d   1       5.850  -2.691  -4.116  0.00  0.00     0.001 C 
ATOM     16  H   LIG d   1       5.850  -2.623  -3.019  0.00  0.00     0.087 H 
ATOM     17  H   LIG d   1       5.568  -3.709  -4.421  0.00  0.00     0.087 H 
BRANCH  15  18
ATOM     18  N   LIG d   1       4.886  -1.729  -4.667  0.00  0.00     0.242 N 
ATOM     19  H   LIG d   1       5.387  -0.752  -4.741  0.00  0.00     0.204 HD
BRANCH  18  20
ATOM     20  C   LIG d   1       4.463  -2.122  -6.018  0.00  0.00    -0.007 C 
ATOM     21  H   LIG d   1       3.365  -2.185  -6.055  0.00  0.00     0.084 H 
ATOM     22  H   LIG d   1       4.895  -3.103  -6.266  0.00  0.00     0.084 H 
BRANCH  20  23
ATOM     23  C   LIG d   1       4.949  -1.081  -7.028  0.00  0.00     0.087 C 
ATOM     24  H   LIG d   1       4.693  -1.412  -8.047  0.00  0.00     0.061 H 
ATOM     25  H   LIG d   1       6.040  -0.970  -6.943  0.00  0.00     0.061 H 
BRANCH  23  26
ATOM     26  O   LIG d   1       4.319   0.172  -6.762  0.00  0.00    -0.378 OA
BRANCH  26  27
ATOM     27  C   LIG d   1       2.944   0.226  -7.149  0.00  0.00     0.037 C 
ATOM     28  H   LIG d   1       2.379   0.818  -6.415  0.00  0.00     0.052 H 
ATOM     29  H   LIG d   1       2.534  -0.794  -7.191  0.00  0.00     0.052 H 
ATOM     30  H   LIG d   1       2.861   0.695  -8.142  0.00  0.00     0.052 H 
ENDBRANCH  26  27
ENDBRANCH  23  26
ENDBRANCH  20  23
ENDBRANCH  18  20
BRANCH  18  31
ATOM     31  C   LIG d   1       3.728  -1.576  -3.776  0.00  0.00    -0.007 C 
ATOM     32  H   LIG d   1       3.297  -0.573  -3.903  0.00  0.00     0.084 H 
ATOM     33  H   LIG d   1       2.972  -2.334  -4.025  0.00  0.00     0.084 H 
BRANCH  31  34
ATOM     34  C   LIG d   1       4.175  -1.759  -2.324  0.00  0.00     0.087 C 
ATOM     35  H   LIG d   1       3.392  -2.291  -1.764  0.00  0.00     0.061 H 
ATOM     36  H   LIG d   1       5.107  -2.343  -2.297  0.00  0.00     0.061 H 
BRANCH  34  37
ATOM     37  O   LIG d   1       4.398  -0.478  -1.730  0.00  0.00    -0.378 OA
BRANCH  37  38
ATOM     38  C   LIG d   1       3.655   0.581  -2.335  0.00  0.00     0.037 C 
ATOM     39  H   LIG d   1       3.205   1.208  -1.551  0.00  0.00     0.052 H 
ATOM     40  H   LIG d   1       2.860   0.158  -2.968  0.00  0.00     0.052 H 
ATOM     41  H   LIG d   1       4.327   1.194  -2.954  0.00  0.00     0.052 H 
ENDBRANCH  37  38
ENDBRANCH  34  37
ENDBRANCH  31  34
ENDBRANCH  18  31
ENDBRANCH  15  18
ENDBRANCH   1  15
BRANCH   2  42
ATOM     42  O   LIG d   1       7.487  -4.624  -5.350  0.00  0.00    -0.506 OA
ATOM     43  H   LIG d   1       7.756  -5.391  -4.609  0.00  0.00     0.292 HD
ENDBRANCH   2  42
BRANCH  10  44
ATOM     44  C   LIG d   1       9.240   2.897  -4.122  0.00  0.00    -0.011 A 
ATOM     45  C   LIG d   1       9.036   3.828  -5.141  0.00  0.00    -0.052 A 
ATOM     46  C   LIG d   1       9.483   5.124  -4.987  0.00  0.00    -0.043 A 
ATOM     47  H   LIG d   1       8.528   3.536  -6.048  0.00  0.00     0.062 H 
ATOM     48  C   LIG d   1      10.134   5.501  -3.824  0.00  0.00     0.041 A 
ATOM     49  H   LIG d   1       9.325   5.847  -5.773  0.00  0.00     0.063 H 
ATOM     50  C   LIG d   1      10.341   4.580  -2.811  0.00  0.00    -0.043 A 
ATOM     51 CL   LIG d   1      10.694   7.133  -3.636  0.00  0.00    -0.084 Cl
ATOM     52  C   LIG d   1       9.897   3.282  -2.954  0.00  0.00    -0.052 A 
ATOM     53  H   LIG d   1      10.849   4.879  -1.906  0.00  0.00     0.063 H 
ATOM     54  H   LIG d   1      10.059   2.565  -2.162  0.00  0.00     0.062 H 
ENDBRANCH  10  44
TORSDOF 12
ENDMDL
MODEL 6
REMARK VINA RESULT:      -5.1      3.951      5.835
REMARK  12 active torsions:
REMARK  status: ('A' for Active; 'I' for Inactive)
REMARK    1  A    between atoms: C_1  and  O_2 
REMARK    2  A    between atoms: O_2  and  C_3 
REMARK    3  A    between atoms: C_3  and  C_4 
REMARK    4  A    between atoms: C_4  and  N_5 
REMARK    5  A    between atoms: N_5  and  C_6 
REMARK    6  A    between atoms: N_5  and  C_10 
REMARK    7  A    between atoms: C_6  and  C_7 
REMARK    8  A    between atoms: C_7  and  O_8 
REMARK    9  A    between atoms: O_8  and  C_9 
REMARK   10  A    between atoms: C_10  and  C_11 
REMARK   11  A    between atoms: C_12  and  O_30 
REMARK   12  A    between atoms: C_20  and  C_23 
ROOT
ATOM      1  C   LIG d   1       3.544  -0.495  -7.733  0.00  0.00     0.081 A 
ATOM      2  C   LIG d   1       2.985   0.670  -8.236  0.00  0.00     0.129 A 
ATOM      3  C   LIG d   1       2.199   0.639  -9.385  0.00  0.00    -0.019 A 
ATOM      4  C   LIG d   1       1.969  -0.540 -10.033  0.00  0.00    -0.048 A 
ATOM      5  C   LIG d   1       2.527  -1.724  -9.539  0.00  0.00     0.011 A 
ATOM      6  C   LIG d   1       3.321  -1.702  -8.379  0.00  0.00     0.150 A 
ATOM      7  O   LIG d   1       3.859  -2.844  -7.902  0.00  0.00    -0.421 OA
ATOM      8  C   LIG d   1       3.659  -4.028  -8.500  0.00  0.00     0.344 A 
ATOM      9  O   LIG d   1       4.164  -5.028  -8.021  0.00  0.00    -0.244 OA
ATOM     10  C   LIG d   1       2.879  -4.144  -9.673  0.00  0.00     0.059 A 
ATOM     11  C   LIG d   1       2.296  -3.006 -10.217  0.00  0.00    -0.083 A 
ATOM     12  O   LIG d   1       1.539  -3.077 -11.336  0.00  0.00    -0.873 OA
ATOM     13  H   LIG d   1       1.769   1.553  -9.766  0.00  0.00     0.065 H 
ATOM     14  H   LIG d   1       1.360  -0.560 -10.924  0.00  0.00     0.063 H 
ENDROOT
BRANCH   1  15
ATOM     15  C   LIG d   1       4.392  -0.449  -6.488  0.00  0.00     0.001 C 
ATOM     16  H   LIG d   1       4.693   0.589  -6.288  0.00  0.00     0.087 H 
ATOM     17  H   LIG d   1       5.289  -1.069  -6.632  0.00  0.00     0.087 H 
BRANCH  15  18
ATOM     18  N   LIG d   1       3.618  -0.962  -5.349  0.00  0.00     0.242 N 
ATOM     19  H   LIG d   1       2.754  -1.514  -5.748  0.00  0.00     0.204 HD
BRANCH  18  20
ATOM     20  C   LIG d   1       4.420  -1.898  -4.548  0.00  0.00    -0.007 C 
ATOM     21  H   LIG d   1       4.115  -2.930  -4.776  0.00  0.00     0.084 H 
ATOM     22  H   LIG d   1       4.258  -1.695  -3.479  0.00  0.00     0.084 H 
BRANCH  20  23
ATOM     23  C   LIG d   1       5.901  -1.717  -4.882  0.00  0.00     0.087 C 
ATOM     24  H   LIG d   1       6.002  -1.048  -5.750  0.00  0.00     0.061 H 
ATOM     25  H   LIG d   1       6.344  -2.696  -5.121  0.00  0.00     0.061 H 
BRANCH  23  26
ATOM     26  O   LIG d   1       6.577  -1.148  -3.761  0.00  0.00    -0.378 OA
BRANCH  26  27
ATOM     27  C   LIG d   1       7.388  -0.016  -4.084  0.00  0.00     0.037 C 
ATOM     28  H   LIG d   1       6.902   0.900  -3.716  0.00  0.00     0.052 H 
ATOM     29  H   LIG d   1       7.512   0.047  -5.174  0.00  0.00     0.052 H 
ATOM     30  H   LIG d   1       8.375  -0.124  -3.608  0.00  0.00     0.052 H 
ENDBRANCH  26  27
ENDBRANCH  23  26
ENDBRANCH  20  23
ENDBRANCH  18  20
BRANCH  18  31
ATOM     31  C   LIG d   1       3.109   0.139  -4.521  0.00  0.00    -0.007 C 
ATOM     32  H   LIG d   1       3.831   0.968  -4.529  0.00  0.00     0.084 H 
ATOM     33  H   LIG d   1       2.147   0.486  -4.923  0.00  0.00     0.084 H 
BRANCH  31  34
ATOM     34  C   LIG d   1       2.914  -0.352  -3.085  0.00  0.00     0.087 C 
ATOM     35  H   LIG d   1       1.879  -0.702  -2.955  0.00  0.00     0.061 H 
ATOM     36  H   LIG d   1       3.610  -1.180  -2.882  0.00  0.00     0.061 H 
BRANCH  34  37
ATOM     37  O   LIG d   1       3.172   0.720  -2.175  0.00  0.00    -0.378 OA
BRANCH  37  38
ATOM     38  C   LIG d   1       4.538   0.821  -1.769  0.00  0.00     0.037 C 
ATOM     39  H   LIG d   1       5.165   1.045  -2.643  0.00  0.00     0.052 H 
ATOM     40  H   LIG d   1       4.859  -0.132  -1.321  0.00  0.00     0.052 H 
ATOM     41  H   LIG d   1       4.641   1.626  -1.026  0.00  0.00     0.052 H 
ENDBRANCH  37  38
ENDBRANCH  34  37
ENDBRANCH  31  34
ENDBRANCH  18  31
ENDBRANCH  15  18
ENDBRANCH   1  15
BRANCH   2  42
ATOM     42  O   LIG d   1       3.204   1.850  -7.601  0.00  0.00    -0.506 OA
ATOM     43  H   LIG d   1       4.160   2.377  -7.735  0.00  0.00     0.292 HD
ENDBRANCH   2  42
BRANCH  10  44
ATOM     44  C   LIG d   1       2.682  -5.466 -10.312  0.00  0.00    -0.011 A 
ATOM     45  C   LIG d   1       3.607  -5.938 -11.244  0.00  0.00    -0.052 A 
ATOM     46  C   LIG d   1       3.421  -7.172 -11.832  0.00  0.00    -0.043 A 
ATOM     47  H   LIG d   1       4.467  -5.338 -11.504  0.00  0.00     0.062 H 
ATOM     48  C   LIG d   1       2.320  -7.941 -11.499  0.00  0.00     0.041 A 
ATOM     49  H   LIG d   1       4.136  -7.539 -12.553  0.00  0.00     0.063 H 
ATOM     50  C   LIG d   1       1.398  -7.477 -10.575  0.00  0.00    -0.043 A 
ATOM     51 CL   LIG d   1       2.092  -9.493 -12.242  0.00  0.00    -0.084 Cl
ATOM     52  C   LIG d   1       1.575  -6.245  -9.981  0.00  0.00    -0.052 A 
ATOM     53  H   LIG d   1       0.540  -8.082 -10.319  0.00  0.00     0.063 H 
ATOM     54  H   LIG d   1       0.855  -5.885  -9.260  0.00  0.00     0.062 H 
ENDBRANCH  10  44
TORSDOF 12
ENDMDL
MODEL 7
REMARK VINA RESULT:      -5.1      6.646      9.974
REMARK  12 active torsions:
REMARK  status: ('A' for Active; 'I' for Inactive)
REMARK    1  A    between atoms: C_1  and  O_2 
REMARK    2  A    between atoms: O_2  and  C_3 
REMARK    3  A    between atoms: C_3  and  C_4 
REMARK    4  A    between atoms: C_4  and  N_5 
REMARK    5  A    between atoms: N_5  and  C_6 
REMARK    6  A    between atoms: N_5  and  C_10 
REMARK    7  A    between atoms: C_6  and  C_7 
REMARK    8  A    between atoms: C_7  and  O_8 
REMARK    9  A    between atoms: O_8  and  C_9 
REMARK   10  A    between atoms: C_10  and  C_11 
REMARK   11  A    between atoms: C_12  and  O_30 
REMARK   12  A    between atoms: C_20  and  C_23 
ROOT
ATOM      1  C   LIG d   1       7.350   0.524  -5.463  0.00  0.00     0.081 A 
ATOM      2  C   LIG d   1       7.737   0.670  -4.140  0.00  0.00     0.129 A 
ATOM      3  C   LIG d   1       8.592   1.703  -3.763  0.00  0.00    -0.019 A 
ATOM      4  C   LIG d   1       9.059   2.587  -4.692  0.00  0.00    -0.048 A 
ATOM      5  C   LIG d   1       8.679   2.452  -6.032  0.00  0.00     0.011 A 
ATOM      6  C   LIG d   1       7.816   1.412  -6.420  0.00  0.00     0.150 A 
ATOM      7  O   LIG d   1       7.449   1.281  -7.712  0.00  0.00    -0.421 OA
ATOM      8  C   LIG d   1       7.877   2.126  -8.662  0.00  0.00     0.344 A 
ATOM      9  O   LIG d   1       7.508   1.964  -9.812  0.00  0.00    -0.244 OA
ATOM     10  C   LIG d   1       8.750   3.197  -8.363  0.00  0.00     0.059 A 
ATOM     11  C   LIG d   1       9.168   3.388  -7.051  0.00  0.00    -0.083 A 
ATOM     12  O   LIG d   1       9.999   4.404  -6.725  0.00  0.00    -0.873 OA
ATOM     13  H   LIG d   1       8.885   1.807  -2.728  0.00  0.00     0.065 H 
ATOM     14  H   LIG d   1       9.721   3.387  -4.396  0.00  0.00     0.063 H 
ENDROOT
BRANCH   1  15
ATOM     15  C   LIG d   1       6.425  -0.599  -5.859  0.00  0.00     0.001 C 
ATOM     16  H   LIG d   1       6.458  -1.387  -5.093  0.00  0.00     0.087 H 
ATOM     17  H   LIG d   1       6.746  -1.014  -6.826  0.00  0.00     0.087 H 
BRANCH  15  18
ATOM     18  N   LIG d   1       5.054  -0.085  -5.975  0.00  0.00     0.242 N 
ATOM     19  H   LIG d   1       5.099   1.013  -5.930  0.00  0.00     0.204 HD
BRANCH  18  20
ATOM     20  C   LIG d   1       4.459  -0.460  -7.266  0.00  0.00    -0.007 C 
ATOM     21  H   LIG d   1       3.874  -1.384  -7.145  0.00  0.00     0.084 H 
ATOM     22  H   LIG d   1       5.259  -0.627  -8.002  0.00  0.00     0.084 H 
BRANCH  20  23
ATOM     23  C   LIG d   1       3.544   0.665  -7.752  0.00  0.00     0.087 C 
ATOM     24  H   LIG d   1       2.962   1.056  -6.903  0.00  0.00     0.061 H 
ATOM     25  H   LIG d   1       2.857   0.273  -8.516  0.00  0.00     0.061 H 
BRANCH  23  26
ATOM     26  O   LIG d   1       4.334   1.714  -8.312  0.00  0.00    -0.378 OA
BRANCH  26  27
ATOM     27  C   LIG d   1       3.828   2.228  -9.546  0.00  0.00     0.037 C 
ATOM     28  H   LIG d   1       3.924   3.324  -9.553  0.00  0.00     0.052 H 
ATOM     29  H   LIG d   1       2.769   1.952  -9.651  0.00  0.00     0.052 H 
ATOM     30  H   LIG d   1       4.402   1.804 -10.383  0.00  0.00     0.052 H 
ENDBRANCH  26  27
ENDBRANCH  23  26
ENDBRANCH  20  23
ENDBRANCH  18  20
BRANCH  18  31
ATOM     31  C   LIG d   1       4.222  -0.550  -4.857  0.00  0.00    -0.007 C 
ATOM     32  H   LIG d   1       3.447  -1.233  -5.236  0.00  0.00     0.084 H 
ATOM     33  H   LIG d   1       4.851  -1.078  -4.127  0.00  0.00     0.084 H 
BRANCH  31  34
ATOM     34  C   LIG d   1       3.556   0.652  -4.183  0.00  0.00     0.087 C 
ATOM     35  H   LIG d   1       3.212   1.359  -4.953  0.00  0.00     0.061 H 
ATOM     36  H   LIG d   1       2.696   0.309  -3.589  0.00  0.00     0.061 H 
BRANCH  34  37
ATOM     37  O   LIG d   1       4.499   1.301  -3.327  0.00  0.00    -0.378 OA
BRANCH  37  38
ATOM     38  C   LIG d   1       4.297   1.040  -1.937  0.00  0.00     0.037 C 
ATOM     39  H   LIG d   1       3.568   0.225  -1.819  0.00  0.00     0.052 H 
ATOM     40  H   LIG d   1       3.916   1.947  -1.445  0.00  0.00     0.052 H 
ATOM     41  H   LIG d   1       5.252   0.747  -1.476  0.00  0.00     0.052 H 
ENDBRANCH  37  38
ENDBRANCH  34  37
ENDBRANCH  31  34
ENDBRANCH  18  31
ENDBRANCH  15  18
ENDBRANCH   1  15
BRANCH   2  42
ATOM     42  O   LIG d   1       7.279  -0.201  -3.204  0.00  0.00    -0.506 OA
ATOM     43  H   LIG d   1       7.676  -0.164  -2.179  0.00  0.00     0.292 HD
ENDBRANCH   2  42
BRANCH  10  44
ATOM     44  C   LIG d   1       9.210   4.109  -9.437  0.00  0.00    -0.011 A 
ATOM     45  C   LIG d   1      10.311   3.766 -10.222  0.00  0.00    -0.052 A 
ATOM     46  C   LIG d   1      10.731   4.617 -11.224  0.00  0.00    -0.043 A 
ATOM     47  H   LIG d   1      10.832   2.837 -10.047  0.00  0.00     0.062 H 
ATOM     48  C   LIG d   1      10.063   5.808 -11.450  0.00  0.00     0.041 A 
ATOM     49  H   LIG d   1      11.582   4.353 -11.833  0.00  0.00     0.063 H 
ATOM     50  C   LIG d   1       8.970   6.154 -10.672  0.00  0.00    -0.043 A 
ATOM     51 CL   LIG d   1      10.597   6.873 -12.712  0.00  0.00    -0.084 Cl
ATOM     52  C   LIG d   1       8.541   5.310  -9.668  0.00  0.00    -0.052 A 
ATOM     53  H   LIG d   1       8.453   7.084 -10.852  0.00  0.00     0.063 H 
ATOM     54  H   LIG d   1       7.688   5.581  -9.063  0.00  0.00     0.062 H 
ENDBRANCH  10  44
TORSDOF 12
ENDMDL
MODEL 8
REMARK VINA RESULT:      -4.9     11.373     13.596
REMARK  12 active torsions:
REMARK  status: ('A' for Active; 'I' for Inactive)
REMARK    1  A    between atoms: C_1  and  O_2 
REMARK    2  A    between atoms: O_2  and  C_3 
REMARK    3  A    between atoms: C_3  and  C_4 
REMARK    4  A    between atoms: C_4  and  N_5 
REMARK    5  A    between atoms: N_5  and  C_6 
REMARK    6  A    between atoms: N_5  and  C_10 
REMARK    7  A    between atoms: C_6  and  C_7 
REMARK    8  A    between atoms: C_7  and  O_8 
REMARK    9  A    between atoms: O_8  and  C_9 
REMARK   10  A    between atoms: C_10  and  C_11 
REMARK   11  A    between atoms: C_12  and  O_30 
REMARK   12  A    between atoms: C_20  and  C_23 
ROOT
ATOM      1  C   LIG d   1       9.938   6.647  -2.355  0.00  0.00     0.081 A 
ATOM      2  C   LIG d   1      10.317   5.526  -1.634  0.00  0.00     0.129 A 
ATOM      3  C   LIG d   1      10.725   4.367  -2.291  0.00  0.00    -0.019 A 
ATOM      4  C   LIG d   1      10.757   4.321  -3.655  0.00  0.00    -0.048 A 
ATOM      5  C   LIG d   1      10.376   5.444  -4.396  0.00  0.00     0.011 A 
ATOM      6  C   LIG d   1       9.964   6.618  -3.741  0.00  0.00     0.150 A 
ATOM      7  O   LIG d   1       9.597   7.702  -4.456  0.00  0.00    -0.421 OA
ATOM      8  C   LIG d   1       9.615   7.709  -5.798  0.00  0.00     0.344 A 
ATOM      9  O   LIG d   1       9.279   8.718  -6.392  0.00  0.00    -0.244 OA
ATOM     10  C   LIG d   1      10.011   6.572  -6.539  0.00  0.00     0.059 A 
ATOM     11  C   LIG d   1      10.401   5.421  -5.864  0.00  0.00    -0.083 A 
ATOM     12  O   LIG d   1      10.791   4.315  -6.538  0.00  0.00    -0.873 OA
ATOM     13  H   LIG d   1      11.018   3.500  -1.718  0.00  0.00     0.065 H 
ATOM     14  H   LIG d   1      11.074   3.421  -4.160  0.00  0.00     0.063 H 
ENDROOT
BRANCH   1  15
ATOM     15  C   LIG d   1       9.498   7.896  -1.633  0.00  0.00     0.001 C 
ATOM     16  H   LIG d   1       9.182   7.636  -0.612  0.00  0.00     0.087 H 
ATOM     17  H   LIG d   1       8.656   8.354  -2.172  0.00  0.00     0.087 H 
BRANCH  15  18
ATOM     18  N   LIG d   1      10.617   8.845  -1.572  0.00  0.00     0.242 N 
ATOM     19  H   LIG d   1      11.414   8.473  -2.233  0.00  0.00     0.204 HD
BRANCH  18  20
ATOM     20  C   LIG d   1      10.209  10.171  -2.059  0.00  0.00    -0.007 C 
ATOM     21  H   LIG d   1      10.291  10.902  -1.241  0.00  0.00     0.084 H 
ATOM     22  H   LIG d   1       9.168  10.128  -2.410  0.00  0.00     0.084 H 
BRANCH  20  23
ATOM     23  C   LIG d   1      11.120  10.592  -3.214  0.00  0.00     0.087 C 
ATOM     24  H   LIG d   1      11.692   9.721  -3.566  0.00  0.00     0.061 H 
ATOM     25  H   LIG d   1      11.815  11.371  -2.867  0.00  0.00     0.061 H 
BRANCH  23  26
ATOM     26  O   LIG d   1      10.325  11.104  -4.284  0.00  0.00    -0.378 OA
BRANCH  26  27
ATOM     27  C   LIG d   1       8.948  11.293  -3.948  0.00  0.00     0.037 C 
ATOM     28  H   LIG d   1       8.799  12.317  -3.576  0.00  0.00     0.052 H 
ATOM     29  H   LIG d   1       8.659  10.574  -3.168  0.00  0.00     0.052 H 
ATOM     30  H   LIG d   1       8.327  11.133  -4.842  0.00  0.00     0.052 H 
ENDBRANCH  26  27
ENDBRANCH  23  26
ENDBRANCH  20  23
ENDBRANCH  18  20
BRANCH  18  31
ATOM     31  C   LIG d   1      11.162   8.930  -0.210  0.00  0.00    -0.007 C 
ATOM     32  H   LIG d   1      11.051   9.957   0.166  0.00  0.00     0.084 H 
ATOM     33  H   LIG d   1      10.616   8.238   0.446  0.00  0.00     0.084 H 
BRANCH  31  34
ATOM     34  C   LIG d   1      12.644   8.551  -0.230  0.00  0.00     0.087 C 
ATOM     35  H   LIG d   1      13.036   8.660  -1.252  0.00  0.00     0.061 H 
ATOM     36  H   LIG d   1      13.201   9.214   0.449  0.00  0.00     0.061 H 
BRANCH  34  37
ATOM     37  O   LIG d   1      12.796   7.196   0.197  0.00  0.00    -0.378 OA
BRANCH  37  38
ATOM     38  C   LIG d   1      13.718   6.438  -0.589  0.00  0.00     0.037 C 
ATOM     39  H   LIG d   1      13.861   5.448  -0.133  0.00  0.00     0.052 H 
ATOM     40  H   LIG d   1      14.683   6.966  -0.633  0.00  0.00     0.052 H 
ATOM     41  H   LIG d   1      13.320   6.319  -1.608  0.00  0.00     0.052 H 
ENDBRANCH  37  38
ENDBRANCH  34  37
ENDBRANCH  31  34
ENDBRANCH  18  31
ENDBRANCH  15  18
ENDBRANCH   1  15
BRANCH   2  42
ATOM     42  O   LIG d   1      10.291   5.557  -0.276  0.00  0.00    -0.506 OA
ATOM     43  H   LIG d   1       9.719   4.800   0.280  0.00  0.00     0.292 HD
ENDBRANCH   2  42
BRANCH  10  44
ATOM     44  C   LIG d   1      10.014   6.610  -8.020  0.00  0.00    -0.011 A 
ATOM     45  C   LIG d   1      11.123   7.110  -8.705  0.00  0.00    -0.052 A 
ATOM     46  C   LIG d   1      11.122   7.138 -10.084  0.00  0.00    -0.043 A 
ATOM     47  H   LIG d   1      11.979   7.474  -8.157  0.00  0.00     0.062 H 
ATOM     48  C   LIG d   1      10.026   6.671 -10.789  0.00  0.00     0.041 A 
ATOM     49  H   LIG d   1      11.979   7.524 -10.616  0.00  0.00     0.063 H 
ATOM     50  C   LIG d   1       8.923   6.174 -10.114  0.00  0.00    -0.043 A 
ATOM     51 CL   LIG d   1      10.033   6.707 -12.524  0.00  0.00    -0.084 Cl
ATOM     52  C   LIG d   1       8.913   6.141  -8.734  0.00  0.00    -0.052 A 
ATOM     53  H   LIG d   1       8.070   5.811 -10.668  0.00  0.00     0.063 H 
ATOM     54  H   LIG d   1       8.052   5.753  -8.209  0.00  0.00     0.062 H 
ENDBRANCH  10  44
TORSDOF 12
ENDMDL
MODEL 9
REMARK VINA RESULT:      -4.9      6.851     10.170
REMARK  12 active torsions:
REMARK  status: ('A' for Active; 'I' for Inactive)
REMARK    1  A    between atoms: C_1  and  O_2 
REMARK    2  A    between atoms: O_2  and  C_3 
REMARK    3  A    between atoms: C_3  and  C_4 
REMARK    4  A    between atoms: C_4  and  N_5 
REMARK    5  A    between atoms: N_5  and  C_6 
REMARK    6  A    between atoms: N_5  and  C_10 
REMARK    7  A    between atoms: C_6  and  C_7 
REMARK    8  A    between atoms: C_7  and  O_8 
REMARK    9  A    between atoms: O_8  and  C_9 
REMARK   10  A    between atoms: C_10  and  C_11 
REMARK   11  A    between atoms: C_12  and  O_30 
REMARK   12  A    between atoms: C_20  and  C_23 
ROOT
ATOM      1  C   LIG d   1       7.430   0.766  -7.894  0.00  0.00     0.081 A 
ATOM      2  C   LIG d   1       7.817   0.906  -9.218  0.00  0.00     0.129 A 
ATOM      3  C   LIG d   1       8.756   1.868  -9.582  0.00  0.00    -0.019 A 
ATOM      4  C   LIG d   1       9.308   2.687  -8.639  0.00  0.00    -0.048 A 
ATOM      5  C   LIG d   1       8.927   2.558  -7.299  0.00  0.00     0.011 A 
ATOM      6  C   LIG d   1       7.980   1.589  -6.923  0.00  0.00     0.150 A 
ATOM      7  O   LIG d   1       7.612   1.465  -5.631  0.00  0.00    -0.421 OA
ATOM      8  C   LIG d   1       8.128   2.242  -4.666  0.00  0.00     0.344 A 
ATOM      9  O   LIG d   1       7.763   2.081  -3.515  0.00  0.00    -0.244 OA
ATOM     10  C   LIG d   1       9.082   3.245  -4.954  0.00  0.00     0.059 A 
ATOM     11  C   LIG d   1       9.504   3.427  -6.266  0.00  0.00    -0.083 A 
ATOM     12  O   LIG d   1      10.418   4.373  -6.579  0.00  0.00    -0.873 OA
ATOM     13  H   LIG d   1       9.050   1.967 -10.617  0.00  0.00     0.065 H 
ATOM     14  H   LIG d   1      10.035   3.431  -8.926  0.00  0.00     0.063 H 
ENDROOT
BRANCH   1  15
ATOM     15  C   LIG d   1       6.413  -0.279  -7.512  0.00  0.00     0.001 C 
ATOM     16  H   LIG d   1       6.818  -0.907  -6.706  0.00  0.00     0.087 H 
ATOM     17  H   LIG d   1       6.185  -0.906  -8.386  0.00  0.00     0.087 H 
BRANCH  15  18
ATOM     18  N   LIG d   1       5.185   0.381  -7.048  0.00  0.00     0.242 N 
ATOM     19  H   LIG d   1       5.476   1.244  -6.432  0.00  0.00     0.204 HD
BRANCH  18  20
ATOM     20  C   LIG d   1       4.395   0.881  -8.182  0.00  0.00    -0.007 C 
ATOM     21  H   LIG d   1       5.022   1.540  -8.802  0.00  0.00     0.084 H 
ATOM     22  H   LIG d   1       3.530   1.446  -7.805  0.00  0.00     0.084 H 
BRANCH  20  23
ATOM     23  C   LIG d   1       3.907  -0.299  -9.024  0.00  0.00     0.087 C 
ATOM     24  H   LIG d   1       2.807  -0.334  -9.001  0.00  0.00     0.061 H 
ATOM     25  H   LIG d   1       4.311  -1.235  -8.611  0.00  0.00     0.061 H 
BRANCH  23  26
ATOM     26  O   LIG d   1       4.351  -0.140 -10.372  0.00  0.00    -0.378 OA
BRANCH  26  27
ATOM     27  C   LIG d   1       3.948   1.092 -10.975  0.00  0.00     0.037 C 
ATOM     28  H   LIG d   1       2.879   1.042 -11.231  0.00  0.00     0.052 H 
ATOM     29  H   LIG d   1       4.536   1.262 -11.889  0.00  0.00     0.052 H 
ATOM     30  H   LIG d   1       4.119   1.919 -10.270  0.00  0.00     0.052 H 
ENDBRANCH  26  27
ENDBRANCH  23  26
ENDBRANCH  20  23
ENDBRANCH  18  20
BRANCH  18  31
ATOM     31  C   LIG d   1       4.386  -0.524  -6.209  0.00  0.00    -0.007 C 
ATOM     32  H   LIG d   1       3.337  -0.195  -6.212  0.00  0.00     0.084 H 
ATOM     33  H   LIG d   1       4.452  -1.546  -6.607  0.00  0.00     0.084 H 
BRANCH  31  34
ATOM     34  C   LIG d   1       4.924  -0.498  -4.777  0.00  0.00     0.087 C 
ATOM     35  H   LIG d   1       4.449  -1.301  -4.194  0.00  0.00     0.061 H 
ATOM     36  H   LIG d   1       6.014  -0.651  -4.792  0.00  0.00     0.061 H 
BRANCH  34  37
ATOM     37  O   LIG d   1       4.628   0.765  -4.179  0.00  0.00    -0.378 OA
BRANCH  37  38
ATOM     38  C   LIG d   1       4.626   0.746  -2.751  0.00  0.00     0.037 C 
ATOM     39  H   LIG d   1       5.127   1.648  -2.371  0.00  0.00     0.052 H 
ATOM     40  H   LIG d   1       5.160  -0.148  -2.395  0.00  0.00     0.052 H 
ATOM     41  H   LIG d   1       3.588   0.721  -2.385  0.00  0.00     0.052 H 
ENDBRANCH  37  38
ENDBRANCH  34  37
ENDBRANCH  31  34
ENDBRANCH  18  31
ENDBRANCH  15  18
ENDBRANCH   1  15
BRANCH   2  42
ATOM     42  O   LIG d   1       7.278   0.098 -10.166  0.00  0.00    -0.506 OA
ATOM     43  H   LIG d   1       7.586  -0.956 -10.230  0.00  0.00     0.292 HD
ENDBRANCH   2  42
BRANCH  10  44
ATOM     44  C   LIG d   1       9.628   4.090  -3.867  0.00  0.00    -0.011 A 
ATOM     45  C   LIG d   1       9.224   5.420  -3.744  0.00  0.00    -0.052 A 
ATOM     46  C   LIG d   1       9.733   6.202  -2.727  0.00  0.00    -0.043 A 
ATOM     47  H   LIG d   1       8.515   5.837  -4.444  0.00  0.00     0.062 H 
ATOM     48  C   LIG d   1      10.641   5.668  -1.829  0.00  0.00     0.041 A 
ATOM     49  H   LIG d   1       9.421   7.231  -2.630  0.00  0.00     0.063 H 
ATOM     50  C   LIG d   1      11.047   4.349  -1.947  0.00  0.00    -0.043 A 
ATOM     51 CL   LIG d   1      11.276   6.656  -0.551  0.00  0.00    -0.084 Cl
ATOM     52  C   LIG d   1      10.544   3.559  -2.960  0.00  0.00    -0.052 A 
ATOM     53  H   LIG d   1      11.756   3.938  -1.244  0.00  0.00     0.063 H 
ATOM     54  H   LIG d   1      10.860   2.530  -3.051  0.00  0.00     0.062 H 
ENDBRANCH  10  44
TORSDOF 12
ENDMDL
