MODEL 1
REMARK VINA RESULT:      -6.4      0.000      0.000
REMARK  10 active torsions:
REMARK  status: ('A' for Active; 'I' for Inactive)
REMARK    1  A    between atoms: C_1  and  O_2 
REMARK    2  A    between atoms: O_2  and  C_3 
REMARK    3  A    between atoms: C_6  and  C_11 
REMARK    4  A    between atoms: C_7  and  O_9 
REMARK    5  A    between atoms: O_9  and  C_10 
REMARK    6  A    between atoms: C_11  and  C_12 
REMARK    7  A    between atoms: C_18  and  O_22 
REMARK    8  A    between atoms: O_22  and  C_23 
REMARK    9  A    between atoms: C_23  and  C_24 
REMARK       I    between atoms: C_24  and  N_26 
REMARK   10  A    between atoms: C_29  and  C_32 
ROOT
ATOM      1  C   LIG d   1       9.643   2.816  -4.216  0.00  0.00     0.176 A 
ATOM      2  C   LIG d   1       9.899   1.544  -4.901  0.00  0.00     0.232 A 
ATOM      3  O   LIG d   1      10.876   1.238  -5.565  0.00  0.00    -0.283 OA
ATOM      4  C   LIG d   1       8.713   0.719  -4.608  0.00  0.00     0.068 A 
ATOM      5  C   LIG d   1       8.341  -0.578  -4.962  0.00  0.00    -0.044 A 
ATOM      6  C   LIG d   1       7.149  -1.086  -4.530  0.00  0.00    -0.019 A 
ATOM      7  C   LIG d   1       6.304  -0.312  -3.738  0.00  0.00     0.125 A 
ATOM      8  C   LIG d   1       6.660   0.977  -3.379  0.00  0.00     0.023 A 
ATOM      9  C   LIG d   1       7.869   1.509  -3.810  0.00  0.00     0.143 A 
ATOM     10  O   LIG d   1       8.441   2.714  -3.599  0.00  0.00    -0.451 OA
ATOM     11  H   LIG d   1       8.994  -1.180  -5.576  0.00  0.00     0.063 H 
ATOM     12  H   LIG d   1       6.860  -2.091  -4.803  0.00  0.00     0.065 H 
ATOM     13  H   LIG d   1       5.998   1.570  -2.766  0.00  0.00     0.069 H 
ENDROOT
BRANCH   7  14
ATOM     14  O   LIG d   1       5.122  -0.826  -3.314  0.00  0.00    -0.483 OA
BRANCH  14  15
ATOM     15  C   LIG d   1       4.349  -1.551  -4.273  0.00  0.00     0.165 C 
ATOM     16  H   LIG d   1       5.014  -2.016  -5.000  0.00  0.00     0.080 H 
ATOM     17  H   LIG d   1       3.771  -2.323  -3.765  0.00  0.00     0.080 H 
BRANCH  15  18
ATOM     18  C   LIG d   1       3.412  -0.606  -4.980  0.00  0.00     0.253 C 
ATOM     19  O   LIG d   1       2.642   0.078  -4.340  0.00  0.00    -0.272 OA
ATOM     20  N   LIG d   1       3.430  -0.521  -6.325  0.00  0.00    -0.299 N 
ATOM     21  C   LIG d   1       2.524   0.396  -7.030  0.00  0.00     0.015 C 
ATOM     22  C   LIG d   1       4.352  -1.348  -7.115  0.00  0.00     0.015 C 
ATOM     23  C   LIG d   1       3.357   1.293  -7.956  0.00  0.00    -0.029 C 
ATOM     24  H   LIG d   1       1.809  -0.180  -7.620  0.00  0.00     0.046 H 
ATOM     25  H   LIG d   1       1.991   1.011  -6.306  0.00  0.00     0.046 H 
ATOM     26  C   LIG d   1       4.205   0.414  -8.880  0.00  0.00     0.001 C 
ATOM     27  H   LIG d   1       4.011   1.929  -7.359  0.00  0.00     0.029 H 
ATOM     28  H   LIG d   1       2.692   1.915  -8.555  0.00  0.00     0.029 H 
ATOM     29  C   LIG d   1       5.163  -0.435  -8.041  0.00  0.00    -0.029 C 
ATOM     30  H   LIG d   1       3.553  -0.238  -9.459  0.00  0.00     0.036 H 
ATOM     31  H   LIG d   1       5.799   0.217  -7.443  0.00  0.00     0.029 H 
ATOM     32  H   LIG d   1       5.782  -1.043  -8.701  0.00  0.00     0.029 H 
ATOM     33  H   LIG d   1       5.028  -1.882  -6.447  0.00  0.00     0.046 H 
ATOM     34  H   LIG d   1       3.785  -2.062  -7.712  0.00  0.00     0.046 H 
BRANCH  26  35
ATOM     35  C   LIG d   1       4.999   1.290  -9.816  0.00  0.00     0.045 C 
ATOM     36  O   LIG d   1       5.209   0.924 -10.960  0.00  0.00    -0.549 OA
ATOM     37  O   LIG d   1       5.429   2.362  -9.429  0.00  0.00    -0.549 OA
ENDBRANCH  26  35
ENDBRANCH  15  18
ENDBRANCH  14  15
ENDBRANCH   7  14
BRANCH   1  38
ATOM     38  C   LIG d   1      10.465   3.900  -4.200  0.00  0.00    -0.005 C 
ATOM     39  H   LIG d   1      11.260   3.985  -4.925  0.00  0.00     0.066 H 
BRANCH  38  40
ATOM     40  C   LIG d   1      10.271   4.951  -3.197  0.00  0.00     0.021 A 
ATOM     41  C   LIG d   1      10.792   4.797  -1.905  0.00  0.00    -0.048 A 
ATOM     42  C   LIG d   1      10.610   5.779  -0.974  0.00  0.00    -0.019 A 
ATOM     43  H   LIG d   1      11.339   3.903  -1.647  0.00  0.00     0.063 H 
ATOM     44  C   LIG d   1       9.907   6.936  -1.298  0.00  0.00     0.124 A 
ATOM     45  H   LIG d   1      11.013   5.656   0.020  0.00  0.00     0.065 H 
ATOM     46  C   LIG d   1       9.379   7.102  -2.570  0.00  0.00     0.022 A 
ATOM     47  C   LIG d   1       9.559   6.119  -3.527  0.00  0.00     0.131 A 
ATOM     48  H   LIG d   1       8.830   8.000  -2.815  0.00  0.00     0.069 H 
BRANCH  44  49
ATOM     49  O   LIG d   1       9.733   7.904  -0.362  0.00  0.00    -0.495 OA
BRANCH  49  50
ATOM     50  C   LIG d   1       8.946   9.035  -0.739  0.00  0.00     0.079 C 
ATOM     51  H   LIG d   1       8.380   8.800  -1.641  0.00  0.00     0.066 H 
ATOM     52  H   LIG d   1       8.256   9.284   0.067  0.00  0.00     0.066 H 
ATOM     53  H   LIG d   1       9.600   9.885  -0.934  0.00  0.00     0.066 H 
ENDBRANCH  49  50
ENDBRANCH  44  49
BRANCH  47  54
ATOM     54  O   LIG d   1       9.049   6.278  -4.774  0.00  0.00    -0.494 OA
BRANCH  54  55
ATOM     55  C   LIG d   1       9.575   7.350  -5.557  0.00  0.00     0.079 C 
ATOM     56  H   LIG d   1      10.036   8.089  -4.901  0.00  0.00     0.066 H 
ATOM     57  H   LIG d   1      10.323   6.964  -6.249  0.00  0.00     0.066 H 
ATOM     58  H   LIG d   1       8.768   7.820  -6.120  0.00  0.00     0.066 H 
ENDBRANCH  54  55
ENDBRANCH  47  54
ENDBRANCH  38  40
ENDBRANCH   1  38
TORSDOF 10
ENDMDL
MODEL 2
REMARK VINA RESULT:      -6.3      3.823      9.627
REMARK  10 active torsions:
REMARK  status: ('A' for Active; 'I' for Inactive)
REMARK    1  A    between atoms: C_1  and  O_2 
REMARK    2  A    between atoms: O_2  and  C_3 
REMARK    3  A    between atoms: C_6  and  C_11 
REMARK    4  A    between atoms: C_7  and  O_9 
REMARK    5  A    between atoms: O_9  and  C_10 
REMARK    6  A    between atoms: C_11  and  C_12 
REMARK    7  A    between atoms: C_18  and  O_22 
REMARK    8  A    between atoms: O_22  and  C_23 
REMARK    9  A    between atoms: C_23  and  C_24 
REMARK       I    between atoms: C_24  and  N_26 
REMARK   10  A    between atoms: C_29  and  C_32 
ROOT
ATOM      1  C   LIG d   1       8.913   1.906  -4.226  0.00  0.00     0.176 A 
ATOM      2  C   LIG d   1       8.983   2.763  -5.417  0.00  0.00     0.232 A 
ATOM      3  O   LIG d   1       8.748   2.453  -6.572  0.00  0.00    -0.283 OA
ATOM      4  C   LIG d   1       9.400   4.079  -4.902  0.00  0.00     0.068 A 
ATOM      5  C   LIG d   1       9.646   5.309  -5.513  0.00  0.00    -0.044 A 
ATOM      6  C   LIG d   1      10.031   6.380  -4.758  0.00  0.00    -0.019 A 
ATOM      7  C   LIG d   1      10.177   6.248  -3.379  0.00  0.00     0.125 A 
ATOM      8  C   LIG d   1       9.937   5.033  -2.758  0.00  0.00     0.023 A 
ATOM      9  C   LIG d   1       9.545   3.933  -3.512  0.00  0.00     0.143 A 
ATOM     10  O   LIG d   1       9.250   2.665  -3.155  0.00  0.00    -0.451 OA
ATOM     11  H   LIG d   1       9.533   5.414  -6.582  0.00  0.00     0.063 H 
ATOM     12  H   LIG d   1      10.221   7.333  -5.230  0.00  0.00     0.065 H 
ATOM     13  H   LIG d   1      10.054   4.940  -1.689  0.00  0.00     0.069 H 
ENDROOT
BRANCH   7  14
ATOM     14  O   LIG d   1      10.560   7.318  -2.637  0.00  0.00    -0.483 OA
BRANCH  14  15
ATOM     15  C   LIG d   1      11.178   8.402  -3.333  0.00  0.00     0.165 C 
ATOM     16  H   LIG d   1      12.230   8.460  -3.057  0.00  0.00     0.080 H 
ATOM     17  H   LIG d   1      11.093   8.240  -4.408  0.00  0.00     0.080 H 
BRANCH  15  18
ATOM     18  C   LIG d   1      10.491   9.692  -2.964  0.00  0.00     0.253 C 
ATOM     19  O   LIG d   1      10.582  10.128  -1.836  0.00  0.00    -0.272 OA
ATOM     20  N   LIG d   1       9.773  10.361  -3.888  0.00  0.00    -0.299 N 
ATOM     21  C   LIG d   1       9.098  11.620  -3.544  0.00  0.00     0.015 C 
ATOM     22  C   LIG d   1       9.647   9.843  -5.257  0.00  0.00     0.015 C 
ATOM     23  C   LIG d   1       9.533  12.699  -4.547  0.00  0.00    -0.029 C 
ATOM     24  H   LIG d   1       8.017  11.481  -3.598  0.00  0.00     0.046 H 
ATOM     25  H   LIG d   1       9.380  11.922  -2.536  0.00  0.00     0.046 H 
ATOM     26  C   LIG d   1       9.255  12.206  -5.970  0.00  0.00     0.001 C 
ATOM     27  H   LIG d   1      10.598  12.898  -4.433  0.00  0.00     0.029 H 
ATOM     28  H   LIG d   1       8.969  13.614  -4.363  0.00  0.00     0.029 H 
ATOM     29  C   LIG d   1      10.071  10.939  -6.240  0.00  0.00    -0.029 C 
ATOM     30  H   LIG d   1       8.194  11.984  -6.077  0.00  0.00     0.036 H 
ATOM     31  H   LIG d   1      11.132  11.155  -6.109  0.00  0.00     0.029 H 
ATOM     32  H   LIG d   1       9.891  10.602  -7.261  0.00  0.00     0.029 H 
ATOM     33  H   LIG d   1      10.292   8.974  -5.380  0.00  0.00     0.046 H 
ATOM     34  H   LIG d   1       8.611   9.563  -5.448  0.00  0.00     0.046 H 
BRANCH  26  35
ATOM     35  C   LIG d   1       9.647  13.276  -6.957  0.00  0.00     0.045 C 
ATOM     36  O   LIG d   1       9.216  13.240  -8.097  0.00  0.00    -0.549 OA
ATOM     37  O   LIG d   1      10.395  14.175  -6.615  0.00  0.00    -0.549 OA
ENDBRANCH  26  35
ENDBRANCH  15  18
ENDBRANCH  14  15
ENDBRANCH   7  14
BRANCH   1  38
ATOM     38  C   LIG d   1       8.567   0.591  -4.202  0.00  0.00    -0.005 C 
ATOM     39  H   LIG d   1       9.259  -0.156  -4.560  0.00  0.00     0.066 H 
BRANCH  38  40
ATOM     40  C   LIG d   1       7.254   0.189  -3.690  0.00  0.00     0.021 A 
ATOM     41  C   LIG d   1       6.290   1.159  -3.382  0.00  0.00    -0.048 A 
ATOM     42  C   LIG d   1       5.068   0.780  -2.906  0.00  0.00    -0.019 A 
ATOM     43  H   LIG d   1       6.514   2.205  -3.524  0.00  0.00     0.063 H 
ATOM     44  C   LIG d   1       4.770  -0.567  -2.722  0.00  0.00     0.124 A 
ATOM     45  H   LIG d   1       4.328   1.531  -2.670  0.00  0.00     0.065 H 
ATOM     46  C   LIG d   1       5.714  -1.540  -3.016  0.00  0.00     0.022 A 
ATOM     47  C   LIG d   1       6.956  -1.173  -3.504  0.00  0.00     0.131 A 
ATOM     48  H   LIG d   1       5.479  -2.584  -2.867  0.00  0.00     0.069 H 
BRANCH  44  49
ATOM     49  O   LIG d   1       3.550  -0.930  -2.248  0.00  0.00    -0.495 OA
BRANCH  49  50
ATOM     50  C   LIG d   1       2.421  -0.633  -3.070  0.00  0.00     0.079 C 
ATOM     51  H   LIG d   1       1.747   0.035  -2.533  0.00  0.00     0.066 H 
ATOM     52  H   LIG d   1       2.755  -0.150  -3.988  0.00  0.00     0.066 H 
ATOM     53  H   LIG d   1       1.896  -1.557  -3.315  0.00  0.00     0.066 H 
ENDBRANCH  49  50
ENDBRANCH  44  49
BRANCH  47  54
ATOM     54  O   LIG d   1       7.881  -2.121  -3.798  0.00  0.00    -0.494 OA
BRANCH  54  55
ATOM     55  C   LIG d   1       7.467  -3.189  -4.651  0.00  0.00     0.079 C 
ATOM     56  H   LIG d   1       6.501  -2.948  -5.094  0.00  0.00     0.066 H 
ATOM     57  H   LIG d   1       8.203  -3.329  -5.442  0.00  0.00     0.066 H 
ATOM     58  H   LIG d   1       7.380  -4.107  -4.069  0.00  0.00     0.066 H 
ENDBRANCH  54  55
ENDBRANCH  47  54
ENDBRANCH  38  40
ENDBRANCH   1  38
TORSDOF 10
ENDMDL
MODEL 3
REMARK VINA RESULT:      -6.3      5.734      9.516
REMARK  10 active torsions:
REMARK  status: ('A' for Active; 'I' for Inactive)
REMARK    1  A    between atoms: C_1  and  O_2 
REMARK    2  A    between atoms: O_2  and  C_3 
REMARK    3  A    between atoms: C_6  and  C_11 
REMARK    4  A    between atoms: C_7  and  O_9 
REMARK    5  A    between atoms: O_9  and  C_10 
REMARK    6  A    between atoms: C_11  and  C_12 
REMARK    7  A    between atoms: C_18  and  O_22 
REMARK    8  A    between atoms: O_22  and  C_23 
REMARK    9  A    between atoms: C_23  and  C_24 
REMARK       I    between atoms: C_24  and  N_26 
REMARK   10  A    between atoms: C_29  and  C_32 
ROOT
ATOM      1  C   LIG d   1       3.437  -0.099  -6.552  0.00  0.00     0.176 A 
ATOM      2  C   LIG d   1       3.490   0.204  -5.116  0.00  0.00     0.232 A 
ATOM      3  O   LIG d   1       2.823   1.019  -4.501  0.00  0.00    -0.283 OA
ATOM      4  C   LIG d   1       4.531  -0.695  -4.586  0.00  0.00     0.068 A 
ATOM      5  C   LIG d   1       5.056  -0.898  -3.310  0.00  0.00    -0.044 A 
ATOM      6  C   LIG d   1       6.041  -1.826  -3.118  0.00  0.00    -0.019 A 
ATOM      7  C   LIG d   1       6.521  -2.568  -4.195  0.00  0.00     0.125 A 
ATOM      8  C   LIG d   1       6.009  -2.377  -5.467  0.00  0.00     0.023 A 
ATOM      9  C   LIG d   1       5.007  -1.437  -5.679  0.00  0.00     0.143 A 
ATOM     10  O   LIG d   1       4.348  -1.070  -6.799  0.00  0.00    -0.451 OA
ATOM     11  H   LIG d   1       4.686  -0.324  -2.474  0.00  0.00     0.063 H 
ATOM     12  H   LIG d   1       6.448  -1.984  -2.131  0.00  0.00     0.065 H 
ATOM     13  H   LIG d   1       6.388  -2.957  -6.296  0.00  0.00     0.069 H 
ENDROOT
BRANCH   7  14
ATOM     14  O   LIG d   1       7.499  -3.488  -3.995  0.00  0.00    -0.483 OA
BRANCH  14  15
ATOM     15  C   LIG d   1       7.900  -4.264  -5.126  0.00  0.00     0.165 C 
ATOM     16  H   LIG d   1       7.074  -4.331  -5.833  0.00  0.00     0.080 H 
ATOM     17  H   LIG d   1       8.754  -3.789  -5.608  0.00  0.00     0.080 H 
BRANCH  15  18
ATOM     18  C   LIG d   1       8.286  -5.649  -4.672  0.00  0.00     0.253 C 
ATOM     19  O   LIG d   1       9.162  -5.795  -3.847  0.00  0.00    -0.272 OA
ATOM     20  N   LIG d   1       7.656  -6.725  -5.184  0.00  0.00    -0.299 N 
ATOM     21  C   LIG d   1       8.020  -8.081  -4.751  0.00  0.00     0.015 C 
ATOM     22  C   LIG d   1       6.596  -6.565  -6.189  0.00  0.00     0.015 C 
ATOM     23  C   LIG d   1       6.749  -8.803  -4.282  0.00  0.00    -0.029 C 
ATOM     24  H   LIG d   1       8.464  -8.624  -5.587  0.00  0.00     0.046 H 
ATOM     25  H   LIG d   1       8.734  -8.024  -3.930  0.00  0.00     0.046 H 
ATOM     26  C   LIG d   1       5.702  -8.759  -5.398  0.00  0.00     0.001 C 
ATOM     27  H   LIG d   1       6.354  -8.309  -3.393  0.00  0.00     0.029 H 
ATOM     28  H   LIG d   1       6.986  -9.841  -4.046  0.00  0.00     0.029 H 
ATOM     29  C   LIG d   1       5.344  -7.304  -5.707  0.00  0.00    -0.029 C 
ATOM     30  H   LIG d   1       6.106  -9.232  -6.293  0.00  0.00     0.036 H 
ATOM     31  H   LIG d   1       4.963  -6.824  -4.805  0.00  0.00     0.029 H 
ATOM     32  H   LIG d   1       4.582  -7.274  -6.485  0.00  0.00     0.029 H 
ATOM     33  H   LIG d   1       6.370  -5.506  -6.315  0.00  0.00     0.046 H 
ATOM     34  H   LIG d   1       6.926  -6.986  -7.138  0.00  0.00     0.046 H 
BRANCH  26  35
ATOM     35  C   LIG d   1       4.465  -9.498  -4.955  0.00  0.00     0.045 C 
ATOM     36  O   LIG d   1       4.081 -10.472  -5.580  0.00  0.00    -0.549 OA
ATOM     37  O   LIG d   1       3.849  -9.121  -3.974  0.00  0.00    -0.549 OA
ENDBRANCH  26  35
ENDBRANCH  15  18
ENDBRANCH  14  15
ENDBRANCH   7  14
BRANCH   1  38
ATOM     38  C   LIG d   1       2.618   0.485  -7.467  0.00  0.00    -0.005 C 
ATOM     39  H   LIG d   1       1.854   1.176  -7.143  0.00  0.00     0.066 H 
BRANCH  38  40
ATOM     40  C   LIG d   1       2.772   0.176  -8.891  0.00  0.00     0.021 A 
ATOM     41  C   LIG d   1       2.061  -0.887  -9.462  0.00  0.00    -0.048 A 
ATOM     42  C   LIG d   1       2.207  -1.171 -10.790  0.00  0.00    -0.019 A 
ATOM     43  H   LIG d   1       1.396  -1.480  -8.853  0.00  0.00     0.063 H 
ATOM     44  C   LIG d   1       3.060  -0.411 -11.583  0.00  0.00     0.124 A 
ATOM     45  H   LIG d   1       1.657  -1.992 -11.226  0.00  0.00     0.065 H 
ATOM     46  C   LIG d   1       3.777   0.642 -11.032  0.00  0.00     0.022 A 
ATOM     47  C   LIG d   1       3.637   0.946  -9.690  0.00  0.00     0.131 A 
ATOM     48  H   LIG d   1       4.442   1.226 -11.653  0.00  0.00     0.069 H 
BRANCH  44  49
ATOM     49  O   LIG d   1       3.197  -0.705 -12.902  0.00  0.00    -0.495 OA
BRANCH  49  50
ATOM     50  C   LIG d   1       4.527  -0.867 -13.396  0.00  0.00     0.079 C 
ATOM     51  H   LIG d   1       4.497  -1.035 -14.472  0.00  0.00     0.066 H 
ATOM     52  H   LIG d   1       5.106   0.031 -13.184  0.00  0.00     0.066 H 
ATOM     53  H   LIG d   1       4.993  -1.724 -12.909  0.00  0.00     0.066 H 
ENDBRANCH  49  50
ENDBRANCH  44  49
BRANCH  47  54
ATOM     54  O   LIG d   1       4.331   1.978  -9.148  0.00  0.00    -0.494 OA
BRANCH  54  55
ATOM     55  C   LIG d   1       5.744   1.812  -9.020  0.00  0.00     0.079 C 
ATOM     56  H   LIG d   1       6.103   2.385  -8.165  0.00  0.00     0.066 H 
ATOM     57  H   LIG d   1       5.975   0.757  -8.872  0.00  0.00     0.066 H 
ATOM     58  H   LIG d   1       6.236   2.167  -9.926  0.00  0.00     0.066 H 
ENDBRANCH  54  55
ENDBRANCH  47  54
ENDBRANCH  38  40
ENDBRANCH   1  38
TORSDOF 10
ENDMDL
MODEL 4
REMARK VINA RESULT:      -6.3      3.216      5.241
REMARK  10 active torsions:
REMARK  status: ('A' for Active; 'I' for Inactive)
REMARK    1  A    between atoms: C_1  and  O_2 
REMARK    2  A    between atoms: O_2  and  C_3 
REMARK    3  A    between atoms: C_6  and  C_11 
REMARK    4  A    between atoms: C_7  and  O_9 
REMARK    5  A    between atoms: O_9  and  C_10 
REMARK    6  A    between atoms: C_11  and  C_12 
REMARK    7  A    between atoms: C_18  and  O_22 
REMARK    8  A    between atoms: O_22  and  C_23 
REMARK    9  A    between atoms: C_23  and  C_24 
REMARK       I    between atoms: C_24  and  N_26 
REMARK   10  A    between atoms: C_29  and  C_32 
ROOT
ATOM      1  C   LIG d   1       9.880   5.794  -2.728  0.00  0.00     0.176 A 
ATOM      2  C   LIG d   1      10.865   5.855  -3.814  0.00  0.00     0.232 A 
ATOM      3  O   LIG d   1      11.389   6.848  -4.290  0.00  0.00    -0.283 OA
ATOM      4  C   LIG d   1      11.079   4.449  -4.201  0.00  0.00     0.068 A 
ATOM      5  C   LIG d   1      11.884   3.835  -5.160  0.00  0.00    -0.044 A 
ATOM      6  C   LIG d   1      11.871   2.475  -5.291  0.00  0.00    -0.019 A 
ATOM      7  C   LIG d   1      11.055   1.701  -4.468  0.00  0.00     0.125 A 
ATOM      8  C   LIG d   1      10.250   2.297  -3.512  0.00  0.00     0.023 A 
ATOM      9  C   LIG d   1      10.252   3.679  -3.366  0.00  0.00     0.143 A 
ATOM     10  O   LIG d   1       9.577   4.489  -2.523  0.00  0.00    -0.451 OA
ATOM     11  H   LIG d   1      12.516   4.432  -5.799  0.00  0.00     0.063 H 
ATOM     12  H   LIG d   1      12.494   1.998  -6.033  0.00  0.00     0.065 H 
ATOM     13  H   LIG d   1       9.621   1.688  -2.880  0.00  0.00     0.069 H 
ENDROOT
BRANCH   7  14
ATOM     14  O   LIG d   1      11.049   0.350  -4.606  0.00  0.00    -0.483 OA
BRANCH  14  15
ATOM     15  C   LIG d   1      10.309  -0.186  -5.704  0.00  0.00     0.165 C 
ATOM     16  H   LIG d   1       9.706   0.601  -6.156  0.00  0.00     0.080 H 
ATOM     17  H   LIG d   1      10.999  -0.586  -6.446  0.00  0.00     0.080 H 
BRANCH  15  18
ATOM     18  C   LIG d   1       9.408  -1.288  -5.211  0.00  0.00     0.253 C 
ATOM     19  O   LIG d   1       9.854  -2.401  -5.025  0.00  0.00    -0.272 OA
ATOM     20  N   LIG d   1       8.104  -1.039  -4.977  0.00  0.00    -0.299 N 
ATOM     21  C   LIG d   1       7.212  -2.102  -4.495  0.00  0.00     0.015 C 
ATOM     22  C   LIG d   1       7.546   0.302  -5.203  0.00  0.00     0.015 C 
ATOM     23  C   LIG d   1       6.510  -1.613  -3.221  0.00  0.00    -0.029 C 
ATOM     24  H   LIG d   1       6.469  -2.330  -5.261  0.00  0.00     0.046 H 
ATOM     25  H   LIG d   1       7.796  -2.995  -4.273  0.00  0.00     0.046 H 
ATOM     26  C   LIG d   1       5.804  -0.285  -3.512  0.00  0.00     0.001 C 
ATOM     27  H   LIG d   1       7.245  -1.467  -2.429  0.00  0.00     0.029 H 
ATOM     28  H   LIG d   1       5.775  -2.353  -2.903  0.00  0.00     0.029 H 
ATOM     29  C   LIG d   1       6.839   0.764  -3.925  0.00  0.00    -0.029 C 
ATOM     30  H   LIG d   1       5.086  -0.425  -4.319  0.00  0.00     0.036 H 
ATOM     31  H   LIG d   1       7.571   0.886  -3.128  0.00  0.00     0.029 H 
ATOM     32  H   LIG d   1       6.338   1.715  -4.109  0.00  0.00     0.029 H 
ATOM     33  H   LIG d   1       8.350   0.996  -5.446  0.00  0.00     0.046 H 
ATOM     34  H   LIG d   1       6.831   0.266  -6.024  0.00  0.00     0.046 H 
BRANCH  26  35
ATOM     35  C   LIG d   1       5.082   0.181  -2.273  0.00  0.00     0.045 C 
ATOM     36  O   LIG d   1       5.215   1.330  -1.888  0.00  0.00    -0.549 OA
ATOM     37  O   LIG d   1       4.368  -0.591  -1.658  0.00  0.00    -0.549 OA
ENDBRANCH  26  35
ENDBRANCH  15  18
ENDBRANCH  14  15
ENDBRANCH   7  14
BRANCH   1  38
ATOM     38  C   LIG d   1       9.368   6.854  -2.046  0.00  0.00    -0.005 C 
ATOM     39  H   LIG d   1       8.442   7.306  -2.368  0.00  0.00     0.066 H 
BRANCH  38  40
ATOM     40  C   LIG d   1      10.073   7.381  -0.876  0.00  0.00     0.021 A 
ATOM     41  C   LIG d   1      10.752   6.512  -0.011  0.00  0.00    -0.048 A 
ATOM     42  C   LIG d   1      11.409   7.008   1.079  0.00  0.00    -0.019 A 
ATOM     43  H   LIG d   1      10.756   5.451  -0.207  0.00  0.00     0.063 H 
ATOM     44  C   LIG d   1      11.410   8.375   1.339  0.00  0.00     0.124 A 
ATOM     45  H   LIG d   1      11.930   6.334   1.743  0.00  0.00     0.065 H 
ATOM     46  C   LIG d   1      10.738   9.249   0.497  0.00  0.00     0.022 A 
ATOM     47  C   LIG d   1      10.072   8.764  -0.615  0.00  0.00     0.131 A 
ATOM     48  H   LIG d   1      10.738  10.310   0.706  0.00  0.00     0.069 H 
BRANCH  44  49
ATOM     49  O   LIG d   1      12.067   8.855   2.426  0.00  0.00    -0.495 OA
BRANCH  49  50
ATOM     50  C   LIG d   1      12.922   9.981   2.222  0.00  0.00     0.079 C 
ATOM     51  H   LIG d   1      13.143  10.448   3.182  0.00  0.00     0.066 H 
ATOM     52  H   LIG d   1      13.850   9.653   1.755  0.00  0.00     0.066 H 
ATOM     53  H   LIG d   1      12.424  10.703   1.574  0.00  0.00     0.066 H 
ENDBRANCH  49  50
ENDBRANCH  44  49
BRANCH  47  54
ATOM     54  O   LIG d   1       9.418   9.615  -1.445  0.00  0.00    -0.494 OA
BRANCH  54  55
ATOM     55  C   LIG d   1      10.050  10.866  -1.720  0.00  0.00     0.079 C 
ATOM     56  H   LIG d   1      10.530  10.824  -2.697  0.00  0.00     0.066 H 
ATOM     57  H   LIG d   1       9.303  11.660  -1.716  0.00  0.00     0.066 H 
ATOM     58  H   LIG d   1      10.801  11.070  -0.956  0.00  0.00     0.066 H 
ENDBRANCH  54  55
ENDBRANCH  47  54
ENDBRANCH  38  40
ENDBRANCH   1  38
TORSDOF 10
ENDMDL
MODEL 5
REMARK VINA RESULT:      -6.3      1.494      2.016
REMARK  10 active torsions:
REMARK  status: ('A' for Active; 'I' for Inactive)
REMARK    1  A    between atoms: C_1  and  O_2 
REMARK    2  A    between atoms: O_2  and  C_3 
REMARK    3  A    between atoms: C_6  and  C_11 
REMARK    4  A    between atoms: C_7  and  O_9 
REMARK    5  A    between atoms: O_9  and  C_10 
REMARK    6  A    between atoms: C_11  and  C_12 
REMARK    7  A    between atoms: C_18  and  O_22 
REMARK    8  A    between atoms: O_22  and  C_23 
REMARK    9  A    between atoms: C_23  and  C_24 
REMARK       I    between atoms: C_24  and  N_26 
REMARK   10  A    between atoms: C_29  and  C_32 
ROOT
ATOM      1  C   LIG d   1       9.551   3.961  -4.557  0.00  0.00     0.176 A 
ATOM      2  C   LIG d   1       9.487   3.240  -5.834  0.00  0.00     0.232 A 
ATOM      3  O   LIG d   1      10.033   3.534  -6.885  0.00  0.00    -0.283 OA
ATOM      4  C   LIG d   1       8.616   2.083  -5.563  0.00  0.00     0.068 A 
ATOM      5  C   LIG d   1       8.161   1.025  -6.351  0.00  0.00    -0.044 A 
ATOM      6  C   LIG d   1       7.342   0.075  -5.809  0.00  0.00    -0.019 A 
ATOM      7  C   LIG d   1       6.958   0.162  -4.473  0.00  0.00     0.125 A 
ATOM      8  C   LIG d   1       7.400   1.208  -3.679  0.00  0.00     0.023 A 
ATOM      9  C   LIG d   1       8.235   2.181  -4.214  0.00  0.00     0.143 A 
ATOM     10  O   LIG d   1       8.799   3.277  -3.662  0.00  0.00    -0.451 OA
ATOM     11  H   LIG d   1       8.457   0.955  -7.386  0.00  0.00     0.063 H 
ATOM     12  H   LIG d   1       6.990  -0.745  -6.418  0.00  0.00     0.065 H 
ATOM     13  H   LIG d   1       7.097   1.267  -2.644  0.00  0.00     0.069 H 
ENDROOT
BRANCH   7  14
ATOM     14  O   LIG d   1       6.143  -0.785  -3.944  0.00  0.00    -0.483 OA
BRANCH  14  15
ATOM     15  C   LIG d   1       5.323  -1.519  -4.856  0.00  0.00     0.165 C 
ATOM     16  H   LIG d   1       5.901  -1.765  -5.747  0.00  0.00     0.080 H 
ATOM     17  H   LIG d   1       4.982  -2.437  -4.380  0.00  0.00     0.080 H 
BRANCH  15  18
ATOM     18  C   LIG d   1       4.132  -0.681  -5.246  0.00  0.00     0.253 C 
ATOM     19  O   LIG d   1       3.515  -0.072  -4.398  0.00  0.00    -0.272 OA
ATOM     20  N   LIG d   1       3.752  -0.610  -6.537  0.00  0.00    -0.299 N 
ATOM     21  C   LIG d   1       2.593   0.202  -6.933  0.00  0.00     0.015 C 
ATOM     22  C   LIG d   1       4.485  -1.347  -7.575  0.00  0.00     0.015 C 
ATOM     23  C   LIG d   1       3.030   1.169  -8.043  0.00  0.00    -0.029 C 
ATOM     24  H   LIG d   1       1.800  -0.449  -7.302  0.00  0.00     0.046 H 
ATOM     25  H   LIG d   1       2.234   0.768  -6.074  0.00  0.00     0.046 H 
ATOM     26  C   LIG d   1       3.658   0.371  -9.189  0.00  0.00     0.001 C 
ATOM     27  H   LIG d   1       3.761   1.875  -7.648  0.00  0.00     0.029 H 
ATOM     28  H   LIG d   1       2.160   1.713  -8.413  0.00  0.00     0.029 H 
ATOM     29  C   LIG d   1       4.897  -0.367  -8.678  0.00  0.00    -0.029 C 
ATOM     30  H   LIG d   1       2.935  -0.351  -9.567  0.00  0.00     0.036 H 
ATOM     31  H   LIG d   1       5.610   0.353  -8.277  0.00  0.00     0.029 H 
ATOM     32  H   LIG d   1       5.357  -0.916  -9.500  0.00  0.00     0.029 H 
ATOM     33  H   LIG d   1       5.375  -1.803  -7.141  0.00  0.00     0.046 H 
ATOM     34  H   LIG d   1       3.844  -2.122  -7.995  0.00  0.00     0.046 H 
BRANCH  26  35
ATOM     35  C   LIG d   1       4.055   1.312 -10.297  0.00  0.00     0.045 C 
ATOM     36  O   LIG d   1       4.361   2.463 -10.038  0.00  0.00    -0.549 OA
ATOM     37  O   LIG d   1       4.068   0.922 -11.452  0.00  0.00    -0.549 OA
ENDBRANCH  26  35
ENDBRANCH  15  18
ENDBRANCH  14  15
ENDBRANCH   7  14
BRANCH   1  38
ATOM     38  C   LIG d   1      10.244   5.106  -4.315  0.00  0.00    -0.005 C 
ATOM     39  H   LIG d   1      10.691   5.650  -5.134  0.00  0.00     0.066 H 
BRANCH  38  40
ATOM     40  C   LIG d   1      10.383   5.601  -2.943  0.00  0.00     0.021 A 
ATOM     41  C   LIG d   1       9.511   6.585  -2.457  0.00  0.00    -0.048 A 
ATOM     42  C   LIG d   1       9.644   7.043  -1.178  0.00  0.00    -0.019 A 
ATOM     43  H   LIG d   1       8.734   6.979  -3.094  0.00  0.00     0.063 H 
ATOM     44  C   LIG d   1      10.642   6.540  -0.349  0.00  0.00     0.124 A 
ATOM     45  H   LIG d   1       8.970   7.801  -0.807  0.00  0.00     0.065 H 
ATOM     46  C   LIG d   1      11.518   5.570  -0.816  0.00  0.00     0.022 A 
ATOM     47  C   LIG d   1      11.394   5.091  -2.108  0.00  0.00     0.131 A 
ATOM     48  H   LIG d   1      12.295   5.187  -0.169  0.00  0.00     0.069 H 
BRANCH  44  49
ATOM     49  O   LIG d   1      10.763   7.005   0.921  0.00  0.00    -0.495 OA
BRANCH  49  50
ATOM     50  C   LIG d   1      11.370   8.287   1.087  0.00  0.00     0.079 C 
ATOM     51  H   LIG d   1      12.138   8.427   0.326  0.00  0.00     0.066 H 
ATOM     52  H   LIG d   1      10.612   9.064   0.985  0.00  0.00     0.066 H 
ATOM     53  H   LIG d   1      11.824   8.349   2.076  0.00  0.00     0.066 H 
ENDBRANCH  49  50
ENDBRANCH  44  49
BRANCH  47  54
ATOM     54  O   LIG d   1      12.244   4.140  -2.568  0.00  0.00    -0.494 OA
BRANCH  54  55
ATOM     55  C   LIG d   1      13.614   4.515  -2.725  0.00  0.00     0.079 C 
ATOM     56  H   LIG d   1      14.020   4.044  -3.620  0.00  0.00     0.066 H 
ATOM     57  H   LIG d   1      13.686   5.598  -2.822  0.00  0.00     0.066 H 
ATOM     58  H   LIG d   1      14.183   4.189  -1.854  0.00  0.00     0.066 H 
ENDBRANCH  54  55
ENDBRANCH  47  54
ENDBRANCH  38  40
ENDBRANCH   1  38
TORSDOF 10
ENDMDL
MODEL 6
REMARK VINA RESULT:      -6.2      1.136      2.429
REMARK  10 active torsions:
REMARK  status: ('A' for Active; 'I' for Inactive)
REMARK    1  A    between atoms: C_1  and  O_2 
REMARK    2  A    between atoms: O_2  and  C_3 
REMARK    3  A    between atoms: C_6  and  C_11 
REMARK    4  A    between atoms: C_7  and  O_9 
REMARK    5  A    between atoms: O_9  and  C_10 
REMARK    6  A    between atoms: C_11  and  C_12 
REMARK    7  A    between atoms: C_18  and  O_22 
REMARK    8  A    between atoms: O_22  and  C_23 
REMARK    9  A    between atoms: C_23  and  C_24 
REMARK       I    between atoms: C_24  and  N_26 
REMARK   10  A    between atoms: C_29  and  C_32 
ROOT
ATOM      1  C   LIG d   1       9.565   2.676  -4.135  0.00  0.00     0.176 A 
ATOM      2  C   LIG d   1       9.749   1.369  -4.778  0.00  0.00     0.232 A 
ATOM      3  O   LIG d   1      10.726   0.970  -5.389  0.00  0.00    -0.283 OA
ATOM      4  C   LIG d   1       8.491   0.648  -4.518  0.00  0.00     0.068 A 
ATOM      5  C   LIG d   1       8.033  -0.626  -4.857  0.00  0.00    -0.044 A 
ATOM      6  C   LIG d   1       6.787  -1.028  -4.466  0.00  0.00    -0.019 A 
ATOM      7  C   LIG d   1       5.973  -0.169  -3.731  0.00  0.00     0.125 A 
ATOM      8  C   LIG d   1       6.414   1.098  -3.388  0.00  0.00     0.023 A 
ATOM      9  C   LIG d   1       7.679   1.523  -3.777  0.00  0.00     0.143 A 
ATOM     10  O   LIG d   1       8.334   2.685  -3.569  0.00  0.00    -0.451 OA
ATOM     11  H   LIG d   1       8.662  -1.293  -5.426  0.00  0.00     0.063 H 
ATOM     12  H   LIG d   1       6.432  -2.014  -4.728  0.00  0.00     0.065 H 
ATOM     13  H   LIG d   1       5.775   1.757  -2.819  0.00  0.00     0.069 H 
ENDROOT
BRANCH   7  14
ATOM     14  O   LIG d   1       4.737  -0.578  -3.348  0.00  0.00    -0.483 OA
BRANCH  14  15
ATOM     15  C   LIG d   1       3.924  -1.206  -4.342  0.00  0.00     0.165 C 
ATOM     16  H   LIG d   1       4.524  -1.924  -4.902  0.00  0.00     0.080 H 
ATOM     17  H   LIG d   1       3.096  -1.724  -3.860  0.00  0.00     0.080 H 
BRANCH  15  18
ATOM     18  C   LIG d   1       3.384  -0.161  -5.283  0.00  0.00     0.253 C 
ATOM     19  O   LIG d   1       2.800   0.808  -4.845  0.00  0.00    -0.272 OA
ATOM     20  N   LIG d   1       3.549  -0.302  -6.614  0.00  0.00    -0.299 N 
ATOM     21  C   LIG d   1       3.029   0.709  -7.544  0.00  0.00     0.015 C 
ATOM     22  C   LIG d   1       4.249  -1.472  -7.161  0.00  0.00     0.015 C 
ATOM     23  C   LIG d   1       4.175   1.171  -8.455  0.00  0.00    -0.029 C 
ATOM     24  H   LIG d   1       2.232   0.274  -8.147  0.00  0.00     0.046 H 
ATOM     25  H   LIG d   1       2.643   1.559  -6.982  0.00  0.00     0.046 H 
ATOM     26  C   LIG d   1       4.800  -0.048  -9.138  0.00  0.00     0.001 C 
ATOM     27  H   LIG d   1       4.933   1.683  -7.861  0.00  0.00     0.029 H 
ATOM     28  H   LIG d   1       3.785   1.852  -9.213  0.00  0.00     0.029 H 
ATOM     29  C   LIG d   1       5.377  -0.988  -8.077  0.00  0.00    -0.029 C 
ATOM     30  H   LIG d   1       4.038  -0.573  -9.713  0.00  0.00     0.036 H 
ATOM     31  H   LIG d   1       6.123  -0.456  -7.486  0.00  0.00     0.029 H 
ATOM     32  H   LIG d   1       5.843  -1.844  -8.565  0.00  0.00     0.029 H 
ATOM     33  H   LIG d   1       4.668  -2.062  -6.346  0.00  0.00     0.046 H 
ATOM     34  H   LIG d   1       3.550  -2.081  -7.733  0.00  0.00     0.046 H 
BRANCH  26  35
ATOM     35  C   LIG d   1       5.902   0.404 -10.062  0.00  0.00     0.045 C 
ATOM     36  O   LIG d   1       6.127  -0.213 -11.089  0.00  0.00    -0.549 OA
ATOM     37  O   LIG d   1       6.568   1.385  -9.781  0.00  0.00    -0.549 OA
ENDBRANCH  26  35
ENDBRANCH  15  18
ENDBRANCH  14  15
ENDBRANCH   7  14
BRANCH   1  38
ATOM     38  C   LIG d   1      10.468   3.693  -4.108  0.00  0.00    -0.005 C 
ATOM     39  H   LIG d   1      11.426   3.551  -3.629  0.00  0.00     0.066 H 
BRANCH  38  40
ATOM     40  C   LIG d   1      10.142   4.979  -4.728  0.00  0.00     0.021 A 
ATOM     41  C   LIG d   1      10.179   5.119  -6.122  0.00  0.00    -0.048 A 
ATOM     42  C   LIG d   1       9.874   6.320  -6.696  0.00  0.00    -0.019 A 
ATOM     43  H   LIG d   1      10.449   4.277  -6.741  0.00  0.00     0.063 H 
ATOM     44  C   LIG d   1       9.524   7.410  -5.906  0.00  0.00     0.124 A 
ATOM     45  H   LIG d   1       9.904   6.423  -7.771  0.00  0.00     0.065 H 
ATOM     46  C   LIG d   1       9.487   7.291  -4.524  0.00  0.00     0.022 A 
ATOM     47  C   LIG d   1       9.789   6.080  -3.926  0.00  0.00     0.131 A 
ATOM     48  H   LIG d   1       9.219   8.143  -3.915  0.00  0.00     0.069 H 
BRANCH  44  49
ATOM     49  O   LIG d   1       9.222   8.598  -6.490  0.00  0.00    -0.495 OA
BRANCH  49  50
ATOM     50  C   LIG d   1       9.066   8.601  -7.910  0.00  0.00     0.079 C 
ATOM     51  H   LIG d   1       9.337   9.582  -8.303  0.00  0.00     0.066 H 
ATOM     52  H   LIG d   1       9.714   7.843  -8.349  0.00  0.00     0.066 H 
ATOM     53  H   LIG d   1       8.028   8.384  -8.162  0.00  0.00     0.066 H 
ENDBRANCH  49  50
ENDBRANCH  44  49
BRANCH  47  54
ATOM     54  O   LIG d   1       9.750   5.957  -2.576  0.00  0.00    -0.494 OA
BRANCH  54  55
ATOM     55  C   LIG d   1       9.421   7.128  -1.827  0.00  0.00     0.079 C 
ATOM     56  H   LIG d   1       8.532   6.938  -1.225  0.00  0.00     0.066 H 
ATOM     57  H   LIG d   1      10.252   7.387  -1.172  0.00  0.00     0.066 H 
ATOM     58  H   LIG d   1       9.226   7.954  -2.511  0.00  0.00     0.066 H 
ENDBRANCH  54  55
ENDBRANCH  47  54
ENDBRANCH  38  40
ENDBRANCH   1  38
TORSDOF 10
ENDMDL
MODEL 7
REMARK VINA RESULT:      -6.1      5.936     10.995
REMARK  10 active torsions:
REMARK  status: ('A' for Active; 'I' for Inactive)
REMARK    1  A    between atoms: C_1  and  O_2 
REMARK    2  A    between atoms: O_2  and  C_3 
REMARK    3  A    between atoms: C_6  and  C_11 
REMARK    4  A    between atoms: C_7  and  O_9 
REMARK    5  A    between atoms: O_9  and  C_10 
REMARK    6  A    between atoms: C_11  and  C_12 
REMARK    7  A    between atoms: C_18  and  O_22 
REMARK    8  A    between atoms: O_22  and  C_23 
REMARK    9  A    between atoms: C_23  and  C_24 
REMARK       I    between atoms: C_24  and  N_26 
REMARK   10  A    between atoms: C_29  and  C_32 
ROOT
ATOM      1  C   LIG d   1       4.999  -6.898  -6.055  0.00  0.00     0.176 A 
ATOM      2  C   LIG d   1       6.351  -6.331  -6.118  0.00  0.00     0.232 A 
ATOM      3  O   LIG d   1       7.343  -6.824  -6.630  0.00  0.00    -0.283 OA
ATOM      4  C   LIG d   1       6.244  -5.035  -5.425  0.00  0.00     0.068 A 
ATOM      5  C   LIG d   1       7.162  -4.023  -5.145  0.00  0.00    -0.044 A 
ATOM      6  C   LIG d   1       6.760  -2.907  -4.467  0.00  0.00    -0.019 A 
ATOM      7  C   LIG d   1       5.436  -2.778  -4.054  0.00  0.00     0.125 A 
ATOM      8  C   LIG d   1       4.513  -3.775  -4.324  0.00  0.00     0.023 A 
ATOM      9  C   LIG d   1       4.906  -4.917  -5.013  0.00  0.00     0.143 A 
ATOM     10  O   LIG d   1       4.213  -6.010  -5.399  0.00  0.00    -0.451 OA
ATOM     11  H   LIG d   1       8.188  -4.121  -5.463  0.00  0.00     0.063 H 
ATOM     12  H   LIG d   1       7.470  -2.123  -4.250  0.00  0.00     0.065 H 
ATOM     13  H   LIG d   1       3.489  -3.667  -3.999  0.00  0.00     0.069 H 
ENDROOT
BRANCH   7  14
ATOM     14  O   LIG d   1       5.046  -1.666  -3.380  0.00  0.00    -0.483 OA
BRANCH  14  15
ATOM     15  C   LIG d   1       5.164  -0.418  -4.066  0.00  0.00     0.165 C 
ATOM     16  H   LIG d   1       5.327   0.381  -3.342  0.00  0.00     0.080 H 
ATOM     17  H   LIG d   1       6.007  -0.460  -4.755  0.00  0.00     0.080 H 
BRANCH  15  18
ATOM     18  C   LIG d   1       3.898  -0.147  -4.837  0.00  0.00     0.253 C 
ATOM     19  O   LIG d   1       2.886   0.170  -4.249  0.00  0.00    -0.272 OA
ATOM     20  N   LIG d   1       3.890  -0.257  -6.180  0.00  0.00    -0.299 N 
ATOM     21  C   LIG d   1       2.664   0.004  -6.946  0.00  0.00     0.015 C 
ATOM     22  C   LIG d   1       5.107  -0.646  -6.906  0.00  0.00     0.015 C 
ATOM     23  C   LIG d   1       2.976   1.047  -8.028  0.00  0.00    -0.029 C 
ATOM     24  H   LIG d   1       2.321  -0.921  -7.413  0.00  0.00     0.046 H 
ATOM     25  H   LIG d   1       1.892   0.387  -6.279  0.00  0.00     0.046 H 
ATOM     26  C   LIG d   1       4.153   0.558  -8.876  0.00  0.00     0.001 C 
ATOM     27  H   LIG d   1       3.235   1.996  -7.559  0.00  0.00     0.029 H 
ATOM     28  H   LIG d   1       2.101   1.183  -8.665  0.00  0.00     0.029 H 
ATOM     29  C   LIG d   1       5.391   0.399  -7.989  0.00  0.00    -0.029 C 
ATOM     30  H   LIG d   1       3.903  -0.402  -9.326  0.00  0.00     0.036 H 
ATOM     31  H   LIG d   1       5.627   1.354  -7.520  0.00  0.00     0.029 H 
ATOM     32  H   LIG d   1       6.234   0.074  -8.598  0.00  0.00     0.029 H 
ATOM     33  H   LIG d   1       5.947  -0.692  -6.214  0.00  0.00     0.046 H 
ATOM     34  H   LIG d   1       4.960  -1.622  -7.370  0.00  0.00     0.046 H 
BRANCH  26  35
ATOM     35  C   LIG d   1       4.440   1.562  -9.963  0.00  0.00     0.045 C 
ATOM     36  O   LIG d   1       5.173   2.510  -9.739  0.00  0.00    -0.549 OA
ATOM     37  O   LIG d   1       3.938   1.426 -11.066  0.00  0.00    -0.549 OA
ENDBRANCH  26  35
ENDBRANCH  15  18
ENDBRANCH  14  15
ENDBRANCH   7  14
BRANCH   1  38
ATOM     38  C   LIG d   1       4.604  -8.094  -6.566  0.00  0.00    -0.005 C 
ATOM     39  H   LIG d   1       3.847  -8.130  -7.335  0.00  0.00     0.066 H 
BRANCH  38  40
ATOM     40  C   LIG d   1       5.206  -9.336  -6.073  0.00  0.00     0.021 A 
ATOM     41  C   LIG d   1       6.222  -9.966  -6.804  0.00  0.00    -0.048 A 
ATOM     42  C   LIG d   1       6.781 -11.122  -6.341  0.00  0.00    -0.019 A 
ATOM     43  H   LIG d   1       6.563  -9.535  -7.734  0.00  0.00     0.063 H 
ATOM     44  C   LIG d   1       6.348 -11.683  -5.143  0.00  0.00     0.124 A 
ATOM     45  H   LIG d   1       7.563 -11.604  -6.908  0.00  0.00     0.065 H 
ATOM     46  C   LIG d   1       5.340 -11.076  -4.409  0.00  0.00     0.022 A 
ATOM     47  C   LIG d   1       4.766  -9.901  -4.862  0.00  0.00     0.131 A 
ATOM     48  H   LIG d   1       5.004 -11.518  -3.481  0.00  0.00     0.069 H 
BRANCH  44  49
ATOM     49  O   LIG d   1       6.913 -12.833  -4.693  0.00  0.00    -0.495 OA
BRANCH  49  50
ATOM     50  C   LIG d   1       7.845 -12.720  -3.616  0.00  0.00     0.079 C 
ATOM     51  H   LIG d   1       8.526 -11.891  -3.811  0.00  0.00     0.066 H 
ATOM     52  H   LIG d   1       7.306 -12.536  -2.687  0.00  0.00     0.066 H 
ATOM     53  H   LIG d   1       8.415 -13.645  -3.531  0.00  0.00     0.066 H 
ENDBRANCH  49  50
ENDBRANCH  44  49
BRANCH  47  54
ATOM     54  O   LIG d   1       3.783  -9.300  -4.146  0.00  0.00    -0.494 OA
BRANCH  54  55
ATOM     55  C   LIG d   1       3.193 -10.061  -3.090  0.00  0.00     0.079 C 
ATOM     56  H   LIG d   1       3.411  -9.586  -2.133  0.00  0.00     0.066 H 
ATOM     57  H   LIG d   1       2.114 -10.107  -3.234  0.00  0.00     0.066 H 
ATOM     58  H   LIG d   1       3.604 -11.071  -3.095  0.00  0.00     0.066 H 
ENDBRANCH  54  55
ENDBRANCH  47  54
ENDBRANCH  38  40
ENDBRANCH   1  38
TORSDOF 10
ENDMDL
MODEL 8
REMARK VINA RESULT:      -6.1      3.722     10.233
REMARK  10 active torsions:
REMARK  status: ('A' for Active; 'I' for Inactive)
REMARK    1  A    between atoms: C_1  and  O_2 
REMARK    2  A    between atoms: O_2  and  C_3 
REMARK    3  A    between atoms: C_6  and  C_11 
REMARK    4  A    between atoms: C_7  and  O_9 
REMARK    5  A    between atoms: O_9  and  C_10 
REMARK    6  A    between atoms: C_11  and  C_12 
REMARK    7  A    between atoms: C_18  and  O_22 
REMARK    8  A    between atoms: O_22  and  C_23 
REMARK    9  A    between atoms: C_23  and  C_24 
REMARK       I    between atoms: C_24  and  N_26 
REMARK   10  A    between atoms: C_29  and  C_32 
ROOT
ATOM      1  C   LIG d   1       8.983   1.818  -4.181  0.00  0.00     0.176 A 
ATOM      2  C   LIG d   1       8.957   2.868  -5.206  0.00  0.00     0.232 A 
ATOM      3  O   LIG d   1       8.590   2.770  -6.364  0.00  0.00    -0.283 OA
ATOM      4  C   LIG d   1       9.474   4.067  -4.521  0.00  0.00     0.068 A 
ATOM      5  C   LIG d   1       9.698   5.380  -4.934  0.00  0.00    -0.044 A 
ATOM      6  C   LIG d   1      10.198   6.296  -4.053  0.00  0.00    -0.019 A 
ATOM      7  C   LIG d   1      10.486   5.921  -2.742  0.00  0.00     0.125 A 
ATOM      8  C   LIG d   1      10.269   4.621  -2.318  0.00  0.00     0.023 A 
ATOM      9  C   LIG d   1       9.760   3.677  -3.202  0.00  0.00     0.143 A 
ATOM     10  O   LIG d   1       9.460   2.371  -3.039  0.00  0.00    -0.451 OA
ATOM     11  H   LIG d   1       9.476   5.673  -5.949  0.00  0.00     0.063 H 
ATOM     12  H   LIG d   1      10.372   7.313  -4.372  0.00  0.00     0.065 H 
ATOM     13  H   LIG d   1      10.496   4.339  -1.300  0.00  0.00     0.069 H 
ENDROOT
BRANCH   7  14
ATOM     14  O   LIG d   1      10.983   6.838  -1.874  0.00  0.00    -0.483 OA
BRANCH  14  15
ATOM     15  C   LIG d   1      10.449   6.832  -0.548  0.00  0.00     0.165 C 
ATOM     16  H   LIG d   1       9.367   6.958  -0.592  0.00  0.00     0.080 H 
ATOM     17  H   LIG d   1      10.685   5.884  -0.065  0.00  0.00     0.080 H 
BRANCH  15  18
ATOM     18  C   LIG d   1      11.055   7.964   0.242  0.00  0.00     0.253 C 
ATOM     19  O   LIG d   1      11.981   7.751   0.994  0.00  0.00    -0.272 OA
ATOM     20  N   LIG d   1      10.566   9.213   0.112  0.00  0.00    -0.299 N 
ATOM     21  C   LIG d   1      11.146  10.327   0.875  0.00  0.00     0.015 C 
ATOM     22  C   LIG d   1       9.440   9.486  -0.790  0.00  0.00     0.015 C 
ATOM     23  C   LIG d   1      11.529  11.445  -0.105  0.00  0.00    -0.029 C 
ATOM     24  H   LIG d   1      10.412  10.700   1.591  0.00  0.00     0.046 H 
ATOM     25  H   LIG d   1      12.034   9.983   1.405  0.00  0.00     0.046 H 
ATOM     26  C   LIG d   1      10.303  11.826  -0.939  0.00  0.00     0.001 C 
ATOM     27  H   LIG d   1      12.324  11.097  -0.766  0.00  0.00     0.029 H 
ATOM     28  H   LIG d   1      11.874  12.315   0.453  0.00  0.00     0.029 H 
ATOM     29  C   LIG d   1       9.838  10.613  -1.749  0.00  0.00    -0.029 C 
ATOM     30  H   LIG d   1       9.501  12.151  -0.278  0.00  0.00     0.036 H 
ATOM     31  H   LIG d   1      10.649  10.273  -2.393  0.00  0.00     0.029 H 
ATOM     32  H   LIG d   1       8.980  10.892  -2.360  0.00  0.00     0.029 H 
ATOM     33  H   LIG d   1       9.202   8.589  -1.361  0.00  0.00     0.046 H 
ATOM     34  H   LIG d   1       8.570   9.792  -0.209  0.00  0.00     0.046 H 
BRANCH  26  35
ATOM     35  C   LIG d   1      10.664  12.949  -1.879  0.00  0.00     0.045 C 
ATOM     36  O   LIG d   1      10.151  13.008  -2.983  0.00  0.00    -0.549 OA
ATOM     37  O   LIG d   1      11.470  13.796  -1.534  0.00  0.00    -0.549 OA
ENDBRANCH  26  35
ENDBRANCH  15  18
ENDBRANCH  14  15
ENDBRANCH   7  14
BRANCH   1  38
ATOM     38  C   LIG d   1       8.595   0.525  -4.345  0.00  0.00    -0.005 C 
ATOM     39  H   LIG d   1       9.230  -0.166  -4.879  0.00  0.00     0.066 H 
BRANCH  38  40
ATOM     40  C   LIG d   1       7.314   0.070  -3.799  0.00  0.00     0.021 A 
ATOM     41  C   LIG d   1       6.351   1.003  -3.389  0.00  0.00    -0.048 A 
ATOM     42  C   LIG d   1       5.158   0.575  -2.881  0.00  0.00    -0.019 A 
ATOM     43  H   LIG d   1       6.553   2.059  -3.477  0.00  0.00     0.063 H 
ATOM     44  C   LIG d   1       4.889  -0.785  -2.765  0.00  0.00     0.124 A 
ATOM     45  H   LIG d   1       4.420   1.298  -2.566  0.00  0.00     0.065 H 
ATOM     46  C   LIG d   1       5.833  -1.723  -3.160  0.00  0.00     0.022 A 
ATOM     47  C   LIG d   1       7.045  -1.306  -3.682  0.00  0.00     0.131 A 
ATOM     48  H   LIG d   1       5.620  -2.778  -3.063  0.00  0.00     0.069 H 
BRANCH  44  49
ATOM     49  O   LIG d   1       3.699  -1.197  -2.257  0.00  0.00    -0.495 OA
BRANCH  49  50
ATOM     50  C   LIG d   1       2.527  -0.873  -3.008  0.00  0.00     0.079 C 
ATOM     51  H   LIG d   1       2.659  -1.191  -4.042  0.00  0.00     0.066 H 
ATOM     52  H   LIG d   1       1.666  -1.384  -2.578  0.00  0.00     0.066 H 
ATOM     53  H   LIG d   1       2.363   0.204  -2.978  0.00  0.00     0.066 H 
ENDBRANCH  49  50
ENDBRANCH  44  49
BRANCH  47  54
ATOM     54  O   LIG d   1       7.969  -2.218  -4.074  0.00  0.00    -0.494 OA
BRANCH  54  55
ATOM     55  C   LIG d   1       7.497  -3.336  -4.827  0.00  0.00     0.079 C 
ATOM     56  H   LIG d   1       7.831  -3.247  -5.861  0.00  0.00     0.066 H 
ATOM     57  H   LIG d   1       7.891  -4.257  -4.398  0.00  0.00     0.066 H 
ATOM     58  H   LIG d   1       6.407  -3.360  -4.800  0.00  0.00     0.066 H 
ENDBRANCH  54  55
ENDBRANCH  47  54
ENDBRANCH  38  40
ENDBRANCH   1  38
TORSDOF 10
ENDMDL
MODEL 9
REMARK VINA RESULT:      -6.0      3.199      9.660
REMARK  10 active torsions:
REMARK  status: ('A' for Active; 'I' for Inactive)
REMARK    1  A    between atoms: C_1  and  O_2 
REMARK    2  A    between atoms: O_2  and  C_3 
REMARK    3  A    between atoms: C_6  and  C_11 
REMARK    4  A    between atoms: C_7  and  O_9 
REMARK    5  A    between atoms: O_9  and  C_10 
REMARK    6  A    between atoms: C_11  and  C_12 
REMARK    7  A    between atoms: C_18  and  O_22 
REMARK    8  A    between atoms: O_22  and  C_23 
REMARK    9  A    between atoms: C_23  and  C_24 
REMARK       I    between atoms: C_24  and  N_26 
REMARK   10  A    between atoms: C_29  and  C_32 
ROOT
ATOM      1  C   LIG d   1       7.523   1.544  -3.892  0.00  0.00     0.176 A 
ATOM      2  C   LIG d   1       8.046   1.801  -5.239  0.00  0.00     0.232 A 
ATOM      3  O   LIG d   1       7.502   1.573  -6.306  0.00  0.00    -0.283 OA
ATOM      4  C   LIG d   1       9.376   2.396  -5.013  0.00  0.00     0.068 A 
ATOM      5  C   LIG d   1      10.373   2.859  -5.871  0.00  0.00    -0.044 A 
ATOM      6  C   LIG d   1      11.530   3.372  -5.357  0.00  0.00    -0.019 A 
ATOM      7  C   LIG d   1      11.716   3.434  -3.978  0.00  0.00     0.125 A 
ATOM      8  C   LIG d   1      10.735   2.978  -3.113  0.00  0.00     0.023 A 
ATOM      9  C   LIG d   1       9.552   2.453  -3.620  0.00  0.00     0.143 A 
ATOM     10  O   LIG d   1       8.458   1.957  -3.003  0.00  0.00    -0.451 OA
ATOM     11  H   LIG d   1      10.231   2.812  -6.940  0.00  0.00     0.063 H 
ATOM     12  H   LIG d   1      12.303   3.730  -6.021  0.00  0.00     0.065 H 
ATOM     13  H   LIG d   1      10.888   3.029  -2.045  0.00  0.00     0.069 H 
ENDROOT
BRANCH   7  14
ATOM     14  O   LIG d   1      12.869   3.945  -3.476  0.00  0.00    -0.483 OA
BRANCH  14  15
ATOM     15  C   LIG d   1      12.910   5.355  -3.251  0.00  0.00     0.165 C 
ATOM     16  H   LIG d   1      13.903   5.734  -3.492  0.00  0.00     0.080 H 
ATOM     17  H   LIG d   1      12.171   5.846  -3.884  0.00  0.00     0.080 H 
BRANCH  15  18
ATOM     18  C   LIG d   1      12.601   5.642  -1.804  0.00  0.00     0.253 C 
ATOM     19  O   LIG d   1      13.392   5.327  -0.941  0.00  0.00    -0.272 OA
ATOM     20  N   LIG d   1      11.444   6.247  -1.469  0.00  0.00    -0.299 N 
ATOM     21  C   LIG d   1      11.128   6.533  -0.063  0.00  0.00     0.015 C 
ATOM     22  C   LIG d   1      10.472   6.628  -2.503  0.00  0.00     0.015 C 
ATOM     23  C   LIG d   1      10.792   8.025   0.069  0.00  0.00    -0.029 C 
ATOM     24  H   LIG d   1      10.272   5.933   0.248  0.00  0.00     0.046 H 
ATOM     25  H   LIG d   1      11.990   6.295   0.560  0.00  0.00     0.046 H 
ATOM     26  C   LIG d   1       9.670   8.378  -0.911  0.00  0.00     0.001 C 
ATOM     27  H   LIG d   1      11.676   8.622  -0.160  0.00  0.00     0.029 H 
ATOM     28  H   LIG d   1      10.465   8.235   1.088  0.00  0.00     0.029 H 
ATOM     29  C   LIG d   1      10.141   8.115  -2.343  0.00  0.00    -0.029 C 
ATOM     30  H   LIG d   1       8.795   7.765  -0.697  0.00  0.00     0.036 H 
ATOM     31  H   LIG d   1      11.030   8.711  -2.549  0.00  0.00     0.029 H 
ATOM     32  H   LIG d   1       9.349   8.389  -3.041  0.00  0.00     0.029 H 
ATOM     33  H   LIG d   1      10.900   6.454  -3.490  0.00  0.00     0.046 H 
ATOM     34  H   LIG d   1       9.564   6.037  -2.387  0.00  0.00     0.046 H 
BRANCH  26  35
ATOM     35  C   LIG d   1       9.311   9.835  -0.759  0.00  0.00     0.045 C 
ATOM     36  O   LIG d   1       8.844  10.448  -1.703  0.00  0.00    -0.549 OA
ATOM     37  O   LIG d   1       9.489  10.398   0.307  0.00  0.00    -0.549 OA
ENDBRANCH  26  35
ENDBRANCH  15  18
ENDBRANCH  14  15
ENDBRANCH   7  14
BRANCH   1  38
ATOM     38  C   LIG d   1       6.315   0.996  -3.590  0.00  0.00    -0.005 C 
ATOM     39  H   LIG d   1       5.576   1.576  -3.058  0.00  0.00     0.066 H 
BRANCH  38  40
ATOM     40  C   LIG d   1       6.017  -0.383  -3.988  0.00  0.00     0.021 A 
ATOM     41  C   LIG d   1       6.877  -1.425  -3.615  0.00  0.00    -0.048 A 
ATOM     42  C   LIG d   1       6.596  -2.708  -3.987  0.00  0.00    -0.019 A 
ATOM     43  H   LIG d   1       7.760  -1.213  -3.033  0.00  0.00     0.063 H 
ATOM     44  C   LIG d   1       5.458  -2.991  -4.737  0.00  0.00     0.124 A 
ATOM     45  H   LIG d   1       7.261  -3.508  -3.698  0.00  0.00     0.065 H 
ATOM     46  C   LIG d   1       4.599  -1.971  -5.120  0.00  0.00     0.022 A 
ATOM     47  C   LIG d   1       4.867  -0.666  -4.747  0.00  0.00     0.131 A 
ATOM     48  H   LIG d   1       3.720  -2.196  -5.706  0.00  0.00     0.069 H 
BRANCH  44  49
ATOM     49  O   LIG d   1       5.190  -4.272  -5.101  0.00  0.00    -0.495 OA
BRANCH  49  50
ATOM     50  C   LIG d   1       4.420  -4.461  -6.289  0.00  0.00     0.079 C 
ATOM     51  H   LIG d   1       3.820  -3.571  -6.478  0.00  0.00     0.066 H 
ATOM     52  H   LIG d   1       5.089  -4.633  -7.132  0.00  0.00     0.066 H 
ATOM     53  H   LIG d   1       3.763  -5.322  -6.163  0.00  0.00     0.066 H 
ENDBRANCH  49  50
ENDBRANCH  44  49
BRANCH  47  54
ATOM     54  O   LIG d   1       4.028   0.335  -5.114  0.00  0.00    -0.494 OA
BRANCH  54  55
ATOM     55  C   LIG d   1       2.720   0.328  -4.540  0.00  0.00     0.079 C 
ATOM     56  H   LIG d   1       2.381   1.353  -4.392  0.00  0.00     0.066 H 
ATOM     57  H   LIG d   1       2.032  -0.188  -5.210  0.00  0.00     0.066 H 
ATOM     58  H   LIG d   1       2.746  -0.188  -3.580  0.00  0.00     0.066 H 
ENDBRANCH  54  55
ENDBRANCH  47  54
ENDBRANCH  38  40
ENDBRANCH   1  38
TORSDOF 10
ENDMDL
