MODEL 1
REMARK VINA RESULT:      -6.9      0.000      0.000
REMARK  16 active torsions:
REMARK  status: ('A' for Active; 'I' for Inactive)
REMARK    1  A    between atoms: C_1  and  C_2 
REMARK    2  A    between atoms: C_2  and  C_4 
REMARK    3  A    between atoms: C_2  and  N_16 
REMARK       I    between atoms: C_4  and  N_6 
REMARK    4  A    between atoms: N_6  and  C_7 
REMARK    5  A    between atoms: C_7  and  C_9 
REMARK    6  A    between atoms: C_7  and  C_13 
REMARK    7  A    between atoms: C_9  and  C_10 
REMARK       I    between atoms: C_10  and  N_12 
REMARK       I    between atoms: C_13  and  N_15 
REMARK       I    between atoms: N_16  and  C_17 
REMARK    8  A    between atoms: C_17  and  C_19 
REMARK    9  A    between atoms: C_19  and  C_21 
REMARK   10  A    between atoms: C_19  and  N_26 
REMARK   11  A    between atoms: C_21  and  C_22 
REMARK   12  A    between atoms: C_22  and  C_23 
REMARK       I    between atoms: N_26  and  C_27 
REMARK   13  A    between atoms: C_27  and  C_29 
REMARK   14  A    between atoms: N_34  and  C_35 
REMARK   15  A    between atoms: C_38  and  N_44 
REMARK   16  A    between atoms: C_40  and  N_41 
ROOT
ATOM      1  C   LIG d   1       8.341   1.443  -5.519  0.00  0.00     0.100 C 
ATOM      2  H   LIG d   1       8.929   0.531  -5.415  0.00  0.00     0.059 H 
ENDROOT
BRANCH   1   3
ATOM      3  C   LIG d   1       9.007   2.559  -4.757  0.00  0.00     0.234 C 
ATOM      4  N   LIG d   1       9.552   3.598  -5.421  0.00  0.00    -0.303 N 
ATOM      5  H   LIG d   1       9.515   3.626  -6.391  0.00  0.00     0.149 HD
ATOM      6  O   LIG d   1       9.055   2.523  -3.546  0.00  0.00    -0.274 OA
BRANCH   4   7
ATOM      7  C   LIG d   1      10.200   4.683  -4.681  0.00  0.00     0.097 C 
ATOM      8  H   LIG d   1      10.077   4.516  -3.611  0.00  0.00     0.059 H 
BRANCH   7   9
ATOM      9  C   LIG d   1      11.691   4.714  -5.024  0.00  0.00    -0.038 C 
ATOM     10  H   LIG d   1      12.044   3.698  -5.204  0.00  0.00     0.025 H 
ATOM     11  H   LIG d   1      11.846   5.317  -5.918  0.00  0.00     0.025 H 
ATOM     12  H   LIG d   1      12.245   5.148  -4.192  0.00  0.00     0.025 H 
ENDBRANCH   7   9
BRANCH   7  13
ATOM     13  C   LIG d   1       9.569   5.998  -5.061  0.00  0.00     0.234 C 
ATOM     14  O   LIG d   1       8.699   6.476  -4.365  0.00  0.00    -0.274 OA
ATOM     15  N   LIG d   1       9.972   6.642  -6.174  0.00  0.00    -0.302 N 
ATOM     16  H   LIG d   1      10.668   6.259  -6.730  0.00  0.00     0.149 HD
BRANCH  15  17
ATOM     17  C   LIG d   1       9.359   7.920  -6.543  0.00  0.00     0.107 C 
ATOM     18  H   LIG d   1       8.414   8.037  -6.012  0.00  0.00     0.060 H 
BRANCH  17  19
ATOM     19  C   LIG d   1      10.301   9.065  -6.164  0.00  0.00     0.051 C 
ATOM     20  H   LIG d   1      11.234   8.655  -5.776  0.00  0.00     0.038 H 
ATOM     21  H   LIG d   1      10.510   9.670  -7.047  0.00  0.00     0.038 H 
BRANCH  19  22
ATOM     22  C   LIG d   1       9.652   9.923  -5.109  0.00  0.00     0.213 C 
ATOM     23  O   LIG d   1       9.248  11.030  -5.393  0.00  0.00    -0.276 OA
ATOM     24  N   LIG d   1       9.521   9.459  -3.851  0.00  0.00    -0.329 N 
ATOM     25  H   LIG d   1       9.844   8.573  -3.625  0.00  0.00     0.145 HD
ATOM     26  H   LIG d   1       9.102  10.011  -3.171  0.00  0.00     0.145 HD
ENDBRANCH  19  22
ENDBRANCH  17  19
BRANCH  17  27
ATOM     27  C   LIG d   1       9.108   7.947  -8.028  0.00  0.00     0.231 C 
ATOM     28  O   LIG d   1       9.464   7.017  -8.721  0.00  0.00    -0.274 OA
ATOM     29  N   LIG d   1       8.486   9.004  -8.587  0.00  0.00    -0.328 N 
ATOM     30  H   LIG d   1       8.200   9.747  -8.034  0.00  0.00     0.145 HD
ATOM     31  H   LIG d   1       8.324   9.021  -9.544  0.00  0.00     0.145 HD
ENDBRANCH  17  27
ENDBRANCH  15  17
ENDBRANCH   7  13
ENDBRANCH   4   7
ENDBRANCH   1   3
BRANCH   1  32
ATOM     32  C   LIG d   1       8.245   1.822  -6.998  0.00  0.00    -0.021 C 
ATOM     33  H   LIG d   1       8.287   2.907  -7.099  0.00  0.00     0.029 H 
ATOM     34  H   LIG d   1       9.076   1.374  -7.543  0.00  0.00     0.029 H 
BRANCH  32  35
ATOM     35  C   LIG d   1       6.923   1.307  -7.572  0.00  0.00    -0.011 C 
ATOM     36  H   LIG d   1       6.942   0.217  -7.606  0.00  0.00     0.033 H 
ATOM     37  H   LIG d   1       6.100   1.636  -6.938  0.00  0.00     0.033 H 
BRANCH  35  38
ATOM     38  C   LIG d   1       6.734   1.851  -8.965  0.00  0.00     0.042 C 
ATOM     39  O   LIG d   1       7.627   1.743  -9.787  0.00  0.00    -0.550 OA
ATOM     40  O   LIG d   1       5.689   2.399  -9.269  0.00  0.00    -0.550 OA
ENDBRANCH  35  38
ENDBRANCH  32  35
ENDBRANCH   1  32
BRANCH   1  41
ATOM     41  N   LIG d   1       6.996   1.221  -4.984  0.00  0.00    -0.302 N 
ATOM     42  C   LIG d   1       6.706   0.071  -4.344  0.00  0.00     0.234 C 
ATOM     43  O   LIG d   1       7.559  -0.781  -4.211  0.00  0.00    -0.274 OA
ATOM     44  H   LIG d   1       6.313   1.902  -5.090  0.00  0.00     0.149 HD
BRANCH  42  45
ATOM     45  C   LIG d   1       5.321  -0.156  -3.794  0.00  0.00     0.100 C 
ATOM     46  H   LIG d   1       4.781   0.789  -3.748  0.00  0.00     0.060 H 
ATOM     47  N   LIG d   1       4.594  -1.108  -4.648  0.00  0.00    -0.313 N 
ATOM     48  C   LIG d   1       4.256  -2.298  -3.842  0.00  0.00     0.013 C 
ATOM     49  C   LIG d   1       4.241  -1.795  -2.377  0.00  0.00    -0.035 C 
ATOM     50  H   LIG d   1       5.014  -3.072  -3.969  0.00  0.00     0.046 H 
ATOM     51  H   LIG d   1       3.274  -2.678  -4.123  0.00  0.00     0.046 H 
ATOM     52  C   LIG d   1       5.413  -0.779  -2.384  0.00  0.00    -0.024 C 
ATOM     53  H   LIG d   1       4.436  -2.612  -1.682  0.00  0.00     0.028 H 
ATOM     54  H   LIG d   1       3.297  -1.302  -2.143  0.00  0.00     0.028 H 
ATOM     55  H   LIG d   1       6.366  -1.288  -2.248  0.00  0.00     0.029 H 
ATOM     56  H   LIG d   1       5.267  -0.018  -1.617  0.00  0.00     0.029 H 
BRANCH  47  57
ATOM     57  C   LIG d   1       4.277  -0.914  -5.995  0.00  0.00     0.109 A 
ATOM     58  C   LIG d   1       3.231  -0.073  -6.349  0.00  0.00     0.300 A 
ATOM     59  C   LIG d   1       2.923   0.119  -7.682  0.00  0.00     0.095 A 
ATOM     60  C   LIG d   1       3.648  -0.532  -8.662  0.00  0.00     0.280 A 
ATOM     61  H   LIG d   1       2.112   0.776  -7.959  0.00  0.00     0.075 H 
ATOM     62  C   LIG d   1       4.688  -1.375  -8.311  0.00  0.00     0.018 A 
ATOM     63  C   LIG d   1       5.004  -1.568  -6.981  0.00  0.00    -0.028 A 
ATOM     64  H   LIG d   1       5.253  -1.882  -9.080  0.00  0.00     0.069 H 
ATOM     65  H   LIG d   1       5.816  -2.225  -6.709  0.00  0.00     0.064 H 
BRANCH  58  66
ATOM     66  N   LIG d   1       2.449   0.620  -5.301  0.00  0.00     0.082 N 
ATOM     67  O   LIG d   1       1.647   0.004  -4.638  0.00  0.00     0.042 OA
ATOM     68  O   LIG d   1       2.612   1.803  -5.107  0.00  0.00    -0.576 OA
ENDBRANCH  58  66
BRANCH  60  69
ATOM     69  N   LIG d   1       3.312  -0.328 -10.089  0.00  0.00     0.080 N 
ATOM     70  O   LIG d   1       2.159  -0.374 -10.451  0.00  0.00     0.041 OA
ATOM     71  O   LIG d   1       4.190  -0.116 -10.892  0.00  0.00    -0.576 OA
ENDBRANCH  60  69
ENDBRANCH  47  57
ENDBRANCH  42  45
ENDBRANCH   1  41
TORSDOF 16
ENDMDL
MODEL 2
REMARK VINA RESULT:      -6.7      2.591      3.321
REMARK  16 active torsions:
REMARK  status: ('A' for Active; 'I' for Inactive)
REMARK    1  A    between atoms: C_1  and  C_2 
REMARK    2  A    between atoms: C_2  and  C_4 
REMARK    3  A    between atoms: C_2  and  N_16 
REMARK       I    between atoms: C_4  and  N_6 
REMARK    4  A    between atoms: N_6  and  C_7 
REMARK    5  A    between atoms: C_7  and  C_9 
REMARK    6  A    between atoms: C_7  and  C_13 
REMARK    7  A    between atoms: C_9  and  C_10 
REMARK       I    between atoms: C_10  and  N_12 
REMARK       I    between atoms: C_13  and  N_15 
REMARK       I    between atoms: N_16  and  C_17 
REMARK    8  A    between atoms: C_17  and  C_19 
REMARK    9  A    between atoms: C_19  and  C_21 
REMARK   10  A    between atoms: C_19  and  N_26 
REMARK   11  A    between atoms: C_21  and  C_22 
REMARK   12  A    between atoms: C_22  and  C_23 
REMARK       I    between atoms: N_26  and  C_27 
REMARK   13  A    between atoms: C_27  and  C_29 
REMARK   14  A    between atoms: N_34  and  C_35 
REMARK   15  A    between atoms: C_38  and  N_44 
REMARK   16  A    between atoms: C_40  and  N_41 
ROOT
ATOM      1  C   LIG d   1       8.666   1.134  -6.196  0.00  0.00     0.100 C 
ATOM      2  H   LIG d   1       8.899   0.165  -6.638  0.00  0.00     0.059 H 
ENDROOT
BRANCH   1   3
ATOM      3  C   LIG d   1       9.802   1.566  -5.305  0.00  0.00     0.234 C 
ATOM      4  N   LIG d   1      10.078   2.876  -5.153  0.00  0.00    -0.303 N 
ATOM      5  H   LIG d   1       9.545   3.541  -5.617  0.00  0.00     0.149 HD
ATOM      6  O   LIG d   1      10.468   0.735  -4.726  0.00  0.00    -0.274 OA
BRANCH   4   7
ATOM      7  C   LIG d   1      11.182   3.297  -4.287  0.00  0.00     0.097 C 
ATOM      8  H   LIG d   1      11.730   2.419  -3.945  0.00  0.00     0.059 H 
BRANCH   7   9
ATOM      9  C   LIG d   1      12.125   4.212  -5.072  0.00  0.00    -0.038 C 
ATOM     10  H   LIG d   1      11.563   5.058  -5.469  0.00  0.00     0.025 H 
ATOM     11  H   LIG d   1      12.912   4.576  -4.412  0.00  0.00     0.025 H 
ATOM     12  H   LIG d   1      12.570   3.653  -5.895  0.00  0.00     0.025 H 
ENDBRANCH   7   9
BRANCH   7  13
ATOM     13  C   LIG d   1      10.633   4.043  -3.098  0.00  0.00     0.234 C 
ATOM     14  O   LIG d   1       9.520   3.793  -2.687  0.00  0.00    -0.274 OA
ATOM     15  N   LIG d   1      11.380   4.987  -2.491  0.00  0.00    -0.302 N 
ATOM     16  H   LIG d   1      12.270   5.186  -2.820  0.00  0.00     0.149 HD
BRANCH  15  17
ATOM     17  C   LIG d   1      10.845   5.711  -1.335  0.00  0.00     0.107 C 
ATOM     18  H   LIG d   1      10.019   5.147  -0.902  0.00  0.00     0.060 H 
BRANCH  17  19
ATOM     19  C   LIG d   1      11.948   5.883  -0.288  0.00  0.00     0.051 C 
ATOM     20  H   LIG d   1      12.548   4.975  -0.238  0.00  0.00     0.038 H 
ATOM     21  H   LIG d   1      12.584   6.725  -0.567  0.00  0.00     0.038 H 
BRANCH  19  22
ATOM     22  C   LIG d   1      11.326   6.149   1.059  0.00  0.00     0.213 C 
ATOM     23  O   LIG d   1      11.418   7.248   1.562  0.00  0.00    -0.276 OA
ATOM     24  N   LIG d   1      10.668   5.165   1.702  0.00  0.00    -0.329 N 
ATOM     25  H   LIG d   1      10.594   4.286   1.298  0.00  0.00     0.145 HD
ATOM     26  H   LIG d   1      10.267   5.336   2.569  0.00  0.00     0.145 HD
ENDBRANCH  19  22
ENDBRANCH  17  19
BRANCH  17  27
ATOM     27  C   LIG d   1      10.353   7.065  -1.774  0.00  0.00     0.231 C 
ATOM     28  O   LIG d   1      11.135   7.880  -2.218  0.00  0.00    -0.274 OA
ATOM     29  N   LIG d   1       9.045   7.372  -1.674  0.00  0.00    -0.328 N 
ATOM     30  H   LIG d   1       8.420   6.721  -1.320  0.00  0.00     0.145 HD
ATOM     31  H   LIG d   1       8.728   8.245  -1.957  0.00  0.00     0.145 HD
ENDBRANCH  17  27
ENDBRANCH  15  17
ENDBRANCH   7  13
ENDBRANCH   4   7
ENDBRANCH   1   3
BRANCH   1  32
ATOM     32  C   LIG d   1       8.468   2.168  -7.307  0.00  0.00    -0.021 C 
ATOM     33  H   LIG d   1       7.650   2.837  -7.039  0.00  0.00     0.029 H 
ATOM     34  H   LIG d   1       9.384   2.745  -7.433  0.00  0.00     0.029 H 
BRANCH  32  35
ATOM     35  C   LIG d   1       8.133   1.451  -8.616  0.00  0.00    -0.011 C 
ATOM     36  H   LIG d   1       8.666   1.930  -9.439  0.00  0.00     0.033 H 
ATOM     37  H   LIG d   1       8.436   0.407  -8.547  0.00  0.00     0.033 H 
BRANCH  35  38
ATOM     38  C   LIG d   1       6.649   1.529  -8.866  0.00  0.00     0.042 C 
ATOM     39  O   LIG d   1       5.884   1.721  -7.937  0.00  0.00    -0.550 OA
ATOM     40  O   LIG d   1       6.213   1.398  -9.997  0.00  0.00    -0.550 OA
ENDBRANCH  35  38
ENDBRANCH  32  35
ENDBRANCH   1  32
BRANCH   1  41
ATOM     41  N   LIG d   1       7.438   1.026  -5.405  0.00  0.00    -0.302 N 
ATOM     42  C   LIG d   1       6.989  -0.184  -5.018  0.00  0.00     0.234 C 
ATOM     43  O   LIG d   1       7.601  -1.185  -5.325  0.00  0.00    -0.274 OA
ATOM     44  H   LIG d   1       6.948   1.827  -5.159  0.00  0.00     0.149 HD
BRANCH  42  45
ATOM     45  C   LIG d   1       5.725  -0.293  -4.204  0.00  0.00     0.100 C 
ATOM     46  H   LIG d   1       5.295   0.696  -4.053  0.00  0.00     0.060 H 
ATOM     47  N   LIG d   1       4.759  -1.159  -4.896  0.00  0.00    -0.313 N 
ATOM     48  C   LIG d   1       4.477  -2.328  -4.038  0.00  0.00     0.013 C 
ATOM     49  C   LIG d   1       4.798  -1.851  -2.599  0.00  0.00    -0.035 C 
ATOM     50  H   LIG d   1       5.119  -3.165  -4.312  0.00  0.00     0.046 H 
ATOM     51  H   LIG d   1       3.428  -2.612  -4.118  0.00  0.00     0.046 H 
ATOM     52  C   LIG d   1       6.035  -0.946  -2.840  0.00  0.00    -0.024 C 
ATOM     53  H   LIG d   1       5.050  -2.694  -1.956  0.00  0.00     0.028 H 
ATOM     54  H   LIG d   1       3.969  -1.278  -2.183  0.00  0.00     0.028 H 
ATOM     55  H   LIG d   1       6.945  -1.543  -2.895  0.00  0.00     0.029 H 
ATOM     56  H   LIG d   1       6.115  -0.189  -2.060  0.00  0.00     0.029 H 
BRANCH  47  57
ATOM     57  C   LIG d   1       4.201  -0.914  -6.153  0.00  0.00     0.109 A 
ATOM     58  C   LIG d   1       3.093  -0.085  -6.274  0.00  0.00     0.300 A 
ATOM     59  C   LIG d   1       2.547   0.158  -7.519  0.00  0.00     0.095 A 
ATOM     60  C   LIG d   1       3.096  -0.430  -8.643  0.00  0.00     0.280 A 
ATOM     61  H   LIG d   1       1.688   0.805  -7.614  0.00  0.00     0.075 H 
ATOM     62  C   LIG d   1       4.197  -1.259  -8.526  0.00  0.00     0.018 A 
ATOM     63  C   LIG d   1       4.750  -1.503  -7.285  0.00  0.00    -0.028 A 
ATOM     64  H   LIG d   1       4.623  -1.717  -9.407  0.00  0.00     0.069 H 
ATOM     65  H   LIG d   1       5.610  -2.150  -7.194  0.00  0.00     0.064 H 
BRANCH  58  66
ATOM     66  N   LIG d   1       2.501   0.539  -5.070  0.00  0.00     0.082 N 
ATOM     67  O   LIG d   1       1.723  -0.085  -4.385  0.00  0.00     0.042 OA
ATOM     68  O   LIG d   1       2.793   1.674  -4.771  0.00  0.00    -0.576 OA
ENDBRANCH  58  66
BRANCH  60  69
ATOM     69  N   LIG d   1       2.505  -0.171  -9.975  0.00  0.00     0.080 N 
ATOM     70  O   LIG d   1       1.359  -0.486 -10.200  0.00  0.00     0.041 OA
ATOM     71  O   LIG d   1       3.168   0.355 -10.838  0.00  0.00    -0.576 OA
ENDBRANCH  60  69
ENDBRANCH  47  57
ENDBRANCH  42  45
ENDBRANCH   1  41
TORSDOF 16
ENDMDL
MODEL 3
REMARK VINA RESULT:      -6.6      1.499      1.973
REMARK  16 active torsions:
REMARK  status: ('A' for Active; 'I' for Inactive)
REMARK    1  A    between atoms: C_1  and  C_2 
REMARK    2  A    between atoms: C_2  and  C_4 
REMARK    3  A    between atoms: C_2  and  N_16 
REMARK       I    between atoms: C_4  and  N_6 
REMARK    4  A    between atoms: N_6  and  C_7 
REMARK    5  A    between atoms: C_7  and  C_9 
REMARK    6  A    between atoms: C_7  and  C_13 
REMARK    7  A    between atoms: C_9  and  C_10 
REMARK       I    between atoms: C_10  and  N_12 
REMARK       I    between atoms: C_13  and  N_15 
REMARK       I    between atoms: N_16  and  C_17 
REMARK    8  A    between atoms: C_17  and  C_19 
REMARK    9  A    between atoms: C_19  and  C_21 
REMARK   10  A    between atoms: C_19  and  N_26 
REMARK   11  A    between atoms: C_21  and  C_22 
REMARK   12  A    between atoms: C_22  and  C_23 
REMARK       I    between atoms: N_26  and  C_27 
REMARK   13  A    between atoms: C_27  and  C_29 
REMARK   14  A    between atoms: N_34  and  C_35 
REMARK   15  A    between atoms: C_38  and  N_44 
REMARK   16  A    between atoms: C_40  and  N_41 
ROOT
ATOM      1  C   LIG d   1       8.374   1.594  -5.261  0.00  0.00     0.100 C 
ATOM      2  H   LIG d   1       8.917   0.655  -5.356  0.00  0.00     0.059 H 
ENDROOT
BRANCH   1   3
ATOM      3  C   LIG d   1       9.094   2.495  -4.291  0.00  0.00     0.234 C 
ATOM      4  N   LIG d   1       9.737   3.592  -4.739  0.00  0.00    -0.303 N 
ATOM      5  H   LIG d   1       9.737   3.801  -5.687  0.00  0.00     0.149 HD
ATOM      6  O   LIG d   1       9.096   2.234  -3.107  0.00  0.00    -0.274 OA
BRANCH   4   7
ATOM      7  C   LIG d   1      10.438   4.467  -3.797  0.00  0.00     0.097 C 
ATOM      8  H   LIG d   1      10.228   4.144  -2.777  0.00  0.00     0.059 H 
BRANCH   7   9
ATOM      9  C   LIG d   1      11.944   4.394  -4.056  0.00  0.00    -0.038 C 
ATOM     10  H   LIG d   1      12.121   4.172  -5.109  0.00  0.00     0.025 H 
ATOM     11  H   LIG d   1      12.404   5.349  -3.804  0.00  0.00     0.025 H 
ATOM     12  H   LIG d   1      12.380   3.606  -3.441  0.00  0.00     0.025 H 
ENDBRANCH   7   9
BRANCH   7  13
ATOM     13  C   LIG d   1       9.965   5.886  -3.982  0.00  0.00     0.234 C 
ATOM     14  O   LIG d   1       9.043   6.125  -4.733  0.00  0.00    -0.274 OA
ATOM     15  N   LIG d   1      10.566   6.890  -3.312  0.00  0.00    -0.302 N 
ATOM     16  H   LIG d   1      11.302   6.698  -2.712  0.00  0.00     0.149 HD
BRANCH  15  17
ATOM     17  C   LIG d   1      10.105   8.269  -3.492  0.00  0.00     0.107 C 
ATOM     18  H   LIG d   1       9.040   8.269  -3.725  0.00  0.00     0.060 H 
BRANCH  17  19
ATOM     19  C   LIG d   1      10.346   9.058  -2.203  0.00  0.00     0.051 C 
ATOM     20  H   LIG d   1      11.276   8.727  -1.743  0.00  0.00     0.038 H 
ATOM     21  H   LIG d   1      10.413  10.121  -2.436  0.00  0.00     0.038 H 
BRANCH  19  22
ATOM     22  C   LIG d   1       9.202   8.824  -1.250  0.00  0.00     0.213 C 
ATOM     23  O   LIG d   1       9.022   7.721  -0.779  0.00  0.00    -0.276 OA
ATOM     24  N   LIG d   1       8.381   9.841  -0.921  0.00  0.00    -0.329 N 
ATOM     25  H   LIG d   1       8.526  10.723  -1.298  0.00  0.00     0.145 HD
ATOM     26  H   LIG d   1       7.645   9.691  -0.307  0.00  0.00     0.145 HD
ENDBRANCH  19  22
ENDBRANCH  17  19
BRANCH  17  27
ATOM     27  C   LIG d   1      10.867   8.909  -4.623  0.00  0.00     0.231 C 
ATOM     28  O   LIG d   1      11.978   9.356  -4.429  0.00  0.00    -0.274 OA
ATOM     29  N   LIG d   1      10.314   8.985  -5.850  0.00  0.00    -0.328 N 
ATOM     30  H   LIG d   1       9.427   8.628  -6.005  0.00  0.00     0.145 HD
ATOM     31  H   LIG d   1      10.806   9.398  -6.579  0.00  0.00     0.145 HD
ENDBRANCH  17  27
ENDBRANCH  15  17
ENDBRANCH   7  13
ENDBRANCH   4   7
ENDBRANCH   1   3
BRANCH   1  32
ATOM     32  C   LIG d   1       8.293   2.279  -6.628  0.00  0.00    -0.021 C 
ATOM     33  H   LIG d   1       7.754   3.221  -6.531  0.00  0.00     0.029 H 
ATOM     34  H   LIG d   1       9.300   2.471  -6.997  0.00  0.00     0.029 H 
BRANCH  32  35
ATOM     35  C   LIG d   1       7.555   1.368  -7.611  0.00  0.00    -0.011 C 
ATOM     36  H   LIG d   1       8.159   0.482  -7.809  0.00  0.00     0.033 H 
ATOM     37  H   LIG d   1       6.600   1.066  -7.180  0.00  0.00     0.033 H 
BRANCH  35  38
ATOM     38  C   LIG d   1       7.313   2.111  -8.899  0.00  0.00     0.042 C 
ATOM     39  O   LIG d   1       8.248   2.369  -9.638  0.00  0.00    -0.550 OA
ATOM     40  O   LIG d   1       6.184   2.454  -9.203  0.00  0.00    -0.550 OA
ENDBRANCH  35  38
ENDBRANCH  32  35
ENDBRANCH   1  32
BRANCH   1  41
ATOM     41  N   LIG d   1       7.021   1.328  -4.768  0.00  0.00    -0.302 N 
ATOM     42  C   LIG d   1       6.705   0.109  -4.288  0.00  0.00     0.234 C 
ATOM     43  O   LIG d   1       7.543  -0.768  -4.265  0.00  0.00    -0.274 OA
ATOM     44  H   LIG d   1       6.351   2.030  -4.786  0.00  0.00     0.149 HD
BRANCH  42  45
ATOM     45  C   LIG d   1       5.313  -0.164  -3.781  0.00  0.00     0.100 C 
ATOM     46  H   LIG d   1       4.767   0.773  -3.675  0.00  0.00     0.060 H 
ATOM     47  N   LIG d   1       4.606  -1.052  -4.716  0.00  0.00    -0.313 N 
ATOM     48  C   LIG d   1       4.260  -2.301  -4.008  0.00  0.00     0.013 C 
ATOM     49  C   LIG d   1       4.216  -1.908  -2.509  0.00  0.00    -0.035 C 
ATOM     50  H   LIG d   1       5.023  -3.059  -4.179  0.00  0.00     0.046 H 
ATOM     51  H   LIG d   1       3.285  -2.663  -4.333  0.00  0.00     0.046 H 
ATOM     52  C   LIG d   1       5.383  -0.890  -2.420  0.00  0.00    -0.024 C 
ATOM     53  H   LIG d   1       4.403  -2.774  -1.874  0.00  0.00     0.028 H 
ATOM     54  H   LIG d   1       3.266  -1.438  -2.256  0.00  0.00     0.028 H 
ATOM     55  H   LIG d   1       6.337  -1.404  -2.306  0.00  0.00     0.029 H 
ATOM     56  H   LIG d   1       5.220  -0.189  -1.602  0.00  0.00     0.029 H 
BRANCH  47  57
ATOM     57  C   LIG d   1       4.311  -0.760  -6.050  0.00  0.00     0.109 A 
ATOM     58  C   LIG d   1       3.251   0.082  -6.361  0.00  0.00     0.300 A 
ATOM     59  C   LIG d   1       2.965   0.372  -7.681  0.00  0.00     0.095 A 
ATOM     60  C   LIG d   1       3.726  -0.183  -8.692  0.00  0.00     0.280 A 
ATOM     61  H   LIG d   1       2.144   1.030  -7.923  0.00  0.00     0.075 H 
ATOM     62  C   LIG d   1       4.780  -1.025  -8.386  0.00  0.00     0.018 A 
ATOM     63  C   LIG d   1       5.074  -1.316  -7.069  0.00  0.00    -0.028 A 
ATOM     64  H   LIG d   1       5.373  -1.457  -9.180  0.00  0.00     0.069 H 
ATOM     65  H   LIG d   1       5.897  -1.973  -6.832  0.00  0.00     0.064 H 
BRANCH  58  66
ATOM     66  N   LIG d   1       2.432   0.671  -5.278  0.00  0.00     0.082 N 
ATOM     67  O   LIG d   1       1.576   0.008  -4.739  0.00  0.00     0.042 OA
ATOM     68  O   LIG d   1       2.616   1.816  -4.934  0.00  0.00    -0.576 OA
ENDBRANCH  58  66
BRANCH  60  69
ATOM     69  N   LIG d   1       3.414   0.126 -10.106  0.00  0.00     0.080 N 
ATOM     70  O   LIG d   1       3.491   1.264 -10.508  0.00  0.00     0.041 OA
ATOM     71  O   LIG d   1       3.081  -0.759 -10.858  0.00  0.00    -0.576 OA
ENDBRANCH  60  69
ENDBRANCH  47  57
ENDBRANCH  42  45
ENDBRANCH   1  41
TORSDOF 16
ENDMDL
MODEL 4
REMARK VINA RESULT:      -6.5      1.369      2.427
REMARK  16 active torsions:
REMARK  status: ('A' for Active; 'I' for Inactive)
REMARK    1  A    between atoms: C_1  and  C_2 
REMARK    2  A    between atoms: C_2  and  C_4 
REMARK    3  A    between atoms: C_2  and  N_16 
REMARK       I    between atoms: C_4  and  N_6 
REMARK    4  A    between atoms: N_6  and  C_7 
REMARK    5  A    between atoms: C_7  and  C_9 
REMARK    6  A    between atoms: C_7  and  C_13 
REMARK    7  A    between atoms: C_9  and  C_10 
REMARK       I    between atoms: C_10  and  N_12 
REMARK       I    between atoms: C_13  and  N_15 
REMARK       I    between atoms: N_16  and  C_17 
REMARK    8  A    between atoms: C_17  and  C_19 
REMARK    9  A    between atoms: C_19  and  C_21 
REMARK   10  A    between atoms: C_19  and  N_26 
REMARK   11  A    between atoms: C_21  and  C_22 
REMARK   12  A    between atoms: C_22  and  C_23 
REMARK       I    between atoms: N_26  and  C_27 
REMARK   13  A    between atoms: C_27  and  C_29 
REMARK   14  A    between atoms: N_34  and  C_35 
REMARK   15  A    between atoms: C_38  and  N_44 
REMARK   16  A    between atoms: C_40  and  N_41 
ROOT
ATOM      1  C   LIG d   1       8.519   1.157  -5.706  0.00  0.00     0.100 C 
ATOM      2  H   LIG d   1       9.146   0.346  -5.337  0.00  0.00     0.059 H 
ENDROOT
BRANCH   1   3
ATOM      3  C   LIG d   1       9.131   2.480  -5.322  0.00  0.00     0.234 C 
ATOM      4  N   LIG d   1      10.144   2.991  -6.050  0.00  0.00    -0.303 N 
ATOM      5  H   LIG d   1      10.478   2.507  -6.822  0.00  0.00     0.149 HD
ATOM      6  O   LIG d   1       8.714   3.084  -4.358  0.00  0.00    -0.274 OA
BRANCH   4   7
ATOM      7  C   LIG d   1      10.739   4.276  -5.677  0.00  0.00     0.097 C 
ATOM      8  H   LIG d   1      10.166   4.719  -4.863  0.00  0.00     0.059 H 
BRANCH   7   9
ATOM      9  C   LIG d   1      12.184   4.056  -5.223  0.00  0.00    -0.038 C 
ATOM     10  H   LIG d   1      12.741   3.554  -6.015  0.00  0.00     0.025 H 
ATOM     11  H   LIG d   1      12.647   5.018  -5.006  0.00  0.00     0.025 H 
ATOM     12  H   LIG d   1      12.192   3.437  -4.326  0.00  0.00     0.025 H 
ENDBRANCH   7   9
BRANCH   7  13
ATOM     13  C   LIG d   1      10.722   5.202  -6.866  0.00  0.00     0.234 C 
ATOM     14  O   LIG d   1      11.703   5.301  -7.572  0.00  0.00    -0.274 OA
ATOM     15  N   LIG d   1       9.616   5.920  -7.145  0.00  0.00    -0.302 N 
ATOM     16  H   LIG d   1       8.831   5.840  -6.581  0.00  0.00     0.149 HD
BRANCH  15  17
ATOM     17  C   LIG d   1       9.599   6.820  -8.301  0.00  0.00     0.107 C 
ATOM     18  H   LIG d   1      10.590   6.850  -8.753  0.00  0.00     0.060 H 
BRANCH  17  19
ATOM     19  C   LIG d   1       8.585   6.311  -9.328  0.00  0.00     0.051 C 
ATOM     20  H   LIG d   1       8.054   5.451  -8.919  0.00  0.00     0.038 H 
ATOM     21  H   LIG d   1       7.871   7.104  -9.556  0.00  0.00     0.038 H 
BRANCH  19  22
ATOM     22  C   LIG d   1       9.306   5.905 -10.588  0.00  0.00     0.213 C 
ATOM     23  O   LIG d   1       8.708   5.870 -11.642  0.00  0.00    -0.276 OA
ATOM     24  N   LIG d   1      10.613   5.583 -10.541  0.00  0.00    -0.329 N 
ATOM     25  H   LIG d   1      11.090   5.613  -9.697  0.00  0.00     0.145 HD
ATOM     26  H   LIG d   1      11.077   5.322 -11.352  0.00  0.00     0.145 HD
ENDBRANCH  19  22
ENDBRANCH  17  19
BRANCH  17  27
ATOM     27  C   LIG d   1       9.209   8.205  -7.854  0.00  0.00     0.231 C 
ATOM     28  O   LIG d   1       9.558   8.612  -6.765  0.00  0.00    -0.274 OA
ATOM     29  N   LIG d   1       8.475   8.992  -8.664  0.00  0.00    -0.328 N 
ATOM     30  H   LIG d   1       8.197   8.668  -9.534  0.00  0.00     0.145 HD
ATOM     31  H   LIG d   1       8.223   9.885  -8.376  0.00  0.00     0.145 HD
ENDBRANCH  17  27
ENDBRANCH  15  17
ENDBRANCH   7  13
ENDBRANCH   4   7
ENDBRANCH   1   3
BRANCH   1  32
ATOM     32  C   LIG d   1       8.413   1.068  -7.230  0.00  0.00    -0.021 C 
ATOM     33  H   LIG d   1       9.001   1.866  -7.683  0.00  0.00     0.029 H 
ATOM     34  H   LIG d   1       8.793   0.102  -7.564  0.00  0.00     0.029 H 
BRANCH  32  35
ATOM     35  C   LIG d   1       6.949   1.213  -7.649  0.00  0.00    -0.011 C 
ATOM     36  H   LIG d   1       6.506   0.224  -7.771  0.00  0.00     0.033 H 
ATOM     37  H   LIG d   1       6.404   1.761  -6.880  0.00  0.00     0.033 H 
BRANCH  35  38
ATOM     38  C   LIG d   1       6.871   1.963  -8.953  0.00  0.00     0.042 C 
ATOM     39  O   LIG d   1       5.828   2.497  -9.288  0.00  0.00    -0.550 OA
ATOM     40  O   LIG d   1       7.850   2.034  -9.676  0.00  0.00    -0.550 OA
ENDBRANCH  35  38
ENDBRANCH  32  35
ENDBRANCH   1  32
BRANCH   1  41
ATOM     41  N   LIG d   1       7.182   1.049  -5.117  0.00  0.00    -0.302 N 
ATOM     42  C   LIG d   1       6.811  -0.087  -4.493  0.00  0.00     0.234 C 
ATOM     43  O   LIG d   1       7.583  -1.018  -4.418  0.00  0.00    -0.274 OA
ATOM     44  H   LIG d   1       6.564   1.794  -5.176  0.00  0.00     0.149 HD
BRANCH  42  45
ATOM     45  C   LIG d   1       5.435  -0.198  -3.887  0.00  0.00     0.100 C 
ATOM     46  H   LIG d   1       4.978   0.789  -3.824  0.00  0.00     0.060 H 
ATOM     47  N   LIG d   1       4.598  -1.086  -4.708  0.00  0.00    -0.313 N 
ATOM     48  C   LIG d   1       4.195  -2.244  -3.885  0.00  0.00     0.013 C 
ATOM     49  C   LIG d   1       4.279  -1.740  -2.422  0.00  0.00    -0.035 C 
ATOM     50  H   LIG d   1       4.880  -3.077  -4.039  0.00  0.00     0.046 H 
ATOM     51  H   LIG d   1       3.174  -2.541  -4.125  0.00  0.00     0.046 H 
ATOM     52  C   LIG d   1       5.531  -0.825  -2.480  0.00  0.00    -0.024 C 
ATOM     53  H   LIG d   1       4.434  -2.570  -1.733  0.00  0.00     0.028 H 
ATOM     54  H   LIG d   1       3.390  -1.170  -2.153  0.00  0.00     0.028 H 
ATOM     55  H   LIG d   1       6.443  -1.412  -2.380  0.00  0.00     0.029 H 
ATOM     56  H   LIG d   1       5.480  -0.054  -1.711  0.00  0.00     0.029 H 
BRANCH  47  57
ATOM     57  C   LIG d   1       4.245  -0.867  -6.042  0.00  0.00     0.109 A 
ATOM     58  C   LIG d   1       3.186  -0.023  -6.352  0.00  0.00     0.300 A 
ATOM     59  C   LIG d   1       2.842   0.193  -7.673  0.00  0.00     0.095 A 
ATOM     60  C   LIG d   1       3.544  -0.436  -8.684  0.00  0.00     0.280 A 
ATOM     61  H   LIG d   1       2.022   0.852  -7.915  0.00  0.00     0.075 H 
ATOM     62  C   LIG d   1       4.596  -1.281  -8.377  0.00  0.00     0.018 A 
ATOM     63  C   LIG d   1       4.948  -1.498  -7.060  0.00  0.00    -0.028 A 
ATOM     64  H   LIG d   1       5.142  -1.771  -9.170  0.00  0.00     0.069 H 
ATOM     65  H   LIG d   1       5.769  -2.157  -6.822  0.00  0.00     0.064 H 
BRANCH  58  66
ATOM     66  N   LIG d   1       2.431   0.646  -5.270  0.00  0.00     0.082 N 
ATOM     67  O   LIG d   1       1.616   0.024  -4.627  0.00  0.00     0.042 OA
ATOM     68  O   LIG d   1       2.626   1.815  -5.029  0.00  0.00    -0.576 OA
ENDBRANCH  58  66
BRANCH  60  69
ATOM     69  N   LIG d   1       3.169  -0.205 -10.097  0.00  0.00     0.080 N 
ATOM     70  O   LIG d   1       2.059  -0.490 -10.482  0.00  0.00     0.041 OA
ATOM     71  O   LIG d   1       3.974   0.267 -10.866  0.00  0.00    -0.576 OA
ENDBRANCH  60  69
ENDBRANCH  47  57
ENDBRANCH  42  45
ENDBRANCH   1  41
TORSDOF 16
ENDMDL
MODEL 5
REMARK VINA RESULT:      -6.5      0.935      1.914
REMARK  16 active torsions:
REMARK  status: ('A' for Active; 'I' for Inactive)
REMARK    1  A    between atoms: C_1  and  C_2 
REMARK    2  A    between atoms: C_2  and  C_4 
REMARK    3  A    between atoms: C_2  and  N_16 
REMARK       I    between atoms: C_4  and  N_6 
REMARK    4  A    between atoms: N_6  and  C_7 
REMARK    5  A    between atoms: C_7  and  C_9 
REMARK    6  A    between atoms: C_7  and  C_13 
REMARK    7  A    between atoms: C_9  and  C_10 
REMARK       I    between atoms: C_10  and  N_12 
REMARK       I    between atoms: C_13  and  N_15 
REMARK       I    between atoms: N_16  and  C_17 
REMARK    8  A    between atoms: C_17  and  C_19 
REMARK    9  A    between atoms: C_19  and  C_21 
REMARK   10  A    between atoms: C_19  and  N_26 
REMARK   11  A    between atoms: C_21  and  C_22 
REMARK   12  A    between atoms: C_22  and  C_23 
REMARK       I    between atoms: N_26  and  C_27 
REMARK   13  A    between atoms: C_27  and  C_29 
REMARK   14  A    between atoms: N_34  and  C_35 
REMARK   15  A    between atoms: C_38  and  N_44 
REMARK   16  A    between atoms: C_40  and  N_41 
ROOT
ATOM      1  C   LIG d   1       8.289   1.474  -5.302  0.00  0.00     0.100 C 
ATOM      2  H   LIG d   1       8.860   0.546  -5.263  0.00  0.00     0.059 H 
ENDROOT
BRANCH   1   3
ATOM      3  C   LIG d   1       8.967   2.516  -4.450  0.00  0.00     0.234 C 
ATOM      4  N   LIG d   1       9.876   3.347  -4.998  0.00  0.00    -0.303 N 
ATOM      5  H   LIG d   1      10.093   3.275  -5.941  0.00  0.00     0.149 HD
ATOM      6  O   LIG d   1       8.696   2.606  -3.272  0.00  0.00    -0.274 OA
BRANCH   4   7
ATOM      7  C   LIG d   1      10.535   4.360  -4.170  0.00  0.00     0.097 C 
ATOM      8  H   LIG d   1       9.922   4.567  -3.293  0.00  0.00     0.059 H 
BRANCH   7   9
ATOM      9  C   LIG d   1      11.904   3.842  -3.725  0.00  0.00    -0.038 C 
ATOM     10  H   LIG d   1      11.966   2.770  -3.914  0.00  0.00     0.025 H 
ATOM     11  H   LIG d   1      12.687   4.356  -4.284  0.00  0.00     0.025 H 
ATOM     12  H   LIG d   1      12.035   4.031  -2.660  0.00  0.00     0.025 H 
ENDBRANCH   7   9
BRANCH   7  13
ATOM     13  C   LIG d   1      10.712   5.625  -4.970  0.00  0.00     0.234 C 
ATOM     14  O   LIG d   1      11.367   5.611  -5.991  0.00  0.00    -0.274 OA
ATOM     15  N   LIG d   1      10.142   6.773  -4.550  0.00  0.00    -0.302 N 
ATOM     16  H   LIG d   1       9.618   6.783  -3.735  0.00  0.00     0.149 HD
BRANCH  15  17
ATOM     17  C   LIG d   1      10.314   8.002  -5.328  0.00  0.00     0.107 C 
ATOM     18  H   LIG d   1      11.180   7.901  -5.982  0.00  0.00     0.060 H 
BRANCH  17  19
ATOM     19  C   LIG d   1       9.062   8.249  -6.173  0.00  0.00     0.051 C 
ATOM     20  H   LIG d   1       8.433   7.359  -6.161  0.00  0.00     0.038 H 
ATOM     21  H   LIG d   1       8.507   9.092  -5.762  0.00  0.00     0.038 H 
BRANCH  19  22
ATOM     22  C   LIG d   1       9.467   8.558  -7.592  0.00  0.00     0.213 C 
ATOM     23  O   LIG d   1      10.628   8.460  -7.926  0.00  0.00    -0.276 OA
ATOM     24  N   LIG d   1       8.537   8.944  -8.488  0.00  0.00    -0.329 N 
ATOM     25  H   LIG d   1       7.608   9.023  -8.221  0.00  0.00     0.145 HD
ATOM     26  H   LIG d   1       8.797   9.143  -9.402  0.00  0.00     0.145 HD
ENDBRANCH  19  22
ENDBRANCH  17  19
BRANCH  17  27
ATOM     27  C   LIG d   1      10.524   9.164  -4.392  0.00  0.00     0.231 C 
ATOM     28  O   LIG d   1      11.494   9.881  -4.523  0.00  0.00    -0.274 OA
ATOM     29  N   LIG d   1       9.634   9.406  -3.409  0.00  0.00    -0.328 N 
ATOM     30  H   LIG d   1       8.860   8.833  -3.305  0.00  0.00     0.145 HD
ATOM     31  H   LIG d   1       9.770  10.155  -2.806  0.00  0.00     0.145 HD
ENDBRANCH  17  27
ENDBRANCH  15  17
ENDBRANCH   7  13
ENDBRANCH   4   7
ENDBRANCH   1   3
BRANCH   1  32
ATOM     32  C   LIG d   1       8.215   1.967  -6.748  0.00  0.00    -0.021 C 
ATOM     33  H   LIG d   1       7.535   2.817  -6.808  0.00  0.00     0.029 H 
ATOM     34  H   LIG d   1       9.208   2.272  -7.079  0.00  0.00     0.029 H 
BRANCH  32  35
ATOM     35  C   LIG d   1       7.702   0.840  -7.646  0.00  0.00    -0.011 C 
ATOM     36  H   LIG d   1       8.549   0.291  -8.060  0.00  0.00     0.033 H 
ATOM     37  H   LIG d   1       7.083   0.162  -7.060  0.00  0.00     0.033 H 
BRANCH  35  38
ATOM     38  C   LIG d   1       6.885   1.424  -8.770  0.00  0.00     0.042 C 
ATOM     39  O   LIG d   1       5.871   2.052  -8.523  0.00  0.00    -0.550 OA
ATOM     40  O   LIG d   1       7.239   1.268  -9.926  0.00  0.00    -0.550 OA
ENDBRANCH  35  38
ENDBRANCH  32  35
ENDBRANCH   1  32
BRANCH   1  41
ATOM     41  N   LIG d   1       6.935   1.236  -4.797  0.00  0.00    -0.302 N 
ATOM     42  C   LIG d   1       6.627   0.057  -4.222  0.00  0.00     0.234 C 
ATOM     43  O   LIG d   1       7.472  -0.808  -4.121  0.00  0.00    -0.274 OA
ATOM     44  H   LIG d   1       6.259   1.928  -4.877  0.00  0.00     0.149 HD
BRANCH  42  45
ATOM     45  C   LIG d   1       5.233  -0.187  -3.703  0.00  0.00     0.100 C 
ATOM     46  H   LIG d   1       4.683   0.753  -3.664  0.00  0.00     0.060 H 
ATOM     47  N   LIG d   1       4.534  -1.140  -4.578  0.00  0.00    -0.313 N 
ATOM     48  C   LIG d   1       4.190  -2.339  -3.786  0.00  0.00     0.013 C 
ATOM     49  C   LIG d   1       4.138  -1.844  -2.318  0.00  0.00    -0.035 C 
ATOM     50  H   LIG d   1       4.958  -3.104  -3.900  0.00  0.00     0.046 H 
ATOM     51  H   LIG d   1       3.218  -2.727  -4.090  0.00  0.00     0.046 H 
ATOM     52  C   LIG d   1       5.300  -0.816  -2.295  0.00  0.00    -0.024 C 
ATOM     53  H   LIG d   1       4.326  -2.662  -1.624  0.00  0.00     0.028 H 
ATOM     54  H   LIG d   1       3.185  -1.361  -2.103  0.00  0.00     0.028 H 
ATOM     55  H   LIG d   1       6.255  -1.317  -2.141  0.00  0.00     0.029 H 
ATOM     56  H   LIG d   1       5.131  -0.061  -1.528  0.00  0.00     0.029 H 
BRANCH  47  57
ATOM     57  C   LIG d   1       4.245  -0.943  -5.930  0.00  0.00     0.109 A 
ATOM     58  C   LIG d   1       3.219  -0.084  -6.304  0.00  0.00     0.300 A 
ATOM     59  C   LIG d   1       2.938   0.112  -7.642  0.00  0.00     0.095 A 
ATOM     60  C   LIG d   1       3.670  -0.553  -8.608  0.00  0.00     0.280 A 
ATOM     61  H   LIG d   1       2.143   0.782  -7.934  0.00  0.00     0.075 H 
ATOM     62  C   LIG d   1       4.689  -1.412  -8.238  0.00  0.00     0.018 A 
ATOM     63  C   LIG d   1       4.978  -1.609  -6.903  0.00  0.00    -0.028 A 
ATOM     64  H   LIG d   1       5.259  -1.930  -8.996  0.00  0.00     0.069 H 
ATOM     65  H   LIG d   1       5.774  -2.280  -6.616  0.00  0.00     0.064 H 
BRANCH  58  66
ATOM     66  N   LIG d   1       2.431   0.623  -5.270  0.00  0.00     0.082 N 
ATOM     67  O   LIG d   1       1.601   0.022  -4.626  0.00  0.00     0.042 OA
ATOM     68  O   LIG d   1       2.615   1.801  -5.069  0.00  0.00    -0.576 OA
ENDBRANCH  58  66
BRANCH  60  69
ATOM     69  N   LIG d   1       3.363  -0.344 -10.041  0.00  0.00     0.080 N 
ATOM     70  O   LIG d   1       2.244  -0.542 -10.455  0.00  0.00     0.041 OA
ATOM     71  O   LIG d   1       4.231   0.023 -10.798  0.00  0.00    -0.576 OA
ENDBRANCH  60  69
ENDBRANCH  47  57
ENDBRANCH  42  45
ENDBRANCH   1  41
TORSDOF 16
ENDMDL
MODEL 6
REMARK VINA RESULT:      -6.4      2.397      8.396
REMARK  16 active torsions:
REMARK  status: ('A' for Active; 'I' for Inactive)
REMARK    1  A    between atoms: C_1  and  C_2 
REMARK    2  A    between atoms: C_2  and  C_4 
REMARK    3  A    between atoms: C_2  and  N_16 
REMARK       I    between atoms: C_4  and  N_6 
REMARK    4  A    between atoms: N_6  and  C_7 
REMARK    5  A    between atoms: C_7  and  C_9 
REMARK    6  A    between atoms: C_7  and  C_13 
REMARK    7  A    between atoms: C_9  and  C_10 
REMARK       I    between atoms: C_10  and  N_12 
REMARK       I    between atoms: C_13  and  N_15 
REMARK       I    between atoms: N_16  and  C_17 
REMARK    8  A    between atoms: C_17  and  C_19 
REMARK    9  A    between atoms: C_19  and  C_21 
REMARK   10  A    between atoms: C_19  and  N_26 
REMARK   11  A    between atoms: C_21  and  C_22 
REMARK   12  A    between atoms: C_22  and  C_23 
REMARK       I    between atoms: N_26  and  C_27 
REMARK   13  A    between atoms: C_27  and  C_29 
REMARK   14  A    between atoms: N_34  and  C_35 
REMARK   15  A    between atoms: C_38  and  N_44 
REMARK   16  A    between atoms: C_40  and  N_41 
ROOT
ATOM      1  C   LIG d   1       6.680  -0.267  -3.508  0.00  0.00     0.100 C 
ATOM      2  H   LIG d   1       6.715  -0.924  -2.639  0.00  0.00     0.059 H 
ENDROOT
BRANCH   1   3
ATOM      3  C   LIG d   1       5.730  -0.836  -4.530  0.00  0.00     0.234 C 
ATOM      4  N   LIG d   1       4.802  -0.043  -5.103  0.00  0.00    -0.303 N 
ATOM      5  H   LIG d   1       4.747   0.894  -4.858  0.00  0.00     0.149 HD
ATOM      6  O   LIG d   1       5.798  -2.007  -4.836  0.00  0.00    -0.274 OA
BRANCH   4   7
ATOM      7  C   LIG d   1       3.878  -0.596  -6.096  0.00  0.00     0.097 C 
ATOM      8  H   LIG d   1       3.718  -1.655  -5.893  0.00  0.00     0.059 H 
BRANCH   7   9
ATOM      9  C   LIG d   1       2.542   0.147  -6.017  0.00  0.00    -0.038 C 
ATOM     10  H   LIG d   1       1.947  -0.264  -5.202  0.00  0.00     0.025 H 
ATOM     11  H   LIG d   1       2.725   1.206  -5.837  0.00  0.00     0.025 H 
ATOM     12  H   LIG d   1       2.004   0.025  -6.957  0.00  0.00     0.025 H 
ENDBRANCH   7   9
BRANCH   7  13
ATOM     13  C   LIG d   1       4.464  -0.431  -7.475  0.00  0.00     0.234 C 
ATOM     14  O   LIG d   1       4.535  -1.385  -8.221  0.00  0.00    -0.274 OA
ATOM     15  N   LIG d   1       4.909   0.775  -7.879  0.00  0.00    -0.302 N 
ATOM     16  H   LIG d   1       4.852   1.537  -7.282  0.00  0.00     0.149 HD
BRANCH  15  17
ATOM     17  C   LIG d   1       5.478   0.934  -9.219  0.00  0.00     0.107 C 
ATOM     18  H   LIG d   1       5.711  -0.046  -9.634  0.00  0.00     0.060 H 
BRANCH  17  19
ATOM     19  C   LIG d   1       4.465   1.643 -10.121  0.00  0.00     0.051 C 
ATOM     20  H   LIG d   1       3.697   2.113  -9.507  0.00  0.00     0.038 H 
ATOM     21  H   LIG d   1       4.976   2.405 -10.711  0.00  0.00     0.038 H 
BRANCH  19  22
ATOM     22  C   LIG d   1       3.825   0.638 -11.044  0.00  0.00     0.213 C 
ATOM     23  O   LIG d   1       2.764   0.133 -10.747  0.00  0.00    -0.276 OA
ATOM     24  N   LIG d   1       4.433   0.302 -12.199  0.00  0.00    -0.329 N 
ATOM     25  H   LIG d   1       5.281   0.707 -12.437  0.00  0.00     0.145 HD
ATOM     26  H   LIG d   1       4.021  -0.344 -12.794  0.00  0.00     0.145 HD
ENDBRANCH  19  22
ENDBRANCH  17  19
BRANCH  17  27
ATOM     27  C   LIG d   1       6.738   1.757  -9.136  0.00  0.00     0.231 C 
ATOM     28  O   LIG d   1       6.689   2.959  -9.294  0.00  0.00    -0.274 OA
ATOM     29  N   LIG d   1       7.918   1.158  -8.885  0.00  0.00    -0.328 N 
ATOM     30  H   LIG d   1       7.957   0.197  -8.758  0.00  0.00     0.145 HD
ATOM     31  H   LIG d   1       8.730   1.688  -8.831  0.00  0.00     0.145 HD
ENDBRANCH  17  27
ENDBRANCH  15  17
ENDBRANCH   7  13
ENDBRANCH   4   7
ENDBRANCH   1   3
BRANCH   1  32
ATOM     32  C   LIG d   1       6.197   1.121  -3.080  0.00  0.00    -0.021 C 
ATOM     33  H   LIG d   1       7.039   1.694  -2.691  0.00  0.00     0.029 H 
ATOM     34  H   LIG d   1       5.772   1.638  -3.940  0.00  0.00     0.029 H 
BRANCH  32  35
ATOM     35  C   LIG d   1       5.130   0.977  -1.993  0.00  0.00    -0.011 C 
ATOM     36  H   LIG d   1       5.170  -0.030  -1.576  0.00  0.00     0.033 H 
ATOM     37  H   LIG d   1       5.317   1.703  -1.203  0.00  0.00     0.033 H 
BRANCH  35  38
ATOM     38  C   LIG d   1       3.769   1.220  -2.591  0.00  0.00     0.042 C 
ATOM     39  O   LIG d   1       2.866   0.425  -2.396  0.00  0.00    -0.550 OA
ATOM     40  O   LIG d   1       3.569   2.212  -3.271  0.00  0.00    -0.550 OA
ENDBRANCH  35  38
ENDBRANCH  32  35
ENDBRANCH   1  32
BRANCH   1  41
ATOM     41  N   LIG d   1       8.019  -0.159  -4.093  0.00  0.00    -0.302 N 
ATOM     42  C   LIG d   1       8.210   0.570  -5.210  0.00  0.00     0.234 C 
ATOM     43  O   LIG d   1       7.273   1.137  -5.731  0.00  0.00    -0.274 OA
ATOM     44  H   LIG d   1       8.768  -0.613  -3.675  0.00  0.00     0.149 HD
BRANCH  42  45
ATOM     45  C   LIG d   1       9.587   0.681  -5.810  0.00  0.00     0.100 C 
ATOM     46  H   LIG d   1       9.530   1.179  -6.777  0.00  0.00     0.060 H 
ATOM     47  N   LIG d   1      10.466   1.440  -4.907  0.00  0.00    -0.313 N 
ATOM     48  C   LIG d   1      11.578   0.564  -4.487  0.00  0.00     0.013 C 
ATOM     49  C   LIG d   1      11.692  -0.498  -5.610  0.00  0.00    -0.035 C 
ATOM     50  H   LIG d   1      11.347   0.085  -3.536  0.00  0.00     0.046 H 
ATOM     51  H   LIG d   1      12.502   1.136  -4.411  0.00  0.00     0.046 H 
ATOM     52  C   LIG d   1      10.202  -0.725  -5.977  0.00  0.00    -0.024 C 
ATOM     53  H   LIG d   1      12.146  -1.415  -5.235  0.00  0.00     0.028 H 
ATOM     54  H   LIG d   1      12.250  -0.108  -6.462  0.00  0.00     0.028 H 
ATOM     55  H   LIG d   1       9.739  -1.433  -5.291  0.00  0.00     0.029 H 
ATOM     56  H   LIG d   1      10.107  -1.066  -7.008  0.00  0.00     0.029 H 
BRANCH  47  57
ATOM     57  C   LIG d   1      10.278   2.768  -4.515  0.00  0.00     0.109 A 
ATOM     58  C   LIG d   1      10.331   3.786  -5.459  0.00  0.00     0.300 A 
ATOM     59  C   LIG d   1      10.141   5.097  -5.068  0.00  0.00     0.095 A 
ATOM     60  C   LIG d   1       9.908   5.398  -3.739  0.00  0.00     0.280 A 
ATOM     61  H   LIG d   1      10.178   5.889  -5.801  0.00  0.00     0.075 H 
ATOM     62  C   LIG d   1       9.859   4.386  -2.797  0.00  0.00     0.018 A 
ATOM     63  C   LIG d   1      10.044   3.073  -3.181  0.00  0.00    -0.028 A 
ATOM     64  H   LIG d   1       9.677   4.624  -1.759  0.00  0.00     0.069 H 
ATOM     65  H   LIG d   1      10.005   2.284  -2.445  0.00  0.00     0.064 H 
BRANCH  58  66
ATOM     66  N   LIG d   1      10.586   3.466  -6.881  0.00  0.00     0.082 N 
ATOM     67  O   LIG d   1       9.670   3.447  -7.670  0.00  0.00     0.042 OA
ATOM     68  O   LIG d   1      11.711   3.223  -7.253  0.00  0.00    -0.576 OA
ENDBRANCH  58  66
BRANCH  60  69
ATOM     69  N   LIG d   1       9.709   6.804  -3.323  0.00  0.00     0.080 N 
ATOM     70  O   LIG d   1       9.452   7.064  -2.170  0.00  0.00     0.041 OA
ATOM     71  O   LIG d   1       9.803   7.693  -4.136  0.00  0.00    -0.576 OA
ENDBRANCH  60  69
ENDBRANCH  47  57
ENDBRANCH  42  45
ENDBRANCH   1  41
TORSDOF 16
ENDMDL
MODEL 7
REMARK VINA RESULT:      -6.4      3.095     11.407
REMARK  16 active torsions:
REMARK  status: ('A' for Active; 'I' for Inactive)
REMARK    1  A    between atoms: C_1  and  C_2 
REMARK    2  A    between atoms: C_2  and  C_4 
REMARK    3  A    between atoms: C_2  and  N_16 
REMARK       I    between atoms: C_4  and  N_6 
REMARK    4  A    between atoms: N_6  and  C_7 
REMARK    5  A    between atoms: C_7  and  C_9 
REMARK    6  A    between atoms: C_7  and  C_13 
REMARK    7  A    between atoms: C_9  and  C_10 
REMARK       I    between atoms: C_10  and  N_12 
REMARK       I    between atoms: C_13  and  N_15 
REMARK       I    between atoms: N_16  and  C_17 
REMARK    8  A    between atoms: C_17  and  C_19 
REMARK    9  A    between atoms: C_19  and  C_21 
REMARK   10  A    between atoms: C_19  and  N_26 
REMARK   11  A    between atoms: C_21  and  C_22 
REMARK   12  A    between atoms: C_22  and  C_23 
REMARK       I    between atoms: N_26  and  C_27 
REMARK   13  A    between atoms: C_27  and  C_29 
REMARK   14  A    between atoms: N_34  and  C_35 
REMARK   15  A    between atoms: C_38  and  N_44 
REMARK   16  A    between atoms: C_40  and  N_41 
ROOT
ATOM      1  C   LIG d   1      10.227   5.463  -3.887  0.00  0.00     0.100 C 
ATOM      2  H   LIG d   1      11.300   5.507  -4.072  0.00  0.00     0.059 H 
ENDROOT
BRANCH   1   3
ATOM      3  C   LIG d   1       9.610   4.402  -4.761  0.00  0.00     0.234 C 
ATOM      4  N   LIG d   1       9.169   3.251  -4.214  0.00  0.00    -0.303 N 
ATOM      5  H   LIG d   1       9.248   3.107  -3.258  0.00  0.00     0.149 HD
ATOM      6  O   LIG d   1       9.512   4.581  -5.956  0.00  0.00    -0.274 OA
BRANCH   4   7
ATOM      7  C   LIG d   1       8.569   2.219  -5.063  0.00  0.00     0.097 C 
ATOM      8  H   LIG d   1       8.255   2.663  -6.008  0.00  0.00     0.059 H 
BRANCH   7   9
ATOM      9  C   LIG d   1       9.599   1.120  -5.334  0.00  0.00    -0.038 C 
ATOM     10  H   LIG d   1      10.518   1.569  -5.712  0.00  0.00     0.025 H 
ATOM     11  H   LIG d   1       9.810   0.584  -4.409  0.00  0.00     0.025 H 
ATOM     12  H   LIG d   1       9.203   0.426  -6.074  0.00  0.00     0.025 H 
ENDBRANCH   7   9
BRANCH   7  13
ATOM     13  C   LIG d   1       7.373   1.625  -4.364  0.00  0.00     0.234 C 
ATOM     14  O   LIG d   1       6.912   2.170  -3.384  0.00  0.00    -0.274 OA
ATOM     15  N   LIG d   1       6.816   0.489  -4.829  0.00  0.00    -0.302 N 
ATOM     16  H   LIG d   1       7.185   0.055  -5.613  0.00  0.00     0.149 HD
BRANCH  15  17
ATOM     17  C   LIG d   1       5.653  -0.087  -4.150  0.00  0.00     0.107 C 
ATOM     18  H   LIG d   1       5.217   0.656  -3.481  0.00  0.00     0.060 H 
BRANCH  17  19
ATOM     19  C   LIG d   1       4.613  -0.509  -5.190  0.00  0.00     0.051 C 
ATOM     20  H   LIG d   1       4.871  -0.078  -6.158  0.00  0.00     0.038 H 
ATOM     21  H   LIG d   1       4.600  -1.597  -5.268  0.00  0.00     0.038 H 
BRANCH  19  22
ATOM     22  C   LIG d   1       3.252  -0.020  -4.768  0.00  0.00     0.213 C 
ATOM     23  O   LIG d   1       2.837   1.043  -5.177  0.00  0.00    -0.276 OA
ATOM     24  N   LIG d   1       2.497  -0.763  -3.935  0.00  0.00    -0.329 N 
ATOM     25  H   LIG d   1       2.830  -1.614  -3.608  0.00  0.00     0.145 HD
ATOM     26  H   LIG d   1       1.620  -0.449  -3.664  0.00  0.00     0.145 HD
ENDBRANCH  19  22
ENDBRANCH  17  19
BRANCH  17  27
ATOM     27  C   LIG d   1       6.083  -1.290  -3.352  0.00  0.00     0.231 C 
ATOM     28  O   LIG d   1       5.260  -1.933  -2.733  0.00  0.00    -0.274 OA
ATOM     29  N   LIG d   1       7.380  -1.653  -3.326  0.00  0.00    -0.328 N 
ATOM     30  H   LIG d   1       8.037  -1.140  -3.821  0.00  0.00     0.145 HD
ATOM     31  H   LIG d   1       7.657  -2.429  -2.812  0.00  0.00     0.145 HD
ENDBRANCH  17  27
ENDBRANCH  15  17
ENDBRANCH   7  13
ENDBRANCH   4   7
ENDBRANCH   1   3
BRANCH   1  32
ATOM     32  C   LIG d   1       9.976   5.122  -2.417  0.00  0.00    -0.021 C 
ATOM     33  H   LIG d   1       8.947   5.372  -2.156  0.00  0.00     0.029 H 
ATOM     34  H   LIG d   1      10.143   4.057  -2.257  0.00  0.00     0.029 H 
BRANCH  32  35
ATOM     35  C   LIG d   1      10.935   5.925  -1.536  0.00  0.00    -0.011 C 
ATOM     36  H   LIG d   1      11.545   5.242  -0.945  0.00  0.00     0.033 H 
ATOM     37  H   LIG d   1      11.581   6.535  -2.166  0.00  0.00     0.033 H 
BRANCH  35  38
ATOM     38  C   LIG d   1      10.143   6.817  -0.614  0.00  0.00     0.042 C 
ATOM     39  O   LIG d   1       9.167   7.414  -1.034  0.00  0.00    -0.550 OA
ATOM     40  O   LIG d   1      10.480   6.943   0.551  0.00  0.00    -0.550 OA
ENDBRANCH  35  38
ENDBRANCH  32  35
ENDBRANCH   1  32
BRANCH   1  41
ATOM     41  N   LIG d   1       9.624   6.762  -4.197  0.00  0.00    -0.302 N 
ATOM     42  C   LIG d   1      10.346   7.706  -4.831  0.00  0.00     0.234 C 
ATOM     43  O   LIG d   1      11.495   7.481  -5.147  0.00  0.00    -0.274 OA
ATOM     44  H   LIG d   1       8.704   6.942  -3.945  0.00  0.00     0.149 HD
BRANCH  42  45
ATOM     45  C   LIG d   1       9.725   9.042  -5.150  0.00  0.00     0.100 C 
ATOM     46  H   LIG d   1       8.699   9.070  -4.782  0.00  0.00     0.060 H 
ATOM     47  N   LIG d   1      10.510  10.119  -4.527  0.00  0.00    -0.313 N 
ATOM     48  C   LIG d   1      11.035  10.994  -5.595  0.00  0.00     0.013 C 
ATOM     49  C   LIG d   1      10.065  10.793  -6.786  0.00  0.00    -0.035 C 
ATOM     50  H   LIG d   1      12.044  10.691  -5.873  0.00  0.00     0.046 H 
ATOM     51  H   LIG d   1      11.026  12.034  -5.270  0.00  0.00     0.046 H 
ATOM     52  C   LIG d   1       9.744   9.280  -6.674  0.00  0.00    -0.024 C 
ATOM     53  H   LIG d   1      10.557  11.020  -7.732  0.00  0.00     0.028 H 
ATOM     54  H   LIG d   1       9.164  11.394  -6.662  0.00  0.00     0.028 H 
ATOM     55  H   LIG d   1      10.523   8.683  -7.148  0.00  0.00     0.029 H 
ATOM     56  H   LIG d   1       8.769   9.059  -7.110  0.00  0.00     0.029 H 
BRANCH  47  57
ATOM     57  C   LIG d   1      10.720  10.284  -3.156  0.00  0.00     0.109 A 
ATOM     58  C   LIG d   1       9.932  11.171  -2.433  0.00  0.00     0.300 A 
ATOM     59  C   LIG d   1      10.141  11.329  -1.077  0.00  0.00     0.095 A 
ATOM     60  C   LIG d   1      11.138  10.613  -0.441  0.00  0.00     0.280 A 
ATOM     61  H   LIG d   1       9.526  12.015  -0.513  0.00  0.00     0.075 H 
ATOM     62  C   LIG d   1      11.928   9.734  -1.160  0.00  0.00     0.018 A 
ATOM     63  C   LIG d   1      11.722   9.567  -2.515  0.00  0.00    -0.028 A 
ATOM     64  H   LIG d   1      12.707   9.176  -0.660  0.00  0.00     0.069 H 
ATOM     65  H   LIG d   1      12.338   8.880  -3.074  0.00  0.00     0.064 H 
BRANCH  58  66
ATOM     66  N   LIG d   1       8.868  11.941  -3.114  0.00  0.00     0.082 N 
ATOM     67  O   LIG d   1       7.764  11.465  -3.242  0.00  0.00     0.042 OA
ATOM     68  O   LIG d   1       9.103  13.046  -3.544  0.00  0.00    -0.576 OA
ENDBRANCH  58  66
BRANCH  60  69
ATOM     69  N   LIG d   1      11.362  10.789   1.011  0.00  0.00     0.080 N 
ATOM     70  O   LIG d   1      11.817   9.881   1.667  0.00  0.00     0.041 OA
ATOM     71  O   LIG d   1      11.089  11.840   1.542  0.00  0.00    -0.576 OA
ENDBRANCH  60  69
ENDBRANCH  47  57
ENDBRANCH  42  45
ENDBRANCH   1  41
TORSDOF 16
ENDMDL
MODEL 8
REMARK VINA RESULT:      -6.3      4.366      9.161
REMARK  16 active torsions:
REMARK  status: ('A' for Active; 'I' for Inactive)
REMARK    1  A    between atoms: C_1  and  C_2 
REMARK    2  A    between atoms: C_2  and  C_4 
REMARK    3  A    between atoms: C_2  and  N_16 
REMARK       I    between atoms: C_4  and  N_6 
REMARK    4  A    between atoms: N_6  and  C_7 
REMARK    5  A    between atoms: C_7  and  C_9 
REMARK    6  A    between atoms: C_7  and  C_13 
REMARK    7  A    between atoms: C_9  and  C_10 
REMARK       I    between atoms: C_10  and  N_12 
REMARK       I    between atoms: C_13  and  N_15 
REMARK       I    between atoms: N_16  and  C_17 
REMARK    8  A    between atoms: C_17  and  C_19 
REMARK    9  A    between atoms: C_19  and  C_21 
REMARK   10  A    between atoms: C_19  and  N_26 
REMARK   11  A    between atoms: C_21  and  C_22 
REMARK   12  A    between atoms: C_22  and  C_23 
REMARK       I    between atoms: N_26  and  C_27 
REMARK   13  A    between atoms: C_27  and  C_29 
REMARK   14  A    between atoms: N_34  and  C_35 
REMARK   15  A    between atoms: C_38  and  N_44 
REMARK   16  A    between atoms: C_40  and  N_41 
ROOT
ATOM      1  C   LIG d   1       2.758   0.228  -7.672  0.00  0.00     0.100 C 
ATOM      2  H   LIG d   1       1.868   0.703  -7.259  0.00  0.00     0.059 H 
ENDROOT
BRANCH   1   3
ATOM      3  C   LIG d   1       2.357  -0.714  -8.778  0.00  0.00     0.234 C 
ATOM      4  N   LIG d   1       3.025  -1.872  -8.953  0.00  0.00    -0.303 N 
ATOM      5  H   LIG d   1       3.764  -2.099  -8.366  0.00  0.00     0.149 HD
ATOM      6  O   LIG d   1       1.435  -0.430  -9.512  0.00  0.00    -0.274 OA
BRANCH   4   7
ATOM      7  C   LIG d   1       2.636  -2.787 -10.028  0.00  0.00     0.097 C 
ATOM      8  H   LIG d   1       1.580  -2.649 -10.258  0.00  0.00     0.059 H 
BRANCH   7   9
ATOM      9  C   LIG d   1       3.473  -2.493 -11.275  0.00  0.00    -0.038 C 
ATOM     10  H   LIG d   1       4.224  -3.274 -11.400  0.00  0.00     0.025 H 
ATOM     11  H   LIG d   1       2.824  -2.469 -12.150  0.00  0.00     0.025 H 
ATOM     12  H   LIG d   1       3.967  -1.529 -11.161  0.00  0.00     0.025 H 
ENDBRANCH   7   9
BRANCH   7  13
ATOM     13  C   LIG d   1       2.873  -4.209  -9.588  0.00  0.00     0.234 C 
ATOM     14  O   LIG d   1       2.191  -5.105 -10.039  0.00  0.00    -0.274 OA
ATOM     15  N   LIG d   1       3.842  -4.485  -8.693  0.00  0.00    -0.302 N 
ATOM     16  H   LIG d   1       4.387  -3.769  -8.332  0.00  0.00     0.149 HD
BRANCH  15  17
ATOM     17  C   LIG d   1       4.072  -5.868  -8.266  0.00  0.00     0.107 C 
ATOM     18  H   LIG d   1       3.302  -6.513  -8.690  0.00  0.00     0.060 H 
BRANCH  17  19
ATOM     19  C   LIG d   1       5.448  -6.328  -8.751  0.00  0.00     0.051 C 
ATOM     20  H   LIG d   1       5.829  -7.102  -8.085  0.00  0.00     0.038 H 
ATOM     21  H   LIG d   1       5.361  -6.729  -9.762  0.00  0.00     0.038 H 
BRANCH  19  22
ATOM     22  C   LIG d   1       6.397  -5.157  -8.755  0.00  0.00     0.213 C 
ATOM     23  O   LIG d   1       6.450  -4.424  -9.720  0.00  0.00    -0.276 OA
ATOM     24  N   LIG d   1       7.185  -4.926  -7.687  0.00  0.00    -0.329 N 
ATOM     25  H   LIG d   1       7.142  -5.512  -6.916  0.00  0.00     0.145 HD
ATOM     26  H   LIG d   1       7.796  -4.171  -7.689  0.00  0.00     0.145 HD
ENDBRANCH  19  22
ENDBRANCH  17  19
BRANCH  17  27
ATOM     27  C   LIG d   1       4.018  -5.945  -6.762  0.00  0.00     0.231 C 
ATOM     28  O   LIG d   1       4.434  -6.930  -6.189  0.00  0.00    -0.274 OA
ATOM     29  N   LIG d   1       3.510  -4.918  -6.053  0.00  0.00    -0.328 N 
ATOM     30  H   LIG d   1       3.178  -4.130  -6.510  0.00  0.00     0.145 HD
ATOM     31  H   LIG d   1       3.475  -4.967  -5.084  0.00  0.00     0.145 HD
ENDBRANCH  17  27
ENDBRANCH  15  17
ENDBRANCH   7  13
ENDBRANCH   4   7
ENDBRANCH   1   3
BRANCH   1  32
ATOM     32  C   LIG d   1       3.698   1.299  -8.230  0.00  0.00    -0.021 C 
ATOM     33  H   LIG d   1       3.381   1.571  -9.237  0.00  0.00     0.029 H 
ATOM     34  H   LIG d   1       3.666   2.180  -7.589  0.00  0.00     0.029 H 
BRANCH  32  35
ATOM     35  C   LIG d   1       5.126   0.752  -8.274  0.00  0.00    -0.011 C 
ATOM     36  H   LIG d   1       5.656   1.046  -7.368  0.00  0.00     0.033 H 
ATOM     37  H   LIG d   1       5.096  -0.335  -8.340  0.00  0.00     0.033 H 
BRANCH  35  38
ATOM     38  C   LIG d   1       5.840   1.310  -9.478  0.00  0.00     0.042 C 
ATOM     39  O   LIG d   1       5.532   0.938 -10.597  0.00  0.00    -0.550 OA
ATOM     40  O   LIG d   1       6.728   2.132  -9.333  0.00  0.00    -0.550 OA
ENDBRANCH  35  38
ENDBRANCH  32  35
ENDBRANCH   1  32
BRANCH   1  41
ATOM     41  N   LIG d   1       3.445  -0.521  -6.617  0.00  0.00    -0.302 N 
ATOM     42  C   LIG d   1       3.379  -0.101  -5.339  0.00  0.00     0.234 C 
ATOM     43  O   LIG d   1       2.751   0.898  -5.061  0.00  0.00    -0.274 OA
ATOM     44  H   LIG d   1       3.948  -1.321  -6.840  0.00  0.00     0.149 HD
BRANCH  42  45
ATOM     45  C   LIG d   1       4.086  -0.873  -4.255  0.00  0.00     0.100 C 
ATOM     46  H   LIG d   1       4.238  -1.903  -4.573  0.00  0.00     0.060 H 
ATOM     47  N   LIG d   1       5.383  -0.244  -3.959  0.00  0.00    -0.313 N 
ATOM     48  C   LIG d   1       5.380   0.200  -2.550  0.00  0.00     0.013 C 
ATOM     49  C   LIG d   1       4.332  -0.704  -1.852  0.00  0.00    -0.035 C 
ATOM     50  H   LIG d   1       5.083   1.246  -2.482  0.00  0.00     0.046 H 
ATOM     51  H   LIG d   1       6.364   0.053  -2.105  0.00  0.00     0.046 H 
ATOM     52  C   LIG d   1       3.252  -0.839  -2.957  0.00  0.00    -0.024 C 
ATOM     53  H   LIG d   1       3.926  -0.216  -0.966  0.00  0.00     0.028 H 
ATOM     54  H   LIG d   1       4.759  -1.675  -1.601  0.00  0.00     0.028 H 
ATOM     55  H   LIG d   1       2.583   0.021  -2.950  0.00  0.00     0.029 H 
ATOM     56  H   LIG d   1       2.691  -1.766  -2.836  0.00  0.00     0.029 H 
BRANCH  47  57
ATOM     57  C   LIG d   1       6.439  -0.095  -4.861  0.00  0.00     0.109 A 
ATOM     58  C   LIG d   1       6.878  -1.183  -5.605  0.00  0.00     0.300 A 
ATOM     59  C   LIG d   1       7.920  -1.031  -6.499  0.00  0.00     0.095 A 
ATOM     60  C   LIG d   1       8.532   0.200  -6.646  0.00  0.00     0.280 A 
ATOM     61  H   LIG d   1       8.260  -1.875  -7.081  0.00  0.00     0.075 H 
ATOM     62  C   LIG d   1       8.100   1.284  -5.904  0.00  0.00     0.018 A 
ATOM     63  C   LIG d   1       7.057   1.140  -5.012  0.00  0.00    -0.028 A 
ATOM     64  H   LIG d   1       8.581   2.244  -6.021  0.00  0.00     0.069 H 
ATOM     65  H   LIG d   1       6.720   1.987  -4.433  0.00  0.00     0.064 H 
BRANCH  58  66
ATOM     66  N   LIG d   1       6.228  -2.502  -5.443  0.00  0.00     0.082 N 
ATOM     67  O   LIG d   1       6.488  -3.191  -4.484  0.00  0.00     0.042 OA
ATOM     68  O   LIG d   1       5.436  -2.892  -6.270  0.00  0.00    -0.576 OA
ENDBRANCH  58  66
BRANCH  60  69
ATOM     69  N   LIG d   1       9.652   0.358  -7.601  0.00  0.00     0.080 N 
ATOM     70  O   LIG d   1       9.478   0.140  -8.779  0.00  0.00     0.041 OA
ATOM     71  O   LIG d   1      10.740   0.704  -7.205  0.00  0.00    -0.576 OA
ENDBRANCH  60  69
ENDBRANCH  47  57
ENDBRANCH  42  45
ENDBRANCH   1  41
TORSDOF 16
ENDMDL
MODEL 9
REMARK VINA RESULT:      -6.3      7.840     11.002
REMARK  16 active torsions:
REMARK  status: ('A' for Active; 'I' for Inactive)
REMARK    1  A    between atoms: C_1  and  C_2 
REMARK    2  A    between atoms: C_2  and  C_4 
REMARK    3  A    between atoms: C_2  and  N_16 
REMARK       I    between atoms: C_4  and  N_6 
REMARK    4  A    between atoms: N_6  and  C_7 
REMARK    5  A    between atoms: C_7  and  C_9 
REMARK    6  A    between atoms: C_7  and  C_13 
REMARK    7  A    between atoms: C_9  and  C_10 
REMARK       I    between atoms: C_10  and  N_12 
REMARK       I    between atoms: C_13  and  N_15 
REMARK       I    between atoms: N_16  and  C_17 
REMARK    8  A    between atoms: C_17  and  C_19 
REMARK    9  A    between atoms: C_19  and  C_21 
REMARK   10  A    between atoms: C_19  and  N_26 
REMARK   11  A    between atoms: C_21  and  C_22 
REMARK   12  A    between atoms: C_22  and  C_23 
REMARK       I    between atoms: N_26  and  C_27 
REMARK   13  A    between atoms: C_27  and  C_29 
REMARK   14  A    between atoms: N_34  and  C_35 
REMARK   15  A    between atoms: C_38  and  N_44 
REMARK   16  A    between atoms: C_40  and  N_41 
ROOT
ATOM      1  C   LIG d   1       9.037  -7.318  -3.897  0.00  0.00     0.100 C 
ATOM      2  H   LIG d   1       9.977  -7.743  -4.247  0.00  0.00     0.059 H 
ENDROOT
BRANCH   1   3
ATOM      3  C   LIG d   1       9.254  -5.882  -3.495  0.00  0.00     0.234 C 
ATOM      4  N   LIG d   1       8.755  -4.886  -4.256  0.00  0.00    -0.303 N 
ATOM      5  H   LIG d   1       8.256  -5.095  -5.061  0.00  0.00     0.149 HD
ATOM      6  O   LIG d   1       9.878  -5.621  -2.490  0.00  0.00    -0.274 OA
BRANCH   4   7
ATOM      7  C   LIG d   1       8.966  -3.490  -3.866  0.00  0.00     0.097 C 
ATOM      8  H   LIG d   1       9.226  -3.444  -2.809  0.00  0.00     0.059 H 
BRANCH   7   9
ATOM      9  C   LIG d   1      10.105  -2.896  -4.698  0.00  0.00    -0.038 C 
ATOM     10  H   LIG d   1      10.021  -3.243  -5.728  0.00  0.00     0.025 H 
ATOM     11  H   LIG d   1      10.043  -1.808  -4.674  0.00  0.00     0.025 H 
ATOM     12  H   LIG d   1      11.061  -3.215  -4.284  0.00  0.00     0.025 H 
ENDBRANCH   7   9
BRANCH   7  13
ATOM     13  C   LIG d   1       7.703  -2.704  -4.108  0.00  0.00     0.234 C 
ATOM     14  O   LIG d   1       6.960  -3.015  -5.016  0.00  0.00    -0.274 OA
ATOM     15  N   LIG d   1       7.399  -1.657  -3.316  0.00  0.00    -0.302 N 
ATOM     16  H   LIG d   1       7.993  -1.410  -2.591  0.00  0.00     0.149 HD
BRANCH  15  17
ATOM     17  C   LIG d   1       6.171  -0.894  -3.552  0.00  0.00     0.107 C 
ATOM     18  H   LIG d   1       5.790  -1.115  -4.549  0.00  0.00     0.060 H 
BRANCH  17  19
ATOM     19  C   LIG d   1       5.122  -1.282  -2.508  0.00  0.00     0.051 C 
ATOM     20  H   LIG d   1       5.507  -2.092  -1.889  0.00  0.00     0.038 H 
ATOM     21  H   LIG d   1       4.898  -0.420  -1.880  0.00  0.00     0.038 H 
BRANCH  19  22
ATOM     22  C   LIG d   1       3.864  -1.737  -3.204  0.00  0.00     0.213 C 
ATOM     23  O   LIG d   1       2.793  -1.267  -2.887  0.00  0.00    -0.276 OA
ATOM     24  N   LIG d   1       3.932  -2.665  -4.178  0.00  0.00    -0.329 N 
ATOM     25  H   LIG d   1       4.789  -3.040  -4.432  0.00  0.00     0.145 HD
ATOM     26  H   LIG d   1       3.123  -2.957  -4.627  0.00  0.00     0.145 HD
ENDBRANCH  19  22
ENDBRANCH  17  19
BRANCH  17  27
ATOM     27  C   LIG d   1       6.466   0.580  -3.442  0.00  0.00     0.231 C 
ATOM     28  O   LIG d   1       7.582   0.994  -3.676  0.00  0.00    -0.274 OA
ATOM     29  N   LIG d   1       5.490   1.438  -3.085  0.00  0.00    -0.328 N 
ATOM     30  H   LIG d   1       4.598   1.107  -2.899  0.00  0.00     0.145 HD
ATOM     31  H   LIG d   1       5.681   2.387  -3.015  0.00  0.00     0.145 HD
ENDBRANCH  17  27
ENDBRANCH  15  17
ENDBRANCH   7  13
ENDBRANCH   4   7
ENDBRANCH   1   3
BRANCH   1  32
ATOM     32  C   LIG d   1       7.998  -7.382  -5.018  0.00  0.00    -0.021 C 
ATOM     33  H   LIG d   1       7.609  -6.382  -5.211  0.00  0.00     0.029 H 
ATOM     34  H   LIG d   1       8.464  -7.772  -5.924  0.00  0.00     0.029 H 
BRANCH  32  35
ATOM     35  C   LIG d   1       6.851  -8.304  -4.599  0.00  0.00    -0.011 C 
ATOM     36  H   LIG d   1       7.190  -9.340  -4.626  0.00  0.00     0.033 H 
ATOM     37  H   LIG d   1       6.535  -8.052  -3.587  0.00  0.00     0.033 H 
BRANCH  35  38
ATOM     38  C   LIG d   1       5.693  -8.129  -5.547  0.00  0.00     0.042 C 
ATOM     39  O   LIG d   1       5.864  -8.256  -6.747  0.00  0.00    -0.550 OA
ATOM     40  O   LIG d   1       4.586  -7.860  -5.115  0.00  0.00    -0.550 OA
ENDBRANCH  35  38
ENDBRANCH  32  35
ENDBRANCH   1  32
BRANCH   1  41
ATOM     41  N   LIG d   1       8.556  -8.080  -2.742  0.00  0.00    -0.302 N 
ATOM     42  C   LIG d   1       9.327  -9.045  -2.203  0.00  0.00     0.234 C 
ATOM     43  O   LIG d   1      10.419  -9.283  -2.674  0.00  0.00    -0.274 OA
ATOM     44  H   LIG d   1       7.682  -7.890  -2.365  0.00  0.00     0.149 HD
BRANCH  42  45
ATOM     45  C   LIG d   1       8.831  -9.829  -1.015  0.00  0.00     0.100 C 
ATOM     46  H   LIG d   1       8.133  -9.224  -0.438  0.00  0.00     0.060 H 
ATOM     47  N   LIG d   1       8.168 -11.061  -1.471  0.00  0.00    -0.313 N 
ATOM     48  C   LIG d   1       8.908 -12.219  -0.931  0.00  0.00     0.013 C 
ATOM     49  C   LIG d   1       9.631 -11.678   0.328  0.00  0.00    -0.035 C 
ATOM     50  H   LIG d   1       9.635 -12.579  -1.659  0.00  0.00     0.046 H 
ATOM     51  H   LIG d   1       8.217 -13.016  -0.658  0.00  0.00     0.046 H 
ATOM     52  C   LIG d   1      10.023 -10.248  -0.129  0.00  0.00    -0.024 C 
ATOM     53  H   LIG d   1      10.515 -12.272   0.556  0.00  0.00     0.028 H 
ATOM     54  H   LIG d   1       8.954 -11.644   1.182  0.00  0.00     0.028 H 
ATOM     55  H   LIG d   1      10.946 -10.267  -0.707  0.00  0.00     0.029 H 
ATOM     56  H   LIG d   1      10.117  -9.582   0.729  0.00  0.00     0.029 H 
BRANCH  47  57
ATOM     57  C   LIG d   1       7.029 -11.121  -2.277  0.00  0.00     0.109 A 
ATOM     58  C   LIG d   1       7.087 -11.745  -3.517  0.00  0.00     0.300 A 
ATOM     59  C   LIG d   1       5.957 -11.806  -4.310  0.00  0.00     0.095 A 
ATOM     60  C   LIG d   1       4.774 -11.241  -3.875  0.00  0.00     0.280 A 
ATOM     61  H   LIG d   1       6.000 -12.294  -5.273  0.00  0.00     0.075 H 
ATOM     62  C   LIG d   1       4.715 -10.616  -2.642  0.00  0.00     0.018 A 
ATOM     63  C   LIG d   1       5.838 -10.554  -1.843  0.00  0.00    -0.028 A 
ATOM     64  H   LIG d   1       3.787 -10.175  -2.305  0.00  0.00     0.069 H 
ATOM     65  H   LIG d   1       5.791 -10.066  -0.881  0.00  0.00     0.064 H 
BRANCH  58  66
ATOM     66  N   LIG d   1       8.356 -12.345  -3.987  0.00  0.00     0.082 N 
ATOM     67  O   LIG d   1       9.189 -11.653  -4.525  0.00  0.00     0.042 OA
ATOM     68  O   LIG d   1       8.559 -13.527  -3.834  0.00  0.00    -0.576 OA
ENDBRANCH  58  66
BRANCH  60  69
ATOM     69  N   LIG d   1       3.567 -11.305  -4.729  0.00  0.00     0.080 N 
ATOM     70  O   LIG d   1       2.467 -11.291  -4.225  0.00  0.00     0.041 OA
ATOM     71  O   LIG d   1       3.680 -11.371  -5.931  0.00  0.00    -0.576 OA
ENDBRANCH  60  69
ENDBRANCH  47  57
ENDBRANCH  42  45
ENDBRANCH   1  41
TORSDOF 16
ENDMDL
MODEL 10
REMARK VINA RESULT:      -6.2      3.908      7.030
REMARK  16 active torsions:
REMARK  status: ('A' for Active; 'I' for Inactive)
REMARK    1  A    between atoms: C_1  and  C_2 
REMARK    2  A    between atoms: C_2  and  C_4 
REMARK    3  A    between atoms: C_2  and  N_16 
REMARK       I    between atoms: C_4  and  N_6 
REMARK    4  A    between atoms: N_6  and  C_7 
REMARK    5  A    between atoms: C_7  and  C_9 
REMARK    6  A    between atoms: C_7  and  C_13 
REMARK    7  A    between atoms: C_9  and  C_10 
REMARK       I    between atoms: C_10  and  N_12 
REMARK       I    between atoms: C_13  and  N_15 
REMARK       I    between atoms: N_16  and  C_17 
REMARK    8  A    between atoms: C_17  and  C_19 
REMARK    9  A    between atoms: C_19  and  C_21 
REMARK   10  A    between atoms: C_19  and  N_26 
REMARK   11  A    between atoms: C_21  and  C_22 
REMARK   12  A    between atoms: C_22  and  C_23 
REMARK       I    between atoms: N_26  and  C_27 
REMARK   13  A    between atoms: C_27  and  C_29 
REMARK   14  A    between atoms: N_34  and  C_35 
REMARK   15  A    between atoms: C_38  and  N_44 
REMARK   16  A    between atoms: C_40  and  N_41 
ROOT
ATOM      1  C   LIG d   1       7.929   0.195  -8.258  0.00  0.00     0.100 C 
ATOM      2  H   LIG d   1       8.410   0.013  -9.219  0.00  0.00     0.059 H 
ENDROOT
BRANCH   1   3
ATOM      3  C   LIG d   1       7.958  -1.066  -7.435  0.00  0.00     0.234 C 
ATOM      4  N   LIG d   1       7.415  -1.079  -6.201  0.00  0.00    -0.303 N 
ATOM      5  H   LIG d   1       7.005  -0.276  -5.843  0.00  0.00     0.149 HD
ATOM      6  O   LIG d   1       8.472  -2.070  -7.881  0.00  0.00    -0.274 OA
BRANCH   4   7
ATOM      7  C   LIG d   1       7.444  -2.305  -5.400  0.00  0.00     0.097 C 
ATOM      8  H   LIG d   1       7.419  -3.171  -6.061  0.00  0.00     0.059 H 
BRANCH   7   9
ATOM      9  C   LIG d   1       8.726  -2.338  -4.564  0.00  0.00    -0.038 C 
ATOM     10  H   LIG d   1       8.506  -2.004  -3.550  0.00  0.00     0.025 H 
ATOM     11  H   LIG d   1       9.115  -3.355  -4.536  0.00  0.00     0.025 H 
ATOM     12  H   LIG d   1       9.468  -1.677  -5.012  0.00  0.00     0.025 H 
ENDBRANCH   7   9
BRANCH   7  13
ATOM     13  C   LIG d   1       6.247  -2.336  -4.485  0.00  0.00     0.234 C 
ATOM     14  O   LIG d   1       5.696  -3.389  -4.244  0.00  0.00    -0.274 OA
ATOM     15  N   LIG d   1       5.789  -1.194  -3.935  0.00  0.00    -0.302 N 
ATOM     16  H   LIG d   1       6.230  -0.353  -4.128  0.00  0.00     0.149 HD
BRANCH  15  17
ATOM     17  C   LIG d   1       4.625  -1.226  -3.045  0.00  0.00     0.107 C 
ATOM     18  H   LIG d   1       4.569  -2.197  -2.553  0.00  0.00     0.060 H 
BRANCH  17  19
ATOM     19  C   LIG d   1       4.761  -0.126  -1.990  0.00  0.00     0.051 C 
ATOM     20  H   LIG d   1       3.836  -0.053  -1.419  0.00  0.00     0.038 H 
ATOM     21  H   LIG d   1       5.586  -0.367  -1.318  0.00  0.00     0.038 H 
BRANCH  19  22
ATOM     22  C   LIG d   1       5.037   1.191  -2.670  0.00  0.00     0.213 C 
ATOM     23  O   LIG d   1       6.180   1.547  -2.859  0.00  0.00    -0.276 OA
ATOM     24  N   LIG d   1       4.012   1.971  -3.067  0.00  0.00    -0.329 N 
ATOM     25  H   LIG d   1       3.098   1.685  -2.915  0.00  0.00     0.145 HD
ATOM     26  H   LIG d   1       4.189   2.819  -3.505  0.00  0.00     0.145 HD
ENDBRANCH  19  22
ENDBRANCH  17  19
BRANCH  17  27
ATOM     27  C   LIG d   1       3.372  -0.997  -3.850  0.00  0.00     0.231 C 
ATOM     28  O   LIG d   1       2.311  -0.829  -3.286  0.00  0.00    -0.274 OA
ATOM     29  N   LIG d   1       3.430  -0.979  -5.196  0.00  0.00    -0.328 N 
ATOM     30  H   LIG d   1       4.278  -1.113  -5.647  0.00  0.00     0.145 HD
ATOM     31  H   LIG d   1       2.622  -0.831  -5.715  0.00  0.00     0.145 HD
ENDBRANCH  17  27
ENDBRANCH  15  17
ENDBRANCH   7  13
ENDBRANCH   4   7
ENDBRANCH   1   3
BRANCH   1  32
ATOM     32  C   LIG d   1       8.675   1.306  -7.515  0.00  0.00    -0.021 C 
ATOM     33  H   LIG d   1       7.955   1.968  -7.033  0.00  0.00     0.029 H 
ATOM     34  H   LIG d   1       9.325   0.864  -6.760  0.00  0.00     0.029 H 
BRANCH  32  35
ATOM     35  C   LIG d   1       9.518   2.107  -8.509  0.00  0.00    -0.011 C 
ATOM     36  H   LIG d   1      10.500   2.304  -8.076  0.00  0.00     0.033 H 
ATOM     37  H   LIG d   1       9.636   1.535  -9.428  0.00  0.00     0.033 H 
BRANCH  35  38
ATOM     38  C   LIG d   1       8.831   3.414  -8.813  0.00  0.00     0.042 C 
ATOM     39  O   LIG d   1       7.756   3.418  -9.387  0.00  0.00    -0.550 OA
ATOM     40  O   LIG d   1       9.351   4.466  -8.486  0.00  0.00    -0.550 OA
ENDBRANCH  35  38
ENDBRANCH  32  35
ENDBRANCH   1  32
BRANCH   1  41
ATOM     41  N   LIG d   1       6.539   0.603  -8.477  0.00  0.00    -0.302 N 
ATOM     42  C   LIG d   1       5.953   0.384  -9.671  0.00  0.00     0.234 C 
ATOM     43  O   LIG d   1       6.576  -0.151 -10.564  0.00  0.00    -0.274 OA
ATOM     44  H   LIG d   1       6.041   1.030  -7.763  0.00  0.00     0.149 HD
BRANCH  42  45
ATOM     45  C   LIG d   1       4.523   0.804  -9.895  0.00  0.00     0.100 C 
ATOM     46  H   LIG d   1       4.255   0.660 -10.942  0.00  0.00     0.060 H 
ATOM     47  N   LIG d   1       3.630   0.011  -9.037  0.00  0.00    -0.313 N 
ATOM     48  C   LIG d   1       2.927   0.929  -8.117  0.00  0.00     0.013 C 
ATOM     49  C   LIG d   1       2.943   2.301  -8.835  0.00  0.00    -0.035 C 
ATOM     50  H   LIG d   1       3.456   0.993  -7.166  0.00  0.00     0.046 H 
ATOM     51  H   LIG d   1       1.902   0.595  -7.960  0.00  0.00     0.046 H 
ATOM     52  C   LIG d   1       4.343   2.286  -9.505  0.00  0.00    -0.024 C 
ATOM     53  H   LIG d   1       2.862   3.118  -8.118  0.00  0.00     0.028 H 
ATOM     54  H   LIG d   1       2.153   2.360  -9.584  0.00  0.00     0.028 H 
ATOM     55  H   LIG d   1       5.112   2.595  -8.797  0.00  0.00     0.029 H 
ATOM     56  H   LIG d   1       4.353   2.921 -10.390  0.00  0.00     0.029 H 
BRANCH  47  57
ATOM     57  C   LIG d   1       3.473  -1.376  -9.086  0.00  0.00     0.109 A 
ATOM     58  C   LIG d   1       2.610  -1.946 -10.013  0.00  0.00     0.300 A 
ATOM     59  C   LIG d   1       2.461  -3.319 -10.061  0.00  0.00     0.095 A 
ATOM     60  C   LIG d   1       3.161  -4.124  -9.183  0.00  0.00     0.280 A 
ATOM     61  H   LIG d   1       1.793  -3.764 -10.784  0.00  0.00     0.075 H 
ATOM     62  C   LIG d   1       4.018  -3.558  -8.255  0.00  0.00     0.018 A 
ATOM     63  C   LIG d   1       4.175  -2.187  -8.204  0.00  0.00    -0.028 A 
ATOM     64  H   LIG d   1       4.564  -4.190  -7.570  0.00  0.00     0.069 H 
ATOM     65  H   LIG d   1       4.844  -1.747  -7.480  0.00  0.00     0.064 H 
BRANCH  58  66
ATOM     66  N   LIG d   1       1.855  -1.085 -10.950  0.00  0.00     0.082 N 
ATOM     67  O   LIG d   1       0.806  -0.590 -10.605  0.00  0.00     0.042 OA
ATOM     68  O   LIG d   1       2.285  -0.877 -12.061  0.00  0.00    -0.576 OA
ENDBRANCH  58  66
BRANCH  60  69
ATOM     69  N   LIG d   1       2.995  -5.593  -9.234  0.00  0.00     0.080 N 
ATOM     70  O   LIG d   1       2.626  -6.125 -10.256  0.00  0.00     0.041 OA
ATOM     71  O   LIG d   1       3.227  -6.262  -8.255  0.00  0.00    -0.576 OA
ENDBRANCH  60  69
ENDBRANCH  47  57
ENDBRANCH  42  45
ENDBRANCH   1  41
TORSDOF 16
ENDMDL
