MODEL 1
REMARK VINA RESULT:      -6.8      0.000      0.000
REMARK  6 active torsions:
REMARK  status: ('A' for Active; 'I' for Inactive)
REMARK    1  A    between atoms: C_1  and  C_2 
REMARK    2  A    between atoms: C_6  and  N_9 
REMARK    3  A    between atoms: C_7  and  C_8 
REMARK    4  A    between atoms: C_29  and  C_31 
REMARK    5  A    between atoms: C_31  and  C_32 
REMARK    6  A    between atoms: C_31  and  C_33 
ROOT
ATOM      1  N   LIG d   1       4.921  -0.913  -9.048  0.00  0.00    -0.210 N 
ATOM      2  C   LIG d   1       5.739  -1.831  -8.521  0.00  0.00     0.232 A 
ATOM      3  O   LIG d   1       6.190  -2.788  -9.111  0.00  0.00    -0.274 OA
ATOM      4  C   LIG d   1       6.012  -1.488  -7.074  0.00  0.00     0.066 A 
ATOM      5  H   LIG d   1       7.073  -1.353  -6.868  0.00  0.00     0.042 H 
ATOM      6  C   LIG d   1       5.184  -0.192  -6.849  0.00  0.00     0.080 A 
ATOM      7  H   LIG d   1       5.794   0.647  -6.513  0.00  0.00     0.043 H 
ATOM      8  C   LIG d   1       4.554   0.057  -8.202  0.00  0.00     0.233 A 
ATOM      9  O   LIG d   1       3.827   0.987  -8.476  0.00  0.00    -0.274 OA
ATOM     10  C   LIG d   1       4.113  -0.591  -5.826  0.00  0.00     0.136 A 
ATOM     11  C   LIG d   1       4.503  -0.184  -4.434  0.00  0.00     0.003 A 
ATOM     12  C   LIG d   1       5.572  -0.486  -3.622  0.00  0.00    -0.055 A 
ATOM     13  C   LIG d   1       5.655   0.059  -2.353  0.00  0.00    -0.061 A 
ATOM     14  C   LIG d   1       4.661   0.909  -1.904  0.00  0.00    -0.060 A 
ATOM     15  C   LIG d   1       3.587   1.216  -2.714  0.00  0.00    -0.040 A 
ATOM     16  C   LIG d   1       3.495   0.671  -3.992  0.00  0.00     0.039 A 
ATOM     17  N   LIG d   1       2.523   0.824  -4.983  0.00  0.00    -0.283 N 
ATOM     18  C   LIG d   1       2.810   0.114  -6.091  0.00  0.00     0.243 A 
ATOM     19  O   LIG d   1       2.148   0.056  -7.106  0.00  0.00    -0.273 OA
ATOM     20  N   LIG d   1       3.969  -2.054  -5.943  0.00  0.00    -0.295 N 
ATOM     21  C   LIG d   1       5.363  -2.553  -6.165  0.00  0.00     0.023 C 
ATOM     22  H   LIG d   1       5.888  -2.610  -5.212  0.00  0.00     0.047 H 
ATOM     23  H   LIG d   1       6.346  -1.151  -3.975  0.00  0.00     0.062 H 
ATOM     24  H   LIG d   1       6.493  -0.178  -1.715  0.00  0.00     0.062 H 
ATOM     25  H   LIG d   1       4.725   1.336  -0.914  0.00  0.00     0.062 H 
ATOM     26  H   LIG d   1       2.815   1.882  -2.356  0.00  0.00     0.064 H 
ATOM     27  H   LIG d   1       1.732   1.377  -4.883  0.00  0.00     0.155 HD
ATOM     28  H   LIG d   1       3.572  -2.446  -5.101  0.00  0.00     0.123 HD
ENDROOT
BRANCH   1  29
ATOM     29  C   LIG d   1       4.487  -0.960 -10.381  0.00  0.00     0.047 A 
ATOM     30  C   LIG d   1       5.240  -0.354 -11.378  0.00  0.00    -0.040 A 
ATOM     31  C   LIG d   1       4.811  -0.401 -12.691  0.00  0.00    -0.060 A 
ATOM     32  H   LIG d   1       6.160   0.153 -11.129  0.00  0.00     0.064 H 
ATOM     33  C   LIG d   1       3.634  -1.051 -13.012  0.00  0.00    -0.059 A 
ATOM     34  H   LIG d   1       5.396   0.070 -13.467  0.00  0.00     0.062 H 
ATOM     35  C   LIG d   1       2.882  -1.656 -12.020  0.00  0.00    -0.046 A 
ATOM     36  H   LIG d   1       3.301  -1.087 -14.038  0.00  0.00     0.062 H 
ATOM     37  C   LIG d   1       3.303  -1.606 -10.706  0.00  0.00    -0.026 A 
BRANCH  35  38
ATOM     38  C   LIG d   1       1.600  -2.363 -12.374  0.00  0.00    -0.039 C 
ATOM     39  H   LIG d   1       1.428  -3.178 -11.670  0.00  0.00     0.028 H 
ATOM     40  H   LIG d   1       0.770  -1.658 -12.324  0.00  0.00     0.028 H 
ATOM     41  H   LIG d   1       1.674  -2.766 -13.384  0.00  0.00     0.028 H 
ENDBRANCH  35  38
BRANCH  37  42
ATOM     42  C   LIG d   1       2.480  -2.260  -9.625  0.00  0.00    -0.038 C 
ATOM     43  H   LIG d   1       2.517  -3.342  -9.745  0.00  0.00     0.028 H 
ATOM     44  H   LIG d   1       2.881  -1.989  -8.649  0.00  0.00     0.028 H 
ATOM     45  H   LIG d   1       1.447  -1.921  -9.701  0.00  0.00     0.028 H 
ENDBRANCH  37  42
ENDBRANCH   1  29
BRANCH  21  46
ATOM     46  C   LIG d   1       5.367  -3.917  -6.858  0.00  0.00    -0.030 C 
ATOM     47  H   LIG d   1       5.642  -3.793  -7.905  0.00  0.00     0.031 H 
BRANCH  46  48
ATOM     48  C   LIG d   1       6.380  -4.835  -6.170  0.00  0.00    -0.061 C 
ATOM     49  H   LIG d   1       7.028  -5.288  -6.921  0.00  0.00     0.023 H 
ATOM     50  H   LIG d   1       6.983  -4.253  -5.473  0.00  0.00     0.023 H 
ATOM     51  H   LIG d   1       5.852  -5.618  -5.626  0.00  0.00     0.023 H 
ENDBRANCH  46  48
BRANCH  46  52
ATOM     52  C   LIG d   1       3.972  -4.539  -6.768  0.00  0.00    -0.061 C 
ATOM     53  H   LIG d   1       3.327  -3.900  -6.166  0.00  0.00     0.023 H 
ATOM     54  H   LIG d   1       3.553  -4.639  -7.769  0.00  0.00     0.023 H 
ATOM     55  H   LIG d   1       4.042  -5.524  -6.305  0.00  0.00     0.023 H 
ENDBRANCH  46  52
ENDBRANCH  21  46
TORSDOF 6
ENDMDL
MODEL 2
REMARK VINA RESULT:      -6.7      3.165      6.967
REMARK  6 active torsions:
REMARK  status: ('A' for Active; 'I' for Inactive)
REMARK    1  A    between atoms: C_1  and  C_2 
REMARK    2  A    between atoms: C_6  and  N_9 
REMARK    3  A    between atoms: C_7  and  C_8 
REMARK    4  A    between atoms: C_29  and  C_31 
REMARK    5  A    between atoms: C_31  and  C_32 
REMARK    6  A    between atoms: C_31  and  C_33 
ROOT
ATOM      1  N   LIG d   1       7.613  -1.925  -5.035  0.00  0.00    -0.210 N 
ATOM      2  C   LIG d   1       6.962  -0.957  -4.381  0.00  0.00     0.232 A 
ATOM      3  O   LIG d   1       7.206  -0.588  -3.253  0.00  0.00    -0.274 OA
ATOM      4  C   LIG d   1       5.876  -0.394  -5.268  0.00  0.00     0.066 A 
ATOM      5  H   LIG d   1       5.986   0.676  -5.440  0.00  0.00     0.042 H 
ATOM      6  C   LIG d   1       6.007  -1.231  -6.572  0.00  0.00     0.080 A 
ATOM      7  H   LIG d   1       6.181  -0.615  -7.454  0.00  0.00     0.043 H 
ATOM      8  C   LIG d   1       7.166  -2.156  -6.275  0.00  0.00     0.233 A 
ATOM      9  O   LIG d   1       7.617  -2.982  -7.039  0.00  0.00    -0.274 OA
ATOM     10  C   LIG d   1       4.697  -2.024  -6.655  0.00  0.00     0.136 A 
ATOM     11  C   LIG d   1       3.711  -1.364  -7.575  0.00  0.00     0.003 A 
ATOM     12  C   LIG d   1       3.110  -0.126  -7.590  0.00  0.00    -0.055 A 
ATOM     13  C   LIG d   1       2.219   0.200  -8.598  0.00  0.00    -0.061 A 
ATOM     14  C   LIG d   1       1.936  -0.721  -9.589  0.00  0.00    -0.060 A 
ATOM     15  C   LIG d   1       2.535  -1.964  -9.579  0.00  0.00    -0.040 A 
ATOM     16  C   LIG d   1       3.432  -2.301  -8.568  0.00  0.00     0.039 A 
ATOM     17  N   LIG d   1       4.154  -3.474  -8.341  0.00  0.00    -0.283 N 
ATOM     18  C   LIG d   1       4.920  -3.394  -7.236  0.00  0.00     0.243 A 
ATOM     19  O   LIG d   1       5.649  -4.258  -6.795  0.00  0.00    -0.273 OA
ATOM     20  N   LIG d   1       4.183  -2.099  -5.274  0.00  0.00    -0.295 N 
ATOM     21  C   LIG d   1       4.496  -0.761  -4.682  0.00  0.00     0.023 C 
ATOM     22  H   LIG d   1       3.745  -0.037  -4.997  0.00  0.00     0.047 H 
ATOM     23  H   LIG d   1       3.333   0.591  -6.815  0.00  0.00     0.062 H 
ATOM     24  H   LIG d   1       1.747   1.171  -8.610  0.00  0.00     0.062 H 
ATOM     25  H   LIG d   1       1.241  -0.468 -10.376  0.00  0.00     0.062 H 
ATOM     26  H   LIG d   1       2.309  -2.678 -10.357  0.00  0.00     0.064 H 
ATOM     27  H   LIG d   1       4.108  -4.256  -8.912  0.00  0.00     0.155 HD
ATOM     28  H   LIG d   1       3.189  -2.277  -5.268  0.00  0.00     0.123 HD
ENDROOT
BRANCH   1  29
ATOM     29  C   LIG d   1       8.681  -2.637  -4.469  0.00  0.00     0.047 A 
ATOM     30  C   LIG d   1       8.432  -3.762  -3.694  0.00  0.00    -0.040 A 
ATOM     31  C   LIG d   1       9.485  -4.463  -3.138  0.00  0.00    -0.060 A 
ATOM     32  H   LIG d   1       7.417  -4.090  -3.526  0.00  0.00     0.064 H 
ATOM     33  C   LIG d   1      10.786  -4.045  -3.353  0.00  0.00    -0.059 A 
ATOM     34  H   LIG d   1       9.293  -5.338  -2.535  0.00  0.00     0.062 H 
ATOM     35  C   LIG d   1      11.036  -2.925  -4.126  0.00  0.00    -0.046 A 
ATOM     36  H   LIG d   1      11.607  -4.594  -2.918  0.00  0.00     0.062 H 
ATOM     37  C   LIG d   1       9.987  -2.218  -4.678  0.00  0.00    -0.026 A 
BRANCH  35  38
ATOM     38  C   LIG d   1      12.454  -2.473  -4.357  0.00  0.00    -0.039 C 
ATOM     39  H   LIG d   1      12.611  -1.508  -3.876  0.00  0.00     0.028 H 
ATOM     40  H   LIG d   1      13.143  -3.205  -3.936  0.00  0.00     0.028 H 
ATOM     41  H   LIG d   1      12.635  -2.379  -5.428  0.00  0.00     0.028 H 
ENDBRANCH  35  38
BRANCH  37  42
ATOM     42  C   LIG d   1      10.260  -0.993  -5.514  0.00  0.00    -0.038 C 
ATOM     43  H   LIG d   1      10.087  -1.224  -6.565  0.00  0.00     0.028 H 
ATOM     44  H   LIG d   1       9.596  -0.187  -5.205  0.00  0.00     0.028 H 
ATOM     45  H   LIG d   1      11.297  -0.684  -5.377  0.00  0.00     0.028 H 
ENDBRANCH  37  42
ENDBRANCH   1  29
BRANCH  21  46
ATOM     46  C   LIG d   1       4.567  -0.825  -3.155  0.00  0.00    -0.030 C 
ATOM     47  H   LIG d   1       5.609  -0.790  -2.837  0.00  0.00     0.031 H 
BRANCH  46  48
ATOM     48  C   LIG d   1       3.813   0.366  -2.559  0.00  0.00    -0.061 C 
ATOM     49  H   LIG d   1       3.097   0.008  -1.819  0.00  0.00     0.023 H 
ATOM     50  H   LIG d   1       4.521   1.043  -2.082  0.00  0.00     0.023 H 
ATOM     51  H   LIG d   1       3.283   0.895  -3.352  0.00  0.00     0.023 H 
ENDBRANCH  46  48
BRANCH  46  52
ATOM     52  C   LIG d   1       3.930  -2.128  -2.669  0.00  0.00    -0.061 C 
ATOM     53  H   LIG d   1       4.135  -2.923  -3.385  0.00  0.00     0.023 H 
ATOM     54  H   LIG d   1       4.346  -2.396  -1.698  0.00  0.00     0.023 H 
ATOM     55  H   LIG d   1       2.852  -1.993  -2.576  0.00  0.00     0.023 H 
ENDBRANCH  46  52
ENDBRANCH  21  46
TORSDOF 6
ENDMDL
MODEL 3
REMARK VINA RESULT:      -6.5      3.058      5.301
REMARK  6 active torsions:
REMARK  status: ('A' for Active; 'I' for Inactive)
REMARK    1  A    between atoms: C_1  and  C_2 
REMARK    2  A    between atoms: C_6  and  N_9 
REMARK    3  A    between atoms: C_7  and  C_8 
REMARK    4  A    between atoms: C_29  and  C_31 
REMARK    5  A    between atoms: C_31  and  C_32 
REMARK    6  A    between atoms: C_31  and  C_33 
ROOT
ATOM      1  N   LIG d   1       5.837  -3.201  -5.300  0.00  0.00    -0.210 N 
ATOM      2  C   LIG d   1       5.231  -2.639  -4.248  0.00  0.00     0.232 A 
ATOM      3  O   LIG d   1       4.214  -3.043  -3.728  0.00  0.00    -0.274 OA
ATOM      4  C   LIG d   1       6.014  -1.423  -3.808  0.00  0.00     0.066 A 
ATOM      5  H   LIG d   1       6.345  -1.489  -2.773  0.00  0.00     0.042 H 
ATOM      6  C   LIG d   1       7.196  -1.372  -4.817  0.00  0.00     0.080 A 
ATOM      7  H   LIG d   1       8.170  -1.402  -4.328  0.00  0.00     0.043 H 
ATOM      8  C   LIG d   1       6.952  -2.578  -5.697  0.00  0.00     0.233 A 
ATOM      9  O   LIG d   1       7.656  -2.923  -6.622  0.00  0.00    -0.274 OA
ATOM     10  C   LIG d   1       6.971  -0.078  -5.608  0.00  0.00     0.136 A 
ATOM     11  C   LIG d   1       7.815   1.046  -5.077  0.00  0.00     0.003 A 
ATOM     12  C   LIG d   1       7.909   1.663  -3.850  0.00  0.00    -0.055 A 
ATOM     13  C   LIG d   1       8.805   2.699  -3.663  0.00  0.00    -0.061 A 
ATOM     14  C   LIG d   1       9.608   3.112  -4.710  0.00  0.00    -0.060 A 
ATOM     15  C   LIG d   1       9.518   2.498  -5.942  0.00  0.00    -0.040 A 
ATOM     16  C   LIG d   1       8.617   1.454  -6.140  0.00  0.00     0.039 A 
ATOM     17  N   LIG d   1       8.343   0.687  -7.274  0.00  0.00    -0.283 N 
ATOM     18  C   LIG d   1       7.386  -0.234  -7.046  0.00  0.00     0.243 A 
ATOM     19  O   LIG d   1       6.947  -1.035  -7.845  0.00  0.00    -0.273 OA
ATOM     20  N   LIG d   1       5.532   0.223  -5.491  0.00  0.00    -0.295 N 
ATOM     21  C   LIG d   1       5.182  -0.153  -4.085  0.00  0.00     0.023 C 
ATOM     22  H   LIG d   1       5.477   0.649  -3.408  0.00  0.00     0.047 H 
ATOM     23  H   LIG d   1       7.280   1.338  -3.034  0.00  0.00     0.062 H 
ATOM     24  H   LIG d   1       8.880   3.184  -2.700  0.00  0.00     0.062 H 
ATOM     25  H   LIG d   1      10.309   3.921  -4.564  0.00  0.00     0.062 H 
ATOM     26  H   LIG d   1      10.148   2.825  -6.755  0.00  0.00     0.064 H 
ATOM     27  H   LIG d   1       8.788   0.805  -8.128  0.00  0.00     0.155 HD
ATOM     28  H   LIG d   1       5.352   1.201  -5.662  0.00  0.00     0.123 HD
ENDROOT
BRANCH   1  29
ATOM     29  C   LIG d   1       5.346  -4.353  -5.932  0.00  0.00     0.047 A 
ATOM     30  C   LIG d   1       5.698  -5.609  -5.457  0.00  0.00    -0.040 A 
ATOM     31  C   LIG d   1       5.214  -6.743  -6.081  0.00  0.00    -0.060 A 
ATOM     32  H   LIG d   1       6.349  -5.701  -4.601  0.00  0.00     0.064 H 
ATOM     33  C   LIG d   1       4.379  -6.627  -7.177  0.00  0.00    -0.059 A 
ATOM     34  H   LIG d   1       5.487  -7.720  -5.712  0.00  0.00     0.062 H 
ATOM     35  C   LIG d   1       4.026  -5.376  -7.652  0.00  0.00    -0.046 A 
ATOM     36  H   LIG d   1       4.001  -7.514  -7.663  0.00  0.00     0.062 H 
ATOM     37  C   LIG d   1       4.513  -4.240  -7.036  0.00  0.00    -0.026 A 
BRANCH  35  38
ATOM     38  C   LIG d   1       3.117  -5.254  -8.846  0.00  0.00    -0.039 C 
ATOM     39  H   LIG d   1       3.447  -5.939  -9.627  0.00  0.00     0.028 H 
ATOM     40  H   LIG d   1       2.096  -5.502  -8.554  0.00  0.00     0.028 H 
ATOM     41  H   LIG d   1       3.148  -4.232  -9.223  0.00  0.00     0.028 H 
ENDBRANCH  35  38
BRANCH  37  42
ATOM     42  C   LIG d   1       4.134  -2.878  -7.558  0.00  0.00    -0.038 C 
ATOM     43  H   LIG d   1       3.084  -2.684  -7.339  0.00  0.00     0.028 H 
ATOM     44  H   LIG d   1       4.751  -2.120  -7.077  0.00  0.00     0.028 H 
ATOM     45  H   LIG d   1       4.292  -2.845  -8.636  0.00  0.00     0.028 H 
ENDBRANCH  37  42
ENDBRANCH   1  29
BRANCH  21  46
ATOM     46  C   LIG d   1       3.689  -0.452  -3.939  0.00  0.00    -0.030 C 
ATOM     47  H   LIG d   1       3.532  -1.531  -3.944  0.00  0.00     0.031 H 
BRANCH  46  48
ATOM     48  C   LIG d   1       3.179   0.130  -2.618  0.00  0.00    -0.061 C 
ATOM     49  H   LIG d   1       3.445  -0.539  -1.800  0.00  0.00     0.023 H 
ATOM     50  H   LIG d   1       3.635   1.107  -2.452  0.00  0.00     0.023 H 
ATOM     51  H   LIG d   1       2.096   0.238  -2.662  0.00  0.00     0.023 H 
ENDBRANCH  46  48
BRANCH  46  52
ATOM     52  C   LIG d   1       2.925   0.179  -5.104  0.00  0.00    -0.061 C 
ATOM     53  H   LIG d   1       1.895  -0.176  -5.099  0.00  0.00     0.023 H 
ATOM     54  H   LIG d   1       2.936   1.264  -5.000  0.00  0.00     0.023 H 
ATOM     55  H   LIG d   1       3.401  -0.100  -6.044  0.00  0.00     0.023 H 
ENDBRANCH  46  52
ENDBRANCH  21  46
TORSDOF 6
ENDMDL
MODEL 4
REMARK VINA RESULT:      -6.3      2.896      4.931
REMARK  6 active torsions:
REMARK  status: ('A' for Active; 'I' for Inactive)
REMARK    1  A    between atoms: C_1  and  C_2 
REMARK    2  A    between atoms: C_6  and  N_9 
REMARK    3  A    between atoms: C_7  and  C_8 
REMARK    4  A    between atoms: C_29  and  C_31 
REMARK    5  A    between atoms: C_31  and  C_32 
REMARK    6  A    between atoms: C_31  and  C_33 
ROOT
ATOM      1  N   LIG d   1       5.225  -0.980  -6.967  0.00  0.00    -0.210 N 
ATOM      2  C   LIG d   1       4.672  -1.149  -5.761  0.00  0.00     0.232 A 
ATOM      3  O   LIG d   1       3.621  -0.667  -5.398  0.00  0.00    -0.274 OA
ATOM      4  C   LIG d   1       5.563  -2.034  -4.920  0.00  0.00     0.066 A 
ATOM      5  H   LIG d   1       5.054  -2.933  -4.573  0.00  0.00     0.042 H 
ATOM      6  C   LIG d   1       6.756  -2.346  -5.866  0.00  0.00     0.080 A 
ATOM      7  H   LIG d   1       6.901  -3.415  -6.027  0.00  0.00     0.043 H 
ATOM      8  C   LIG d   1       6.391  -1.614  -7.139  0.00  0.00     0.233 A 
ATOM      9  O   LIG d   1       7.052  -1.600  -8.154  0.00  0.00    -0.274 OA
ATOM     10  C   LIG d   1       7.964  -1.680  -5.196  0.00  0.00     0.136 A 
ATOM     11  C   LIG d   1       8.769  -2.671  -4.403  0.00  0.00     0.003 A 
ATOM     12  C   LIG d   1       8.476  -3.499  -3.343  0.00  0.00    -0.055 A 
ATOM     13  C   LIG d   1       9.455  -4.320  -2.814  0.00  0.00    -0.061 A 
ATOM     14  C   LIG d   1      10.728  -4.308  -3.353  0.00  0.00    -0.060 A 
ATOM     15  C   LIG d   1      11.028  -3.480  -4.415  0.00  0.00    -0.040 A 
ATOM     16  C   LIG d   1      10.048  -2.649  -4.954  0.00  0.00     0.039 A 
ATOM     17  N   LIG d   1      10.103  -1.736  -6.009  0.00  0.00    -0.283 N 
ATOM     18  C   LIG d   1       8.922  -1.124  -6.214  0.00  0.00     0.243 A 
ATOM     19  O   LIG d   1       8.676  -0.287  -7.058  0.00  0.00    -0.273 OA
ATOM     20  N   LIG d   1       7.413  -0.618  -4.334  0.00  0.00    -0.295 N 
ATOM     21  C   LIG d   1       6.161  -1.207  -3.763  0.00  0.00     0.023 C 
ATOM     22  H   LIG d   1       6.412  -1.854  -2.923  0.00  0.00     0.047 H 
ATOM     23  H   LIG d   1       7.481  -3.506  -2.924  0.00  0.00     0.062 H 
ATOM     24  H   LIG d   1       9.226  -4.970  -1.982  0.00  0.00     0.062 H 
ATOM     25  H   LIG d   1      11.493  -4.949  -2.941  0.00  0.00     0.062 H 
ATOM     26  H   LIG d   1      12.024  -3.477  -4.832  0.00  0.00     0.064 H 
ATOM     27  H   LIG d   1      10.902  -1.563  -6.533  0.00  0.00     0.155 HD
ATOM     28  H   LIG d   1       8.065  -0.369  -3.604  0.00  0.00     0.123 HD
ENDROOT
BRANCH   1  29
ATOM     29  C   LIG d   1       4.628  -0.206  -7.973  0.00  0.00     0.047 A 
ATOM     30  C   LIG d   1       4.985   1.128  -8.127  0.00  0.00    -0.040 A 
ATOM     31  C   LIG d   1       4.396   1.889  -9.118  0.00  0.00    -0.060 A 
ATOM     32  H   LIG d   1       5.722   1.569  -7.473  0.00  0.00     0.064 H 
ATOM     33  C   LIG d   1       3.453   1.324  -9.958  0.00  0.00    -0.059 A 
ATOM     34  H   LIG d   1       4.673   2.925  -9.239  0.00  0.00     0.062 H 
ATOM     35  C   LIG d   1       3.097  -0.004  -9.807  0.00  0.00    -0.046 A 
ATOM     36  H   LIG d   1       2.995   1.920 -10.732  0.00  0.00     0.062 H 
ATOM     37  C   LIG d   1       3.677  -0.768  -8.813  0.00  0.00    -0.026 A 
BRANCH  35  38
ATOM     38  C   LIG d   1       2.069  -0.616 -10.722  0.00  0.00    -0.039 C 
ATOM     39  H   LIG d   1       2.542  -0.901 -11.662  0.00  0.00     0.028 H 
ATOM     40  H   LIG d   1       1.639  -1.498 -10.249  0.00  0.00     0.028 H 
ATOM     41  H   LIG d   1       1.280   0.111 -10.919  0.00  0.00     0.028 H 
ENDBRANCH  35  38
BRANCH  37  42
ATOM     42  C   LIG d   1       3.283  -2.213  -8.645  0.00  0.00    -0.038 C 
ATOM     43  H   LIG d   1       3.648  -2.580  -7.686  0.00  0.00     0.028 H 
ATOM     44  H   LIG d   1       2.197  -2.299  -8.677  0.00  0.00     0.028 H 
ATOM     45  H   LIG d   1       3.719  -2.804  -9.450  0.00  0.00     0.028 H 
ENDBRANCH  37  42
ENDBRANCH   1  29
BRANCH  21  46
ATOM     46  C   LIG d   1       5.179  -0.120  -3.323  0.00  0.00    -0.030 C 
ATOM     47  H   LIG d   1       4.423   0.022  -4.095  0.00  0.00     0.031 H 
BRANCH  46  48
ATOM     48  C   LIG d   1       4.501  -0.544  -2.018  0.00  0.00    -0.061 C 
ATOM     49  H   LIG d   1       4.681   0.212  -1.253  0.00  0.00     0.023 H 
ATOM     50  H   LIG d   1       3.428  -0.645  -2.183  0.00  0.00     0.023 H 
ATOM     51  H   LIG d   1       4.910  -1.499  -1.689  0.00  0.00     0.023 H 
ENDBRANCH  46  48
BRANCH  46  52
ATOM     52  C   LIG d   1       5.934   1.192  -3.103  0.00  0.00    -0.061 C 
ATOM     53  H   LIG d   1       6.199   1.625  -4.067  0.00  0.00     0.023 H 
ATOM     54  H   LIG d   1       5.301   1.888  -2.552  0.00  0.00     0.023 H 
ATOM     55  H   LIG d   1       6.841   0.997  -2.531  0.00  0.00     0.023 H 
ENDBRANCH  46  52
ENDBRANCH  21  46
TORSDOF 6
ENDMDL
MODEL 5
REMARK VINA RESULT:      -6.0      2.033      2.971
REMARK  6 active torsions:
REMARK  status: ('A' for Active; 'I' for Inactive)
REMARK    1  A    between atoms: C_1  and  C_2 
REMARK    2  A    between atoms: C_6  and  N_9 
REMARK    3  A    between atoms: C_7  and  C_8 
REMARK    4  A    between atoms: C_29  and  C_31 
REMARK    5  A    between atoms: C_31  and  C_32 
REMARK    6  A    between atoms: C_31  and  C_33 
ROOT
ATOM      1  N   LIG d   1       5.458  -1.002  -9.001  0.00  0.00    -0.210 N 
ATOM      2  C   LIG d   1       6.456  -0.186  -8.645  0.00  0.00     0.232 A 
ATOM      3  O   LIG d   1       7.371   0.156  -9.363  0.00  0.00    -0.274 OA
ATOM      4  C   LIG d   1       6.265   0.243  -7.209  0.00  0.00     0.066 A 
ATOM      5  H   LIG d   1       6.195   1.325  -7.100  0.00  0.00     0.042 H 
ATOM      6  C   LIG d   1       4.962  -0.490  -6.784  0.00  0.00     0.080 A 
ATOM      7  H   LIG d   1       4.186   0.193  -6.436  0.00  0.00     0.043 H 
ATOM      8  C   LIG d   1       4.559  -1.234  -8.038  0.00  0.00     0.233 A 
ATOM      9  O   LIG d   1       3.576  -1.935  -8.151  0.00  0.00    -0.274 OA
ATOM     10  C   LIG d   1       5.411  -1.476  -5.698  0.00  0.00     0.136 A 
ATOM     11  C   LIG d   1       5.156  -0.933  -4.322  0.00  0.00     0.003 A 
ATOM     12  C   LIG d   1       5.580   0.193  -3.653  0.00  0.00    -0.055 A 
ATOM     13  C   LIG d   1       5.162   0.427  -2.355  0.00  0.00    -0.061 A 
ATOM     14  C   LIG d   1       4.317  -0.473  -1.732  0.00  0.00    -0.060 A 
ATOM     15  C   LIG d   1       3.889  -1.603  -2.397  0.00  0.00    -0.040 A 
ATOM     16  C   LIG d   1       4.305  -1.847  -3.704  0.00  0.00     0.039 A 
ATOM     17  N   LIG d   1       4.016  -2.901  -4.573  0.00  0.00    -0.283 N 
ATOM     18  C   LIG d   1       4.629  -2.760  -5.764  0.00  0.00     0.243 A 
ATOM     19  O   LIG d   1       4.561  -3.520  -6.708  0.00  0.00    -0.273 OA
ATOM     20  N   LIG d   1       6.848  -1.707  -5.932  0.00  0.00    -0.295 N 
ATOM     21  C   LIG d   1       7.384  -0.369  -6.339  0.00  0.00     0.023 C 
ATOM     22  H   LIG d   1       7.553   0.242  -5.453  0.00  0.00     0.047 H 
ATOM     23  H   LIG d   1       6.240   0.894  -4.142  0.00  0.00     0.062 H 
ATOM     24  H   LIG d   1       5.495   1.310  -1.830  0.00  0.00     0.062 H 
ATOM     25  H   LIG d   1       3.990  -0.291  -0.718  0.00  0.00     0.062 H 
ATOM     26  H   LIG d   1       3.228  -2.301  -1.904  0.00  0.00     0.064 H 
ATOM     27  H   LIG d   1       3.442  -3.649  -4.344  0.00  0.00     0.155 HD
ATOM     28  H   LIG d   1       7.302  -2.040  -5.094  0.00  0.00     0.123 HD
ENDROOT
BRANCH   1  29
ATOM     29  C   LIG d   1       5.358  -1.565 -10.282  0.00  0.00     0.047 A 
ATOM     30  C   LIG d   1       5.862  -2.836 -10.523  0.00  0.00    -0.040 A 
ATOM     31  C   LIG d   1       5.763  -3.389 -11.786  0.00  0.00    -0.060 A 
ATOM     32  H   LIG d   1       6.330  -3.393  -9.725  0.00  0.00     0.064 H 
ATOM     33  C   LIG d   1       5.162  -2.678 -12.808  0.00  0.00    -0.059 A 
ATOM     34  H   LIG d   1       6.154  -4.378 -11.974  0.00  0.00     0.062 H 
ATOM     35  C   LIG d   1       4.659  -1.411 -12.570  0.00  0.00    -0.046 A 
ATOM     36  H   LIG d   1       5.086  -3.111 -13.794  0.00  0.00     0.062 H 
ATOM     37  C   LIG d   1       4.761  -0.851 -11.312  0.00  0.00    -0.026 A 
BRANCH  35  38
ATOM     38  C   LIG d   1       4.006  -0.639 -13.687  0.00  0.00    -0.039 C 
ATOM     39  H   LIG d   1       2.941  -0.872 -13.716  0.00  0.00     0.028 H 
ATOM     40  H   LIG d   1       4.139   0.429 -13.518  0.00  0.00     0.028 H 
ATOM     41  H   LIG d   1       4.464  -0.917 -14.636  0.00  0.00     0.028 H 
ENDBRANCH  35  38
BRANCH  37  42
ATOM     42  C   LIG d   1       4.219   0.532 -11.055  0.00  0.00    -0.038 C 
ATOM     43  H   LIG d   1       5.021   1.262 -11.161  0.00  0.00     0.028 H 
ATOM     44  H   LIG d   1       3.430   0.752 -11.774  0.00  0.00     0.028 H 
ATOM     45  H   LIG d   1       3.814   0.581 -10.044  0.00  0.00     0.028 H 
ENDBRANCH  37  42
ENDBRANCH   1  29
BRANCH  21  46
ATOM     46  C   LIG d   1       8.674  -0.504  -7.150  0.00  0.00    -0.030 C 
ATOM     47  H   LIG d   1       8.457  -0.353  -8.207  0.00  0.00     0.031 H 
BRANCH  46  48
ATOM     48  C   LIG d   1       9.682   0.549  -6.681  0.00  0.00    -0.061 C 
ATOM     49  H   LIG d   1       9.384   0.926  -5.703  0.00  0.00     0.023 H 
ATOM     50  H   LIG d   1      10.672   0.098  -6.611  0.00  0.00     0.023 H 
ATOM     51  H   LIG d   1       9.707   1.372  -7.395  0.00  0.00     0.023 H 
ENDBRANCH  46  48
BRANCH  46  52
ATOM     52  C   LIG d   1       9.263  -1.901  -6.944  0.00  0.00    -0.061 C 
ATOM     53  H   LIG d   1       8.543  -2.524  -6.414  0.00  0.00     0.023 H 
ATOM     54  H   LIG d   1       9.486  -2.347  -7.913  0.00  0.00     0.023 H 
ATOM     55  H   LIG d   1      10.179  -1.826  -6.359  0.00  0.00     0.023 H 
ENDBRANCH  46  52
ENDBRANCH  21  46
TORSDOF 6
ENDMDL
MODEL 6
REMARK VINA RESULT:      -6.0      1.938      3.129
REMARK  6 active torsions:
REMARK  status: ('A' for Active; 'I' for Inactive)
REMARK    1  A    between atoms: C_1  and  C_2 
REMARK    2  A    between atoms: C_6  and  N_9 
REMARK    3  A    between atoms: C_7  and  C_8 
REMARK    4  A    between atoms: C_29  and  C_31 
REMARK    5  A    between atoms: C_31  and  C_32 
REMARK    6  A    between atoms: C_31  and  C_33 
ROOT
ATOM      1  N   LIG d   1       4.614  -0.611  -9.303  0.00  0.00    -0.210 N 
ATOM      2  C   LIG d   1       5.473   0.351  -8.950  0.00  0.00     0.232 A 
ATOM      3  O   LIG d   1       6.205   0.949  -9.709  0.00  0.00    -0.274 OA
ATOM      4  C   LIG d   1       5.390   0.577  -7.458  0.00  0.00     0.066 A 
ATOM      5  H   LIG d   1       5.128   1.603  -7.203  0.00  0.00     0.042 H 
ATOM      6  C   LIG d   1       4.318  -0.450  -6.998  0.00  0.00     0.080 A 
ATOM      7  H   LIG d   1       3.477   0.017  -6.485  0.00  0.00     0.043 H 
ATOM      8  C   LIG d   1       3.908  -1.125  -8.288  0.00  0.00     0.233 A 
ATOM      9  O   LIG d   1       3.073  -1.997  -8.387  0.00  0.00    -0.274 OA
ATOM     10  C   LIG d   1       5.085  -1.432  -6.102  0.00  0.00     0.136 A 
ATOM     11  C   LIG d   1       4.909  -1.101  -4.648  0.00  0.00     0.003 A 
ATOM     12  C   LIG d   1       5.191   0.011  -3.887  0.00  0.00    -0.055 A 
ATOM     13  C   LIG d   1       4.907   0.014  -2.533  0.00  0.00    -0.061 A 
ATOM     14  C   LIG d   1       4.339  -1.102  -1.947  0.00  0.00    -0.060 A 
ATOM     15  C   LIG d   1       4.054  -2.219  -2.704  0.00  0.00    -0.040 A 
ATOM     16  C   LIG d   1       4.338  -2.231  -4.068  0.00  0.00     0.039 A 
ATOM     17  N   LIG d   1       4.148  -3.225  -5.031  0.00  0.00    -0.283 N 
ATOM     18  C   LIG d   1       4.563  -2.835  -6.252  0.00  0.00     0.243 A 
ATOM     19  O   LIG d   1       4.522  -3.488  -7.274  0.00  0.00    -0.273 OA
ATOM     20  N   LIG d   1       6.498  -1.334  -6.513  0.00  0.00    -0.295 N 
ATOM     21  C   LIG d   1       6.708   0.121  -6.798  0.00  0.00     0.023 C 
ATOM     22  H   LIG d   1       6.870   0.656  -5.863  0.00  0.00     0.047 H 
ATOM     23  H   LIG d   1       5.636   0.880  -4.347  0.00  0.00     0.062 H 
ATOM     24  H   LIG d   1       5.128   0.886  -1.935  0.00  0.00     0.062 H 
ATOM     25  H   LIG d   1       4.116  -1.099  -0.889  0.00  0.00     0.062 H 
ATOM     26  H   LIG d   1       3.609  -3.086  -2.239  0.00  0.00     0.064 H 
ATOM     27  H   LIG d   1       3.763  -4.095  -4.842  0.00  0.00     0.155 HD
ATOM     28  H   LIG d   1       7.111  -1.653  -5.778  0.00  0.00     0.123 HD
ENDROOT
BRANCH   1  29
ATOM     29  C   LIG d   1       4.460  -1.043 -10.628  0.00  0.00     0.047 A 
ATOM     30  C   LIG d   1       3.498  -0.461 -11.442  0.00  0.00    -0.040 A 
ATOM     31  C   LIG d   1       3.348  -0.888 -12.747  0.00  0.00    -0.060 A 
ATOM     32  H   LIG d   1       2.867   0.326 -11.055  0.00  0.00     0.064 H 
ATOM     33  C   LIG d   1       4.156  -1.894 -13.243  0.00  0.00    -0.059 A 
ATOM     34  H   LIG d   1       2.600  -0.436 -13.381  0.00  0.00     0.062 H 
ATOM     35  C   LIG d   1       5.116  -2.476 -12.435  0.00  0.00    -0.046 A 
ATOM     36  H   LIG d   1       4.038  -2.227 -14.264  0.00  0.00     0.062 H 
ATOM     37  C   LIG d   1       5.265  -2.057 -11.127  0.00  0.00    -0.026 A 
BRANCH  35  38
ATOM     38  C   LIG d   1       5.994  -3.572 -12.979  0.00  0.00    -0.039 C 
ATOM     39  H   LIG d   1       6.606  -3.179 -13.791  0.00  0.00     0.028 H 
ATOM     40  H   LIG d   1       6.640  -3.949 -12.186  0.00  0.00     0.028 H 
ATOM     41  H   LIG d   1       5.371  -4.384 -13.355  0.00  0.00     0.028 H 
ENDBRANCH  35  38
BRANCH  37  42
ATOM     42  C   LIG d   1       6.307  -2.697 -10.245  0.00  0.00    -0.038 C 
ATOM     43  H   LIG d   1       7.068  -3.169 -10.865  0.00  0.00     0.028 H 
ATOM     44  H   LIG d   1       6.770  -1.935  -9.619  0.00  0.00     0.028 H 
ATOM     45  H   LIG d   1       5.835  -3.449  -9.613  0.00  0.00     0.028 H 
ENDBRANCH  37  42
ENDBRANCH   1  29
BRANCH  21  46
ATOM     46  C   LIG d   1       7.885   0.342  -7.750  0.00  0.00    -0.030 C 
ATOM     47  H   LIG d   1       7.509   0.554  -8.751  0.00  0.00     0.031 H 
BRANCH  46  48
ATOM     48  C   LIG d   1       8.721   1.527  -7.259  0.00  0.00    -0.061 C 
ATOM     49  H   LIG d   1       9.339   1.211  -6.418  0.00  0.00     0.023 H 
ATOM     50  H   LIG d   1       9.361   1.879  -8.068  0.00  0.00     0.023 H 
ATOM     51  H   LIG d   1       8.060   2.333  -6.941  0.00  0.00     0.023 H 
ENDBRANCH  46  48
BRANCH  46  52
ATOM     52  C   LIG d   1       8.755  -0.916  -7.788  0.00  0.00    -0.061 C 
ATOM     53  H   LIG d   1       8.387  -1.634  -7.055  0.00  0.00     0.023 H 
ATOM     54  H   LIG d   1       8.713  -1.357  -8.783  0.00  0.00     0.023 H 
ATOM     55  H   LIG d   1       9.786  -0.652  -7.551  0.00  0.00     0.023 H 
ENDBRANCH  46  52
ENDBRANCH  21  46
TORSDOF 6
ENDMDL
MODEL 7
REMARK VINA RESULT:      -6.0      3.225      6.171
REMARK  6 active torsions:
REMARK  status: ('A' for Active; 'I' for Inactive)
REMARK    1  A    between atoms: C_1  and  C_2 
REMARK    2  A    between atoms: C_6  and  N_9 
REMARK    3  A    between atoms: C_7  and  C_8 
REMARK    4  A    between atoms: C_29  and  C_31 
REMARK    5  A    between atoms: C_31  and  C_32 
REMARK    6  A    between atoms: C_31  and  C_33 
ROOT
ATOM      1  N   LIG d   1       5.539  -1.178  -4.632  0.00  0.00    -0.210 N 
ATOM      2  C   LIG d   1       6.673  -0.495  -4.438  0.00  0.00     0.232 A 
ATOM      3  O   LIG d   1       6.823   0.688  -4.655  0.00  0.00    -0.274 OA
ATOM      4  C   LIG d   1       7.736  -1.427  -3.905  0.00  0.00     0.066 A 
ATOM      5  H   LIG d   1       8.130  -1.108  -2.941  0.00  0.00     0.042 H 
ATOM      6  C   LIG d   1       7.009  -2.799  -3.833  0.00  0.00     0.080 A 
ATOM      7  H   LIG d   1       7.013  -3.229  -2.832  0.00  0.00     0.043 H 
ATOM      8  C   LIG d   1       5.612  -2.477  -4.318  0.00  0.00     0.233 A 
ATOM      9  O   LIG d   1       4.702  -3.272  -4.411  0.00  0.00    -0.274 OA
ATOM     10  C   LIG d   1       7.740  -3.677  -4.857  0.00  0.00     0.136 A 
ATOM     11  C   LIG d   1       8.758  -4.561  -4.196  0.00  0.00     0.003 A 
ATOM     12  C   LIG d   1       9.871  -4.313  -3.424  0.00  0.00    -0.055 A 
ATOM     13  C   LIG d   1      10.632  -5.365  -2.947  0.00  0.00    -0.061 A 
ATOM     14  C   LIG d   1      10.271  -6.666  -3.246  0.00  0.00    -0.060 A 
ATOM     15  C   LIG d   1       9.157  -6.920  -4.019  0.00  0.00    -0.040 A 
ATOM     16  C   LIG d   1       8.386  -5.867  -4.505  0.00  0.00     0.039 A 
ATOM     17  N   LIG d   1       7.234  -5.866  -5.295  0.00  0.00    -0.283 N 
ATOM     18  C   LIG d   1       6.793  -4.620  -5.549  0.00  0.00     0.243 A 
ATOM     19  O   LIG d   1       5.819  -4.316  -6.206  0.00  0.00    -0.273 OA
ATOM     20  N   LIG d   1       8.369  -2.745  -5.811  0.00  0.00    -0.295 N 
ATOM     21  C   LIG d   1       8.841  -1.603  -4.968  0.00  0.00     0.023 C 
ATOM     22  H   LIG d   1       9.786  -1.866  -4.493  0.00  0.00     0.047 H 
ATOM     23  H   LIG d   1      10.151  -3.296  -3.193  0.00  0.00     0.062 H 
ATOM     24  H   LIG d   1      11.505  -5.171  -2.342  0.00  0.00     0.062 H 
ATOM     25  H   LIG d   1      10.864  -7.488  -2.874  0.00  0.00     0.062 H 
ATOM     26  H   LIG d   1       8.881  -7.939  -4.248  0.00  0.00     0.064 H 
ATOM     27  H   LIG d   1       6.804  -6.671  -5.624  0.00  0.00     0.155 HD
ATOM     28  H   LIG d   1       9.139  -3.186  -6.292  0.00  0.00     0.123 HD
ENDROOT
BRANCH   1  29
ATOM     29  C   LIG d   1       4.368  -0.581  -5.121  0.00  0.00     0.047 A 
ATOM     30  C   LIG d   1       3.430  -0.065  -4.237  0.00  0.00    -0.040 A 
ATOM     31  C   LIG d   1       2.277   0.523  -4.720  0.00  0.00    -0.060 A 
ATOM     32  H   LIG d   1       3.602  -0.121  -3.172  0.00  0.00     0.064 H 
ATOM     33  C   LIG d   1       2.057   0.597  -6.083  0.00  0.00    -0.059 A 
ATOM     34  H   LIG d   1       1.547   0.925  -4.033  0.00  0.00     0.062 H 
ATOM     35  C   LIG d   1       2.990   0.084  -6.966  0.00  0.00    -0.046 A 
ATOM     36  H   LIG d   1       1.155   1.057  -6.459  0.00  0.00     0.062 H 
ATOM     37  C   LIG d   1       4.141  -0.510  -6.488  0.00  0.00    -0.026 A 
BRANCH  35  38
ATOM     38  C   LIG d   1       2.745   0.167  -8.451  0.00  0.00    -0.039 C 
ATOM     39  H   LIG d   1       3.050   1.148  -8.815  0.00  0.00     0.028 H 
ATOM     40  H   LIG d   1       3.323  -0.605  -8.958  0.00  0.00     0.028 H 
ATOM     41  H   LIG d   1       1.684   0.018  -8.653  0.00  0.00     0.028 H 
ENDBRANCH  35  38
BRANCH  37  42
ATOM     42  C   LIG d   1       5.154  -1.076  -7.451  0.00  0.00    -0.038 C 
ATOM     43  H   LIG d   1       4.802  -2.037  -7.825  0.00  0.00     0.028 H 
ATOM     44  H   LIG d   1       5.284  -0.388  -8.286  0.00  0.00     0.028 H 
ATOM     45  H   LIG d   1       6.106  -1.211  -6.939  0.00  0.00     0.028 H 
ENDBRANCH  37  42
ENDBRANCH   1  29
BRANCH  21  46
ATOM     46  C   LIG d   1       8.996  -0.323  -5.791  0.00  0.00    -0.030 C 
ATOM     47  H   LIG d   1       8.155   0.342  -5.592  0.00  0.00     0.031 H 
BRANCH  46  48
ATOM     48  C   LIG d   1      10.302   0.377  -5.405  0.00  0.00    -0.061 C 
ATOM     49  H   LIG d   1      10.774   0.782  -6.300  0.00  0.00     0.023 H 
ATOM     50  H   LIG d   1      10.087   1.187  -4.708  0.00  0.00     0.023 H 
ATOM     51  H   LIG d   1      10.973  -0.340  -4.933  0.00  0.00     0.023 H 
ENDBRANCH  46  48
BRANCH  46  52
ATOM     52  C   LIG d   1       9.026  -0.674  -7.280  0.00  0.00    -0.061 C 
ATOM     53  H   LIG d   1      10.014  -0.455  -7.685  0.00  0.00     0.023 H 
ATOM     54  H   LIG d   1       8.806  -1.733  -7.408  0.00  0.00     0.023 H 
ATOM     55  H   LIG d   1       8.278  -0.082  -7.808  0.00  0.00     0.023 H 
ENDBRANCH  46  52
ENDBRANCH  21  46
TORSDOF 6
ENDMDL
MODEL 8
REMARK VINA RESULT:      -5.9      2.315      4.123
REMARK  6 active torsions:
REMARK  status: ('A' for Active; 'I' for Inactive)
REMARK    1  A    between atoms: C_1  and  C_2 
REMARK    2  A    between atoms: C_6  and  N_9 
REMARK    3  A    between atoms: C_7  and  C_8 
REMARK    4  A    between atoms: C_29  and  C_31 
REMARK    5  A    between atoms: C_31  and  C_32 
REMARK    6  A    between atoms: C_31  and  C_33 
ROOT
ATOM      1  N   LIG d   1       5.028  -2.416  -9.208  0.00  0.00    -0.210 N 
ATOM      2  C   LIG d   1       4.041  -1.522  -9.335  0.00  0.00     0.232 A 
ATOM      3  O   LIG d   1       3.638  -1.069 -10.384  0.00  0.00    -0.274 OA
ATOM      4  C   LIG d   1       3.509  -1.164  -7.967  0.00  0.00     0.066 A 
ATOM      5  H   LIG d   1       2.444  -1.371  -7.864  0.00  0.00     0.042 H 
ATOM      6  C   LIG d   1       4.384  -2.016  -7.006  0.00  0.00     0.080 A 
ATOM      7  H   LIG d   1       3.794  -2.681  -6.374  0.00  0.00     0.043 H 
ATOM      8  C   LIG d   1       5.298  -2.771  -7.946  0.00  0.00     0.233 A 
ATOM      9  O   LIG d   1       6.145  -3.569  -7.609  0.00  0.00    -0.274 OA
ATOM     10  C   LIG d   1       5.182  -0.987  -6.196  0.00  0.00     0.136 A 
ATOM     11  C   LIG d   1       4.552  -0.732  -4.857  0.00  0.00     0.003 A 
ATOM     12  C   LIG d   1       3.316  -0.272  -4.463  0.00  0.00    -0.055 A 
ATOM     13  C   LIG d   1       3.023  -0.139  -3.117  0.00  0.00    -0.061 A 
ATOM     14  C   LIG d   1       3.975  -0.471  -2.170  0.00  0.00    -0.060 A 
ATOM     15  C   LIG d   1       5.215  -0.932  -2.559  0.00  0.00    -0.040 A 
ATOM     16  C   LIG d   1       5.519  -1.068  -3.912  0.00  0.00     0.039 A 
ATOM     17  N   LIG d   1       6.684  -1.504  -4.547  0.00  0.00    -0.283 N 
ATOM     18  C   LIG d   1       6.569  -1.484  -5.889  0.00  0.00     0.243 A 
ATOM     19  O   LIG d   1       7.417  -1.807  -6.694  0.00  0.00    -0.273 OA
ATOM     20  N   LIG d   1       5.217   0.235  -7.020  0.00  0.00    -0.295 N 
ATOM     21  C   LIG d   1       3.860   0.305  -7.650  0.00  0.00     0.023 C 
ATOM     22  H   LIG d   1       3.148   0.720  -6.937  0.00  0.00     0.047 H 
ATOM     23  H   LIG d   1       2.576  -0.013  -5.204  0.00  0.00     0.062 H 
ATOM     24  H   LIG d   1       2.054   0.222  -2.807  0.00  0.00     0.062 H 
ATOM     25  H   LIG d   1       3.747  -0.368  -1.119  0.00  0.00     0.062 H 
ATOM     26  H   LIG d   1       5.953  -1.190  -1.814  0.00  0.00     0.064 H 
ATOM     27  H   LIG d   1       7.483  -1.787  -4.076  0.00  0.00     0.155 HD
ATOM     28  H   LIG d   1       5.396   1.050  -6.452  0.00  0.00     0.123 HD
ENDROOT
BRANCH   1  29
ATOM     29  C   LIG d   1       5.720  -2.943 -10.307  0.00  0.00     0.047 A 
ATOM     30  C   LIG d   1       5.280  -4.115 -10.910  0.00  0.00    -0.040 A 
ATOM     31  C   LIG d   1       5.963  -4.632 -11.993  0.00  0.00    -0.060 A 
ATOM     32  H   LIG d   1       4.403  -4.620 -10.533  0.00  0.00     0.064 H 
ATOM     33  C   LIG d   1       7.085  -3.985 -12.478  0.00  0.00    -0.059 A 
ATOM     34  H   LIG d   1       5.621  -5.543 -12.462  0.00  0.00     0.062 H 
ATOM     35  C   LIG d   1       7.526  -2.818 -11.880  0.00  0.00    -0.046 A 
ATOM     36  H   LIG d   1       7.617  -4.392 -13.324  0.00  0.00     0.062 H 
ATOM     37  C   LIG d   1       6.850  -2.300 -10.793  0.00  0.00    -0.026 A 
BRANCH  35  38
ATOM     38  C   LIG d   1       8.749  -2.117 -12.411  0.00  0.00    -0.039 C 
ATOM     39  H   LIG d   1       9.105  -1.398 -11.673  0.00  0.00     0.028 H 
ATOM     40  H   LIG d   1       9.530  -2.850 -12.612  0.00  0.00     0.028 H 
ATOM     41  H   LIG d   1       8.495  -1.595 -13.334  0.00  0.00     0.028 H 
ENDBRANCH  35  38
BRANCH  37  42
ATOM     42  C   LIG d   1       7.336  -1.032 -10.138  0.00  0.00    -0.038 C 
ATOM     43  H   LIG d   1       6.642  -0.742  -9.349  0.00  0.00     0.028 H 
ATOM     44  H   LIG d   1       8.323  -1.200  -9.709  0.00  0.00     0.028 H 
ATOM     45  H   LIG d   1       7.392  -0.237 -10.882  0.00  0.00     0.028 H 
ENDBRANCH  37  42
ENDBRANCH   1  29
BRANCH  21  46
ATOM     46  C   LIG d   1       3.878   1.137  -8.933  0.00  0.00    -0.030 C 
ATOM     47  H   LIG d   1       3.763   0.479  -9.795  0.00  0.00     0.031 H 
BRANCH  46  48
ATOM     48  C   LIG d   1       2.726   2.144  -8.904  0.00  0.00    -0.061 C 
ATOM     49  H   LIG d   1       2.862   2.874  -9.702  0.00  0.00     0.023 H 
ATOM     50  H   LIG d   1       1.781   1.619  -9.048  0.00  0.00     0.023 H 
ATOM     51  H   LIG d   1       2.713   2.655  -7.941  0.00  0.00     0.023 H 
ENDBRANCH  46  48
BRANCH  46  52
ATOM     52  C   LIG d   1       5.208   1.886  -9.037  0.00  0.00    -0.061 C 
ATOM     53  H   LIG d   1       5.811   1.681  -8.153  0.00  0.00     0.023 H 
ATOM     54  H   LIG d   1       5.743   1.555  -9.927  0.00  0.00     0.023 H 
ATOM     55  H   LIG d   1       5.017   2.957  -9.106  0.00  0.00     0.023 H 
ENDBRANCH  46  52
ENDBRANCH  21  46
TORSDOF 6
ENDMDL
MODEL 9
REMARK VINA RESULT:      -5.9      1.596      6.540
REMARK  6 active torsions:
REMARK  status: ('A' for Active; 'I' for Inactive)
REMARK    1  A    between atoms: C_1  and  C_2 
REMARK    2  A    between atoms: C_6  and  N_9 
REMARK    3  A    between atoms: C_7  and  C_8 
REMARK    4  A    between atoms: C_29  and  C_31 
REMARK    5  A    between atoms: C_31  and  C_32 
REMARK    6  A    between atoms: C_31  and  C_33 
ROOT
ATOM      1  N   LIG d   1       4.647  -1.136  -6.291  0.00  0.00    -0.210 N 
ATOM      2  C   LIG d   1       4.668  -2.472  -6.360  0.00  0.00     0.232 A 
ATOM      3  O   LIG d   1       5.122  -3.210  -5.513  0.00  0.00    -0.274 OA
ATOM      4  C   LIG d   1       4.036  -2.917  -7.659  0.00  0.00     0.066 A 
ATOM      5  H   LIG d   1       3.182  -3.576  -7.506  0.00  0.00     0.042 H 
ATOM      6  C   LIG d   1       3.648  -1.578  -8.348  0.00  0.00     0.080 A 
ATOM      7  H   LIG d   1       2.584  -1.513  -8.576  0.00  0.00     0.043 H 
ATOM      8  C   LIG d   1       4.090  -0.533  -7.348  0.00  0.00     0.233 A 
ATOM      9  O   LIG d   1       3.963   0.665  -7.484  0.00  0.00    -0.274 OA
ATOM     10  C   LIG d   1       4.527  -1.522  -9.603  0.00  0.00     0.136 A 
ATOM     11  C   LIG d   1       3.776  -1.979 -10.821  0.00  0.00     0.003 A 
ATOM     12  C   LIG d   1       3.146  -3.154 -11.161  0.00  0.00    -0.055 A 
ATOM     13  C   LIG d   1       2.525  -3.277 -12.391  0.00  0.00    -0.061 A 
ATOM     14  C   LIG d   1       2.538  -2.215 -13.277  0.00  0.00    -0.060 A 
ATOM     15  C   LIG d   1       3.168  -1.035 -12.942  0.00  0.00    -0.040 A 
ATOM     16  C   LIG d   1       3.797  -0.903 -11.706  0.00  0.00     0.039 A 
ATOM     17  N   LIG d   1       4.492   0.171 -11.145  0.00  0.00    -0.283 N 
ATOM     18  C   LIG d   1       4.955  -0.113  -9.912  0.00  0.00     0.243 A 
ATOM     19  O   LIG d   1       5.591   0.626  -9.190  0.00  0.00    -0.273 OA
ATOM     20  N   LIG d   1       5.686  -2.390  -9.324  0.00  0.00    -0.295 N 
ATOM     21  C   LIG d   1       5.116  -3.547  -8.563  0.00  0.00     0.023 C 
ATOM     22  H   LIG d   1       4.665  -4.254  -9.258  0.00  0.00     0.047 H 
ATOM     23  H   LIG d   1       3.137  -3.981 -10.467  0.00  0.00     0.062 H 
ATOM     24  H   LIG d   1       2.030  -4.199 -12.659  0.00  0.00     0.062 H 
ATOM     25  H   LIG d   1       2.053  -2.310 -14.238  0.00  0.00     0.062 H 
ATOM     26  H   LIG d   1       3.174  -0.210 -13.639  0.00  0.00     0.064 H 
ATOM     27  H   LIG d   1       4.627   1.021 -11.592  0.00  0.00     0.155 HD
ATOM     28  H   LIG d   1       6.122  -2.697 -10.181  0.00  0.00     0.123 HD
ENDROOT
BRANCH   1  29
ATOM     29  C   LIG d   1       5.162  -0.425  -5.197  0.00  0.00     0.047 A 
ATOM     30  C   LIG d   1       6.508  -0.085  -5.161  0.00  0.00    -0.040 A 
ATOM     31  C   LIG d   1       7.014   0.615  -4.083  0.00  0.00    -0.060 A 
ATOM     32  H   LIG d   1       7.159  -0.368  -5.975  0.00  0.00     0.064 H 
ATOM     33  C   LIG d   1       6.181   0.979  -3.041  0.00  0.00    -0.059 A 
ATOM     34  H   LIG d   1       8.060   0.880  -4.054  0.00  0.00     0.062 H 
ATOM     35  C   LIG d   1       4.840   0.642  -3.075  0.00  0.00    -0.046 A 
ATOM     36  H   LIG d   1       6.578   1.526  -2.200  0.00  0.00     0.062 H 
ATOM     37  C   LIG d   1       4.330  -0.064  -4.147  0.00  0.00    -0.026 A 
BRANCH  35  38
ATOM     38  C   LIG d   1       3.936   1.040  -1.937  0.00  0.00    -0.039 C 
ATOM     39  H   LIG d   1       4.363   0.695  -0.995  0.00  0.00     0.028 H 
ATOM     40  H   LIG d   1       3.835   2.125  -1.915  0.00  0.00     0.028 H 
ATOM     41  H   LIG d   1       2.954   0.587  -2.078  0.00  0.00     0.028 H 
ENDBRANCH  35  38
BRANCH  37  42
ATOM     42  C   LIG d   1       2.870  -0.436  -4.179  0.00  0.00    -0.038 C 
ATOM     43  H   LIG d   1       2.295   0.387  -4.602  0.00  0.00     0.028 H 
ATOM     44  H   LIG d   1       2.736  -1.326  -4.793  0.00  0.00     0.028 H 
ATOM     45  H   LIG d   1       2.524  -0.638  -3.165  0.00  0.00     0.028 H 
ENDBRANCH  37  42
ENDBRANCH   1  29
BRANCH  21  46
ATOM     46  C   LIG d   1       6.183  -4.240  -7.714  0.00  0.00    -0.030 C 
ATOM     47  H   LIG d   1       6.061  -3.952  -6.670  0.00  0.00     0.031 H 
BRANCH  46  48
ATOM     48  C   LIG d   1       6.031  -5.757  -7.845  0.00  0.00    -0.061 C 
ATOM     49  H   LIG d   1       6.243  -6.056  -8.872  0.00  0.00     0.023 H 
ATOM     50  H   LIG d   1       6.731  -6.252  -7.171  0.00  0.00     0.023 H 
ATOM     51  H   LIG d   1       5.012  -6.045  -7.587  0.00  0.00     0.023 H 
ENDBRANCH  46  48
BRANCH  46  52
ATOM     52  C   LIG d   1       7.573  -3.823  -8.199  0.00  0.00    -0.061 C 
ATOM     53  H   LIG d   1       8.328  -4.217  -7.519  0.00  0.00     0.023 H 
ATOM     54  H   LIG d   1       7.742  -4.218  -9.200  0.00  0.00     0.023 H 
ATOM     55  H   LIG d   1       7.638  -2.735  -8.223  0.00  0.00     0.023 H 
ENDBRANCH  46  52
ENDBRANCH  21  46
TORSDOF 6
ENDMDL
