MODEL 1
REMARK VINA RESULT:      -7.0      0.000      0.000
REMARK  4 active torsions:
REMARK  status: ('A' for Active; 'I' for Inactive)
REMARK    1  A    between atoms: C_4  and  C_7 
REMARK    2  A    between atoms: N_11  and  C_19 
REMARK    3  A    between atoms: N_12  and  C_13 
REMARK    4  A    between atoms: N_21  and  C_22 
ROOT
ATOM      1  C   LIG d   1       4.569  -2.435  -9.609  0.00  0.00     0.069 C 
ATOM      2  H   LIG d   1       3.705  -2.443 -10.273  0.00  0.00     0.057 H 
ATOM      3  C   LIG d   1       4.723  -3.804  -8.917  0.00  0.00    -0.011 C 
ATOM      4  C   LIG d   1       4.180  -3.537  -7.496  0.00  0.00     0.035 C 
ATOM      5  N   LIG d   1       4.418  -2.099  -7.288  0.00  0.00    -0.231 N 
ATOM      6  N   LIG d   1       4.369  -1.455  -8.532  0.00  0.00    -0.242 N 
ATOM      7  H   LIG d   1       5.770  -4.105  -8.881  0.00  0.00     0.030 H 
ATOM      8  H   LIG d   1       4.124  -4.561  -9.423  0.00  0.00     0.030 H 
ATOM      9  H   LIG d   1       4.730  -4.125  -6.761  0.00  0.00     0.048 H 
ATOM     10  H   LIG d   1       3.115  -3.760  -7.446  0.00  0.00     0.048 H 
ENDROOT
BRANCH   5  11
ATOM     11  C   LIG d   1       4.643  -1.501  -6.102  0.00  0.00     0.154 C 
ATOM     12  S   LIG d   1       6.211  -0.934  -5.713  0.00  0.00    -0.017 SA
ATOM     13  N   LIG d   1       3.635  -1.351  -5.220  0.00  0.00    -0.296 N 
ATOM     14  H   LIG d   1       2.768  -1.749  -5.402  0.00  0.00     0.154 HD
BRANCH  13  15
ATOM     15  C   LIG d   1       3.836  -0.621  -4.044  0.00  0.00     0.033 A 
ATOM     16  C   LIG d   1       3.559   0.739  -4.012  0.00  0.00    -0.041 A 
ATOM     17  C   LIG d   1       3.760   1.456  -2.849  0.00  0.00    -0.060 A 
ATOM     18  H   LIG d   1       3.185   1.235  -4.896  0.00  0.00     0.064 H 
ATOM     19  C   LIG d   1       4.238   0.822  -1.717  0.00  0.00    -0.062 A 
ATOM     20  H   LIG d   1       3.544   2.514  -2.824  0.00  0.00     0.062 H 
ATOM     21  C   LIG d   1       4.515  -0.533  -1.745  0.00  0.00    -0.060 A 
ATOM     22  H   LIG d   1       4.394   1.385  -0.809  0.00  0.00     0.062 H 
ATOM     23  C   LIG d   1       4.311  -1.257  -2.903  0.00  0.00    -0.041 A 
ATOM     24  H   LIG d   1       4.889  -1.025  -0.859  0.00  0.00     0.062 H 
ATOM     25  H   LIG d   1       4.524  -2.316  -2.923  0.00  0.00     0.064 H 
ENDBRANCH  13  15
ENDBRANCH   5  11
BRANCH   6  26
ATOM     26  C   LIG d   1       4.155  -0.088  -8.720  0.00  0.00     0.049 A 
ATOM     27  C   LIG d   1       2.864   0.423  -8.703  0.00  0.00    -0.039 A 
ATOM     28  C   LIG d   1       2.655   1.776  -8.889  0.00  0.00    -0.060 A 
ATOM     29  H   LIG d   1       2.023  -0.236  -8.544  0.00  0.00     0.064 H 
ATOM     30  C   LIG d   1       3.731   2.621  -9.093  0.00  0.00    -0.062 A 
ATOM     31  H   LIG d   1       1.652   2.175  -8.876  0.00  0.00     0.062 H 
ATOM     32  C   LIG d   1       5.018   2.115  -9.109  0.00  0.00    -0.060 A 
ATOM     33  H   LIG d   1       3.566   3.679  -9.238  0.00  0.00     0.062 H 
ATOM     34  C   LIG d   1       5.233   0.764  -8.918  0.00  0.00    -0.039 A 
ATOM     35  H   LIG d   1       5.856   2.778  -9.268  0.00  0.00     0.062 H 
ATOM     36  H   LIG d   1       6.240   0.371  -8.927  0.00  0.00     0.064 H 
ENDBRANCH   6  26
BRANCH   1  37
ATOM     37  C   LIG d   1       5.818  -2.104 -10.385  0.00  0.00    -0.025 A 
ATOM     38  C   LIG d   1       7.060  -2.281  -9.804  0.00  0.00    -0.057 A 
ATOM     39  C   LIG d   1       8.205  -1.977 -10.516  0.00  0.00    -0.061 A 
ATOM     40  H   LIG d   1       7.134  -2.655  -8.794  0.00  0.00     0.062 H 
ATOM     41  C   LIG d   1       8.109  -1.498 -11.808  0.00  0.00    -0.062 A 
ATOM     42  H   LIG d   1       9.175  -2.115 -10.062  0.00  0.00     0.062 H 
ATOM     43  C   LIG d   1       6.866  -1.322 -12.390  0.00  0.00    -0.061 A 
ATOM     44  H   LIG d   1       9.004  -1.260 -12.364  0.00  0.00     0.062 H 
ATOM     45  C   LIG d   1       5.722  -1.629 -11.680  0.00  0.00    -0.057 A 
ATOM     46  H   LIG d   1       6.792  -0.948 -13.401  0.00  0.00     0.062 H 
ATOM     47  H   LIG d   1       4.751  -1.495 -12.135  0.00  0.00     0.062 H 
ENDBRANCH   1  37
TORSDOF 4
ENDMDL
MODEL 2
REMARK VINA RESULT:      -6.6      1.715      4.161
REMARK  4 active torsions:
REMARK  status: ('A' for Active; 'I' for Inactive)
REMARK    1  A    between atoms: C_4  and  C_7 
REMARK    2  A    between atoms: N_11  and  C_19 
REMARK    3  A    between atoms: N_12  and  C_13 
REMARK    4  A    between atoms: N_21  and  C_22 
ROOT
ATOM      1  C   LIG d   1       5.068  -0.370  -9.962  0.00  0.00     0.069 C 
ATOM      2  H   LIG d   1       5.760  -0.700 -10.735  0.00  0.00     0.057 H 
ATOM      3  C   LIG d   1       5.305   1.118  -9.634  0.00  0.00    -0.011 C 
ATOM      4  C   LIG d   1       6.080   1.060  -8.299  0.00  0.00     0.035 C 
ATOM      5  N   LIG d   1       5.644  -0.208  -7.689  0.00  0.00    -0.231 N 
ATOM      6  N   LIG d   1       5.316  -1.105  -8.714  0.00  0.00    -0.242 N 
ATOM      7  H   LIG d   1       4.359   1.644  -9.509  0.00  0.00     0.030 H 
ATOM      8  H   LIG d   1       5.907   1.592 -10.409  0.00  0.00     0.030 H 
ATOM      9  H   LIG d   1       5.809   1.903  -7.663  0.00  0.00     0.048 H 
ATOM     10  H   LIG d   1       7.154   1.047  -8.481  0.00  0.00     0.048 H 
ENDROOT
BRANCH   5  11
ATOM     11  C   LIG d   1       5.573  -0.462  -6.368  0.00  0.00     0.154 C 
ATOM     12  S   LIG d   1       6.950  -1.041  -5.531  0.00  0.00    -0.017 SA
ATOM     13  N   LIG d   1       4.417  -0.261  -5.704  0.00  0.00    -0.296 N 
ATOM     14  H   LIG d   1       3.614  -0.017  -6.191  0.00  0.00     0.154 HD
BRANCH  13  15
ATOM     15  C   LIG d   1       4.375  -0.404  -4.313  0.00  0.00     0.033 A 
ATOM     16  C   LIG d   1       4.709   0.666  -3.493  0.00  0.00    -0.041 A 
ATOM     17  C   LIG d   1       4.668   0.521  -2.120  0.00  0.00    -0.060 A 
ATOM     18  H   LIG d   1       5.001   1.610  -3.929  0.00  0.00     0.064 H 
ATOM     19  C   LIG d   1       4.294  -0.687  -1.562  0.00  0.00    -0.062 A 
ATOM     20  H   LIG d   1       4.927   1.353  -1.482  0.00  0.00     0.062 H 
ATOM     21  C   LIG d   1       3.959  -1.754  -2.375  0.00  0.00    -0.060 A 
ATOM     22  H   LIG d   1       4.261  -0.798  -0.488  0.00  0.00     0.062 H 
ATOM     23  C   LIG d   1       3.994  -1.615  -3.749  0.00  0.00    -0.041 A 
ATOM     24  H   LIG d   1       3.668  -2.697  -1.936  0.00  0.00     0.062 H 
ATOM     25  H   LIG d   1       3.729  -2.448  -4.384  0.00  0.00     0.064 H 
ENDBRANCH  13  15
ENDBRANCH   5  11
BRANCH   6  26
ATOM     26  C   LIG d   1       5.243  -2.492  -8.572  0.00  0.00     0.049 A 
ATOM     27  C   LIG d   1       6.316  -3.288  -8.952  0.00  0.00    -0.039 A 
ATOM     28  C   LIG d   1       6.240  -4.661  -8.810  0.00  0.00    -0.060 A 
ATOM     29  H   LIG d   1       7.208  -2.836  -9.358  0.00  0.00     0.064 H 
ATOM     30  C   LIG d   1       5.097  -5.242  -8.291  0.00  0.00    -0.062 A 
ATOM     31  H   LIG d   1       7.074  -5.281  -9.105  0.00  0.00     0.062 H 
ATOM     32  C   LIG d   1       4.028  -4.451  -7.911  0.00  0.00    -0.060 A 
ATOM     33  H   LIG d   1       5.041  -6.315  -8.181  0.00  0.00     0.062 H 
ATOM     34  C   LIG d   1       4.099  -3.079  -8.045  0.00  0.00    -0.039 A 
ATOM     35  H   LIG d   1       3.137  -4.909  -7.506  0.00  0.00     0.062 H 
ATOM     36  H   LIG d   1       3.265  -2.462  -7.743  0.00  0.00     0.064 H 
ENDBRANCH   6  26
BRANCH   1  37
ATOM     37  C   LIG d   1       3.645  -0.579 -10.412  0.00  0.00    -0.025 A 
ATOM     38  C   LIG d   1       2.598  -0.267  -9.566  0.00  0.00    -0.057 A 
ATOM     39  C   LIG d   1       1.294  -0.460  -9.979  0.00  0.00    -0.061 A 
ATOM     40  H   LIG d   1       2.801   0.127  -8.580  0.00  0.00     0.062 H 
ATOM     41  C   LIG d   1       1.035  -0.963 -11.240  0.00  0.00    -0.062 A 
ATOM     42  H   LIG d   1       0.476  -0.216  -9.317  0.00  0.00     0.062 H 
ATOM     43  C   LIG d   1       2.083  -1.274 -12.088  0.00  0.00    -0.061 A 
ATOM     44  H   LIG d   1       0.016  -1.114 -11.563  0.00  0.00     0.062 H 
ATOM     45  C   LIG d   1       3.387  -1.079 -11.676  0.00  0.00    -0.057 A 
ATOM     46  H   LIG d   1       1.881  -1.668 -13.074  0.00  0.00     0.062 H 
ATOM     47  H   LIG d   1       4.205  -1.318 -12.339  0.00  0.00     0.062 H 
ENDBRANCH   1  37
TORSDOF 4
ENDMDL
MODEL 3
REMARK VINA RESULT:      -6.5      3.603      6.504
REMARK  4 active torsions:
REMARK  status: ('A' for Active; 'I' for Inactive)
REMARK    1  A    between atoms: C_4  and  C_7 
REMARK    2  A    between atoms: N_11  and  C_19 
REMARK    3  A    between atoms: N_12  and  C_13 
REMARK    4  A    between atoms: N_21  and  C_22 
ROOT
ATOM      1  C   LIG d   1       8.850  -1.937  -4.446  0.00  0.00     0.069 C 
ATOM      2  H   LIG d   1       9.102  -1.427  -3.517  0.00  0.00     0.057 H 
ATOM      3  C   LIG d   1       9.803  -1.495  -5.574  0.00  0.00    -0.011 C 
ATOM      4  C   LIG d   1       8.938  -0.512  -6.394  0.00  0.00     0.035 C 
ATOM      5  N   LIG d   1       7.558  -0.967  -6.152  0.00  0.00    -0.231 N 
ATOM      6  N   LIG d   1       7.500  -1.557  -4.883  0.00  0.00    -0.242 N 
ATOM      7  H   LIG d   1      10.106  -2.345  -6.185  0.00  0.00     0.030 H 
ATOM      8  H   LIG d   1      10.677  -0.988  -5.163  0.00  0.00     0.030 H 
ATOM      9  H   LIG d   1       9.183  -0.581  -7.454  0.00  0.00     0.048 H 
ATOM     10  H   LIG d   1       9.073   0.508  -6.035  0.00  0.00     0.048 H 
ENDROOT
BRANCH   5  11
ATOM     11  C   LIG d   1       6.525  -0.836  -7.008  0.00  0.00     0.154 C 
ATOM     12  S   LIG d   1       6.210  -2.061  -8.163  0.00  0.00    -0.017 SA
ATOM     13  N   LIG d   1       5.741   0.258  -6.955  0.00  0.00    -0.296 N 
ATOM     14  H   LIG d   1       5.969   0.991  -6.362  0.00  0.00     0.154 HD
BRANCH  13  15
ATOM     15  C   LIG d   1       4.596   0.338  -7.755  0.00  0.00     0.033 A 
ATOM     16  C   LIG d   1       3.454  -0.373  -7.409  0.00  0.00    -0.041 A 
ATOM     17  C   LIG d   1       2.326  -0.292  -8.202  0.00  0.00    -0.060 A 
ATOM     18  H   LIG d   1       3.448  -0.986  -6.520  0.00  0.00     0.064 H 
ATOM     19  C   LIG d   1       2.333   0.493  -9.339  0.00  0.00    -0.062 A 
ATOM     20  H   LIG d   1       1.437  -0.845  -7.933  0.00  0.00     0.062 H 
ATOM     21  C   LIG d   1       3.468   1.202  -9.687  0.00  0.00    -0.060 A 
ATOM     22  H   LIG d   1       1.449   0.555  -9.958  0.00  0.00     0.062 H 
ATOM     23  C   LIG d   1       4.598   1.131  -8.896  0.00  0.00    -0.041 A 
ATOM     24  H   LIG d   1       3.470   1.815 -10.577  0.00  0.00     0.062 H 
ATOM     25  H   LIG d   1       5.483   1.688  -9.166  0.00  0.00     0.064 H 
ENDBRANCH  13  15
ENDBRANCH   5  11
BRANCH   6  26
ATOM     26  C   LIG d   1       6.332  -1.749  -4.141  0.00  0.00     0.049 A 
ATOM     27  C   LIG d   1       6.007  -0.869  -3.116  0.00  0.00    -0.039 A 
ATOM     28  C   LIG d   1       4.852  -1.061  -2.383  0.00  0.00    -0.060 A 
ATOM     29  H   LIG d   1       6.656  -0.036  -2.892  0.00  0.00     0.064 H 
ATOM     30  C   LIG d   1       4.020  -2.129  -2.669  0.00  0.00    -0.062 A 
ATOM     31  H   LIG d   1       4.598  -0.378  -1.587  0.00  0.00     0.062 H 
ATOM     32  C   LIG d   1       4.341  -3.006  -3.689  0.00  0.00    -0.060 A 
ATOM     33  H   LIG d   1       3.117  -2.277  -2.095  0.00  0.00     0.062 H 
ATOM     34  C   LIG d   1       5.491  -2.816  -4.429  0.00  0.00    -0.039 A 
ATOM     35  H   LIG d   1       3.689  -3.838  -3.910  0.00  0.00     0.062 H 
ATOM     36  H   LIG d   1       5.739  -3.499  -5.229  0.00  0.00     0.064 H 
ENDBRANCH   6  26
BRANCH   1  37
ATOM     37  C   LIG d   1       8.933  -3.430  -4.257  0.00  0.00    -0.025 A 
ATOM     38  C   LIG d   1       8.633  -4.278  -5.307  0.00  0.00    -0.057 A 
ATOM     39  C   LIG d   1       8.708  -5.647  -5.133  0.00  0.00    -0.061 A 
ATOM     40  H   LIG d   1       8.339  -3.870  -6.263  0.00  0.00     0.062 H 
ATOM     41  C   LIG d   1       9.084  -6.169  -3.910  0.00  0.00    -0.062 A 
ATOM     42  H   LIG d   1       8.473  -6.309  -5.953  0.00  0.00     0.062 H 
ATOM     43  C   LIG d   1       9.384  -5.321  -2.860  0.00  0.00    -0.061 A 
ATOM     44  H   LIG d   1       9.141  -7.239  -3.774  0.00  0.00     0.062 H 
ATOM     45  C   LIG d   1       9.313  -3.952  -3.034  0.00  0.00    -0.057 A 
ATOM     46  H   LIG d   1       9.678  -5.729  -1.903  0.00  0.00     0.062 H 
ATOM     47  H   LIG d   1       9.551  -3.290  -2.215  0.00  0.00     0.062 H 
ENDBRANCH   1  37
TORSDOF 4
ENDMDL
MODEL 4
REMARK VINA RESULT:      -6.5      2.534      6.601
REMARK  4 active torsions:
REMARK  status: ('A' for Active; 'I' for Inactive)
REMARK    1  A    between atoms: C_4  and  C_7 
REMARK    2  A    between atoms: N_11  and  C_19 
REMARK    3  A    between atoms: N_12  and  C_13 
REMARK    4  A    between atoms: N_21  and  C_22 
ROOT
ATOM      1  C   LIG d   1       6.804  -1.057  -4.913  0.00  0.00     0.069 C 
ATOM      2  H   LIG d   1       7.463  -0.242  -5.208  0.00  0.00     0.057 H 
ATOM      3  C   LIG d   1       7.630  -2.299  -4.526  0.00  0.00    -0.011 C 
ATOM      4  C   LIG d   1       7.482  -3.213  -5.763  0.00  0.00     0.035 C 
ATOM      5  N   LIG d   1       6.190  -2.815  -6.347  0.00  0.00    -0.231 N 
ATOM      6  N   LIG d   1       5.964  -1.465  -6.048  0.00  0.00    -0.242 N 
ATOM      7  H   LIG d   1       7.219  -2.780  -3.639  0.00  0.00     0.030 H 
ATOM      8  H   LIG d   1       8.675  -2.032  -4.367  0.00  0.00     0.030 H 
ATOM      9  H   LIG d   1       7.458  -4.261  -5.463  0.00  0.00     0.048 H 
ATOM     10  H   LIG d   1       8.292  -3.035  -6.469  0.00  0.00     0.048 H 
ENDROOT
BRANCH   5  11
ATOM     11  C   LIG d   1       5.365  -3.613  -7.051  0.00  0.00     0.154 C 
ATOM     12  S   LIG d   1       4.342  -4.719  -6.236  0.00  0.00    -0.017 SA
ATOM     13  N   LIG d   1       5.345  -3.543  -8.397  0.00  0.00    -0.296 N 
ATOM     14  H   LIG d   1       5.984  -2.981  -8.863  0.00  0.00     0.154 HD
BRANCH  13  15
ATOM     15  C   LIG d   1       4.401  -4.279  -9.122  0.00  0.00     0.033 A 
ATOM     16  C   LIG d   1       3.156  -3.731  -9.403  0.00  0.00    -0.041 A 
ATOM     17  C   LIG d   1       2.228  -4.462 -10.118  0.00  0.00    -0.060 A 
ATOM     18  H   LIG d   1       2.916  -2.735  -9.063  0.00  0.00     0.064 H 
ATOM     19  C   LIG d   1       2.536  -5.737 -10.554  0.00  0.00    -0.062 A 
ATOM     20  H   LIG d   1       1.260  -4.036 -10.337  0.00  0.00     0.062 H 
ATOM     21  C   LIG d   1       3.774  -6.286 -10.277  0.00  0.00    -0.060 A 
ATOM     22  H   LIG d   1       1.808  -6.306 -11.113  0.00  0.00     0.062 H 
ATOM     23  C   LIG d   1       4.710  -5.559  -9.567  0.00  0.00    -0.041 A 
ATOM     24  H   LIG d   1       4.012  -7.283 -10.619  0.00  0.00     0.062 H 
ATOM     25  H   LIG d   1       5.678  -5.987  -9.354  0.00  0.00     0.064 H 
ENDBRANCH  13  15
ENDBRANCH   5  11
BRANCH   6  26
ATOM     26  C   LIG d   1       5.078  -0.629  -6.732  0.00  0.00     0.049 A 
ATOM     27  C   LIG d   1       5.506   0.073  -7.851  0.00  0.00    -0.039 A 
ATOM     28  C   LIG d   1       4.627   0.899  -8.525  0.00  0.00    -0.060 A 
ATOM     29  H   LIG d   1       6.525  -0.026  -8.194  0.00  0.00     0.064 H 
ATOM     30  C   LIG d   1       3.322   1.026  -8.085  0.00  0.00    -0.062 A 
ATOM     31  H   LIG d   1       4.959   1.445  -9.395  0.00  0.00     0.062 H 
ATOM     32  C   LIG d   1       2.892   0.327  -6.972  0.00  0.00    -0.060 A 
ATOM     33  H   LIG d   1       2.636   1.672  -8.614  0.00  0.00     0.062 H 
ATOM     34  C   LIG d   1       3.764  -0.503  -6.297  0.00  0.00    -0.039 A 
ATOM     35  H   LIG d   1       1.872   0.430  -6.632  0.00  0.00     0.062 H 
ATOM     36  H   LIG d   1       3.426  -1.052  -5.430  0.00  0.00     0.064 H 
ENDBRANCH   6  26
BRANCH   1  37
ATOM     37  C   LIG d   1       5.938  -0.631  -3.755  0.00  0.00    -0.025 A 
ATOM     38  C   LIG d   1       5.198  -1.571  -3.063  0.00  0.00    -0.057 A 
ATOM     39  C   LIG d   1       4.404  -1.180  -2.001  0.00  0.00    -0.061 A 
ATOM     40  H   LIG d   1       5.239  -2.611  -3.353  0.00  0.00     0.062 H 
ATOM     41  C   LIG d   1       4.351   0.150  -1.630  0.00  0.00    -0.062 A 
ATOM     42  H   LIG d   1       3.825  -1.915  -1.460  0.00  0.00     0.062 H 
ATOM     43  C   LIG d   1       5.093   1.090  -2.322  0.00  0.00    -0.061 A 
ATOM     44  H   LIG d   1       3.730   0.455  -0.801  0.00  0.00     0.062 H 
ATOM     45  C   LIG d   1       5.889   0.699  -3.381  0.00  0.00    -0.057 A 
ATOM     46  H   LIG d   1       5.052   2.130  -2.031  0.00  0.00     0.062 H 
ATOM     47  H   LIG d   1       6.472   1.433  -3.919  0.00  0.00     0.062 H 
ENDBRANCH   1  37
TORSDOF 4
ENDMDL
MODEL 5
REMARK VINA RESULT:      -6.4      2.525      6.593
REMARK  4 active torsions:
REMARK  status: ('A' for Active; 'I' for Inactive)
REMARK    1  A    between atoms: C_4  and  C_7 
REMARK    2  A    between atoms: N_11  and  C_19 
REMARK    3  A    between atoms: N_12  and  C_13 
REMARK    4  A    between atoms: N_21  and  C_22 
ROOT
ATOM      1  C   LIG d   1       6.774  -1.246  -4.976  0.00  0.00     0.069 C 
ATOM      2  H   LIG d   1       7.468  -0.450  -5.246  0.00  0.00     0.057 H 
ATOM      3  C   LIG d   1       7.547  -2.531  -4.621  0.00  0.00    -0.011 C 
ATOM      4  C   LIG d   1       7.368  -3.403  -5.884  0.00  0.00     0.035 C 
ATOM      5  N   LIG d   1       6.097  -2.936  -6.462  0.00  0.00    -0.231 N 
ATOM      6  N   LIG d   1       5.925  -1.587  -6.126  0.00  0.00    -0.242 N 
ATOM      7  H   LIG d   1       7.111  -3.019  -3.750  0.00  0.00     0.030 H 
ATOM      8  H   LIG d   1       8.601  -2.312  -4.450  0.00  0.00     0.030 H 
ATOM      9  H   LIG d   1       7.300  -4.457  -5.613  0.00  0.00     0.048 H 
ATOM     10  H   LIG d   1       8.189  -3.239  -6.581  0.00  0.00     0.048 H 
ENDROOT
BRANCH   5  11
ATOM     11  C   LIG d   1       5.244  -3.680  -7.193  0.00  0.00     0.154 C 
ATOM     12  S   LIG d   1       4.207  -4.802  -6.418  0.00  0.00    -0.017 SA
ATOM     13  N   LIG d   1       5.207  -3.543  -8.533  0.00  0.00    -0.296 N 
ATOM     14  H   LIG d   1       5.852  -2.973  -8.980  0.00  0.00     0.154 HD
BRANCH  13  15
ATOM     15  C   LIG d   1       4.237  -4.221  -9.279  0.00  0.00     0.033 A 
ATOM     16  C   LIG d   1       4.516  -5.473  -9.810  0.00  0.00    -0.041 A 
ATOM     17  C   LIG d   1       3.556  -6.139 -10.547  0.00  0.00    -0.060 A 
ATOM     18  H   LIG d   1       5.482  -5.927  -9.645  0.00  0.00     0.064 H 
ATOM     19  C   LIG d   1       2.319  -5.559 -10.757  0.00  0.00    -0.062 A 
ATOM     20  H   LIG d   1       3.773  -7.113 -10.959  0.00  0.00     0.062 H 
ATOM     21  C   LIG d   1       2.037  -4.312 -10.230  0.00  0.00    -0.060 A 
ATOM     22  H   LIG d   1       1.570  -6.081 -11.334  0.00  0.00     0.062 H 
ATOM     23  C   LIG d   1       2.990  -3.643  -9.488  0.00  0.00    -0.041 A 
ATOM     24  H   LIG d   1       1.069  -3.862 -10.397  0.00  0.00     0.062 H 
ATOM     25  H   LIG d   1       2.769  -2.671  -9.074  0.00  0.00     0.064 H 
ENDBRANCH  13  15
ENDBRANCH   5  11
BRANCH   6  26
ATOM     26  C   LIG d   1       5.077  -0.697  -6.790  0.00  0.00     0.049 A 
ATOM     27  C   LIG d   1       3.754  -0.565  -6.388  0.00  0.00    -0.039 A 
ATOM     28  C   LIG d   1       2.918   0.316  -7.046  0.00  0.00    -0.060 A 
ATOM     29  H   LIG d   1       3.379  -1.151  -5.561  0.00  0.00     0.064 H 
ATOM     30  C   LIG d   1       3.397   1.066  -8.105  0.00  0.00    -0.062 A 
ATOM     31  H   LIG d   1       1.890   0.419  -6.734  0.00  0.00     0.062 H 
ATOM     32  C   LIG d   1       4.715   0.938  -8.507  0.00  0.00    -0.060 A 
ATOM     33  H   LIG d   1       2.742   1.755  -8.617  0.00  0.00     0.062 H 
ATOM     34  C   LIG d   1       5.556   0.063  -7.849  0.00  0.00    -0.039 A 
ATOM     35  H   LIG d   1       5.085   1.526  -9.334  0.00  0.00     0.062 H 
ATOM     36  H   LIG d   1       6.587  -0.033  -8.161  0.00  0.00     0.064 H 
ENDBRANCH   6  26
BRANCH   1  37
ATOM     37  C   LIG d   1       5.920  -0.817  -3.811  0.00  0.00    -0.025 A 
ATOM     38  C   LIG d   1       5.159  -1.750  -3.131  0.00  0.00    -0.057 A 
ATOM     39  C   LIG d   1       4.376  -1.357  -2.063  0.00  0.00    -0.061 A 
ATOM     40  H   LIG d   1       5.176  -2.786  -3.437  0.00  0.00     0.062 H 
ATOM     41  C   LIG d   1       4.354  -0.032  -1.672  0.00  0.00    -0.062 A 
ATOM     42  H   LIG d   1       3.781  -2.086  -1.532  0.00  0.00     0.062 H 
ATOM     43  C   LIG d   1       5.117   0.901  -2.351  0.00  0.00    -0.061 A 
ATOM     44  H   LIG d   1       3.741   0.275  -0.837  0.00  0.00     0.062 H 
ATOM     45  C   LIG d   1       5.902   0.508  -3.417  0.00  0.00    -0.057 A 
ATOM     46  H   LIG d   1       5.100   1.937  -2.045  0.00  0.00     0.062 H 
ATOM     47  H   LIG d   1       6.501   1.236  -3.945  0.00  0.00     0.062 H 
ENDBRANCH   1  37
TORSDOF 4
ENDMDL
MODEL 6
REMARK VINA RESULT:      -6.4      2.587      6.590
REMARK  4 active torsions:
REMARK  status: ('A' for Active; 'I' for Inactive)
REMARK    1  A    between atoms: C_4  and  C_7 
REMARK    2  A    between atoms: N_11  and  C_19 
REMARK    3  A    between atoms: N_12  and  C_13 
REMARK    4  A    between atoms: N_21  and  C_22 
ROOT
ATOM      1  C   LIG d   1       5.602  -2.281  -4.381  0.00  0.00     0.069 C 
ATOM      2  H   LIG d   1       6.570  -2.560  -3.967  0.00  0.00     0.057 H 
ATOM      3  C   LIG d   1       4.629  -3.475  -4.315  0.00  0.00    -0.011 C 
ATOM      4  C   LIG d   1       4.611  -3.989  -5.771  0.00  0.00     0.035 C 
ATOM      5  N   LIG d   1       4.931  -2.796  -6.574  0.00  0.00    -0.231 N 
ATOM      6  N   LIG d   1       5.738  -1.946  -5.806  0.00  0.00    -0.242 N 
ATOM      7  H   LIG d   1       3.635  -3.150  -4.007  0.00  0.00     0.030 H 
ATOM      8  H   LIG d   1       5.008  -4.243  -3.640  0.00  0.00     0.030 H 
ATOM      9  H   LIG d   1       3.622  -4.369  -6.030  0.00  0.00     0.048 H 
ATOM     10  H   LIG d   1       5.367  -4.760  -5.914  0.00  0.00     0.048 H 
ENDROOT
BRANCH   5  11
ATOM     11  C   LIG d   1       4.517  -2.561  -7.834  0.00  0.00     0.154 C 
ATOM     12  S   LIG d   1       5.439  -3.134  -9.159  0.00  0.00    -0.017 SA
ATOM     13  N   LIG d   1       3.379  -1.874  -8.053  0.00  0.00    -0.296 N 
ATOM     14  H   LIG d   1       2.902  -1.474  -7.308  0.00  0.00     0.154 HD
BRANCH  13  15
ATOM     15  C   LIG d   1       2.882  -1.737  -9.354  0.00  0.00     0.033 A 
ATOM     16  C   LIG d   1       2.087  -2.734  -9.904  0.00  0.00    -0.041 A 
ATOM     17  C   LIG d   1       1.600  -2.596 -11.189  0.00  0.00    -0.060 A 
ATOM     18  H   LIG d   1       1.849  -3.615  -9.327  0.00  0.00     0.064 H 
ATOM     19  C   LIG d   1       1.904  -1.468 -11.928  0.00  0.00    -0.062 A 
ATOM     20  H   LIG d   1       0.981  -3.371 -11.617  0.00  0.00     0.062 H 
ATOM     21  C   LIG d   1       2.695  -0.473 -11.384  0.00  0.00    -0.060 A 
ATOM     22  H   LIG d   1       1.522  -1.363 -12.933  0.00  0.00     0.062 H 
ATOM     23  C   LIG d   1       3.181  -0.602 -10.097  0.00  0.00    -0.041 A 
ATOM     24  H   LIG d   1       2.931   0.407 -11.964  0.00  0.00     0.062 H 
ATOM     25  H   LIG d   1       3.797   0.177  -9.672  0.00  0.00     0.064 H 
ENDBRANCH  13  15
ENDBRANCH   5  11
BRANCH   6  26
ATOM     26  C   LIG d   1       6.556  -0.937  -6.318  0.00  0.00     0.049 A 
ATOM     27  C   LIG d   1       5.995   0.125  -7.016  0.00  0.00    -0.039 A 
ATOM     28  C   LIG d   1       6.806   1.123  -7.523  0.00  0.00    -0.060 A 
ATOM     29  H   LIG d   1       4.926   0.172  -7.164  0.00  0.00     0.064 H 
ATOM     30  C   LIG d   1       8.175   1.064  -7.335  0.00  0.00    -0.062 A 
ATOM     31  H   LIG d   1       6.371   1.949  -8.065  0.00  0.00     0.062 H 
ATOM     32  C   LIG d   1       8.736   0.008  -6.639  0.00  0.00    -0.060 A 
ATOM     33  H   LIG d   1       8.807   1.845  -7.731  0.00  0.00     0.062 H 
ATOM     34  C   LIG d   1       7.930  -0.989  -6.127  0.00  0.00    -0.039 A 
ATOM     35  H   LIG d   1       9.806  -0.034  -6.495  0.00  0.00     0.062 H 
ATOM     36  H   LIG d   1       8.369  -1.811  -5.580  0.00  0.00     0.064 H 
ENDBRANCH   6  26
BRANCH   1  37
ATOM     37  C   LIG d   1       5.032  -1.108  -3.626  0.00  0.00    -0.025 A 
ATOM     38  C   LIG d   1       3.667  -1.004  -3.436  0.00  0.00    -0.057 A 
ATOM     39  C   LIG d   1       3.144   0.072  -2.744  0.00  0.00    -0.061 A 
ATOM     40  H   LIG d   1       3.008  -1.764  -3.831  0.00  0.00     0.062 H 
ATOM     41  C   LIG d   1       3.987   1.044  -2.239  0.00  0.00    -0.062 A 
ATOM     42  H   LIG d   1       2.078   0.153  -2.597  0.00  0.00     0.062 H 
ATOM     43  C   LIG d   1       5.353   0.940  -2.428  0.00  0.00    -0.061 A 
ATOM     44  H   LIG d   1       3.579   1.885  -1.699  0.00  0.00     0.062 H 
ATOM     45  C   LIG d   1       5.876  -0.138  -3.117  0.00  0.00    -0.057 A 
ATOM     46  H   LIG d   1       6.012   1.700  -2.033  0.00  0.00     0.062 H 
ATOM     47  H   LIG d   1       6.943  -0.221  -3.261  0.00  0.00     0.062 H 
ENDBRANCH   1  37
TORSDOF 4
ENDMDL
MODEL 7
REMARK VINA RESULT:      -6.4      2.750      3.942
REMARK  4 active torsions:
REMARK  status: ('A' for Active; 'I' for Inactive)
REMARK    1  A    between atoms: C_4  and  C_7 
REMARK    2  A    between atoms: N_11  and  C_19 
REMARK    3  A    between atoms: N_12  and  C_13 
REMARK    4  A    between atoms: N_21  and  C_22 
ROOT
ATOM      1  C   LIG d   1       8.472   0.198  -8.959  0.00  0.00     0.069 C 
ATOM      2  H   LIG d   1       8.637  -0.078 -10.000  0.00  0.00     0.057 H 
ATOM      3  C   LIG d   1       9.285  -0.722  -8.027  0.00  0.00    -0.011 C 
ATOM      4  C   LIG d   1       8.216  -1.693  -7.480  0.00  0.00     0.035 C 
ATOM      5  N   LIG d   1       6.965  -0.918  -7.543  0.00  0.00    -0.231 N 
ATOM      6  N   LIG d   1       7.062  -0.004  -8.600  0.00  0.00    -0.242 N 
ATOM      7  H   LIG d   1       9.740  -0.152  -7.217  0.00  0.00     0.030 H 
ATOM      8  H   LIG d   1      10.047  -1.263  -8.589  0.00  0.00     0.030 H 
ATOM      9  H   LIG d   1       8.443  -1.970  -6.450  0.00  0.00     0.048 H 
ATOM     10  H   LIG d   1       8.149  -2.581  -8.109  0.00  0.00     0.048 H 
ENDROOT
BRANCH   5  11
ATOM     11  C   LIG d   1       5.907  -1.065  -6.723  0.00  0.00     0.154 C 
ATOM     12  S   LIG d   1       4.744  -2.283  -7.035  0.00  0.00    -0.017 SA
ATOM     13  N   LIG d   1       5.762  -0.252  -5.658  0.00  0.00    -0.296 N 
ATOM     14  H   LIG d   1       6.370   0.493  -5.529  0.00  0.00     0.154 HD
BRANCH  13  15
ATOM     15  C   LIG d   1       4.734  -0.482  -4.736  0.00  0.00     0.033 A 
ATOM     16  C   LIG d   1       4.965  -1.273  -3.619  0.00  0.00    -0.041 A 
ATOM     17  C   LIG d   1       3.947  -1.498  -2.712  0.00  0.00    -0.060 A 
ATOM     18  H   LIG d   1       5.939  -1.711  -3.459  0.00  0.00     0.064 H 
ATOM     19  C   LIG d   1       2.701  -0.938  -2.916  0.00  0.00    -0.062 A 
ATOM     20  H   LIG d   1       4.127  -2.114  -1.843  0.00  0.00     0.062 H 
ATOM     21  C   LIG d   1       2.467  -0.149  -4.028  0.00  0.00    -0.060 A 
ATOM     22  H   LIG d   1       1.907  -1.116  -2.206  0.00  0.00     0.062 H 
ATOM     23  C   LIG d   1       3.481   0.085  -4.936  0.00  0.00    -0.041 A 
ATOM     24  H   LIG d   1       1.491   0.287  -4.185  0.00  0.00     0.062 H 
ATOM     25  H   LIG d   1       3.299   0.704  -5.802  0.00  0.00     0.064 H 
ENDBRANCH  13  15
ENDBRANCH   5  11
BRANCH   6  26
ATOM     26  C   LIG d   1       5.978   0.619  -9.223  0.00  0.00     0.049 A 
ATOM     27  C   LIG d   1       5.400   0.046 -10.348  0.00  0.00    -0.039 A 
ATOM     28  C   LIG d   1       4.328   0.664 -10.963  0.00  0.00    -0.060 A 
ATOM     29  H   LIG d   1       5.788  -0.882 -10.743  0.00  0.00     0.064 H 
ATOM     30  C   LIG d   1       3.831   1.852 -10.459  0.00  0.00    -0.062 A 
ATOM     31  H   LIG d   1       3.877   0.219 -11.838  0.00  0.00     0.062 H 
ATOM     32  C   LIG d   1       4.404   2.424  -9.337  0.00  0.00    -0.060 A 
ATOM     33  H   LIG d   1       2.992   2.333 -10.941  0.00  0.00     0.062 H 
ATOM     34  C   LIG d   1       5.472   1.809  -8.716  0.00  0.00    -0.039 A 
ATOM     35  H   LIG d   1       4.013   3.352  -8.946  0.00  0.00     0.062 H 
ATOM     36  H   LIG d   1       5.916   2.254  -7.837  0.00  0.00     0.064 H 
ENDBRANCH   6  26
BRANCH   1  37
ATOM     37  C   LIG d   1       8.864   1.636  -8.735  0.00  0.00    -0.025 A 
ATOM     38  C   LIG d   1       9.044   2.480  -9.814  0.00  0.00    -0.057 A 
ATOM     39  C   LIG d   1       9.404   3.799  -9.609  0.00  0.00    -0.061 A 
ATOM     40  H   LIG d   1       8.904   2.108 -10.819  0.00  0.00     0.062 H 
ATOM     41  C   LIG d   1       9.582   4.274  -8.324  0.00  0.00    -0.062 A 
ATOM     42  H   LIG d   1       9.544   4.458 -10.453  0.00  0.00     0.062 H 
ATOM     43  C   LIG d   1       9.401   3.430  -7.243  0.00  0.00    -0.061 A 
ATOM     44  H   LIG d   1       9.863   5.305  -8.163  0.00  0.00     0.062 H 
ATOM     45  C   LIG d   1       9.038   2.113  -7.449  0.00  0.00    -0.057 A 
ATOM     46  H   LIG d   1       9.540   3.802  -6.238  0.00  0.00     0.062 H 
ATOM     47  H   LIG d   1       8.893   1.454  -6.605  0.00  0.00     0.062 H 
ENDBRANCH   1  37
TORSDOF 4
ENDMDL
MODEL 8
REMARK VINA RESULT:      -6.3      2.948      5.007
REMARK  4 active torsions:
REMARK  status: ('A' for Active; 'I' for Inactive)
REMARK    1  A    between atoms: C_4  and  C_7 
REMARK    2  A    between atoms: N_11  and  C_19 
REMARK    3  A    between atoms: N_12  and  C_13 
REMARK    4  A    between atoms: N_21  and  C_22 
ROOT
ATOM      1  C   LIG d   1       3.426  -1.033  -7.530  0.00  0.00     0.069 C 
ATOM      2  H   LIG d   1       2.431  -0.962  -7.091  0.00  0.00     0.057 H 
ATOM      3  C   LIG d   1       3.458  -2.137  -8.605  0.00  0.00    -0.011 C 
ATOM      4  C   LIG d   1       4.173  -3.302  -7.884  0.00  0.00     0.035 C 
ATOM      5  N   LIG d   1       5.019  -2.634  -6.881  0.00  0.00    -0.231 N 
ATOM      6  N   LIG d   1       4.402  -1.433  -6.507  0.00  0.00    -0.242 N 
ATOM      7  H   LIG d   1       4.026  -1.816  -9.477  0.00  0.00     0.030 H 
ATOM      8  H   LIG d   1       2.446  -2.425  -8.892  0.00  0.00     0.030 H 
ATOM      9  H   LIG d   1       4.786  -3.867  -8.587  0.00  0.00     0.048 H 
ATOM     10  H   LIG d   1       3.447  -3.954  -7.399  0.00  0.00     0.048 H 
ENDROOT
BRANCH   5  11
ATOM     11  C   LIG d   1       6.190  -3.099  -6.404  0.00  0.00     0.154 C 
ATOM     12  S   LIG d   1       7.651  -2.749  -7.227  0.00  0.00    -0.017 SA
ATOM     13  N   LIG d   1       6.212  -3.840  -5.278  0.00  0.00    -0.296 N 
ATOM     14  H   LIG d   1       5.380  -4.112  -4.860  0.00  0.00     0.154 HD
BRANCH  13  15
ATOM     15  C   LIG d   1       7.434  -4.218  -4.712  0.00  0.00     0.033 A 
ATOM     16  C   LIG d   1       7.986  -5.458  -5.008  0.00  0.00    -0.041 A 
ATOM     17  C   LIG d   1       9.192  -5.826  -4.446  0.00  0.00    -0.060 A 
ATOM     18  H   LIG d   1       7.472  -6.132  -5.677  0.00  0.00     0.064 H 
ATOM     19  C   LIG d   1       9.851  -4.963  -3.590  0.00  0.00    -0.062 A 
ATOM     20  H   LIG d   1       9.622  -6.790  -4.676  0.00  0.00     0.062 H 
ATOM     21  C   LIG d   1       9.305  -3.728  -3.294  0.00  0.00    -0.060 A 
ATOM     22  H   LIG d   1      10.794  -5.254  -3.152  0.00  0.00     0.062 H 
ATOM     23  C   LIG d   1       8.101  -3.350  -3.856  0.00  0.00    -0.041 A 
ATOM     24  H   LIG d   1       9.822  -3.056  -2.624  0.00  0.00     0.062 H 
ATOM     25  H   LIG d   1       7.678  -2.383  -3.627  0.00  0.00     0.064 H 
ENDBRANCH  13  15
ENDBRANCH   5  11
BRANCH   6  26
ATOM     26  C   LIG d   1       4.671  -0.725  -5.334  0.00  0.00     0.049 A 
ATOM     27  C   LIG d   1       3.654  -0.485  -4.418  0.00  0.00    -0.039 A 
ATOM     28  C   LIG d   1       3.922   0.216  -3.258  0.00  0.00    -0.060 A 
ATOM     29  H   LIG d   1       2.655  -0.846  -4.612  0.00  0.00     0.064 H 
ATOM     30  C   LIG d   1       5.202   0.679  -3.009  0.00  0.00    -0.062 A 
ATOM     31  H   LIG d   1       3.133   0.402  -2.545  0.00  0.00     0.062 H 
ATOM     32  C   LIG d   1       6.216   0.441  -3.918  0.00  0.00    -0.060 A 
ATOM     33  H   LIG d   1       5.410   1.226  -2.101  0.00  0.00     0.062 H 
ATOM     34  C   LIG d   1       5.955  -0.264  -5.077  0.00  0.00    -0.039 A 
ATOM     35  H   LIG d   1       7.214   0.804  -3.720  0.00  0.00     0.062 H 
ATOM     36  H   LIG d   1       6.750  -0.453  -5.785  0.00  0.00     0.064 H 
ENDBRANCH   6  26
BRANCH   1  37
ATOM     37  C   LIG d   1       3.821   0.289  -8.136  0.00  0.00    -0.025 A 
ATOM     38  C   LIG d   1       5.107   0.477  -8.606  0.00  0.00    -0.057 A 
ATOM     39  C   LIG d   1       5.470   1.690  -9.161  0.00  0.00    -0.061 A 
ATOM     40  H   LIG d   1       5.829  -0.324  -8.538  0.00  0.00     0.062 H 
ATOM     41  C   LIG d   1       4.547   2.714  -9.248  0.00  0.00    -0.062 A 
ATOM     42  H   LIG d   1       6.476   1.836  -9.528  0.00  0.00     0.062 H 
ATOM     43  C   LIG d   1       3.260   2.525  -8.779  0.00  0.00    -0.061 A 
ATOM     44  H   LIG d   1       4.831   3.662  -9.681  0.00  0.00     0.062 H 
ATOM     45  C   LIG d   1       2.896   1.312  -8.227  0.00  0.00    -0.057 A 
ATOM     46  H   LIG d   1       2.538   3.327  -8.847  0.00  0.00     0.062 H 
ATOM     47  H   LIG d   1       1.889   1.164  -7.864  0.00  0.00     0.062 H 
ENDBRANCH   1  37
TORSDOF 4
ENDMDL
MODEL 9
REMARK VINA RESULT:      -6.0      3.683      5.949
REMARK  4 active torsions:
REMARK  status: ('A' for Active; 'I' for Inactive)
REMARK    1  A    between atoms: C_4  and  C_7 
REMARK    2  A    between atoms: N_11  and  C_19 
REMARK    3  A    between atoms: N_12  and  C_13 
REMARK    4  A    between atoms: N_21  and  C_22 
ROOT
ATOM      1  C   LIG d   1       5.825  -5.896  -7.239  0.00  0.00     0.069 C 
ATOM      2  H   LIG d   1       6.432  -6.074  -8.126  0.00  0.00     0.057 H 
ATOM      3  C   LIG d   1       4.349  -5.689  -7.634  0.00  0.00    -0.011 C 
ATOM      4  C   LIG d   1       4.173  -4.158  -7.525  0.00  0.00     0.035 C 
ATOM      5  N   LIG d   1       5.173  -3.755  -6.522  0.00  0.00    -0.231 N 
ATOM      6  N   LIG d   1       6.247  -4.652  -6.579  0.00  0.00    -0.242 N 
ATOM      7  H   LIG d   1       3.685  -6.205  -6.942  0.00  0.00     0.030 H 
ATOM      8  H   LIG d   1       4.174  -6.025  -8.656  0.00  0.00     0.030 H 
ATOM      9  H   LIG d   1       3.167  -3.913  -7.182  0.00  0.00     0.048 H 
ATOM     10  H   LIG d   1       4.378  -3.680  -8.483  0.00  0.00     0.048 H 
ENDROOT
BRANCH   5  11
ATOM     11  C   LIG d   1       5.072  -2.700  -5.690  0.00  0.00     0.154 C 
ATOM     12  S   LIG d   1       6.004  -1.292  -5.975  0.00  0.00    -0.017 SA
ATOM     13  N   LIG d   1       4.239  -2.754  -4.631  0.00  0.00    -0.296 N 
ATOM     14  H   LIG d   1       3.777  -3.580  -4.419  0.00  0.00     0.154 HD
BRANCH  13  15
ATOM     15  C   LIG d   1       4.039  -1.617  -3.840  0.00  0.00     0.033 A 
ATOM     16  C   LIG d   1       3.297  -0.550  -4.329  0.00  0.00    -0.041 A 
ATOM     17  C   LIG d   1       3.103   0.570  -3.544  0.00  0.00    -0.060 A 
ATOM     18  H   LIG d   1       2.872  -0.597  -5.320  0.00  0.00     0.064 H 
ATOM     19  C   LIG d   1       3.646   0.630  -2.275  0.00  0.00    -0.062 A 
ATOM     20  H   LIG d   1       2.525   1.400  -3.924  0.00  0.00     0.062 H 
ATOM     21  C   LIG d   1       4.386  -0.431  -1.785  0.00  0.00    -0.060 A 
ATOM     22  H   LIG d   1       3.493   1.507  -1.664  0.00  0.00     0.062 H 
ATOM     23  C   LIG d   1       4.580  -1.557  -2.561  0.00  0.00    -0.041 A 
ATOM     24  H   LIG d   1       4.810  -0.380  -0.793  0.00  0.00     0.062 H 
ATOM     25  H   LIG d   1       5.154  -2.386  -2.177  0.00  0.00     0.064 H 
ENDBRANCH  13  15
ENDBRANCH   5  11
BRANCH   6  26
ATOM     26  C   LIG d   1       7.530  -4.400  -6.089  0.00  0.00     0.049 A 
ATOM     27  C   LIG d   1       7.760  -4.384  -4.719  0.00  0.00    -0.039 A 
ATOM     28  C   LIG d   1       9.031  -4.134  -4.236  0.00  0.00    -0.060 A 
ATOM     29  H   LIG d   1       6.947  -4.566  -4.031  0.00  0.00     0.064 H 
ATOM     30  C   LIG d   1      10.072  -3.900  -5.116  0.00  0.00    -0.062 A 
ATOM     31  H   LIG d   1       9.211  -4.121  -3.172  0.00  0.00     0.062 H 
ATOM     32  C   LIG d   1       9.846  -3.917  -6.480  0.00  0.00    -0.060 A 
ATOM     33  H   LIG d   1      11.064  -3.706  -4.736  0.00  0.00     0.062 H 
ATOM     34  C   LIG d   1       8.580  -4.171  -6.969  0.00  0.00    -0.039 A 
ATOM     35  H   LIG d   1      10.662  -3.734  -7.164  0.00  0.00     0.062 H 
ATOM     36  H   LIG d   1       8.406  -4.189  -8.035  0.00  0.00     0.064 H 
ENDBRANCH   6  26
BRANCH   1  37
ATOM     37  C   LIG d   1       5.946  -7.056  -6.285  0.00  0.00    -0.025 A 
ATOM     38  C   LIG d   1       7.163  -7.688  -6.115  0.00  0.00    -0.057 A 
ATOM     39  C   LIG d   1       7.274  -8.752  -5.240  0.00  0.00    -0.061 A 
ATOM     40  H   LIG d   1       8.028  -7.349  -6.667  0.00  0.00     0.062 H 
ATOM     41  C   LIG d   1       6.167  -9.184  -4.534  0.00  0.00    -0.062 A 
ATOM     42  H   LIG d   1       8.225  -9.246  -5.108  0.00  0.00     0.062 H 
ATOM     43  C   LIG d   1       4.949  -8.551  -4.703  0.00  0.00    -0.061 A 
ATOM     44  H   LIG d   1       6.254 -10.016  -3.851  0.00  0.00     0.062 H 
ATOM     45  C   LIG d   1       4.840  -7.485  -5.575  0.00  0.00    -0.057 A 
ATOM     46  H   LIG d   1       4.084  -8.890  -4.151  0.00  0.00     0.062 H 
ATOM     47  H   LIG d   1       3.889  -6.989  -5.704  0.00  0.00     0.062 H 
ENDBRANCH   1  37
TORSDOF 4
ENDMDL
MODEL 10
REMARK VINA RESULT:      -6.0      2.875      6.830
REMARK  4 active torsions:
REMARK  status: ('A' for Active; 'I' for Inactive)
REMARK    1  A    between atoms: C_4  and  C_7 
REMARK    2  A    between atoms: N_11  and  C_19 
REMARK    3  A    between atoms: N_12  and  C_13 
REMARK    4  A    between atoms: N_21  and  C_22 
ROOT
ATOM      1  C   LIG d   1       7.383  -1.509  -4.040  0.00  0.00     0.069 C 
ATOM      2  H   LIG d   1       8.128  -0.729  -4.192  0.00  0.00     0.057 H 
ATOM      3  C   LIG d   1       7.993  -2.683  -3.249  0.00  0.00    -0.011 C 
ATOM      4  C   LIG d   1       8.243  -3.746  -4.342  0.00  0.00     0.035 C 
ATOM      5  N   LIG d   1       7.236  -3.440  -5.373  0.00  0.00    -0.231 N 
ATOM      6  N   LIG d   1       6.963  -2.066  -5.334  0.00  0.00    -0.242 N 
ATOM      7  H   LIG d   1       7.293  -3.055  -2.502  0.00  0.00     0.030 H 
ATOM      8  H   LIG d   1       8.931  -2.385  -2.780  0.00  0.00     0.030 H 
ATOM      9  H   LIG d   1       8.089  -4.748  -3.943  0.00  0.00     0.048 H 
ATOM     10  H   LIG d   1       9.249  -3.646  -4.749  0.00  0.00     0.048 H 
ENDROOT
BRANCH   5  11
ATOM     11  C   LIG d   1       6.673  -4.330  -6.212  0.00  0.00     0.154 C 
ATOM     12  S   LIG d   1       7.483  -4.783  -7.651  0.00  0.00    -0.017 SA
ATOM     13  N   LIG d   1       5.471  -4.865  -5.919  0.00  0.00    -0.296 N 
ATOM     14  H   LIG d   1       4.972  -4.546  -5.151  0.00  0.00     0.154 HD
BRANCH  13  15
ATOM     15  C   LIG d   1       4.942  -5.881  -6.723  0.00  0.00     0.033 A 
ATOM     16  C   LIG d   1       5.072  -7.210  -6.340  0.00  0.00    -0.041 A 
ATOM     17  C   LIG d   1       4.550  -8.210  -7.137  0.00  0.00    -0.060 A 
ATOM     18  H   LIG d   1       5.581  -7.460  -5.421  0.00  0.00     0.064 H 
ATOM     19  C   LIG d   1       3.899  -7.890  -8.314  0.00  0.00    -0.062 A 
ATOM     20  H   LIG d   1       4.651  -9.244  -6.840  0.00  0.00     0.062 H 
ATOM     21  C   LIG d   1       3.767  -6.568  -8.697  0.00  0.00    -0.060 A 
ATOM     22  H   LIG d   1       3.492  -8.674  -8.935  0.00  0.00     0.062 H 
ATOM     23  C   LIG d   1       4.282  -5.562  -7.903  0.00  0.00    -0.041 A 
ATOM     24  H   LIG d   1       3.258  -6.321  -9.618  0.00  0.00     0.062 H 
ATOM     25  H   LIG d   1       4.176  -4.530  -8.202  0.00  0.00     0.064 H 
ENDBRANCH  13  15
ENDBRANCH   5  11
BRANCH   6  26
ATOM     26  C   LIG d   1       6.385  -1.334  -6.373  0.00  0.00     0.049 A 
ATOM     27  C   LIG d   1       5.004  -1.316  -6.526  0.00  0.00    -0.039 A 
ATOM     28  C   LIG d   1       4.434  -0.591  -7.555  0.00  0.00    -0.060 A 
ATOM     29  H   LIG d   1       4.377  -1.869  -5.843  0.00  0.00     0.064 H 
ATOM     30  C   LIG d   1       5.237   0.117  -8.431  0.00  0.00    -0.062 A 
ATOM     31  H   LIG d   1       3.362  -0.576  -7.675  0.00  0.00     0.062 H 
ATOM     32  C   LIG d   1       6.612   0.102  -8.280  0.00  0.00    -0.060 A 
ATOM     33  H   LIG d   1       4.790   0.684  -9.234  0.00  0.00     0.062 H 
ATOM     34  C   LIG d   1       7.187  -0.617  -7.251  0.00  0.00    -0.039 A 
ATOM     35  H   LIG d   1       7.236   0.656  -8.966  0.00  0.00     0.062 H 
ATOM     36  H   LIG d   1       8.261  -0.624  -7.131  0.00  0.00     0.064 H 
ENDBRANCH   6  26
BRANCH   1  37
ATOM     37  C   LIG d   1       6.192  -0.954  -3.303  0.00  0.00    -0.025 A 
ATOM     38  C   LIG d   1       6.097   0.404  -3.064  0.00  0.00    -0.057 A 
ATOM     39  C   LIG d   1       5.005   0.913  -2.388  0.00  0.00    -0.061 A 
ATOM     40  H   LIG d   1       6.879   1.067  -3.405  0.00  0.00     0.062 H 
ATOM     41  C   LIG d   1       4.005   0.064  -1.952  0.00  0.00    -0.062 A 
ATOM     42  H   LIG d   1       4.932   1.974  -2.200  0.00  0.00     0.062 H 
ATOM     43  C   LIG d   1       4.099  -1.295  -2.192  0.00  0.00    -0.061 A 
ATOM     44  H   LIG d   1       3.151   0.462  -1.423  0.00  0.00     0.062 H 
ATOM     45  C   LIG d   1       5.189  -1.803  -2.871  0.00  0.00    -0.057 A 
ATOM     46  H   LIG d   1       3.316  -1.958  -1.851  0.00  0.00     0.062 H 
ATOM     47  H   LIG d   1       5.260  -2.864  -3.062  0.00  0.00     0.062 H 
ENDBRANCH   1  37
TORSDOF 4
ENDMDL
