MODEL 1
REMARK VINA RESULT:      -6.3      0.000      0.000
REMARK  11 active torsions:
REMARK  status: ('A' for Active; 'I' for Inactive)
REMARK    1  A    between atoms: C_1  and  C_2 
REMARK    2  A    between atoms: C_2  and  C_4 
REMARK    3  A    between atoms: C_4  and  O_5 
REMARK    4  A    between atoms: O_5  and  C_6 
REMARK    5  A    between atoms: C_14  and  C_15 
REMARK    6  A    between atoms: C_18  and  O_25 
REMARK    7  A    between atoms: C_19  and  O_23 
REMARK    8  A    between atoms: C_20  and  O_21 
REMARK    9  A    between atoms: O_21  and  C_22 
REMARK   10  A    between atoms: O_23  and  C_24 
REMARK   11  A    between atoms: O_25  and  C_26 
ROOT
ATOM      1  C   LIG d   1       6.905   0.208  -4.833  0.00  0.00     0.124 A 
ATOM      2  C   LIG d   1       7.441   0.056  -6.110  0.00  0.00    -0.019 A 
ATOM      3  C   LIG d   1       8.441   0.883  -6.537  0.00  0.00    -0.044 A 
ATOM      4  C   LIG d   1       8.926   1.881  -5.693  0.00  0.00     0.068 A 
ATOM      5  C   LIG d   1       8.393   2.045  -4.404  0.00  0.00     0.143 A 
ATOM      6  C   LIG d   1       7.377   1.195  -3.984  0.00  0.00     0.023 A 
ATOM      7  O   LIG d   1       9.017   3.068  -3.780  0.00  0.00    -0.451 OA
ATOM      8  C   LIG d   1       9.963   3.634  -4.566  0.00  0.00     0.176 A 
ATOM      9  C   LIG d   1      10.763   4.681  -4.233  0.00  0.00    -0.005 C 
ATOM     10  C   LIG d   1       9.964   2.916  -5.846  0.00  0.00     0.232 A 
ATOM     11  O   LIG d   1      10.669   3.127  -6.820  0.00  0.00    -0.283 OA
ATOM     12  H   LIG d   1       7.065  -0.719  -6.762  0.00  0.00     0.065 H 
ATOM     13  H   LIG d   1       8.855   0.762  -7.527  0.00  0.00     0.063 H 
ATOM     14  H   LIG d   1       6.954   1.305  -2.996  0.00  0.00     0.069 H 
ATOM     15  H   LIG d   1      11.406   5.129  -4.976  0.00  0.00     0.066 H 
ENDROOT
BRANCH   9  16
ATOM     16  C   LIG d   1      10.755   5.201  -2.863  0.00  0.00     0.024 A 
ATOM     17  C   LIG d   1       9.923   6.282  -2.523  0.00  0.00     0.172 A 
ATOM     18  C   LIG d   1       9.921   6.767  -1.223  0.00  0.00     0.204 A 
ATOM     19  C   LIG d   1      10.741   6.183  -0.263  0.00  0.00     0.165 A 
ATOM     20  C   LIG d   1      11.565   5.113  -0.599  0.00  0.00    -0.015 A 
ATOM     21  C   LIG d   1      11.576   4.623  -1.884  0.00  0.00    -0.047 A 
ATOM     22  H   LIG d   1      12.195   4.663   0.154  0.00  0.00     0.066 H 
ATOM     23  H   LIG d   1      12.217   3.792  -2.139  0.00  0.00     0.063 H 
BRANCH  17  24
ATOM     24  O   LIG d   1       9.123   6.850  -3.463  0.00  0.00    -0.491 OA
BRANCH  24  25
ATOM     25  C   LIG d   1       9.727   7.802  -4.340  0.00  0.00     0.079 C 
ATOM     26  H   LIG d   1      10.605   8.235  -3.858  0.00  0.00     0.066 H 
ATOM     27  H   LIG d   1      10.028   7.307  -5.263  0.00  0.00     0.066 H 
ATOM     28  H   LIG d   1       9.012   8.592  -4.567  0.00  0.00     0.066 H 
ENDBRANCH  24  25
ENDBRANCH  17  24
BRANCH  18  29
ATOM     29  O   LIG d   1       9.118   7.812  -0.888  0.00  0.00    -0.488 OA
BRANCH  29  30
ATOM     30  C   LIG d   1       9.706   9.115  -0.904  0.00  0.00     0.079 C 
ATOM     31  H   LIG d   1      10.755   9.035  -1.192  0.00  0.00     0.066 H 
ATOM     32  H   LIG d   1       9.179   9.743  -1.622  0.00  0.00     0.066 H 
ATOM     33  H   LIG d   1       9.635   9.558   0.089  0.00  0.00     0.066 H 
ENDBRANCH  29  30
ENDBRANCH  18  29
BRANCH  19  34
ATOM     34  O   LIG d   1      10.737   6.660   1.008  0.00  0.00    -0.491 OA
BRANCH  34  35
ATOM     35  C   LIG d   1      10.910   5.707   2.060  0.00  0.00     0.079 C 
ATOM     36  H   LIG d   1      10.017   5.086   2.138  0.00  0.00     0.066 H 
ATOM     37  H   LIG d   1      11.772   5.076   1.840  0.00  0.00     0.066 H 
ATOM     38  H   LIG d   1      11.073   6.230   3.002  0.00  0.00     0.066 H 
ENDBRANCH  34  35
ENDBRANCH  19  34
ENDBRANCH   9  16
BRANCH   1  39
ATOM     39  O   LIG d   1       5.913  -0.619  -4.417  0.00  0.00    -0.488 OA
BRANCH  39  40
ATOM     40  C   LIG d   1       6.026  -1.156  -3.098  0.00  0.00     0.110 C 
ATOM     41  H   LIG d   1       6.265  -2.217  -3.156  0.00  0.00     0.074 H 
ATOM     42  H   LIG d   1       6.819  -0.635  -2.560  0.00  0.00     0.074 H 
BRANCH  40  43
ATOM     43  C   LIG d   1       4.721  -0.973  -2.367  0.00  0.00    -0.043 C 
ATOM     44  C   LIG d   1       4.457   0.163  -1.771  0.00  0.00    -0.097 C 
ATOM     45  H   LIG d   1       5.176   0.969  -1.804  0.00  0.00     0.053 H 
ATOM     46  H   LIG d   1       3.522   0.294  -1.249  0.00  0.00     0.053 H 
BRANCH  43  47
ATOM     47  C   LIG d   1       3.718  -2.099  -2.321  0.00  0.00    -0.041 C 
ATOM     48  H   LIG d   1       3.778  -2.676  -3.243  0.00  0.00     0.028 H 
ATOM     49  H   LIG d   1       3.938  -2.746  -1.472  0.00  0.00     0.028 H 
ATOM     50  H   LIG d   1       2.715  -1.687  -2.215  0.00  0.00     0.028 H 
ENDBRANCH  43  47
ENDBRANCH  40  43
ENDBRANCH  39  40
ENDBRANCH   1  39
TORSDOF 11
ENDMDL
MODEL 2
REMARK VINA RESULT:      -6.0      1.393      2.344
REMARK  11 active torsions:
REMARK  status: ('A' for Active; 'I' for Inactive)
REMARK    1  A    between atoms: C_1  and  C_2 
REMARK    2  A    between atoms: C_2  and  C_4 
REMARK    3  A    between atoms: C_4  and  O_5 
REMARK    4  A    between atoms: O_5  and  C_6 
REMARK    5  A    between atoms: C_14  and  C_15 
REMARK    6  A    between atoms: C_18  and  O_25 
REMARK    7  A    between atoms: C_19  and  O_23 
REMARK    8  A    between atoms: C_20  and  O_21 
REMARK    9  A    between atoms: O_21  and  C_22 
REMARK   10  A    between atoms: O_23  and  C_24 
REMARK   11  A    between atoms: O_25  and  C_26 
ROOT
ATOM      1  C   LIG d   1       6.503  -0.245  -4.325  0.00  0.00     0.124 A 
ATOM      2  C   LIG d   1       6.871  -0.506  -5.643  0.00  0.00    -0.019 A 
ATOM      3  C   LIG d   1       7.709   0.348  -6.302  0.00  0.00    -0.044 A 
ATOM      4  C   LIG d   1       8.198   1.481  -5.653  0.00  0.00     0.068 A 
ATOM      5  C   LIG d   1       7.834   1.755  -4.325  0.00  0.00     0.143 A 
ATOM      6  C   LIG d   1       6.980   0.876  -3.668  0.00  0.00     0.023 A 
ATOM      7  O   LIG d   1       8.427   2.898  -3.917  0.00  0.00    -0.451 OA
ATOM      8  C   LIG d   1       9.191   3.444  -4.892  0.00  0.00     0.176 A 
ATOM      9  C   LIG d   1       9.915   4.591  -4.797  0.00  0.00    -0.005 C 
ATOM     10  C   LIG d   1       9.092   2.577  -6.072  0.00  0.00     0.232 A 
ATOM     11  O   LIG d   1       9.629   2.728  -7.156  0.00  0.00    -0.283 OA
ATOM     12  H   LIG d   1       6.492  -1.385  -6.143  0.00  0.00     0.065 H 
ATOM     13  H   LIG d   1       7.994   0.143  -7.324  0.00  0.00     0.063 H 
ATOM     14  H   LIG d   1       6.688   1.069  -2.647  0.00  0.00     0.069 H 
ATOM     15  H   LIG d   1      10.399   4.999  -5.672  0.00  0.00     0.066 H 
ENDROOT
BRANCH   9  16
ATOM     16  C   LIG d   1      10.040   5.273  -3.506  0.00  0.00     0.024 A 
ATOM     17  C   LIG d   1      11.013   4.857  -2.580  0.00  0.00     0.172 A 
ATOM     18  C   LIG d   1      11.125   5.509  -1.361  0.00  0.00     0.204 A 
ATOM     19  C   LIG d   1      10.276   6.569  -1.059  0.00  0.00     0.165 A 
ATOM     20  C   LIG d   1       9.312   6.980  -1.975  0.00  0.00    -0.015 A 
ATOM     21  C   LIG d   1       9.191   6.342  -3.188  0.00  0.00    -0.047 A 
ATOM     22  H   LIG d   1       8.659   7.806  -1.735  0.00  0.00     0.066 H 
ATOM     23  H   LIG d   1       8.443   6.666  -3.896  0.00  0.00     0.063 H 
BRANCH  17  24
ATOM     24  O   LIG d   1      11.841   3.822  -2.878  0.00  0.00    -0.491 OA
BRANCH  24  25
ATOM     25  C   LIG d   1      13.021   4.129  -3.623  0.00  0.00     0.079 C 
ATOM     26  H   LIG d   1      13.767   4.567  -2.960  0.00  0.00     0.066 H 
ATOM     27  H   LIG d   1      13.420   3.215  -4.064  0.00  0.00     0.066 H 
ATOM     28  H   LIG d   1      12.778   4.837  -4.414  0.00  0.00     0.066 H 
ENDBRANCH  24  25
ENDBRANCH  17  24
BRANCH  18  29
ATOM     29  O   LIG d   1      12.065   5.113  -0.460  0.00  0.00    -0.488 OA
BRANCH  29  30
ATOM     30  C   LIG d   1      13.308   5.818  -0.468  0.00  0.00     0.079 C 
ATOM     31  H   LIG d   1      13.157   6.825  -0.082  0.00  0.00     0.066 H 
ATOM     32  H   LIG d   1      14.028   5.292   0.160  0.00  0.00     0.066 H 
ATOM     33  H   LIG d   1      13.688   5.873  -1.489  0.00  0.00     0.066 H 
ENDBRANCH  29  30
ENDBRANCH  18  29
BRANCH  19  34
ATOM     34  O   LIG d   1      10.387   7.205   0.135  0.00  0.00    -0.491 OA
BRANCH  34  35
ATOM     35  C   LIG d   1      10.763   8.584   0.104  0.00  0.00     0.079 C 
ATOM     36  H   LIG d   1      10.235   9.123   0.891  0.00  0.00     0.066 H 
ATOM     37  H   LIG d   1      11.838   8.671   0.263  0.00  0.00     0.066 H 
ATOM     38  H   LIG d   1      10.503   9.010  -0.865  0.00  0.00     0.066 H 
ENDBRANCH  34  35
ENDBRANCH  19  34
ENDBRANCH   9  16
BRANCH   1  39
ATOM     39  O   LIG d   1       5.669  -1.099  -3.678  0.00  0.00    -0.488 OA
BRANCH  39  40
ATOM     40  C   LIG d   1       5.156  -0.673  -2.415  0.00  0.00     0.110 C 
ATOM     41  H   LIG d   1       5.108  -1.523  -1.736  0.00  0.00     0.074 H 
ATOM     42  H   LIG d   1       5.812   0.090  -1.995  0.00  0.00     0.074 H 
BRANCH  40  43
ATOM     43  C   LIG d   1       3.775  -0.098  -2.601  0.00  0.00    -0.043 C 
ATOM     44  C   LIG d   1       2.796  -0.866  -3.011  0.00  0.00    -0.097 C 
ATOM     45  H   LIG d   1       2.979  -1.911  -3.216  0.00  0.00     0.053 H 
ATOM     46  H   LIG d   1       1.806  -0.455  -3.144  0.00  0.00     0.053 H 
BRANCH  43  47
ATOM     47  C   LIG d   1       3.520   1.360  -2.315  0.00  0.00    -0.041 C 
ATOM     48  H   LIG d   1       3.812   1.585  -1.290  0.00  0.00     0.028 H 
ATOM     49  H   LIG d   1       4.104   1.972  -3.002  0.00  0.00     0.028 H 
ATOM     50  H   LIG d   1       2.459   1.576  -2.446  0.00  0.00     0.028 H 
ENDBRANCH  43  47
ENDBRANCH  40  43
ENDBRANCH  39  40
ENDBRANCH   1  39
TORSDOF 11
ENDMDL
MODEL 3
REMARK VINA RESULT:      -5.7      1.278      2.455
REMARK  11 active torsions:
REMARK  status: ('A' for Active; 'I' for Inactive)
REMARK    1  A    between atoms: C_1  and  C_2 
REMARK    2  A    between atoms: C_2  and  C_4 
REMARK    3  A    between atoms: C_4  and  O_5 
REMARK    4  A    between atoms: O_5  and  C_6 
REMARK    5  A    between atoms: C_14  and  C_15 
REMARK    6  A    between atoms: C_18  and  O_25 
REMARK    7  A    between atoms: C_19  and  O_23 
REMARK    8  A    between atoms: C_20  and  O_21 
REMARK    9  A    between atoms: O_21  and  C_22 
REMARK   10  A    between atoms: O_23  and  C_24 
REMARK   11  A    between atoms: O_25  and  C_26 
ROOT
ATOM      1  C   LIG d   1       7.276   0.493  -4.278  0.00  0.00     0.124 A 
ATOM      2  C   LIG d   1       8.246  -0.223  -4.976  0.00  0.00    -0.019 A 
ATOM      3  C   LIG d   1       9.502   0.292  -5.127  0.00  0.00    -0.044 A 
ATOM      4  C   LIG d   1       9.814   1.537  -4.582  0.00  0.00     0.068 A 
ATOM      5  C   LIG d   1       8.845   2.269  -3.877  0.00  0.00     0.143 A 
ATOM      6  C   LIG d   1       7.571   1.730  -3.731  0.00  0.00     0.023 A 
ATOM      7  O   LIG d   1       9.377   3.434  -3.448  0.00  0.00    -0.451 OA
ATOM      8  C   LIG d   1      10.673   3.559  -3.817  0.00  0.00     0.176 A 
ATOM      9  C   LIG d   1      11.488   4.613  -3.541  0.00  0.00    -0.005 C 
ATOM     10  C   LIG d   1      11.039   2.356  -4.573  0.00  0.00     0.232 A 
ATOM     11  O   LIG d   1      12.117   2.092  -5.079  0.00  0.00    -0.283 OA
ATOM     12  H   LIG d   1       8.003  -1.188  -5.396  0.00  0.00     0.065 H 
ATOM     13  H   LIG d   1      10.253  -0.266  -5.669  0.00  0.00     0.063 H 
ATOM     14  H   LIG d   1       6.812   2.278  -3.192  0.00  0.00     0.069 H 
ATOM     15  H   LIG d   1      12.473   4.664  -3.980  0.00  0.00     0.066 H 
ENDROOT
BRANCH   9  16
ATOM     16  C   LIG d   1      11.029   5.678  -2.645  0.00  0.00     0.024 A 
ATOM     17  C   LIG d   1      11.586   5.809  -1.360  0.00  0.00     0.172 A 
ATOM     18  C   LIG d   1      11.145   6.820  -0.520  0.00  0.00     0.204 A 
ATOM     19  C   LIG d   1      10.157   7.700  -0.950  0.00  0.00     0.165 A 
ATOM     20  C   LIG d   1       9.606   7.571  -2.221  0.00  0.00    -0.015 A 
ATOM     21  C   LIG d   1      10.034   6.572  -3.064  0.00  0.00    -0.047 A 
ATOM     22  H   LIG d   1       8.842   8.260  -2.549  0.00  0.00     0.066 H 
ATOM     23  H   LIG d   1       9.603   6.476  -4.050  0.00  0.00     0.063 H 
BRANCH  17  24
ATOM     24  O   LIG d   1      12.551   4.948  -0.944  0.00  0.00    -0.491 OA
BRANCH  24  25
ATOM     25  C   LIG d   1      13.908   5.365  -1.108  0.00  0.00     0.079 C 
ATOM     26  H   LIG d   1      14.387   5.437  -0.132  0.00  0.00     0.066 H 
ATOM     27  H   LIG d   1      14.440   4.638  -1.721  0.00  0.00     0.066 H 
ATOM     28  H   LIG d   1      13.932   6.339  -1.597  0.00  0.00     0.066 H 
ENDBRANCH  24  25
ENDBRANCH  17  24
BRANCH  18  29
ATOM     29  O   LIG d   1      11.680   6.953   0.724  0.00  0.00    -0.488 OA
BRANCH  29  30
ATOM     30  C   LIG d   1      11.081   6.188   1.772  0.00  0.00     0.079 C 
ATOM     31  H   LIG d   1      11.672   6.294   2.682  0.00  0.00     0.066 H 
ATOM     32  H   LIG d   1      10.068   6.548   1.952  0.00  0.00     0.066 H 
ATOM     33  H   LIG d   1      11.048   5.138   1.481  0.00  0.00     0.066 H 
ENDBRANCH  29  30
ENDBRANCH  18  29
BRANCH  19  34
ATOM     34  O   LIG d   1       9.728   8.689  -0.125  0.00  0.00    -0.491 OA
BRANCH  34  35
ATOM     35  C   LIG d   1       9.277   9.898  -0.740  0.00  0.00     0.079 C 
ATOM     36  H   LIG d   1       9.345   9.801  -1.824  0.00  0.00     0.066 H 
ATOM     37  H   LIG d   1       8.241  10.085  -0.457  0.00  0.00     0.066 H 
ATOM     38  H   LIG d   1       9.900  10.729  -0.410  0.00  0.00     0.066 H 
ENDBRANCH  34  35
ENDBRANCH  19  34
ENDBRANCH   9  16
BRANCH   1  39
ATOM     39  O   LIG d   1       6.031  -0.027  -4.131  0.00  0.00    -0.488 OA
BRANCH  39  40
ATOM     40  C   LIG d   1       5.903  -1.177  -3.293  0.00  0.00     0.110 C 
ATOM     41  H   LIG d   1       5.792  -2.068  -3.911  0.00  0.00     0.074 H 
ATOM     42  H   LIG d   1       6.794  -1.275  -2.672  0.00  0.00     0.074 H 
BRANCH  40  43
ATOM     43  C   LIG d   1       4.691  -1.024  -2.411  0.00  0.00    -0.043 C 
ATOM     44  C   LIG d   1       4.466   0.112  -1.799  0.00  0.00    -0.097 C 
ATOM     45  H   LIG d   1       5.149   0.939  -1.927  0.00  0.00     0.053 H 
ATOM     46  H   LIG d   1       3.596   0.223  -1.168  0.00  0.00     0.053 H 
BRANCH  43  47
ATOM     47  C   LIG d   1       3.737  -2.178  -2.233  0.00  0.00    -0.041 C 
ATOM     48  H   LIG d   1       4.251  -3.112  -2.455  0.00  0.00     0.028 H 
ATOM     49  H   LIG d   1       3.377  -2.196  -1.204  0.00  0.00     0.028 H 
ATOM     50  H   LIG d   1       2.892  -2.058  -2.911  0.00  0.00     0.028 H 
ENDBRANCH  43  47
ENDBRANCH  40  43
ENDBRANCH  39  40
ENDBRANCH   1  39
TORSDOF 11
ENDMDL
MODEL 4
REMARK VINA RESULT:      -5.6      7.162     12.670
REMARK  11 active torsions:
REMARK  status: ('A' for Active; 'I' for Inactive)
REMARK    1  A    between atoms: C_1  and  C_2 
REMARK    2  A    between atoms: C_2  and  C_4 
REMARK    3  A    between atoms: C_4  and  O_5 
REMARK    4  A    between atoms: O_5  and  C_6 
REMARK    5  A    between atoms: C_14  and  C_15 
REMARK    6  A    between atoms: C_18  and  O_25 
REMARK    7  A    between atoms: C_19  and  O_23 
REMARK    8  A    between atoms: C_20  and  O_21 
REMARK    9  A    between atoms: O_21  and  C_22 
REMARK   10  A    between atoms: O_23  and  C_24 
REMARK   11  A    between atoms: O_25  and  C_26 
ROOT
ATOM      1  C   LIG d   1       4.781  -2.641  -5.611  0.00  0.00     0.124 A 
ATOM      2  C   LIG d   1       4.262  -2.677  -6.903  0.00  0.00    -0.019 A 
ATOM      3  C   LIG d   1       4.055  -3.875  -7.525  0.00  0.00    -0.044 A 
ATOM      4  C   LIG d   1       4.363  -5.065  -6.865  0.00  0.00     0.068 A 
ATOM      5  C   LIG d   1       4.887  -5.041  -5.563  0.00  0.00     0.143 A 
ATOM      6  C   LIG d   1       5.092  -3.814  -4.943  0.00  0.00     0.023 A 
ATOM      7  O   LIG d   1       5.105  -6.304  -5.137  0.00  0.00    -0.451 OA
ATOM      8  C   LIG d   1       4.760  -7.217  -6.075  0.00  0.00     0.176 A 
ATOM      9  C   LIG d   1       4.857  -8.568  -5.955  0.00  0.00    -0.005 C 
ATOM     10  C   LIG d   1       4.267  -6.485  -7.248  0.00  0.00     0.232 A 
ATOM     11  O   LIG d   1       3.867  -6.948  -8.303  0.00  0.00    -0.283 OA
ATOM     12  H   LIG d   1       4.023  -1.756  -7.412  0.00  0.00     0.065 H 
ATOM     13  H   LIG d   1       3.652  -3.901  -8.528  0.00  0.00     0.063 H 
ATOM     14  H   LIG d   1       5.494  -3.775  -3.942  0.00  0.00     0.069 H 
ATOM     15  H   LIG d   1       4.662  -9.202  -6.807  0.00  0.00     0.066 H 
ENDROOT
BRANCH   9  16
ATOM     16  C   LIG d   1       5.225  -9.164  -4.668  0.00  0.00     0.024 A 
ATOM     17  C   LIG d   1       6.571  -9.190  -4.261  0.00  0.00     0.172 A 
ATOM     18  C   LIG d   1       6.909  -9.755  -3.041  0.00  0.00     0.204 A 
ATOM     19  C   LIG d   1       5.919 -10.293  -2.225  0.00  0.00     0.165 A 
ATOM     20  C   LIG d   1       4.587 -10.268  -2.628  0.00  0.00    -0.015 A 
ATOM     21  C   LIG d   1       4.238  -9.710  -3.835  0.00  0.00    -0.047 A 
ATOM     22  H   LIG d   1       3.824 -10.684  -1.987  0.00  0.00     0.066 H 
ATOM     23  H   LIG d   1       3.203  -9.692  -4.143  0.00  0.00     0.063 H 
BRANCH  17  24
ATOM     24  O   LIG d   1       7.536  -8.664  -5.059  0.00  0.00    -0.491 OA
BRANCH  24  25
ATOM     25  C   LIG d   1       8.214  -9.563  -5.938  0.00  0.00     0.079 C 
ATOM     26  H   LIG d   1       9.271  -9.604  -5.672  0.00  0.00     0.066 H 
ATOM     27  H   LIG d   1       7.778 -10.559  -5.846  0.00  0.00     0.066 H 
ATOM     28  H   LIG d   1       8.111  -9.215  -6.965  0.00  0.00     0.066 H 
ENDBRANCH  24  25
ENDBRANCH  17  24
BRANCH  18  29
ATOM     29  O   LIG d   1       8.210  -9.783  -2.640  0.00  0.00    -0.488 OA
BRANCH  29  30
ATOM     30  C   LIG d   1       8.700  -8.632  -1.950  0.00  0.00     0.079 C 
ATOM     31  H   LIG d   1       9.650  -8.874  -1.472  0.00  0.00     0.066 H 
ATOM     32  H   LIG d   1       8.847  -7.818  -2.659  0.00  0.00     0.066 H 
ATOM     33  H   LIG d   1       7.978  -8.330  -1.191  0.00  0.00     0.066 H 
ENDBRANCH  29  30
ENDBRANCH  18  29
BRANCH  19  34
ATOM     34  O   LIG d   1       6.253 -10.846  -1.031  0.00  0.00    -0.491 OA
BRANCH  34  35
ATOM     35  C   LIG d   1       6.446 -12.262  -1.002  0.00  0.00     0.079 C 
ATOM     36  H   LIG d   1       6.664 -12.620  -2.009  0.00  0.00     0.066 H 
ATOM     37  H   LIG d   1       7.281 -12.502  -0.343  0.00  0.00     0.066 H 
ATOM     38  H   LIG d   1       5.541 -12.745  -0.633  0.00  0.00     0.066 H 
ENDBRANCH  34  35
ENDBRANCH  19  34
ENDBRANCH   9  16
BRANCH   1  39
ATOM     39  O   LIG d   1       4.983  -1.446  -5.000  0.00  0.00    -0.488 OA
BRANCH  39  40
ATOM     40  C   LIG d   1       3.850  -0.834  -4.381  0.00  0.00     0.110 C 
ATOM     41  H   LIG d   1       3.765   0.199  -4.716  0.00  0.00     0.074 H 
ATOM     42  H   LIG d   1       2.947  -1.380  -4.655  0.00  0.00     0.074 H 
BRANCH  40  43
ATOM     43  C   LIG d   1       4.019  -0.865  -2.883  0.00  0.00    -0.043 C 
ATOM     44  C   LIG d   1       3.837  -1.983  -2.227  0.00  0.00    -0.097 C 
ATOM     45  H   LIG d   1       3.565  -2.883  -2.758  0.00  0.00     0.053 H 
ATOM     46  H   LIG d   1       3.959  -2.005  -1.154  0.00  0.00     0.053 H 
BRANCH  43  47
ATOM     47  C   LIG d   1       4.398   0.392  -2.142  0.00  0.00    -0.041 C 
ATOM     48  H   LIG d   1       5.390   0.714  -2.455  0.00  0.00     0.028 H 
ATOM     49  H   LIG d   1       3.674   1.177  -2.364  0.00  0.00     0.028 H 
ATOM     50  H   LIG d   1       4.401   0.194  -1.070  0.00  0.00     0.028 H 
ENDBRANCH  43  47
ENDBRANCH  40  43
ENDBRANCH  39  40
ENDBRANCH   1  39
TORSDOF 11
ENDMDL
MODEL 5
REMARK VINA RESULT:      -5.5      6.799      9.518
REMARK  11 active torsions:
REMARK  status: ('A' for Active; 'I' for Inactive)
REMARK    1  A    between atoms: C_1  and  C_2 
REMARK    2  A    between atoms: C_2  and  C_4 
REMARK    3  A    between atoms: C_4  and  O_5 
REMARK    4  A    between atoms: O_5  and  C_6 
REMARK    5  A    between atoms: C_14  and  C_15 
REMARK    6  A    between atoms: C_18  and  O_25 
REMARK    7  A    between atoms: C_19  and  O_23 
REMARK    8  A    between atoms: C_20  and  O_21 
REMARK    9  A    between atoms: O_21  and  C_22 
REMARK   10  A    between atoms: O_23  and  C_24 
REMARK   11  A    between atoms: O_25  and  C_26 
ROOT
ATOM      1  C   LIG d   1       5.227  -8.613  -5.729  0.00  0.00     0.124 A 
ATOM      2  C   LIG d   1       6.554  -8.992  -5.921  0.00  0.00    -0.019 A 
ATOM      3  C   LIG d   1       7.547  -8.056  -5.880  0.00  0.00    -0.044 A 
ATOM      4  C   LIG d   1       7.233  -6.717  -5.645  0.00  0.00     0.068 A 
ATOM      5  C   LIG d   1       5.900  -6.323  -5.451  0.00  0.00     0.143 A 
ATOM      6  C   LIG d   1       4.900  -7.288  -5.495  0.00  0.00     0.023 A 
ATOM      7  O   LIG d   1       5.845  -4.989  -5.244  0.00  0.00    -0.451 OA
ATOM      8  C   LIG d   1       7.075  -4.424  -5.283  0.00  0.00     0.176 A 
ATOM      9  C   LIG d   1       7.358  -3.105  -5.113  0.00  0.00    -0.005 C 
ATOM     10  C   LIG d   1       8.046  -5.491  -5.549  0.00  0.00     0.232 A 
ATOM     11  O   LIG d   1       9.256  -5.388  -5.663  0.00  0.00    -0.283 OA
ATOM     12  H   LIG d   1       6.796 -10.029  -6.101  0.00  0.00     0.065 H 
ATOM     13  H   LIG d   1       8.575  -8.352  -6.029  0.00  0.00     0.063 H 
ATOM     14  H   LIG d   1       3.869  -7.004  -5.348  0.00  0.00     0.069 H 
ATOM     15  H   LIG d   1       8.362  -2.742  -5.278  0.00  0.00     0.066 H 
ENDROOT
BRANCH   9  16
ATOM     16  C   LIG d   1       6.301  -2.176  -4.703  0.00  0.00     0.024 A 
ATOM     17  C   LIG d   1       5.728  -1.300  -5.642  0.00  0.00     0.172 A 
ATOM     18  C   LIG d   1       4.728  -0.426  -5.245  0.00  0.00     0.204 A 
ATOM     19  C   LIG d   1       4.296  -0.417  -3.923  0.00  0.00     0.165 A 
ATOM     20  C   LIG d   1       4.863  -1.283  -2.994  0.00  0.00    -0.015 A 
ATOM     21  C   LIG d   1       5.856  -2.156  -3.374  0.00  0.00    -0.047 A 
ATOM     22  H   LIG d   1       4.520  -1.274  -1.970  0.00  0.00     0.066 H 
ATOM     23  H   LIG d   1       6.292  -2.827  -2.649  0.00  0.00     0.063 H 
BRANCH  17  24
ATOM     24  O   LIG d   1       6.152  -1.311  -6.933  0.00  0.00    -0.491 OA
BRANCH  24  25
ATOM     25  C   LIG d   1       5.494  -2.213  -7.825  0.00  0.00     0.079 C 
ATOM     26  H   LIG d   1       4.658  -2.689  -7.310  0.00  0.00     0.066 H 
ATOM     27  H   LIG d   1       5.121  -1.663  -8.689  0.00  0.00     0.066 H 
ATOM     28  H   LIG d   1       6.198  -2.976  -8.155  0.00  0.00     0.066 H 
ENDBRANCH  24  25
ENDBRANCH  17  24
BRANCH  18  29
ATOM     29  O   LIG d   1       4.169   0.424  -6.149  0.00  0.00    -0.488 OA
BRANCH  29  30
ATOM     30  C   LIG d   1       2.919   0.032  -6.722  0.00  0.00     0.079 C 
ATOM     31  H   LIG d   1       2.134   0.705  -6.377  0.00  0.00     0.066 H 
ATOM     32  H   LIG d   1       2.986   0.078  -7.808  0.00  0.00     0.066 H 
ATOM     33  H   LIG d   1       2.684  -0.988  -6.415  0.00  0.00     0.066 H 
ENDBRANCH  29  30
ENDBRANCH  18  29
BRANCH  19  34
ATOM     34  O   LIG d   1       3.317   0.440  -3.538  0.00  0.00    -0.491 OA
BRANCH  34  35
ATOM     35  C   LIG d   1       3.638   1.368  -2.498  0.00  0.00     0.079 C 
ATOM     36  H   LIG d   1       4.677   1.232  -2.198  0.00  0.00     0.066 H 
ATOM     37  H   LIG d   1       3.496   2.385  -2.863  0.00  0.00     0.066 H 
ATOM     38  H   LIG d   1       2.986   1.194  -1.642  0.00  0.00     0.066 H 
ENDBRANCH  34  35
ENDBRANCH  19  34
ENDBRANCH   9  16
BRANCH   1  39
ATOM     39  O   LIG d   1       4.247  -9.550  -5.770  0.00  0.00    -0.488 OA
BRANCH  39  40
ATOM     40  C   LIG d   1       4.466 -10.752  -5.029  0.00  0.00     0.110 C 
ATOM     41  H   LIG d   1       3.779 -11.523  -5.374  0.00  0.00     0.074 H 
ATOM     42  H   LIG d   1       5.493 -11.088  -5.177  0.00  0.00     0.074 H 
BRANCH  40  43
ATOM     43  C   LIG d   1       4.231 -10.488  -3.563  0.00  0.00    -0.043 C 
ATOM     44  C   LIG d   1       3.028 -10.201  -3.134  0.00  0.00    -0.097 C 
ATOM     45  H   LIG d   1       2.204 -10.152  -3.831  0.00  0.00     0.053 H 
ATOM     46  H   LIG d   1       2.860 -10.013  -2.084  0.00  0.00     0.053 H 
BRANCH  43  47
ATOM     47  C   LIG d   1       5.382 -10.556  -2.591  0.00  0.00    -0.041 C 
ATOM     48  H   LIG d   1       5.113 -11.198  -1.754  0.00  0.00     0.028 H 
ATOM     49  H   LIG d   1       6.259 -10.963  -3.095  0.00  0.00     0.028 H 
ATOM     50  H   LIG d   1       5.607  -9.554  -2.224  0.00  0.00     0.028 H 
ENDBRANCH  43  47
ENDBRANCH  40  43
ENDBRANCH  39  40
ENDBRANCH   1  39
TORSDOF 11
ENDMDL
MODEL 6
REMARK VINA RESULT:      -5.4      6.747     10.058
REMARK  11 active torsions:
REMARK  status: ('A' for Active; 'I' for Inactive)
REMARK    1  A    between atoms: C_1  and  C_2 
REMARK    2  A    between atoms: C_2  and  C_4 
REMARK    3  A    between atoms: C_4  and  O_5 
REMARK    4  A    between atoms: O_5  and  C_6 
REMARK    5  A    between atoms: C_14  and  C_15 
REMARK    6  A    between atoms: C_18  and  O_25 
REMARK    7  A    between atoms: C_19  and  O_23 
REMARK    8  A    between atoms: C_20  and  O_21 
REMARK    9  A    between atoms: O_21  and  C_22 
REMARK   10  A    between atoms: O_23  and  C_24 
REMARK   11  A    between atoms: O_25  and  C_26 
ROOT
ATOM      1  C   LIG d   1       0.698  -3.340 -11.519  0.00  0.00     0.124 A 
ATOM      2  C   LIG d   1       1.097  -2.555 -12.598  0.00  0.00    -0.019 A 
ATOM      3  C   LIG d   1       1.860  -1.441 -12.390  0.00  0.00    -0.044 A 
ATOM      4  C   LIG d   1       2.241  -1.090 -11.095  0.00  0.00     0.068 A 
ATOM      5  C   LIG d   1       1.845  -1.873 -10.000  0.00  0.00     0.143 A 
ATOM      6  C   LIG d   1       1.068  -3.004 -10.228  0.00  0.00     0.023 A 
ATOM      7  O   LIG d   1       2.329  -1.338  -8.858  0.00  0.00    -0.451 OA
ATOM      8  C   LIG d   1       3.048  -0.216  -9.095  0.00  0.00     0.176 A 
ATOM      9  C   LIG d   1       3.665   0.555  -8.161  0.00  0.00    -0.005 C 
ATOM     10  C   LIG d   1       3.035   0.023 -10.543  0.00  0.00     0.232 A 
ATOM     11  O   LIG d   1       3.564   0.936 -11.154  0.00  0.00    -0.283 OA
ATOM     12  H   LIG d   1       0.803  -2.828 -13.600  0.00  0.00     0.065 H 
ATOM     13  H   LIG d   1       2.169  -0.833 -13.229  0.00  0.00     0.063 H 
ATOM     14  H   LIG d   1       0.754  -3.619  -9.398  0.00  0.00     0.069 H 
ATOM     15  H   LIG d   1       4.116   1.494  -8.446  0.00  0.00     0.066 H 
ENDROOT
BRANCH   9  16
ATOM     16  C   LIG d   1       3.720   0.110  -6.765  0.00  0.00     0.024 A 
ATOM     17  C   LIG d   1       4.801  -0.668  -6.314  0.00  0.00     0.172 A 
ATOM     18  C   LIG d   1       4.844  -1.084  -4.992  0.00  0.00     0.204 A 
ATOM     19  C   LIG d   1       3.821  -0.730  -4.118  0.00  0.00     0.165 A 
ATOM     20  C   LIG d   1       2.751   0.039  -4.564  0.00  0.00    -0.015 A 
ATOM     21  C   LIG d   1       2.696   0.458  -5.873  0.00  0.00    -0.047 A 
ATOM     22  H   LIG d   1       1.963   0.313  -3.879  0.00  0.00     0.066 H 
ATOM     23  H   LIG d   1       1.864   1.056  -6.214  0.00  0.00     0.063 H 
BRANCH  17  24
ATOM     24  O   LIG d   1       5.799  -1.011  -7.170  0.00  0.00    -0.491 OA
BRANCH  24  25
ATOM     25  C   LIG d   1       5.746  -2.321  -7.738  0.00  0.00     0.079 C 
ATOM     26  H   LIG d   1       5.098  -2.311  -8.615  0.00  0.00     0.066 H 
ATOM     27  H   LIG d   1       6.749  -2.631  -8.031  0.00  0.00     0.066 H 
ATOM     28  H   LIG d   1       5.349  -3.020  -7.002  0.00  0.00     0.066 H 
ENDBRANCH  24  25
ENDBRANCH  17  24
BRANCH  18  29
ATOM     29  O   LIG d   1       5.888  -1.836  -4.549  0.00  0.00    -0.488 OA
BRANCH  29  30
ATOM     30  C   LIG d   1       7.047  -1.135  -4.095  0.00  0.00     0.079 C 
ATOM     31  H   LIG d   1       7.286  -0.336  -4.797  0.00  0.00     0.066 H 
ATOM     32  H   LIG d   1       6.852  -0.708  -3.111  0.00  0.00     0.066 H 
ATOM     33  H   LIG d   1       7.888  -1.826  -4.031  0.00  0.00     0.066 H 
ENDBRANCH  29  30
ENDBRANCH  18  29
BRANCH  19  34
ATOM     34  O   LIG d   1       3.866  -1.139  -2.824  0.00  0.00    -0.491 OA
BRANCH  34  35
ATOM     35  C   LIG d   1       4.290  -0.178  -1.854  0.00  0.00     0.079 C 
ATOM     36  H   LIG d   1       3.509   0.570  -1.719  0.00  0.00     0.066 H 
ATOM     37  H   LIG d   1       4.481  -0.680  -0.906  0.00  0.00     0.066 H 
ATOM     38  H   LIG d   1       5.203   0.308  -2.198  0.00  0.00     0.066 H 
ENDBRANCH  34  35
ENDBRANCH  19  34
ENDBRANCH   9  16
BRANCH   1  39
ATOM     39  O   LIG d   1      -0.059  -4.445 -11.736  0.00  0.00    -0.488 OA
BRANCH  39  40
ATOM     40  C   LIG d   1      -0.033  -5.457 -10.727  0.00  0.00     0.110 C 
ATOM     41  H   LIG d   1       0.382  -6.375 -11.143  0.00  0.00     0.074 H 
ATOM     42  H   LIG d   1       0.587  -5.124  -9.894  0.00  0.00     0.074 H 
BRANCH  40  43
ATOM     43  C   LIG d   1      -1.434  -5.716 -10.237  0.00  0.00    -0.043 C 
ATOM     44  C   LIG d   1      -2.409  -4.913 -10.587  0.00  0.00    -0.097 C 
ATOM     45  H   LIG d   1      -2.207  -4.066 -11.226  0.00  0.00     0.053 H 
ATOM     46  H   LIG d   1      -3.413  -5.100 -10.237  0.00  0.00     0.053 H 
BRANCH  43  47
ATOM     47  C   LIG d   1      -1.715  -6.899  -9.345  0.00  0.00    -0.041 C 
ATOM     48  H   LIG d   1      -0.969  -7.672  -9.522  0.00  0.00     0.028 H 
ATOM     49  H   LIG d   1      -1.673  -6.585  -8.302  0.00  0.00     0.028 H 
ATOM     50  H   LIG d   1      -2.707  -7.293  -9.567  0.00  0.00     0.028 H 
ENDBRANCH  43  47
ENDBRANCH  40  43
ENDBRANCH  39  40
ENDBRANCH   1  39
TORSDOF 11
ENDMDL
MODEL 7
REMARK VINA RESULT:      -5.3      1.866      2.229
REMARK  11 active torsions:
REMARK  status: ('A' for Active; 'I' for Inactive)
REMARK    1  A    between atoms: C_1  and  C_2 
REMARK    2  A    between atoms: C_2  and  C_4 
REMARK    3  A    between atoms: C_4  and  O_5 
REMARK    4  A    between atoms: O_5  and  C_6 
REMARK    5  A    between atoms: C_14  and  C_15 
REMARK    6  A    between atoms: C_18  and  O_25 
REMARK    7  A    between atoms: C_19  and  O_23 
REMARK    8  A    between atoms: C_20  and  O_21 
REMARK    9  A    between atoms: O_21  and  C_22 
REMARK   10  A    between atoms: O_23  and  C_24 
REMARK   11  A    between atoms: O_25  and  C_26 
ROOT
ATOM      1  C   LIG d   1       7.415   0.555  -4.130  0.00  0.00     0.124 A 
ATOM      2  C   LIG d   1       7.406   0.132  -5.457  0.00  0.00    -0.019 A 
ATOM      3  C   LIG d   1       7.975   0.908  -6.427  0.00  0.00    -0.044 A 
ATOM      4  C   LIG d   1       8.565   2.125  -6.088  0.00  0.00     0.068 A 
ATOM      5  C   LIG d   1       8.580   2.562  -4.754  0.00  0.00     0.143 A 
ATOM      6  C   LIG d   1       7.997   1.761  -3.778  0.00  0.00     0.023 A 
ATOM      7  O   LIG d   1       9.200   3.759  -4.674  0.00  0.00    -0.451 OA
ATOM      8  C   LIG d   1       9.625   4.187  -5.887  0.00  0.00     0.176 A 
ATOM      9  C   LIG d   1      10.282   5.349  -6.143  0.00  0.00    -0.005 C 
ATOM     10  C   LIG d   1       9.241   3.172  -6.875  0.00  0.00     0.232 A 
ATOM     11  O   LIG d   1       9.439   3.191  -8.078  0.00  0.00    -0.283 OA
ATOM     12  H   LIG d   1       6.950  -0.811  -5.717  0.00  0.00     0.065 H 
ATOM     13  H   LIG d   1       7.968   0.577  -7.456  0.00  0.00     0.063 H 
ATOM     14  H   LIG d   1       7.998   2.081  -2.747  0.00  0.00     0.069 H 
ATOM     15  H   LIG d   1      10.473   5.649  -7.163  0.00  0.00     0.066 H 
ENDROOT
BRANCH   9  16
ATOM     16  C   LIG d   1      10.732   6.196  -5.035  0.00  0.00     0.024 A 
ATOM     17  C   LIG d   1      10.087   7.417  -4.772  0.00  0.00     0.172 A 
ATOM     18  C   LIG d   1      10.520   8.211  -3.720  0.00  0.00     0.204 A 
ATOM     19  C   LIG d   1      11.588   7.797  -2.931  0.00  0.00     0.165 A 
ATOM     20  C   LIG d   1      12.226   6.588  -3.191  0.00  0.00    -0.015 A 
ATOM     21  C   LIG d   1      11.807   5.792  -4.231  0.00  0.00    -0.047 A 
ATOM     22  H   LIG d   1      13.052   6.272  -2.571  0.00  0.00     0.066 H 
ATOM     23  H   LIG d   1      12.306   4.854  -4.428  0.00  0.00     0.063 H 
BRANCH  17  24
ATOM     24  O   LIG d   1       9.044   7.818  -5.544  0.00  0.00    -0.491 OA
BRANCH  24  25
ATOM     25  C   LIG d   1       9.359   8.535  -6.739  0.00  0.00     0.079 C 
ATOM     26  H   LIG d   1      10.015   9.373  -6.499  0.00  0.00     0.066 H 
ATOM     27  H   LIG d   1       9.864   7.870  -7.440  0.00  0.00     0.066 H 
ATOM     28  H   LIG d   1       8.442   8.911  -7.191  0.00  0.00     0.066 H 
ENDBRANCH  24  25
ENDBRANCH  17  24
BRANCH  18  29
ATOM     29  O   LIG d   1       9.899   9.394  -3.460  0.00  0.00    -0.488 OA
BRANCH  29  30
ATOM     30  C   LIG d   1      10.504  10.574  -3.993  0.00  0.00     0.079 C 
ATOM     31  H   LIG d   1       9.820  11.415  -3.879  0.00  0.00     0.066 H 
ATOM     32  H   LIG d   1      11.430  10.782  -3.458  0.00  0.00     0.066 H 
ATOM     33  H   LIG d   1      10.721  10.424  -5.051  0.00  0.00     0.066 H 
ENDBRANCH  29  30
ENDBRANCH  18  29
BRANCH  19  34
ATOM     34  O   LIG d   1      12.009   8.576  -1.902  0.00  0.00    -0.491 OA
BRANCH  34  35
ATOM     35  C   LIG d   1      11.599   8.193  -0.587  0.00  0.00     0.079 C 
ATOM     36  H   LIG d   1      11.588   9.070   0.060  0.00  0.00     0.066 H 
ATOM     37  H   LIG d   1      10.599   7.761  -0.630  0.00  0.00     0.066 H 
ATOM     38  H   LIG d   1      12.297   7.456  -0.188  0.00  0.00     0.066 H 
ENDBRANCH  34  35
ENDBRANCH  19  34
ENDBRANCH   9  16
BRANCH   1  39
ATOM     39  O   LIG d   1       6.848  -0.222  -3.172  0.00  0.00    -0.488 OA
BRANCH  39  40
ATOM     40  C   LIG d   1       5.732  -1.023  -3.564  0.00  0.00     0.110 C 
ATOM     41  H   LIG d   1       5.345  -0.667  -4.517  0.00  0.00     0.074 H 
ATOM     42  H   LIG d   1       6.049  -2.062  -3.666  0.00  0.00     0.074 H 
BRANCH  40  43
ATOM     43  C   LIG d   1       4.653  -0.930  -2.516  0.00  0.00    -0.043 C 
ATOM     44  C   LIG d   1       3.890  -1.965  -2.266  0.00  0.00    -0.097 C 
ATOM     45  H   LIG d   1       4.034  -2.885  -2.813  0.00  0.00     0.053 H 
ATOM     46  H   LIG d   1       3.118  -1.897  -1.514  0.00  0.00     0.053 H 
BRANCH  43  47
ATOM     47  C   LIG d   1       4.453   0.356  -1.753  0.00  0.00    -0.041 C 
ATOM     48  H   LIG d   1       3.388   0.576  -1.685  0.00  0.00     0.028 H 
ATOM     49  H   LIG d   1       4.867   0.251  -0.750  0.00  0.00     0.028 H 
ATOM     50  H   LIG d   1       4.960   1.169  -2.272  0.00  0.00     0.028 H 
ENDBRANCH  43  47
ENDBRANCH  40  43
ENDBRANCH  39  40
ENDBRANCH   1  39
TORSDOF 11
ENDMDL
MODEL 8
REMARK VINA RESULT:      -5.2      1.595      8.128
REMARK  11 active torsions:
REMARK  status: ('A' for Active; 'I' for Inactive)
REMARK    1  A    between atoms: C_1  and  C_2 
REMARK    2  A    between atoms: C_2  and  C_4 
REMARK    3  A    between atoms: C_4  and  O_5 
REMARK    4  A    between atoms: O_5  and  C_6 
REMARK    5  A    between atoms: C_14  and  C_15 
REMARK    6  A    between atoms: C_18  and  O_25 
REMARK    7  A    between atoms: C_19  and  O_23 
REMARK    8  A    between atoms: C_20  and  O_21 
REMARK    9  A    between atoms: O_21  and  C_22 
REMARK   10  A    between atoms: O_23  and  C_24 
REMARK   11  A    between atoms: O_25  and  C_26 
ROOT
ATOM      1  C   LIG d   1      11.210   5.689  -1.984  0.00  0.00     0.124 A 
ATOM      2  C   LIG d   1      11.557   6.288  -3.192  0.00  0.00    -0.019 A 
ATOM      3  C   LIG d   1      11.090   5.778  -4.370  0.00  0.00    -0.044 A 
ATOM      4  C   LIG d   1      10.264   4.655  -4.362  0.00  0.00     0.068 A 
ATOM      5  C   LIG d   1       9.908   4.041  -3.150  0.00  0.00     0.143 A 
ATOM      6  C   LIG d   1      10.391   4.573  -1.960  0.00  0.00     0.023 A 
ATOM      7  O   LIG d   1       9.108   2.980  -3.395  0.00  0.00    -0.451 OA
ATOM      8  C   LIG d   1       8.884   2.815  -4.720  0.00  0.00     0.176 A 
ATOM      9  C   LIG d   1       8.124   1.843  -5.291  0.00  0.00    -0.005 C 
ATOM     10  C   LIG d   1       9.613   3.873  -5.429  0.00  0.00     0.232 A 
ATOM     11  O   LIG d   1       9.668   4.063  -6.633  0.00  0.00    -0.283 OA
ATOM     12  H   LIG d   1      12.196   7.159  -3.196  0.00  0.00     0.065 H 
ATOM     13  H   LIG d   1      11.360   6.245  -5.306  0.00  0.00     0.063 H 
ATOM     14  H   LIG d   1      10.128   4.115  -1.018  0.00  0.00     0.069 H 
ATOM     15  H   LIG d   1       8.104   1.733  -6.365  0.00  0.00     0.066 H 
ENDROOT
BRANCH   9  16
ATOM     16  C   LIG d   1       7.331   0.944  -4.448  0.00  0.00     0.024 A 
ATOM     17  C   LIG d   1       7.540  -0.445  -4.505  0.00  0.00     0.172 A 
ATOM     18  C   LIG d   1       6.785  -1.287  -3.702  0.00  0.00     0.204 A 
ATOM     19  C   LIG d   1       5.826  -0.756  -2.846  0.00  0.00     0.165 A 
ATOM     20  C   LIG d   1       5.619   0.618  -2.789  0.00  0.00    -0.015 A 
ATOM     21  C   LIG d   1       6.361   1.465  -3.579  0.00  0.00    -0.047 A 
ATOM     22  H   LIG d   1       4.875   1.023  -2.119  0.00  0.00     0.066 H 
ATOM     23  H   LIG d   1       6.197   2.531  -3.531  0.00  0.00     0.063 H 
BRANCH  17  24
ATOM     24  O   LIG d   1       8.477  -0.961  -5.342  0.00  0.00    -0.491 OA
BRANCH  24  25
ATOM     25  C   LIG d   1       8.080  -1.198  -6.694  0.00  0.00     0.079 C 
ATOM     26  H   LIG d   1       8.752  -1.928  -7.148  0.00  0.00     0.066 H 
ATOM     27  H   LIG d   1       7.061  -1.583  -6.711  0.00  0.00     0.066 H 
ATOM     28  H   LIG d   1       8.126  -0.265  -7.255  0.00  0.00     0.066 H 
ENDBRANCH  24  25
ENDBRANCH  17  24
BRANCH  18  29
ATOM     29  O   LIG d   1       6.982  -2.633  -3.752  0.00  0.00    -0.488 OA
BRANCH  29  30
ATOM     30  C   LIG d   1       6.182  -3.372  -4.677  0.00  0.00     0.079 C 
ATOM     31  H   LIG d   1       6.342  -4.439  -4.524  0.00  0.00     0.066 H 
ATOM     32  H   LIG d   1       5.130  -3.136  -4.517  0.00  0.00     0.066 H 
ATOM     33  H   LIG d   1       6.464  -3.105  -5.696  0.00  0.00     0.066 H 
ENDBRANCH  29  30
ENDBRANCH  18  29
BRANCH  19  34
ATOM     34  O   LIG d   1       5.088  -1.583  -2.061  0.00  0.00    -0.491 OA
BRANCH  34  35
ATOM     35  C   LIG d   1       3.738  -1.826  -2.463  0.00  0.00     0.079 C 
ATOM     36  H   LIG d   1       3.477  -1.157  -3.283  0.00  0.00     0.066 H 
ATOM     37  H   LIG d   1       3.638  -2.860  -2.794  0.00  0.00     0.066 H 
ATOM     38  H   LIG d   1       3.070  -1.648  -1.621  0.00  0.00     0.066 H 
ENDBRANCH  34  35
ENDBRANCH  19  34
ENDBRANCH   9  16
BRANCH   1  39
ATOM     39  O   LIG d   1      11.679   6.204  -0.818  0.00  0.00    -0.488 OA
BRANCH  39  40
ATOM     40  C   LIG d   1      10.712   6.720   0.098  0.00  0.00     0.110 C 
ATOM     41  H   LIG d   1       9.785   6.155   0.006  0.00  0.00     0.074 H 
ATOM     42  H   LIG d   1      11.092   6.629   1.116  0.00  0.00     0.074 H 
BRANCH  40  43
ATOM     43  C   LIG d   1      10.450   8.171  -0.212  0.00  0.00    -0.043 C 
ATOM     44  C   LIG d   1      11.329   9.082   0.124  0.00  0.00    -0.097 C 
ATOM     45  H   LIG d   1      12.242   8.792   0.624  0.00  0.00     0.053 H 
ATOM     46  H   LIG d   1      11.142  10.122  -0.100  0.00  0.00     0.053 H 
BRANCH  43  47
ATOM     47  C   LIG d   1       9.176   8.575  -0.910  0.00  0.00    -0.041 C 
ATOM     48  H   LIG d   1       8.509   9.058  -0.198  0.00  0.00     0.028 H 
ATOM     49  H   LIG d   1       9.409   9.268  -1.719  0.00  0.00     0.028 H 
ATOM     50  H   LIG d   1       8.690   7.689  -1.320  0.00  0.00     0.028 H 
ENDBRANCH  43  47
ENDBRANCH  40  43
ENDBRANCH  39  40
ENDBRANCH   1  39
TORSDOF 11
ENDMDL
MODEL 9
REMARK VINA RESULT:      -5.1      6.267     11.724
REMARK  11 active torsions:
REMARK  status: ('A' for Active; 'I' for Inactive)
REMARK    1  A    between atoms: C_1  and  C_2 
REMARK    2  A    between atoms: C_2  and  C_4 
REMARK    3  A    between atoms: C_4  and  O_5 
REMARK    4  A    between atoms: O_5  and  C_6 
REMARK    5  A    between atoms: C_14  and  C_15 
REMARK    6  A    between atoms: C_18  and  O_25 
REMARK    7  A    between atoms: C_19  and  O_23 
REMARK    8  A    between atoms: C_20  and  O_21 
REMARK    9  A    between atoms: O_21  and  C_22 
REMARK   10  A    between atoms: O_23  and  C_24 
REMARK   11  A    between atoms: O_25  and  C_26 
ROOT
ATOM      1  C   LIG d   1       7.374  -1.569  -4.381  0.00  0.00     0.124 A 
ATOM      2  C   LIG d   1       7.972  -1.363  -5.622  0.00  0.00    -0.019 A 
ATOM      3  C   LIG d   1       8.507  -2.416  -6.308  0.00  0.00    -0.044 A 
ATOM      4  C   LIG d   1       8.453  -3.700  -5.766  0.00  0.00     0.068 A 
ATOM      5  C   LIG d   1       7.853  -3.920  -4.516  0.00  0.00     0.143 A 
ATOM      6  C   LIG d   1       7.313  -2.838  -3.830  0.00  0.00     0.023 A 
ATOM      7  O   LIG d   1       7.923  -5.232  -4.202  0.00  0.00    -0.451 OA
ATOM      8  C   LIG d   1       8.542  -5.947  -5.170  0.00  0.00     0.176 A 
ATOM      9  C   LIG d   1       8.770  -7.288  -5.156  0.00  0.00    -0.005 C 
ATOM     10  C   LIG d   1       8.929  -5.014  -6.234  0.00  0.00     0.232 A 
ATOM     11  O   LIG d   1       9.513  -5.269  -7.274  0.00  0.00    -0.283 OA
ATOM     12  H   LIG d   1       8.011  -0.369  -6.041  0.00  0.00     0.065 H 
ATOM     13  H   LIG d   1       8.970  -2.254  -7.271  0.00  0.00     0.063 H 
ATOM     14  H   LIG d   1       6.848  -2.987  -2.867  0.00  0.00     0.069 H 
ATOM     15  H   LIG d   1       9.375  -7.742  -5.927  0.00  0.00     0.066 H 
ENDROOT
BRANCH   9  16
ATOM     16  C   LIG d   1       8.192  -8.118  -4.096  0.00  0.00     0.024 A 
ATOM     17  C   LIG d   1       7.064  -8.914  -4.358  0.00  0.00     0.172 A 
ATOM     18  C   LIG d   1       6.524  -9.697  -3.348  0.00  0.00     0.204 A 
ATOM     19  C   LIG d   1       7.100  -9.691  -2.082  0.00  0.00     0.165 A 
ATOM     20  C   LIG d   1       8.216  -8.902  -1.821  0.00  0.00    -0.015 A 
ATOM     21  C   LIG d   1       8.761  -8.122  -2.814  0.00  0.00    -0.047 A 
ATOM     22  H   LIG d   1       8.660  -8.906  -0.837  0.00  0.00     0.066 H 
ATOM     23  H   LIG d   1       9.629  -7.513  -2.607  0.00  0.00     0.063 H 
BRANCH  17  24
ATOM     24  O   LIG d   1       6.504  -8.918  -5.596  0.00  0.00    -0.491 OA
BRANCH  24  25
ATOM     25  C   LIG d   1       5.479  -7.955  -5.848  0.00  0.00     0.079 C 
ATOM     26  H   LIG d   1       5.540  -7.157  -5.108  0.00  0.00     0.066 H 
ATOM     27  H   LIG d   1       5.611  -7.536  -6.845  0.00  0.00     0.066 H 
ATOM     28  H   LIG d   1       4.504  -8.437  -5.783  0.00  0.00     0.066 H 
ENDBRANCH  24  25
ENDBRANCH  17  24
BRANCH  18  29
ATOM     29  O   LIG d   1       5.432 -10.470  -3.596  0.00  0.00    -0.488 OA
BRANCH  29  30
ATOM     30  C   LIG d   1       4.165  -9.957  -3.179  0.00  0.00     0.079 C 
ATOM     31  H   LIG d   1       3.374 -10.625  -3.517  0.00  0.00     0.066 H 
ATOM     32  H   LIG d   1       4.142  -9.886  -2.092  0.00  0.00     0.066 H 
ATOM     33  H   LIG d   1       4.015  -8.967  -3.612  0.00  0.00     0.066 H 
ENDBRANCH  29  30
ENDBRANCH  18  29
BRANCH  19  34
ATOM     34  O   LIG d   1       6.570 -10.458  -1.095  0.00  0.00    -0.491 OA
BRANCH  34  35
ATOM     35  C   LIG d   1       7.306 -11.621  -0.709  0.00  0.00     0.079 C 
ATOM     36  H   LIG d   1       6.617 -12.386  -0.352  0.00  0.00     0.066 H 
ATOM     37  H   LIG d   1       7.858 -12.003  -1.569  0.00  0.00     0.066 H 
ATOM     38  H   LIG d   1       8.006 -11.362   0.085  0.00  0.00     0.066 H 
ENDBRANCH  34  35
ENDBRANCH  19  34
ENDBRANCH   9  16
BRANCH   1  39
ATOM     39  O   LIG d   1       6.844  -0.517  -3.706  0.00  0.00    -0.488 OA
BRANCH  39  40
ATOM     40  C   LIG d   1       5.439  -0.299  -3.843  0.00  0.00     0.110 C 
ATOM     41  H   LIG d   1       5.264   0.680  -4.286  0.00  0.00     0.074 H 
ATOM     42  H   LIG d   1       5.013  -1.070  -4.487  0.00  0.00     0.074 H 
BRANCH  40  43
ATOM     43  C   LIG d   1       4.786  -0.363  -2.487  0.00  0.00    -0.043 C 
ATOM     44  C   LIG d   1       4.375  -1.511  -2.011  0.00  0.00    -0.097 C 
ATOM     45  H   LIG d   1       4.503  -2.413  -2.591  0.00  0.00     0.053 H 
ATOM     46  H   LIG d   1       3.908  -1.557  -1.038  0.00  0.00     0.053 H 
BRANCH  43  47
ATOM     47  C   LIG d   1       4.607   0.897  -1.677  0.00  0.00    -0.041 C 
ATOM     48  H   LIG d   1       4.579   1.757  -2.344  0.00  0.00     0.028 H 
ATOM     49  H   LIG d   1       3.672   0.839  -1.119  0.00  0.00     0.028 H 
ATOM     50  H   LIG d   1       5.439   1.003  -0.981  0.00  0.00     0.028 H 
ENDBRANCH  43  47
ENDBRANCH  40  43
ENDBRANCH  39  40
ENDBRANCH   1  39
TORSDOF 11
ENDMDL
