MODEL 1
REMARK VINA RESULT:      -4.8      0.000      0.000
REMARK  4 active torsions:
REMARK  status: ('A' for Active; 'I' for Inactive)
REMARK    1  A    between atoms: C_1  and  C_2 
REMARK    2  A    between atoms: C_3  and  C_4 
REMARK    3  A    between atoms: C_8  and  O_10 
REMARK    4  A    between atoms: O_10  and  C_11 
ROOT
ATOM      1  C   LIG d   1       4.701  -2.716  -4.623  0.00  0.00    -0.018 A 
ATOM      2  C   LIG d   1       4.413  -2.230  -3.347  0.00  0.00    -0.009 A 
ATOM      3  C   LIG d   1       4.032  -0.910  -3.179  0.00  0.00     0.171 A 
ATOM      4  C   LIG d   1       3.936  -0.067  -4.283  0.00  0.00     0.207 A 
ATOM      5  C   LIG d   1       4.221  -0.551  -5.556  0.00  0.00     0.166 A 
ATOM      6  C   LIG d   1       4.602  -1.870  -5.728  0.00  0.00    -0.009 A 
ATOM      7  O   LIG d   1       3.546   1.170  -3.855  0.00  0.00    -0.449 OA
ATOM      8  C   LIG d   1       3.803   1.185  -2.438  0.00  0.00     0.233 C 
ATOM      9  O   LIG d   1       3.705  -0.201  -2.059  0.00  0.00    -0.453 OA
ATOM     10  H   LIG d   1       4.488  -2.883  -2.490  0.00  0.00     0.066 H 
ATOM     11  H   LIG d   1       4.829  -2.243  -6.716  0.00  0.00     0.066 H 
ATOM     12  H   LIG d   1       4.803   1.567  -2.233  0.00  0.00     0.117 H 
ATOM     13  H   LIG d   1       3.051   1.778  -1.918  0.00  0.00     0.117 H 
ENDROOT
BRANCH   1  14
ATOM     14  C   LIG d   1       5.108  -4.126  -4.803  0.00  0.00    -0.059 C 
ATOM     15  C   LIG d   1       4.489  -4.886  -5.696  0.00  0.00    -0.086 C 
ATOM     16  H   LIG d   1       3.687  -4.474  -6.291  0.00  0.00     0.057 H 
ATOM     17  H   LIG d   1       5.909  -4.536  -4.208  0.00  0.00     0.062 H 
BRANCH  15  18
ATOM     18  C   LIG d   1       4.903  -6.322  -5.881  0.00  0.00    -0.046 C 
ATOM     19  H   LIG d   1       5.931  -6.450  -5.541  0.00  0.00     0.027 H 
ATOM     20  H   LIG d   1       4.245  -6.967  -5.299  0.00  0.00     0.027 H 
ATOM     21  H   LIG d   1       4.832  -6.588  -6.935  0.00  0.00     0.027 H 
ENDBRANCH  15  18
ENDBRANCH   1  14
BRANCH   5  22
ATOM     22  O   LIG d   1       4.126   0.274  -6.633  0.00  0.00    -0.491 OA
BRANCH  22  23
ATOM     23  C   LIG d   1       2.930   0.191  -7.411  0.00  0.00     0.079 C 
ATOM     24  H   LIG d   1       2.906  -0.763  -7.938  0.00  0.00     0.066 H 
ATOM     25  H   LIG d   1       2.064   0.266  -6.754  0.00  0.00     0.066 H 
ATOM     26  H   LIG d   1       2.910   1.007  -8.133  0.00  0.00     0.066 H 
ENDBRANCH  22  23
ENDBRANCH   5  22
TORSDOF 4
ENDMDL
MODEL 2
REMARK VINA RESULT:      -4.6      1.896      4.842
REMARK  4 active torsions:
REMARK  status: ('A' for Active; 'I' for Inactive)
REMARK    1  A    between atoms: C_1  and  C_2 
REMARK    2  A    between atoms: C_3  and  C_4 
REMARK    3  A    between atoms: C_8  and  O_10 
REMARK    4  A    between atoms: O_10  and  C_11 
ROOT
ATOM      1  C   LIG d   1       3.356   0.057  -6.718  0.00  0.00    -0.018 A 
ATOM      2  C   LIG d   1       4.217  -1.032  -6.864  0.00  0.00    -0.009 A 
ATOM      3  C   LIG d   1       4.612  -1.756  -5.752  0.00  0.00     0.171 A 
ATOM      4  C   LIG d   1       4.149  -1.399  -4.489  0.00  0.00     0.207 A 
ATOM      5  C   LIG d   1       3.290  -0.315  -4.341  0.00  0.00     0.166 A 
ATOM      6  C   LIG d   1       2.894   0.412  -5.450  0.00  0.00    -0.009 A 
ATOM      7  O   LIG d   1       4.679  -2.262  -3.571  0.00  0.00    -0.449 OA
ATOM      8  C   LIG d   1       5.791  -2.893  -4.234  0.00  0.00     0.233 C 
ATOM      9  O   LIG d   1       5.432  -2.841  -5.627  0.00  0.00    -0.453 OA
ATOM     10  H   LIG d   1       4.577  -1.308  -7.844  0.00  0.00     0.066 H 
ATOM     11  H   LIG d   1       2.231   1.256  -5.333  0.00  0.00     0.066 H 
ATOM     12  H   LIG d   1       6.710  -2.336  -4.054  0.00  0.00     0.117 H 
ATOM     13  H   LIG d   1       5.897  -3.927  -3.904  0.00  0.00     0.117 H 
ENDROOT
BRANCH   1  14
ATOM     14  C   LIG d   1       2.935   0.832  -7.904  0.00  0.00    -0.059 C 
ATOM     15  C   LIG d   1       3.838   1.475  -8.630  0.00  0.00    -0.086 C 
ATOM     16  H   LIG d   1       4.882   1.433  -8.354  0.00  0.00     0.057 H 
ATOM     17  H   LIG d   1       1.892   0.873  -8.179  0.00  0.00     0.062 H 
BRANCH  15  18
ATOM     18  C   LIG d   1       3.410   2.265  -9.840  0.00  0.00    -0.046 C 
ATOM     19  H   LIG d   1       3.248   1.588 -10.677  0.00  0.00     0.027 H 
ATOM     20  H   LIG d   1       2.484   2.796  -9.617  0.00  0.00     0.027 H 
ATOM     21  H   LIG d   1       4.186   2.984 -10.097  0.00  0.00     0.027 H 
ENDBRANCH  15  18
ENDBRANCH   1  14
BRANCH   5  22
ATOM     22  O   LIG d   1       2.839   0.032  -3.106  0.00  0.00    -0.491 OA
BRANCH  22  23
ATOM     23  C   LIG d   1       3.621   0.976  -2.371  0.00  0.00     0.079 C 
ATOM     24  H   LIG d   1       4.666   0.668  -2.380  0.00  0.00     0.066 H 
ATOM     25  H   LIG d   1       3.528   1.960  -2.832  0.00  0.00     0.066 H 
ATOM     26  H   LIG d   1       3.263   1.021  -1.343  0.00  0.00     0.066 H 
ENDBRANCH  22  23
ENDBRANCH   5  22
TORSDOF 4
ENDMDL
MODEL 3
REMARK VINA RESULT:      -4.5      2.411      4.329
REMARK  4 active torsions:
REMARK  status: ('A' for Active; 'I' for Inactive)
REMARK    1  A    between atoms: C_1  and  C_2 
REMARK    2  A    between atoms: C_3  and  C_4 
REMARK    3  A    between atoms: C_8  and  O_10 
REMARK    4  A    between atoms: O_10  and  C_11 
ROOT
ATOM      1  C   LIG d   1       3.372  -0.122  -6.603  0.00  0.00    -0.018 A 
ATOM      2  C   LIG d   1       4.618  -0.743  -6.693  0.00  0.00    -0.009 A 
ATOM      3  C   LIG d   1       5.337  -1.022  -5.543  0.00  0.00     0.171 A 
ATOM      4  C   LIG d   1       4.816  -0.682  -4.297  0.00  0.00     0.207 A 
ATOM      5  C   LIG d   1       3.574  -0.064  -4.206  0.00  0.00     0.166 A 
ATOM      6  C   LIG d   1       2.852   0.216  -5.353  0.00  0.00    -0.009 A 
ATOM      7  O   LIG d   1       5.710  -1.060  -3.334  0.00  0.00    -0.449 OA
ATOM      8  C   LIG d   1       6.957  -1.258  -4.025  0.00  0.00     0.233 C 
ATOM      9  O   LIG d   1       6.556  -1.610  -5.362  0.00  0.00    -0.453 OA
ATOM     10  H   LIG d   1       5.022  -1.006  -7.660  0.00  0.00     0.066 H 
ATOM     11  H   LIG d   1       1.890   0.702  -5.281  0.00  0.00     0.066 H 
ATOM     12  H   LIG d   1       7.544  -0.339  -4.031  0.00  0.00     0.117 H 
ATOM     13  H   LIG d   1       7.523  -2.072  -3.569  0.00  0.00     0.117 H 
ENDROOT
BRANCH   1  14
ATOM     14  C   LIG d   1       2.604   0.177  -7.830  0.00  0.00    -0.059 C 
ATOM     15  C   LIG d   1       2.417  -0.768  -8.741  0.00  0.00    -0.086 C 
ATOM     16  H   LIG d   1       2.827  -1.755  -8.587  0.00  0.00     0.057 H 
ATOM     17  H   LIG d   1       2.194   1.163  -7.983  0.00  0.00     0.062 H 
BRANCH  15  18
ATOM     18  C   LIG d   1       1.634  -0.464  -9.992  0.00  0.00    -0.046 C 
ATOM     19  H   LIG d   1       1.461   0.609 -10.061  0.00  0.00     0.027 H 
ATOM     20  H   LIG d   1       2.198  -0.799 -10.863  0.00  0.00     0.027 H 
ATOM     21  H   LIG d   1       0.678  -0.985  -9.957  0.00  0.00     0.027 H 
ENDBRANCH  15  18
ENDBRANCH   1  14
BRANCH   5  22
ATOM     22  O   LIG d   1       3.068   0.267  -2.988  0.00  0.00    -0.491 OA
BRANCH  22  23
ATOM     23  C   LIG d   1       3.655   1.387  -2.323  0.00  0.00     0.079 C 
ATOM     24  H   LIG d   1       4.738   1.350  -2.435  0.00  0.00     0.066 H 
ATOM     25  H   LIG d   1       3.275   2.310  -2.763  0.00  0.00     0.066 H 
ATOM     26  H   LIG d   1       3.396   1.357  -1.265  0.00  0.00     0.066 H 
ENDBRANCH  22  23
ENDBRANCH   5  22
TORSDOF 4
ENDMDL
MODEL 4
REMARK VINA RESULT:      -4.5      2.592      3.130
REMARK  4 active torsions:
REMARK  status: ('A' for Active; 'I' for Inactive)
REMARK    1  A    between atoms: C_1  and  C_2 
REMARK    2  A    between atoms: C_3  and  C_4 
REMARK    3  A    between atoms: C_8  and  O_10 
REMARK    4  A    between atoms: O_10  and  C_11 
ROOT
ATOM      1  C   LIG d   1       6.921  -2.110  -3.805  0.00  0.00    -0.018 A 
ATOM      2  C   LIG d   1       5.597  -2.542  -3.737  0.00  0.00    -0.009 A 
ATOM      3  C   LIG d   1       4.570  -1.617  -3.647  0.00  0.00     0.171 A 
ATOM      4  C   LIG d   1       4.861  -0.256  -3.625  0.00  0.00     0.207 A 
ATOM      5  C   LIG d   1       6.180   0.177  -3.694  0.00  0.00     0.166 A 
ATOM      6  C   LIG d   1       7.209  -0.745  -3.784  0.00  0.00    -0.009 A 
ATOM      7  O   LIG d   1       3.687   0.438  -3.533  0.00  0.00    -0.449 OA
ATOM      8  C   LIG d   1       2.709  -0.519  -3.086  0.00  0.00     0.233 C 
ATOM      9  O   LIG d   1       3.217  -1.777  -3.568  0.00  0.00    -0.453 OA
ATOM     10  H   LIG d   1       5.371  -3.599  -3.753  0.00  0.00     0.066 H 
ATOM     11  H   LIG d   1       8.234  -0.407  -3.832  0.00  0.00     0.066 H 
ATOM     12  H   LIG d   1       2.645  -0.523  -1.998  0.00  0.00     0.117 H 
ATOM     13  H   LIG d   1       1.734  -0.306  -3.527  0.00  0.00     0.117 H 
ENDROOT
BRANCH   1  14
ATOM     14  C   LIG d   1       8.018  -3.097  -3.900  0.00  0.00    -0.059 C 
ATOM     15  C   LIG d   1       7.854  -4.204  -4.611  0.00  0.00    -0.086 C 
ATOM     16  H   LIG d   1       6.918  -4.384  -5.121  0.00  0.00     0.057 H 
ATOM     17  H   LIG d   1       8.952  -2.916  -3.391  0.00  0.00     0.062 H 
BRANCH  15  18
ATOM     18  C   LIG d   1       8.971  -5.210  -4.709  0.00  0.00    -0.046 C 
ATOM     19  H   LIG d   1       9.399  -5.374  -3.721  0.00  0.00     0.027 H 
ATOM     20  H   LIG d   1       8.579  -6.151  -5.096  0.00  0.00     0.027 H 
ATOM     21  H   LIG d   1       9.740  -4.834  -5.382  0.00  0.00     0.027 H 
ENDBRANCH  15  18
ENDBRANCH   1  14
BRANCH   5  22
ATOM     22  O   LIG d   1       6.462   1.507  -3.672  0.00  0.00    -0.491 OA
BRANCH  22  23
ATOM     23  C   LIG d   1       7.820   1.887  -3.901  0.00  0.00     0.079 C 
ATOM     24  H   LIG d   1       8.254   2.259  -2.973  0.00  0.00     0.066 H 
ATOM     25  H   LIG d   1       8.385   1.022  -4.247  0.00  0.00     0.066 H 
ATOM     26  H   LIG d   1       7.854   2.670  -4.659  0.00  0.00     0.066 H 
ENDBRANCH  22  23
ENDBRANCH   5  22
TORSDOF 4
ENDMDL
MODEL 5
REMARK VINA RESULT:      -4.4      3.124      5.609
REMARK  4 active torsions:
REMARK  status: ('A' for Active; 'I' for Inactive)
REMARK    1  A    between atoms: C_1  and  C_2 
REMARK    2  A    between atoms: C_3  and  C_4 
REMARK    3  A    between atoms: C_8  and  O_10 
REMARK    4  A    between atoms: O_10  and  C_11 
ROOT
ATOM      1  C   LIG d   1       5.445  -1.817  -3.303  0.00  0.00    -0.018 A 
ATOM      2  C   LIG d   1       4.543  -2.680  -3.925  0.00  0.00    -0.009 A 
ATOM      3  C   LIG d   1       5.010  -3.715  -4.718  0.00  0.00     0.171 A 
ATOM      4  C   LIG d   1       6.379  -3.893  -4.894  0.00  0.00     0.207 A 
ATOM      5  C   LIG d   1       7.280  -3.034  -4.274  0.00  0.00     0.166 A 
ATOM      6  C   LIG d   1       6.817  -1.998  -3.480  0.00  0.00    -0.009 A 
ATOM      7  O   LIG d   1       6.577  -4.971  -5.710  0.00  0.00    -0.449 OA
ATOM      8  C   LIG d   1       5.312  -5.197  -6.361  0.00  0.00     0.233 C 
ATOM      9  O   LIG d   1       4.349  -4.678  -5.424  0.00  0.00    -0.453 OA
ATOM     10  H   LIG d   1       3.480  -2.542  -3.788  0.00  0.00     0.066 H 
ATOM     11  H   LIG d   1       7.517  -1.329  -3.004  0.00  0.00     0.066 H 
ATOM     12  H   LIG d   1       5.261  -4.651  -7.303  0.00  0.00     0.117 H 
ATOM     13  H   LIG d   1       5.150  -6.262  -6.525  0.00  0.00     0.117 H 
ENDROOT
BRANCH   1  14
ATOM     14  C   LIG d   1       4.948  -0.712  -2.456  0.00  0.00    -0.059 C 
ATOM     15  C   LIG d   1       4.258   0.282  -3.001  0.00  0.00    -0.086 C 
ATOM     16  H   LIG d   1       4.060   0.282  -4.062  0.00  0.00     0.057 H 
ATOM     17  H   LIG d   1       5.146  -0.713  -1.395  0.00  0.00     0.062 H 
BRANCH  15  18
ATOM     18  C   LIG d   1       3.751   1.408  -2.138  0.00  0.00    -0.046 C 
ATOM     19  H   LIG d   1       4.021   2.362  -2.591  0.00  0.00     0.027 H 
ATOM     20  H   LIG d   1       2.666   1.340  -2.055  0.00  0.00     0.027 H 
ATOM     21  H   LIG d   1       4.196   1.336  -1.147  0.00  0.00     0.027 H 
ENDBRANCH  15  18
ENDBRANCH   1  14
BRANCH   5  22
ATOM     22  O   LIG d   1       8.617  -3.210  -4.447  0.00  0.00    -0.491 OA
BRANCH  22  23
ATOM     23  C   LIG d   1       9.303  -3.984  -3.461  0.00  0.00     0.079 C 
ATOM     24  H   LIG d   1       8.761  -3.933  -2.517  0.00  0.00     0.066 H 
ATOM     25  H   LIG d   1       9.363  -5.021  -3.791  0.00  0.00     0.066 H 
ATOM     26  H   LIG d   1      10.309  -3.588  -3.325  0.00  0.00     0.066 H 
ENDBRANCH  22  23
ENDBRANCH   5  22
TORSDOF 4
ENDMDL
MODEL 6
REMARK VINA RESULT:      -4.4      2.913      3.863
REMARK  4 active torsions:
REMARK  status: ('A' for Active; 'I' for Inactive)
REMARK    1  A    between atoms: C_1  and  C_2 
REMARK    2  A    between atoms: C_3  and  C_4 
REMARK    3  A    between atoms: C_8  and  O_10 
REMARK    4  A    between atoms: O_10  and  C_11 
ROOT
ATOM      1  C   LIG d   1       7.337  -2.865  -4.006  0.00  0.00    -0.018 A 
ATOM      2  C   LIG d   1       6.865  -1.865  -3.156  0.00  0.00    -0.009 A 
ATOM      3  C   LIG d   1       5.503  -1.641  -3.041  0.00  0.00     0.171 A 
ATOM      4  C   LIG d   1       4.606  -2.413  -3.773  0.00  0.00     0.207 A 
ATOM      5  C   LIG d   1       5.076  -3.411  -4.621  0.00  0.00     0.166 A 
ATOM      6  C   LIG d   1       6.436  -3.638  -4.739  0.00  0.00    -0.009 A 
ATOM      7  O   LIG d   1       3.337  -1.999  -3.485  0.00  0.00    -0.449 OA
ATOM      8  C   LIG d   1       3.485  -0.698  -2.885  0.00  0.00     0.233 C 
ATOM      9  O   LIG d   1       4.798  -0.741  -2.294  0.00  0.00    -0.453 OA
ATOM     10  H   LIG d   1       7.560  -1.265  -2.588  0.00  0.00     0.066 H 
ATOM     11  H   LIG d   1       6.799  -4.410  -5.401  0.00  0.00     0.066 H 
ATOM     12  H   LIG d   1       3.433   0.083  -3.644  0.00  0.00     0.117 H 
ATOM     13  H   LIG d   1       2.726  -0.540  -2.119  0.00  0.00     0.117 H 
ENDROOT
BRANCH   1  14
ATOM     14  C   LIG d   1       8.791  -3.105  -4.130  0.00  0.00    -0.059 C 
ATOM     15  C   LIG d   1       9.419  -3.849  -3.230  0.00  0.00    -0.086 C 
ATOM     16  H   LIG d   1       8.868  -4.279  -2.407  0.00  0.00     0.057 H 
ATOM     17  H   LIG d   1       9.340  -2.675  -4.954  0.00  0.00     0.062 H 
BRANCH  15  18
ATOM     18  C   LIG d   1      10.900  -4.094  -3.356  0.00  0.00    -0.046 C 
ATOM     19  H   LIG d   1      11.076  -4.906  -4.061  0.00  0.00     0.027 H 
ATOM     20  H   LIG d   1      11.388  -3.188  -3.716  0.00  0.00     0.027 H 
ATOM     21  H   LIG d   1      11.308  -4.363  -2.383  0.00  0.00     0.027 H 
ENDBRANCH  15  18
ENDBRANCH   1  14
BRANCH   5  22
ATOM     22  O   LIG d   1       4.198  -4.165  -5.335  0.00  0.00    -0.491 OA
BRANCH  22  23
ATOM     23  C   LIG d   1       4.583  -5.510  -5.625  0.00  0.00     0.079 C 
ATOM     24  H   LIG d   1       3.954  -6.198  -5.060  0.00  0.00     0.066 H 
ATOM     25  H   LIG d   1       4.464  -5.700  -6.692  0.00  0.00     0.066 H 
ATOM     26  H   LIG d   1       5.626  -5.657  -5.344  0.00  0.00     0.066 H 
ENDBRANCH  22  23
ENDBRANCH   5  22
TORSDOF 4
ENDMDL
MODEL 7
REMARK VINA RESULT:      -4.4      3.386      5.220
REMARK  4 active torsions:
REMARK  status: ('A' for Active; 'I' for Inactive)
REMARK    1  A    between atoms: C_1  and  C_2 
REMARK    2  A    between atoms: C_3  and  C_4 
REMARK    3  A    between atoms: C_8  and  O_10 
REMARK    4  A    between atoms: O_10  and  C_11 
ROOT
ATOM      1  C   LIG d   1       7.032   0.787  -3.594  0.00  0.00    -0.018 A 
ATOM      2  C   LIG d   1       5.776   1.019  -3.031  0.00  0.00    -0.009 A 
ATOM      3  C   LIG d   1       4.906  -0.037  -2.822  0.00  0.00     0.171 A 
ATOM      4  C   LIG d   1       5.284  -1.330  -3.174  0.00  0.00     0.207 A 
ATOM      5  C   LIG d   1       6.535  -1.563  -3.734  0.00  0.00     0.166 A 
ATOM      6  C   LIG d   1       7.408  -0.510  -3.944  0.00  0.00    -0.009 A 
ATOM      7  O   LIG d   1       4.259  -2.181  -2.870  0.00  0.00    -0.449 OA
ATOM      8  C   LIG d   1       3.099  -1.344  -2.711  0.00  0.00     0.233 C 
ATOM      9  O   LIG d   1       3.645  -0.077  -2.300  0.00  0.00    -0.453 OA
ATOM     10  H   LIG d   1       5.483   2.022  -2.759  0.00  0.00     0.066 H 
ATOM     11  H   LIG d   1       8.378  -0.691  -4.384  0.00  0.00     0.066 H 
ATOM     12  H   LIG d   1       2.566  -1.242  -3.656  0.00  0.00     0.117 H 
ATOM     13  H   LIG d   1       2.439  -1.744  -1.940  0.00  0.00     0.117 H 
ENDROOT
BRANCH   1  14
ATOM     14  C   LIG d   1       7.962   1.914  -3.818  0.00  0.00    -0.059 C 
ATOM     15  C   LIG d   1       8.335   2.231  -5.050  0.00  0.00    -0.086 C 
ATOM     16  H   LIG d   1       7.959   1.665  -5.890  0.00  0.00     0.057 H 
ATOM     17  H   LIG d   1       8.337   2.479  -2.978  0.00  0.00     0.062 H 
BRANCH  15  18
ATOM     18  C   LIG d   1       9.283   3.380  -5.279  0.00  0.00    -0.046 C 
ATOM     19  H   LIG d   1       9.408   3.937  -4.351  0.00  0.00     0.027 H 
ATOM     20  H   LIG d   1      10.249   2.994  -5.605  0.00  0.00     0.027 H 
ATOM     21  H   LIG d   1       8.877   4.037  -6.047  0.00  0.00     0.027 H 
ENDBRANCH  15  18
ENDBRANCH   1  14
BRANCH   5  22
ATOM     22  O   LIG d   1       6.902  -2.827  -4.077  0.00  0.00    -0.491 OA
BRANCH  22  23
ATOM     23  C   LIG d   1       8.265  -3.192  -3.848  0.00  0.00     0.079 C 
ATOM     24  H   LIG d   1       8.450  -4.183  -4.261  0.00  0.00     0.066 H 
ATOM     25  H   LIG d   1       8.920  -2.467  -4.330  0.00  0.00     0.066 H 
ATOM     26  H   LIG d   1       8.461  -3.202  -2.776  0.00  0.00     0.066 H 
ENDBRANCH  22  23
ENDBRANCH   5  22
TORSDOF 4
ENDMDL
MODEL 8
REMARK VINA RESULT:      -4.4      2.023      4.276
REMARK  4 active torsions:
REMARK  status: ('A' for Active; 'I' for Inactive)
REMARK    1  A    between atoms: C_1  and  C_2 
REMARK    2  A    between atoms: C_3  and  C_4 
REMARK    3  A    between atoms: C_8  and  O_10 
REMARK    4  A    between atoms: O_10  and  C_11 
ROOT
ATOM      1  C   LIG d   1       3.279  -0.940  -8.024  0.00  0.00    -0.018 A 
ATOM      2  C   LIG d   1       2.733   0.092  -7.260  0.00  0.00    -0.009 A 
ATOM      3  C   LIG d   1       3.123   0.258  -5.941  0.00  0.00     0.171 A 
ATOM      4  C   LIG d   1       4.059  -0.604  -5.379  0.00  0.00     0.207 A 
ATOM      5  C   LIG d   1       4.606  -1.633  -6.139  0.00  0.00     0.166 A 
ATOM      6  C   LIG d   1       4.219  -1.802  -7.458  0.00  0.00    -0.009 A 
ATOM      7  O   LIG d   1       4.270  -0.232  -4.081  0.00  0.00    -0.449 OA
ATOM      8  C   LIG d   1       3.153   0.607  -3.736  0.00  0.00     0.233 C 
ATOM      9  O   LIG d   1       2.745   1.170  -4.998  0.00  0.00    -0.453 OA
ATOM     10  H   LIG d   1       2.006   0.761  -7.696  0.00  0.00     0.066 H 
ATOM     11  H   LIG d   1       4.640  -2.604  -8.045  0.00  0.00     0.066 H 
ATOM     12  H   LIG d   1       2.347   0.015  -3.303  0.00  0.00     0.117 H 
ATOM     13  H   LIG d   1       3.463   1.395  -3.049  0.00  0.00     0.117 H 
ENDROOT
BRANCH   1  14
ATOM     14  C   LIG d   1       2.864  -1.118  -9.431  0.00  0.00    -0.059 C 
ATOM     15  C   LIG d   1       1.620  -0.837  -9.796  0.00  0.00    -0.086 C 
ATOM     16  H   LIG d   1       0.911  -0.479  -9.064  0.00  0.00     0.057 H 
ATOM     17  H   LIG d   1       3.573  -1.476 -10.162  0.00  0.00     0.062 H 
BRANCH  15  18
ATOM     18  C   LIG d   1       1.196  -1.019 -11.230  0.00  0.00    -0.046 C 
ATOM     19  H   LIG d   1       0.214  -0.571 -11.378  0.00  0.00     0.027 H 
ATOM     20  H   LIG d   1       1.919  -0.534 -11.886  0.00  0.00     0.027 H 
ATOM     21  H   LIG d   1       1.150  -2.082 -11.463  0.00  0.00     0.027 H 
ENDBRANCH  15  18
ENDBRANCH   1  14
BRANCH   5  22
ATOM     22  O   LIG d   1       5.521  -2.474  -5.588  0.00  0.00    -0.491 OA
BRANCH  22  23
ATOM     23  C   LIG d   1       5.018  -3.635  -4.924  0.00  0.00     0.079 C 
ATOM     24  H   LIG d   1       5.773  -4.421  -4.944  0.00  0.00     0.066 H 
ATOM     25  H   LIG d   1       4.778  -3.387  -3.890  0.00  0.00     0.066 H 
ATOM     26  H   LIG d   1       4.118  -3.981  -5.432  0.00  0.00     0.066 H 
ENDBRANCH  22  23
ENDBRANCH   5  22
TORSDOF 4
ENDMDL
MODEL 9
REMARK VINA RESULT:      -4.3      2.572      5.096
REMARK  4 active torsions:
REMARK  status: ('A' for Active; 'I' for Inactive)
REMARK    1  A    between atoms: C_1  and  C_2 
REMARK    2  A    between atoms: C_3  and  C_4 
REMARK    3  A    between atoms: C_8  and  O_10 
REMARK    4  A    between atoms: O_10  and  C_11 
ROOT
ATOM      1  C   LIG d   1       3.581  -0.177  -5.200  0.00  0.00    -0.018 A 
ATOM      2  C   LIG d   1       2.807   0.369  -6.225  0.00  0.00    -0.009 A 
ATOM      3  C   LIG d   1       2.895  -0.145  -7.508  0.00  0.00     0.171 A 
ATOM      4  C   LIG d   1       3.755  -1.206  -7.775  0.00  0.00     0.207 A 
ATOM      5  C   LIG d   1       4.526  -1.753  -6.754  0.00  0.00     0.166 A 
ATOM      6  C   LIG d   1       4.441  -1.242  -5.471  0.00  0.00    -0.009 A 
ATOM      7  O   LIG d   1       3.656  -1.524  -9.100  0.00  0.00    -0.449 OA
ATOM      8  C   LIG d   1       3.038  -0.382  -9.723  0.00  0.00     0.233 C 
ATOM      9  O   LIG d   1       2.259   0.205  -8.664  0.00  0.00    -0.453 OA
ATOM     10  H   LIG d   1       2.140   1.194  -6.018  0.00  0.00     0.066 H 
ATOM     11  H   LIG d   1       5.045  -1.664  -4.681  0.00  0.00     0.066 H 
ATOM     12  H   LIG d   1       3.794   0.319 -10.076  0.00  0.00     0.117 H 
ATOM     13  H   LIG d   1       2.392  -0.697 -10.544  0.00  0.00     0.117 H 
ENDROOT
BRANCH   1  14
ATOM     14  C   LIG d   1       3.489   0.371  -3.831  0.00  0.00    -0.059 C 
ATOM     15  C   LIG d   1       4.566   0.409  -3.058  0.00  0.00    -0.086 C 
ATOM     16  H   LIG d   1       5.510   0.038  -3.430  0.00  0.00     0.057 H 
ATOM     17  H   LIG d   1       2.545   0.741  -3.460  0.00  0.00     0.062 H 
BRANCH  15  18
ATOM     18  C   LIG d   1       4.473   0.967  -1.662  0.00  0.00    -0.046 C 
ATOM     19  H   LIG d   1       5.058   0.348  -0.983  0.00  0.00     0.027 H 
ATOM     20  H   LIG d   1       4.862   1.986  -1.652  0.00  0.00     0.027 H 
ATOM     21  H   LIG d   1       3.432   0.975  -1.342  0.00  0.00     0.027 H 
ENDBRANCH  15  18
ENDBRANCH   1  14
BRANCH   5  22
ATOM     22  O   LIG d   1       5.365  -2.790  -7.018  0.00  0.00    -0.491 OA
BRANCH  22  23
ATOM     23  C   LIG d   1       4.851  -4.108  -6.816  0.00  0.00     0.079 C 
ATOM     24  H   LIG d   1       3.943  -4.238  -7.406  0.00  0.00     0.066 H 
ATOM     25  H   LIG d   1       5.596  -4.840  -7.129  0.00  0.00     0.066 H 
ATOM     26  H   LIG d   1       4.623  -4.250  -5.760  0.00  0.00     0.066 H 
ENDBRANCH  22  23
ENDBRANCH   5  22
TORSDOF 4
ENDMDL
MODEL 10
REMARK VINA RESULT:      -4.2      9.047     11.032
REMARK  4 active torsions:
REMARK  status: ('A' for Active; 'I' for Inactive)
REMARK    1  A    between atoms: C_1  and  C_2 
REMARK    2  A    between atoms: C_3  and  C_4 
REMARK    3  A    between atoms: C_8  and  O_10 
REMARK    4  A    between atoms: O_10  and  C_11 
ROOT
ATOM      1  C   LIG d   1      10.089   5.643  -2.168  0.00  0.00    -0.018 A 
ATOM      2  C   LIG d   1       9.628   6.920  -2.490  0.00  0.00    -0.009 A 
ATOM      3  C   LIG d   1       9.846   7.974  -1.620  0.00  0.00     0.171 A 
ATOM      4  C   LIG d   1      10.525   7.760  -0.423  0.00  0.00     0.207 A 
ATOM      5  C   LIG d   1      10.985   6.488  -0.101  0.00  0.00     0.166 A 
ATOM      6  C   LIG d   1      10.770   5.431  -0.968  0.00  0.00    -0.009 A 
ATOM      7  O   LIG d   1      10.608   8.947   0.249  0.00  0.00    -0.449 OA
ATOM      8  C   LIG d   1       9.618   9.800  -0.354  0.00  0.00     0.233 C 
ATOM      9  O   LIG d   1       9.502   9.294  -1.698  0.00  0.00    -0.453 OA
ATOM     10  H   LIG d   1       9.101   7.086  -3.418  0.00  0.00     0.066 H 
ATOM     11  H   LIG d   1      11.123   4.443  -0.714  0.00  0.00     0.066 H 
ATOM     12  H   LIG d   1       8.666   9.715   0.170  0.00  0.00     0.117 H 
ATOM     13  H   LIG d   1       9.959  10.836  -0.365  0.00  0.00     0.117 H 
ENDROOT
BRANCH   1  14
ATOM     14  C   LIG d   1       9.856   4.516  -3.096  0.00  0.00    -0.059 C 
ATOM     15  C   LIG d   1      10.335   3.313  -2.811  0.00  0.00    -0.086 C 
ATOM     16  H   LIG d   1      10.896   3.157  -1.901  0.00  0.00     0.057 H 
ATOM     17  H   LIG d   1       9.297   4.673  -4.005  0.00  0.00     0.062 H 
BRANCH  15  18
ATOM     18  C   LIG d   1      10.099   2.164  -3.757  0.00  0.00    -0.046 C 
ATOM     19  H   LIG d   1      10.398   2.455  -4.763  0.00  0.00     0.027 H 
ATOM     20  H   LIG d   1      10.686   1.304  -3.436  0.00  0.00     0.027 H 
ATOM     21  H   LIG d   1       9.041   1.903  -3.753  0.00  0.00     0.027 H 
ENDBRANCH  15  18
ENDBRANCH   1  14
BRANCH   5  22
ATOM     22  O   LIG d   1      11.648   6.282   1.068  0.00  0.00    -0.491 OA
BRANCH  22  23
ATOM     23  C   LIG d   1      10.917   5.662   2.128  0.00  0.00     0.079 C 
ATOM     24  H   LIG d   1      11.578   5.002   2.689  0.00  0.00     0.066 H 
ATOM     25  H   LIG d   1      10.521   6.430   2.793  0.00  0.00     0.066 H 
ATOM     26  H   LIG d   1      10.093   5.084   1.710  0.00  0.00     0.066 H 
ENDBRANCH  22  23
ENDBRANCH   5  22
TORSDOF 4
ENDMDL
