MODEL 1
REMARK VINA RESULT:      -7.7      0.000      0.000
REMARK  6 active torsions:
REMARK  status: ('A' for Active; 'I' for Inactive)
REMARK    1  A    between atoms: C_1  and  C_2 
REMARK    2  A    between atoms: C_2  and  C_3 
REMARK    3  A    between atoms: C_6  and  C_9 
REMARK    4  A    between atoms: N_15  and  C_30 
REMARK    5  A    between atoms: C_18  and  C_29 
REMARK    6  A    between atoms: C_33  and  N_36 
ROOT
ATOM      1  C   LIG d   1       6.845  -1.741  -6.301  0.00  0.00     0.027 C 
ATOM      2  H   LIG d   1       7.716  -1.278  -5.837  0.00  0.00     0.041 H 
ATOM      3  C   LIG d   1       7.298  -2.926  -7.166  0.00  0.00     0.028 C 
ATOM      4  N   LIG d   1       6.143  -3.805  -7.357  0.00  0.00    -0.265 N 
ATOM      5  C   LIG d   1       5.454  -4.106  -8.459  0.00  0.00     0.317 C 
ATOM      6  O   LIG d   1       5.846  -3.888  -9.588  0.00  0.00    -0.252 OA
ATOM      7  N   LIG d   1       4.274  -4.676  -8.168  0.00  0.00    -0.192 N 
ATOM      8  C   LIG d   1       4.140  -4.895  -6.841  0.00  0.00     0.257 C 
ATOM      9  O   LIG d   1       3.168  -5.335  -6.264  0.00  0.00    -0.272 OA
ATOM     10  C   LIG d   1       5.454  -4.474  -6.228  0.00  0.00     0.153 C 
ATOM     11  C   LIG d   1       5.261  -3.402  -5.182  0.00  0.00     0.054 A 
ATOM     12  C   LIG d   1       5.897  -2.209  -5.226  0.00  0.00    -0.008 A 
ATOM     13  C   LIG d   1       5.469  -1.470  -4.052  0.00  0.00     0.004 A 
ATOM     14  C   LIG d   1       5.794  -0.199  -3.567  0.00  0.00    -0.052 A 
ATOM     15  C   LIG d   1       5.191   0.191  -2.396  0.00  0.00    -0.061 A 
ATOM     16  C   LIG d   1       4.293  -0.622  -1.725  0.00  0.00    -0.060 A 
ATOM     17  C   LIG d   1       3.953  -1.884  -2.182  0.00  0.00    -0.038 A 
ATOM     18  C   LIG d   1       4.556  -2.309  -3.365  0.00  0.00     0.047 A 
ATOM     19  N   LIG d   1       4.453  -3.468  -4.080  0.00  0.00    -0.356 N 
ATOM     20  H   LIG d   1       3.894  -4.223  -3.841  0.00  0.00     0.166 HD
ATOM     21  H   LIG d   1       8.095  -3.469  -6.660  0.00  0.00     0.048 H 
ATOM     22  H   LIG d   1       7.650  -2.564  -8.132  0.00  0.00     0.048 H 
ATOM     23  H   LIG d   1       6.491   0.443  -4.086  0.00  0.00     0.062 H 
ATOM     24  H   LIG d   1       5.421   1.164  -1.989  0.00  0.00     0.062 H 
ATOM     25  H   LIG d   1       3.844  -0.261  -0.811  0.00  0.00     0.062 H 
ATOM     26  H   LIG d   1       3.255  -2.510  -1.647  0.00  0.00     0.064 H 
ENDROOT
BRANCH   1  27
ATOM     27  C   LIG d   1       6.150  -0.725  -7.170  0.00  0.00    -0.038 A 
ATOM     28  C   LIG d   1       6.892   0.200  -7.882  0.00  0.00    -0.058 A 
ATOM     29  C   LIG d   1       6.254   1.132  -8.679  0.00  0.00    -0.058 A 
ATOM     30  H   LIG d   1       7.970   0.194  -7.813  0.00  0.00     0.062 H 
ATOM     31  C   LIG d   1       4.875   1.137  -8.766  0.00  0.00    -0.048 A 
ATOM     32  H   LIG d   1       6.835   1.854  -9.233  0.00  0.00     0.062 H 
ATOM     33  C   LIG d   1       4.133   0.213  -8.056  0.00  0.00    -0.058 A 
ATOM     34  C   LIG d   1       4.771  -0.721  -7.262  0.00  0.00    -0.058 A 
ATOM     35  H   LIG d   1       3.055   0.218  -8.125  0.00  0.00     0.062 H 
ATOM     36  H   LIG d   1       4.190  -1.447  -6.710  0.00  0.00     0.062 H 
BRANCH  31  37
ATOM     37  C   LIG d   1       4.180   2.154  -9.636  0.00  0.00    -0.030 C 
ATOM     38  H   LIG d   1       4.767   3.072  -9.661  0.00  0.00     0.031 H 
ATOM     39  H   LIG d   1       4.078   1.759 -10.646  0.00  0.00     0.031 H 
BRANCH  37  40
ATOM     40  C   LIG d   1       2.793   2.452  -9.062  0.00  0.00    -0.061 C 
ATOM     41  H   LIG d   1       2.585   3.518  -9.150  0.00  0.00     0.023 H 
ATOM     42  H   LIG d   1       2.041   1.889  -9.615  0.00  0.00     0.023 H 
ATOM     43  H   LIG d   1       2.764   2.161  -8.012  0.00  0.00     0.023 H 
ENDBRANCH  37  40
ENDBRANCH  31  37
ENDBRANCH   1  27
BRANCH  10  44
ATOM     44  C   LIG d   1       6.253  -5.662  -5.687  0.00  0.00    -0.029 C 
ATOM     45  H   LIG d   1       6.776  -5.364  -4.777  0.00  0.00     0.026 H 
ATOM     46  H   LIG d   1       5.573  -6.484  -5.462  0.00  0.00     0.026 H 
ATOM     47  H   LIG d   1       6.978  -5.983  -6.434  0.00  0.00     0.026 H 
ENDBRANCH  10  44
BRANCH   7  48
ATOM     48  C   LIG d   1       3.302  -5.007  -9.123  0.00  0.00     0.046 A 
ATOM     49  C   LIG d   1       3.154  -6.323  -9.538  0.00  0.00    -0.033 A 
ATOM     50  C   LIG d   1       2.196  -6.645 -10.479  0.00  0.00     0.017 A 
ATOM     51  H   LIG d   1       3.787  -7.094  -9.125  0.00  0.00     0.064 H 
ATOM     52  C   LIG d   1       1.384  -5.658 -11.008  0.00  0.00     0.273 A 
ATOM     53  H   LIG d   1       2.080  -7.669 -10.803  0.00  0.00     0.069 H 
ATOM     54  C   LIG d   1       1.529  -4.346 -10.596  0.00  0.00     0.017 A 
ATOM     55  C   LIG d   1       2.482  -4.019  -9.651  0.00  0.00    -0.033 A 
ATOM     56  H   LIG d   1       0.894  -3.578 -11.010  0.00  0.00     0.069 H 
ATOM     57  H   LIG d   1       2.592  -2.995  -9.326  0.00  0.00     0.064 H 
BRANCH  52  58
ATOM     58  N   LIG d   1       0.358  -6.006 -12.016  0.00  0.00     0.080 N 
ATOM     59  O   LIG d   1      -0.447  -6.890 -11.785  0.00  0.00     0.041 OA
ATOM     60  O   LIG d   1       0.319  -5.409 -13.077  0.00  0.00    -0.576 OA
ENDBRANCH  52  58
ENDBRANCH   7  48
TORSDOF 6
ENDMDL
MODEL 2
REMARK VINA RESULT:      -7.7      0.137      1.138
REMARK  6 active torsions:
REMARK  status: ('A' for Active; 'I' for Inactive)
REMARK    1  A    between atoms: C_1  and  C_2 
REMARK    2  A    between atoms: C_2  and  C_3 
REMARK    3  A    between atoms: C_6  and  C_9 
REMARK    4  A    between atoms: N_15  and  C_30 
REMARK    5  A    between atoms: C_18  and  C_29 
REMARK    6  A    between atoms: C_33  and  N_36 
ROOT
ATOM      1  C   LIG d   1       6.883  -1.780  -6.265  0.00  0.00     0.027 C 
ATOM      2  H   LIG d   1       7.754  -1.330  -5.789  0.00  0.00     0.041 H 
ATOM      3  C   LIG d   1       7.333  -2.963  -7.134  0.00  0.00     0.028 C 
ATOM      4  N   LIG d   1       6.170  -3.829  -7.344  0.00  0.00    -0.265 N 
ATOM      5  C   LIG d   1       5.491  -4.115  -8.455  0.00  0.00     0.317 C 
ATOM      6  O   LIG d   1       5.897  -3.894  -9.578  0.00  0.00    -0.252 OA
ATOM      7  N   LIG d   1       4.302  -4.675  -8.180  0.00  0.00    -0.192 N 
ATOM      8  C   LIG d   1       4.151  -4.901  -6.857  0.00  0.00     0.257 C 
ATOM      9  O   LIG d   1       3.168  -5.335  -6.293  0.00  0.00    -0.272 OA
ATOM     10  C   LIG d   1       5.462  -4.499  -6.227  0.00  0.00     0.153 C 
ATOM     11  C   LIG d   1       5.269  -3.432  -5.176  0.00  0.00     0.054 A 
ATOM     12  C   LIG d   1       5.918  -2.245  -5.205  0.00  0.00    -0.008 A 
ATOM     13  C   LIG d   1       5.485  -1.510  -4.029  0.00  0.00     0.004 A 
ATOM     14  C   LIG d   1       5.819  -0.246  -3.533  0.00  0.00    -0.052 A 
ATOM     15  C   LIG d   1       5.207   0.143  -2.366  0.00  0.00    -0.061 A 
ATOM     16  C   LIG d   1       4.293  -0.666  -1.710  0.00  0.00    -0.060 A 
ATOM     17  C   LIG d   1       3.945  -1.920  -2.179  0.00  0.00    -0.038 A 
ATOM     18  C   LIG d   1       4.556  -2.344  -3.358  0.00  0.00     0.047 A 
ATOM     19  N   LIG d   1       4.449  -3.497  -4.082  0.00  0.00    -0.356 N 
ATOM     20  H   LIG d   1       3.880  -4.247  -3.855  0.00  0.00     0.166 HD
ATOM     21  H   LIG d   1       8.119  -3.519  -6.623  0.00  0.00     0.048 H 
ATOM     22  H   LIG d   1       7.699  -2.599  -8.093  0.00  0.00     0.048 H 
ATOM     23  H   LIG d   1       6.527   0.392  -4.039  0.00  0.00     0.062 H 
ATOM     24  H   LIG d   1       5.443   1.111  -1.949  0.00  0.00     0.062 H 
ATOM     25  H   LIG d   1       3.838  -0.306  -0.798  0.00  0.00     0.062 H 
ATOM     26  H   LIG d   1       3.234  -2.543  -1.656  0.00  0.00     0.064 H 
ENDROOT
BRANCH   1  27
ATOM     27  C   LIG d   1       6.208  -0.751  -7.135  0.00  0.00    -0.038 A 
ATOM     28  C   LIG d   1       4.827  -0.704  -7.207  0.00  0.00    -0.058 A 
ATOM     29  C   LIG d   1       4.208   0.239  -8.005  0.00  0.00    -0.058 A 
ATOM     30  H   LIG d   1       4.233  -1.406  -6.639  0.00  0.00     0.062 H 
ATOM     31  C   LIG d   1       4.969   1.136  -8.730  0.00  0.00    -0.048 A 
ATOM     32  H   LIG d   1       3.130   0.274  -8.060  0.00  0.00     0.062 H 
ATOM     33  C   LIG d   1       6.348   1.090  -8.659  0.00  0.00    -0.058 A 
ATOM     34  C   LIG d   1       6.967   0.149  -7.858  0.00  0.00    -0.058 A 
ATOM     35  H   LIG d   1       6.942   1.792  -9.227  0.00  0.00     0.062 H 
ATOM     36  H   LIG d   1       8.045   0.117  -7.799  0.00  0.00     0.062 H 
BRANCH  31  37
ATOM     37  C   LIG d   1       4.293   2.165  -9.601  0.00  0.00    -0.030 C 
ATOM     38  H   LIG d   1       4.703   3.151  -9.383  0.00  0.00     0.031 H 
ATOM     39  H   LIG d   1       4.464   1.922 -10.650  0.00  0.00     0.031 H 
BRANCH  37  40
ATOM     40  C   LIG d   1       2.789   2.165  -9.316  0.00  0.00    -0.061 C 
ATOM     41  H   LIG d   1       2.520   1.250  -8.788  0.00  0.00     0.023 H 
ATOM     42  H   LIG d   1       2.535   3.027  -8.700  0.00  0.00     0.023 H 
ATOM     43  H   LIG d   1       2.241   2.216 -10.256  0.00  0.00     0.023 H 
ENDBRANCH  37  40
ENDBRANCH  31  37
ENDBRANCH   1  27
BRANCH  10  44
ATOM     44  C   LIG d   1       6.242  -5.698  -5.685  0.00  0.00    -0.029 C 
ATOM     45  H   LIG d   1       6.984  -5.354  -4.963  0.00  0.00     0.026 H 
ATOM     46  H   LIG d   1       5.554  -6.389  -5.197  0.00  0.00     0.026 H 
ATOM     47  H   LIG d   1       6.745  -6.207  -6.508  0.00  0.00     0.026 H 
ENDBRANCH  10  44
BRANCH   7  48
ATOM     48  C   LIG d   1       3.336  -4.988  -9.148  0.00  0.00     0.046 A 
ATOM     49  C   LIG d   1       2.541  -3.986  -9.687  0.00  0.00    -0.033 A 
ATOM     50  C   LIG d   1       1.591  -4.297 -10.640  0.00  0.00     0.017 A 
ATOM     51  H   LIG d   1       2.666  -2.964  -9.361  0.00  0.00     0.064 H 
ATOM     52  C   LIG d   1       1.431  -5.607 -11.057  0.00  0.00     0.273 A 
ATOM     53  H   LIG d   1       0.972  -3.519 -11.059  0.00  0.00     0.069 H 
ATOM     54  C   LIG d   1       2.222  -6.607 -10.523  0.00  0.00     0.017 A 
ATOM     55  C   LIG d   1       3.177  -6.300  -9.573  0.00  0.00    -0.033 A 
ATOM     56  H   LIG d   1       2.095  -7.627 -10.850  0.00  0.00     0.069 H 
ATOM     57  H   LIG d   1       3.798  -7.081  -9.159  0.00  0.00     0.064 H 
BRANCH  52  58
ATOM     58  N   LIG d   1       0.412  -5.937 -12.078  0.00  0.00     0.080 N 
ATOM     59  O   LIG d   1      -0.112  -7.037 -12.082  0.00  0.00     0.041 OA
ATOM     60  O   LIG d   1       0.095  -5.109 -12.914  0.00  0.00    -0.576 OA
ENDBRANCH  52  58
ENDBRANCH   7  48
TORSDOF 6
ENDMDL
MODEL 3
REMARK VINA RESULT:      -7.2      5.212      9.667
REMARK  6 active torsions:
REMARK  status: ('A' for Active; 'I' for Inactive)
REMARK    1  A    between atoms: C_1  and  C_2 
REMARK    2  A    between atoms: C_2  and  C_3 
REMARK    3  A    between atoms: C_6  and  C_9 
REMARK    4  A    between atoms: N_15  and  C_30 
REMARK    5  A    between atoms: C_18  and  C_29 
REMARK    6  A    between atoms: C_33  and  N_36 
ROOT
ATOM      1  C   LIG d   1       6.573  -1.258  -7.254  0.00  0.00     0.027 C 
ATOM      2  H   LIG d   1       6.080  -2.088  -7.761  0.00  0.00     0.041 H 
ATOM      3  C   LIG d   1       8.089  -1.500  -7.236  0.00  0.00     0.028 C 
ATOM      4  N   LIG d   1       8.743  -0.207  -7.025  0.00  0.00    -0.265 N 
ATOM      5  C   LIG d   1       9.461   0.245  -5.996  0.00  0.00     0.317 C 
ATOM      6  O   LIG d   1       9.930  -0.466  -5.129  0.00  0.00    -0.252 OA
ATOM      7  N   LIG d   1       9.601   1.579  -6.035  0.00  0.00    -0.192 N 
ATOM      8  C   LIG d   1       9.072   2.104  -7.162  0.00  0.00     0.257 C 
ATOM      9  O   LIG d   1       8.986   3.277  -7.455  0.00  0.00    -0.272 OA
ATOM     10  C   LIG d   1       8.606   0.921  -7.977  0.00  0.00     0.153 C 
ATOM     11  C   LIG d   1       7.132   1.008  -8.290  0.00  0.00     0.054 A 
ATOM     12  C   LIG d   1       6.255   0.027  -7.975  0.00  0.00    -0.008 A 
ATOM     13  C   LIG d   1       4.955   0.468  -8.449  0.00  0.00     0.004 A 
ATOM     14  C   LIG d   1       3.688  -0.123  -8.413  0.00  0.00    -0.052 A 
ATOM     15  C   LIG d   1       2.655   0.591  -8.970  0.00  0.00    -0.061 A 
ATOM     16  C   LIG d   1       2.845   1.843  -9.531  0.00  0.00    -0.060 A 
ATOM     17  C   LIG d   1       4.087   2.452  -9.579  0.00  0.00    -0.038 A 
ATOM     18  C   LIG d   1       5.156   1.746  -9.029  0.00  0.00     0.047 A 
ATOM     19  N   LIG d   1       6.484   2.040  -8.912  0.00  0.00    -0.356 N 
ATOM     20  H   LIG d   1       6.904   2.856  -9.223  0.00  0.00     0.166 HD
ATOM     21  H   LIG d   1       8.406  -1.923  -8.189  0.00  0.00     0.048 H 
ATOM     22  H   LIG d   1       8.345  -2.180  -6.425  0.00  0.00     0.048 H 
ATOM     23  H   LIG d   1       3.530  -1.097  -7.975  0.00  0.00     0.062 H 
ATOM     24  H   LIG d   1       1.663   0.165  -8.965  0.00  0.00     0.062 H 
ATOM     25  H   LIG d   1       1.994   2.362  -9.949  0.00  0.00     0.062 H 
ATOM     26  H   LIG d   1       4.223   3.426 -10.024  0.00  0.00     0.064 H 
ENDROOT
BRANCH   1  27
ATOM     27  C   LIG d   1       6.065  -1.173  -5.837  0.00  0.00    -0.038 A 
ATOM     28  C   LIG d   1       6.112   0.030  -5.157  0.00  0.00    -0.058 A 
ATOM     29  C   LIG d   1       5.647   0.108  -3.858  0.00  0.00    -0.058 A 
ATOM     30  H   LIG d   1       6.514   0.908  -5.641  0.00  0.00     0.062 H 
ATOM     31  C   LIG d   1       5.133  -1.016  -3.240  0.00  0.00    -0.048 A 
ATOM     32  H   LIG d   1       5.685   1.047  -3.327  0.00  0.00     0.062 H 
ATOM     33  C   LIG d   1       5.085  -2.219  -3.920  0.00  0.00    -0.058 A 
ATOM     34  C   LIG d   1       5.547  -2.296  -5.220  0.00  0.00    -0.058 A 
ATOM     35  H   LIG d   1       4.683  -3.097  -3.436  0.00  0.00     0.062 H 
ATOM     36  H   LIG d   1       5.505  -3.235  -5.753  0.00  0.00     0.062 H 
BRANCH  31  37
ATOM     37  C   LIG d   1       4.626  -0.931  -1.823  0.00  0.00    -0.030 C 
ATOM     38  H   LIG d   1       3.659  -1.429  -1.753  0.00  0.00     0.031 H 
ATOM     39  H   LIG d   1       5.335  -1.416  -1.153  0.00  0.00     0.031 H 
BRANCH  37  40
ATOM     40  C   LIG d   1       4.471   0.538  -1.425  0.00  0.00    -0.061 C 
ATOM     41  H   LIG d   1       3.440   0.852  -1.590  0.00  0.00     0.023 H 
ATOM     42  H   LIG d   1       4.723   0.659  -0.371  0.00  0.00     0.023 H 
ATOM     43  H   LIG d   1       5.138   1.151  -2.031  0.00  0.00     0.023 H 
ENDBRANCH  37  40
ENDBRANCH  31  37
ENDBRANCH   1  27
BRANCH  10  44
ATOM     44  C   LIG d   1       9.446   0.716  -9.239  0.00  0.00    -0.029 C 
ATOM     45  H   LIG d   1      10.442   0.370  -8.961  0.00  0.00     0.026 H 
ATOM     46  H   LIG d   1       8.968  -0.028  -9.877  0.00  0.00     0.026 H 
ATOM     47  H   LIG d   1       9.528   1.660  -9.780  0.00  0.00     0.026 H 
ENDBRANCH  10  44
BRANCH   7  48
ATOM     48  C   LIG d   1      10.223   2.335  -5.030  0.00  0.00     0.046 A 
ATOM     49  C   LIG d   1       9.493   2.762  -3.929  0.00  0.00    -0.033 A 
ATOM     50  C   LIG d   1      10.107   3.507  -2.942  0.00  0.00     0.017 A 
ATOM     51  H   LIG d   1       8.446   2.511  -3.845  0.00  0.00     0.064 H 
ATOM     52  C   LIG d   1      11.449   3.828  -3.049  0.00  0.00     0.273 A 
ATOM     53  H   LIG d   1       9.540   3.839  -2.085  0.00  0.00     0.069 H 
ATOM     54  C   LIG d   1      12.178   3.404  -4.144  0.00  0.00     0.017 A 
ATOM     55  C   LIG d   1      11.569   2.655  -5.133  0.00  0.00    -0.033 A 
ATOM     56  H   LIG d   1      13.224   3.656  -4.226  0.00  0.00     0.069 H 
ATOM     57  H   LIG d   1      12.141   2.320  -5.986  0.00  0.00     0.064 H 
BRANCH  52  58
ATOM     58  N   LIG d   1      12.104   4.627  -1.989  0.00  0.00     0.080 N 
ATOM     59  O   LIG d   1      11.473   4.964  -1.004  0.00  0.00     0.041 OA
ATOM     60  O   LIG d   1      13.274   4.945  -2.102  0.00  0.00    -0.576 OA
ENDBRANCH  52  58
ENDBRANCH   7  48
TORSDOF 6
ENDMDL
MODEL 4
REMARK VINA RESULT:      -7.0      5.581      9.665
REMARK  6 active torsions:
REMARK  status: ('A' for Active; 'I' for Inactive)
REMARK    1  A    between atoms: C_1  and  C_2 
REMARK    2  A    between atoms: C_2  and  C_3 
REMARK    3  A    between atoms: C_6  and  C_9 
REMARK    4  A    between atoms: N_15  and  C_30 
REMARK    5  A    between atoms: C_18  and  C_29 
REMARK    6  A    between atoms: C_33  and  N_36 
ROOT
ATOM      1  C   LIG d   1       6.999  -2.162  -5.826  0.00  0.00     0.027 C 
ATOM      2  H   LIG d   1       6.059  -2.546  -6.221  0.00  0.00     0.041 H 
ATOM      3  C   LIG d   1       7.885  -1.688  -6.987  0.00  0.00     0.028 C 
ATOM      4  N   LIG d   1       8.871  -0.752  -6.443  0.00  0.00    -0.265 N 
ATOM      5  C   LIG d   1      10.196  -0.855  -6.333  0.00  0.00     0.317 C 
ATOM      6  O   LIG d   1      10.868  -1.674  -6.928  0.00  0.00    -0.252 OA
ATOM      7  N   LIG d   1      10.697   0.057  -5.484  0.00  0.00    -0.192 N 
ATOM      8  C   LIG d   1       9.743   0.908  -5.046  0.00  0.00     0.257 C 
ATOM      9  O   LIG d   1       9.870   1.794  -4.228  0.00  0.00    -0.272 OA
ATOM     10  C   LIG d   1       8.487   0.521  -5.788  0.00  0.00     0.153 C 
ATOM     11  C   LIG d   1       7.369   0.164  -4.839  0.00  0.00     0.054 A 
ATOM     12  C   LIG d   1       6.716  -1.020  -4.883  0.00  0.00    -0.008 A 
ATOM     13  C   LIG d   1       5.711  -0.976  -3.836  0.00  0.00     0.004 A 
ATOM     14  C   LIG d   1       4.745  -1.897  -3.417  0.00  0.00    -0.052 A 
ATOM     15  C   LIG d   1       3.939  -1.518  -2.371  0.00  0.00    -0.061 A 
ATOM     16  C   LIG d   1       4.076  -0.290  -1.745  0.00  0.00    -0.060 A 
ATOM     17  C   LIG d   1       5.023   0.639  -2.139  0.00  0.00    -0.038 A 
ATOM     18  C   LIG d   1       5.850   0.284  -3.203  0.00  0.00     0.047 A 
ATOM     19  N   LIG d   1       6.864   0.946  -3.835  0.00  0.00    -0.356 N 
ATOM     20  H   LIG d   1       7.177   1.834  -3.608  0.00  0.00     0.166 HD
ATOM     21  H   LIG d   1       7.274  -1.185  -7.736  0.00  0.00     0.048 H 
ATOM     22  H   LIG d   1       8.394  -2.541  -7.436  0.00  0.00     0.048 H 
ATOM     23  H   LIG d   1       4.634  -2.858  -3.897  0.00  0.00     0.062 H 
ATOM     24  H   LIG d   1       3.179  -2.201  -2.023  0.00  0.00     0.062 H 
ATOM     25  H   LIG d   1       3.418  -0.047  -0.923  0.00  0.00     0.062 H 
ATOM     26  H   LIG d   1       5.117   1.595  -1.645  0.00  0.00     0.064 H 
ENDROOT
BRANCH   1  27
ATOM     27  C   LIG d   1       7.707  -3.262  -5.076  0.00  0.00    -0.038 A 
ATOM     28  C   LIG d   1       8.431  -2.967  -3.935  0.00  0.00    -0.058 A 
ATOM     29  C   LIG d   1       9.079  -3.975  -3.248  0.00  0.00    -0.058 A 
ATOM     30  H   LIG d   1       8.489  -1.947  -3.582  0.00  0.00     0.062 H 
ATOM     31  C   LIG d   1       9.003  -5.279  -3.701  0.00  0.00    -0.048 A 
ATOM     32  H   LIG d   1       9.645  -3.744  -2.358  0.00  0.00     0.062 H 
ATOM     33  C   LIG d   1       8.279  -5.574  -4.840  0.00  0.00    -0.058 A 
ATOM     34  C   LIG d   1       7.628  -4.566  -5.525  0.00  0.00    -0.058 A 
ATOM     35  H   LIG d   1       8.220  -6.593  -5.194  0.00  0.00     0.062 H 
ATOM     36  H   LIG d   1       7.058  -4.798  -6.413  0.00  0.00     0.062 H 
BRANCH  31  37
ATOM     37  C   LIG d   1       9.711  -6.379  -2.951  0.00  0.00    -0.030 C 
ATOM     38  H   LIG d   1       9.146  -7.305  -3.047  0.00  0.00     0.031 H 
ATOM     39  H   LIG d   1      10.709  -6.517  -3.366  0.00  0.00     0.031 H 
BRANCH  37  40
ATOM     40  C   LIG d   1       9.821  -5.999  -1.473  0.00  0.00    -0.061 C 
ATOM     41  H   LIG d   1      10.762  -5.476  -1.301  0.00  0.00     0.023 H 
ATOM     42  H   LIG d   1       8.990  -5.348  -1.201  0.00  0.00     0.023 H 
ATOM     43  H   LIG d   1       9.790  -6.901  -0.863  0.00  0.00     0.023 H 
ENDBRANCH  37  40
ENDBRANCH  31  37
ENDBRANCH   1  27
BRANCH  10  44
ATOM     44  C   LIG d   1       8.057   1.584  -6.802  0.00  0.00    -0.029 C 
ATOM     45  H   LIG d   1       7.685   1.096  -7.704  0.00  0.00     0.026 H 
ATOM     46  H   LIG d   1       7.267   2.199  -6.371  0.00  0.00     0.026 H 
ATOM     47  H   LIG d   1       8.911   2.212  -7.055  0.00  0.00     0.026 H 
ENDBRANCH  10  44
BRANCH   7  48
ATOM     48  C   LIG d   1      12.045   0.119  -5.101  0.00  0.00     0.046 A 
ATOM     49  C   LIG d   1      12.533  -0.747  -4.131  0.00  0.00    -0.033 A 
ATOM     50  C   LIG d   1      13.860  -0.683  -3.756  0.00  0.00     0.017 A 
ATOM     51  H   LIG d   1      11.875  -1.469  -3.673  0.00  0.00     0.064 H 
ATOM     52  C   LIG d   1      14.704   0.243  -4.344  0.00  0.00     0.273 A 
ATOM     53  H   LIG d   1      14.241  -1.355  -3.002  0.00  0.00     0.069 H 
ATOM     54  C   LIG d   1      14.220   1.106  -5.310  0.00  0.00     0.017 A 
ATOM     55  C   LIG d   1      12.894   1.043  -5.693  0.00  0.00    -0.033 A 
ATOM     56  H   LIG d   1      14.880   1.827  -5.767  0.00  0.00     0.069 H 
ATOM     57  H   LIG d   1      12.519   1.715  -6.450  0.00  0.00     0.064 H 
BRANCH  52  58
ATOM     58  N   LIG d   1      16.125   0.309  -3.938  0.00  0.00     0.080 N 
ATOM     59  O   LIG d   1      16.563   1.319  -3.417  0.00  0.00     0.041 OA
ATOM     60  O   LIG d   1      16.857  -0.646  -4.125  0.00  0.00    -0.576 OA
ENDBRANCH  52  58
ENDBRANCH   7  48
TORSDOF 6
ENDMDL
MODEL 5
REMARK VINA RESULT:      -6.9      5.276      8.367
REMARK  6 active torsions:
REMARK  status: ('A' for Active; 'I' for Inactive)
REMARK    1  A    between atoms: C_1  and  C_2 
REMARK    2  A    between atoms: C_2  and  C_3 
REMARK    3  A    between atoms: C_6  and  C_9 
REMARK    4  A    between atoms: N_15  and  C_30 
REMARK    5  A    between atoms: C_18  and  C_29 
REMARK    6  A    between atoms: C_33  and  N_36 
ROOT
ATOM      1  C   LIG d   1       8.204  -0.846  -6.348  0.00  0.00     0.027 C 
ATOM      2  H   LIG d   1       7.817  -0.181  -7.120  0.00  0.00     0.041 H 
ATOM      3  C   LIG d   1       8.698  -2.147  -6.997  0.00  0.00     0.028 C 
ATOM      4  N   LIG d   1       9.635  -2.781  -6.067  0.00  0.00    -0.265 N 
ATOM      5  C   LIG d   1       9.542  -3.923  -5.386  0.00  0.00     0.317 C 
ATOM      6  O   LIG d   1       8.735  -4.798  -5.630  0.00  0.00    -0.252 OA
ATOM      7  N   LIG d   1      10.448  -3.987  -4.397  0.00  0.00    -0.192 N 
ATOM      8  C   LIG d   1      11.286  -2.928  -4.419  0.00  0.00     0.257 C 
ATOM      9  O   LIG d   1      12.164  -2.670  -3.623  0.00  0.00    -0.272 OA
ATOM     10  C   LIG d   1      10.898  -2.132  -5.641  0.00  0.00     0.153 C 
ATOM     11  C   LIG d   1      10.521  -0.714  -5.284  0.00  0.00     0.054 A 
ATOM     12  C   LIG d   1       9.333  -0.162  -5.620  0.00  0.00    -0.008 A 
ATOM     13  C   LIG d   1       9.356   1.202  -5.122  0.00  0.00     0.004 A 
ATOM     14  C   LIG d   1       8.423   2.242  -5.179  0.00  0.00    -0.052 A 
ATOM     15  C   LIG d   1       8.783   3.431  -4.592  0.00  0.00    -0.061 A 
ATOM     16  C   LIG d   1      10.005   3.599  -3.962  0.00  0.00    -0.060 A 
ATOM     17  C   LIG d   1      10.947   2.587  -3.891  0.00  0.00    -0.038 A 
ATOM     18  C   LIG d   1      10.610   1.371  -4.485  0.00  0.00     0.047 A 
ATOM     19  N   LIG d   1      11.287   0.191  -4.601  0.00  0.00    -0.356 N 
ATOM     20  H   LIG d   1      12.175   0.021  -4.252  0.00  0.00     0.166 HD
ATOM     21  H   LIG d   1       9.205  -1.922  -7.936  0.00  0.00     0.048 H 
ATOM     22  H   LIG d   1       7.854  -2.812  -7.182  0.00  0.00     0.048 H 
ATOM     23  H   LIG d   1       7.467   2.119  -5.665  0.00  0.00     0.062 H 
ATOM     24  H   LIG d   1       8.091   4.259  -4.620  0.00  0.00     0.062 H 
ATOM     25  H   LIG d   1      10.234   4.555  -3.512  0.00  0.00     0.062 H 
ATOM     26  H   LIG d   1      11.898   2.732  -3.401  0.00  0.00     0.064 H 
ENDROOT
BRANCH   1  27
ATOM     27  C   LIG d   1       7.101  -1.164  -5.371  0.00  0.00    -0.038 A 
ATOM     28  C   LIG d   1       5.795  -1.272  -5.814  0.00  0.00    -0.058 A 
ATOM     29  C   LIG d   1       4.784  -1.563  -4.918  0.00  0.00    -0.058 A 
ATOM     30  H   LIG d   1       5.566  -1.128  -6.860  0.00  0.00     0.062 H 
ATOM     31  C   LIG d   1       5.078  -1.748  -3.581  0.00  0.00    -0.048 A 
ATOM     32  H   LIG d   1       3.764  -1.647  -5.265  0.00  0.00     0.062 H 
ATOM     33  C   LIG d   1       6.383  -1.640  -3.138  0.00  0.00    -0.058 A 
ATOM     34  C   LIG d   1       7.395  -1.353  -4.034  0.00  0.00    -0.058 A 
ATOM     35  H   LIG d   1       6.612  -1.784  -2.092  0.00  0.00     0.062 H 
ATOM     36  H   LIG d   1       8.415  -1.274  -3.689  0.00  0.00     0.062 H 
BRANCH  31  37
ATOM     37  C   LIG d   1       3.974  -2.065  -2.604  0.00  0.00    -0.030 C 
ATOM     38  H   LIG d   1       3.613  -3.078  -2.781  0.00  0.00     0.031 H 
ATOM     39  H   LIG d   1       4.356  -1.987  -1.586  0.00  0.00     0.031 H 
BRANCH  37  40
ATOM     40  C   LIG d   1       2.824  -1.073  -2.795  0.00  0.00    -0.061 C 
ATOM     41  H   LIG d   1       2.432  -0.780  -1.821  0.00  0.00     0.023 H 
ATOM     42  H   LIG d   1       3.188  -0.190  -3.320  0.00  0.00     0.023 H 
ATOM     43  H   LIG d   1       2.033  -1.543  -3.379  0.00  0.00     0.023 H 
ENDBRANCH  37  40
ENDBRANCH  31  37
ENDBRANCH   1  27
BRANCH  10  44
ATOM     44  C   LIG d   1      11.968  -2.180  -6.733  0.00  0.00    -0.029 C 
ATOM     45  H   LIG d   1      12.198  -3.219  -6.972  0.00  0.00     0.026 H 
ATOM     46  H   LIG d   1      11.599  -1.676  -7.627  0.00  0.00     0.026 H 
ATOM     47  H   LIG d   1      12.871  -1.680  -6.381  0.00  0.00     0.026 H 
ENDBRANCH  10  44
BRANCH   7  48
ATOM     48  C   LIG d   1      10.516  -5.027  -3.458  0.00  0.00     0.046 A 
ATOM     49  C   LIG d   1      11.368  -6.103  -3.673  0.00  0.00    -0.033 A 
ATOM     50  C   LIG d   1      11.433  -7.126  -2.748  0.00  0.00     0.017 A 
ATOM     51  H   LIG d   1      11.978  -6.139  -4.563  0.00  0.00     0.064 H 
ATOM     52  C   LIG d   1      10.651  -7.080  -1.607  0.00  0.00     0.273 A 
ATOM     53  H   LIG d   1      12.094  -7.963  -2.914  0.00  0.00     0.069 H 
ATOM     54  C   LIG d   1       9.803  -6.009  -1.390  0.00  0.00     0.017 A 
ATOM     55  C   LIG d   1       9.737  -4.981  -2.311  0.00  0.00    -0.033 A 
ATOM     56  H   LIG d   1       9.194  -5.976  -0.500  0.00  0.00     0.069 H 
ATOM     57  H   LIG d   1       9.078  -4.144  -2.139  0.00  0.00     0.064 H 
BRANCH  52  58
ATOM     58  N   LIG d   1      10.723  -8.177  -0.617  0.00  0.00     0.080 N 
ATOM     59  O   LIG d   1      10.281  -9.277  -0.895  0.00  0.00     0.041 OA
ATOM     60  O   LIG d   1      11.226  -7.981   0.475  0.00  0.00    -0.576 OA
ENDBRANCH  52  58
ENDBRANCH   7  48
TORSDOF 6
ENDMDL
MODEL 6
REMARK VINA RESULT:      -6.6      4.376      8.657
REMARK  6 active torsions:
REMARK  status: ('A' for Active; 'I' for Inactive)
REMARK    1  A    between atoms: C_1  and  C_2 
REMARK    2  A    between atoms: C_2  and  C_3 
REMARK    3  A    between atoms: C_6  and  C_9 
REMARK    4  A    between atoms: N_15  and  C_30 
REMARK    5  A    between atoms: C_18  and  C_29 
REMARK    6  A    between atoms: C_33  and  N_36 
ROOT
ATOM      1  C   LIG d   1       5.365  -2.363  -7.157  0.00  0.00     0.027 C 
ATOM      2  H   LIG d   1       4.485  -2.926  -7.467  0.00  0.00     0.041 H 
ATOM      3  C   LIG d   1       6.602  -3.269  -7.232  0.00  0.00     0.028 C 
ATOM      4  N   LIG d   1       7.783  -2.406  -7.307  0.00  0.00    -0.265 N 
ATOM      5  C   LIG d   1       8.778  -2.219  -6.440  0.00  0.00     0.317 C 
ATOM      6  O   LIG d   1       9.017  -2.961  -5.507  0.00  0.00    -0.252 OA
ATOM      7  N   LIG d   1       9.483  -1.112  -6.722  0.00  0.00    -0.192 N 
ATOM      8  C   LIG d   1       9.067  -0.536  -7.871  0.00  0.00     0.257 C 
ATOM      9  O   LIG d   1       9.462   0.504  -8.356  0.00  0.00    -0.272 OA
ATOM     10  C   LIG d   1       8.008  -1.458  -8.425  0.00  0.00     0.153 C 
ATOM     11  C   LIG d   1       6.693  -0.741  -8.616  0.00  0.00     0.054 A 
ATOM     12  C   LIG d   1       5.536  -1.167  -8.059  0.00  0.00    -0.008 A 
ATOM     13  C   LIG d   1       4.506  -0.236  -8.486  0.00  0.00     0.004 A 
ATOM     14  C   LIG d   1       3.131  -0.172  -8.236  0.00  0.00    -0.052 A 
ATOM     15  C   LIG d   1       2.444   0.867  -8.814  0.00  0.00    -0.061 A 
ATOM     16  C   LIG d   1       3.074   1.819  -9.599  0.00  0.00    -0.060 A 
ATOM     17  C   LIG d   1       4.433   1.780  -9.862  0.00  0.00    -0.038 A 
ATOM     18  C   LIG d   1       5.154   0.731  -9.294  0.00  0.00     0.047 A 
ATOM     19  N   LIG d   1       6.476   0.394  -9.348  0.00  0.00    -0.356 N 
ATOM     20  H   LIG d   1       7.157   0.885  -9.832  0.00  0.00     0.166 HD
ATOM     21  H   LIG d   1       6.547  -3.897  -8.121  0.00  0.00     0.048 H 
ATOM     22  H   LIG d   1       6.657  -3.893  -6.340  0.00  0.00     0.048 H 
ATOM     23  H   LIG d   1       2.632  -0.908  -7.623  0.00  0.00     0.062 H 
ATOM     24  H   LIG d   1       1.380   0.948  -8.648  0.00  0.00     0.062 H 
ATOM     25  H   LIG d   1       2.485   2.619 -10.024  0.00  0.00     0.062 H 
ATOM     26  H   LIG d   1       4.911   2.525 -10.479  0.00  0.00     0.064 H 
ENDROOT
BRANCH   1  27
ATOM     27  C   LIG d   1       5.176  -1.893  -5.738  0.00  0.00    -0.038 A 
ATOM     28  C   LIG d   1       5.532  -0.604  -5.383  0.00  0.00    -0.058 A 
ATOM     29  C   LIG d   1       5.359  -0.173  -4.081  0.00  0.00    -0.058 A 
ATOM     30  H   LIG d   1       5.945   0.065  -6.124  0.00  0.00     0.062 H 
ATOM     31  C   LIG d   1       4.830  -1.029  -3.135  0.00  0.00    -0.048 A 
ATOM     32  H   LIG d   1       5.638   0.833  -3.805  0.00  0.00     0.062 H 
ATOM     33  C   LIG d   1       4.474  -2.317  -3.489  0.00  0.00    -0.058 A 
ATOM     34  C   LIG d   1       4.643  -2.747  -4.791  0.00  0.00    -0.058 A 
ATOM     35  H   LIG d   1       4.061  -2.986  -2.748  0.00  0.00     0.062 H 
ATOM     36  H   LIG d   1       4.360  -3.752  -5.069  0.00  0.00     0.062 H 
BRANCH  31  37
ATOM     37  C   LIG d   1       4.642  -0.559  -1.715  0.00  0.00    -0.030 C 
ATOM     38  H   LIG d   1       3.744  -1.014  -1.297  0.00  0.00     0.031 H 
ATOM     39  H   LIG d   1       5.508  -0.847  -1.119  0.00  0.00     0.031 H 
BRANCH  37  40
ATOM     40  C   LIG d   1       4.497   0.964  -1.698  0.00  0.00    -0.061 C 
ATOM     41  H   LIG d   1       3.444   1.227  -1.587  0.00  0.00     0.023 H 
ATOM     42  H   LIG d   1       5.064   1.375  -0.863  0.00  0.00     0.023 H 
ATOM     43  H   LIG d   1       4.877   1.376  -2.633  0.00  0.00     0.023 H 
ENDBRANCH  37  40
ENDBRANCH  31  37
ENDBRANCH   1  27
BRANCH  10  44
ATOM     44  C   LIG d   1       8.461  -2.168  -9.702  0.00  0.00    -0.029 C 
ATOM     45  H   LIG d   1       7.638  -2.763 -10.099  0.00  0.00     0.026 H 
ATOM     46  H   LIG d   1       8.764  -1.427 -10.442  0.00  0.00     0.026 H 
ATOM     47  H   LIG d   1       9.304  -2.821  -9.475  0.00  0.00     0.026 H 
ENDBRANCH  10  44
BRANCH   7  48
ATOM     48  C   LIG d   1      10.523  -0.616  -5.923  0.00  0.00     0.046 A 
ATOM     49  C   LIG d   1      11.785  -1.190  -5.989  0.00  0.00    -0.033 A 
ATOM     50  C   LIG d   1      12.807  -0.700  -5.200  0.00  0.00     0.017 A 
ATOM     51  H   LIG d   1      11.967  -2.019  -6.656  0.00  0.00     0.064 H 
ATOM     52  C   LIG d   1      12.575   0.363  -4.345  0.00  0.00     0.273 A 
ATOM     53  H   LIG d   1      13.789  -1.146  -5.250  0.00  0.00     0.069 H 
ATOM     54  C   LIG d   1      11.319   0.937  -4.278  0.00  0.00     0.017 A 
ATOM     55  C   LIG d   1      10.294   0.453  -5.068  0.00  0.00    -0.033 A 
ATOM     56  H   LIG d   1      11.140   1.766  -3.611  0.00  0.00     0.069 H 
ATOM     57  H   LIG d   1       9.314   0.905  -5.018  0.00  0.00     0.064 H 
BRANCH  52  58
ATOM     58  N   LIG d   1      13.673   0.886  -3.502  0.00  0.00     0.080 N 
ATOM     59  O   LIG d   1      14.332   0.123  -2.819  0.00  0.00     0.041 OA
ATOM     60  O   LIG d   1      13.917   2.079  -3.491  0.00  0.00    -0.576 OA
ENDBRANCH  52  58
ENDBRANCH   7  48
TORSDOF 6
ENDMDL
MODEL 7
REMARK VINA RESULT:      -6.3      4.265      8.079
REMARK  6 active torsions:
REMARK  status: ('A' for Active; 'I' for Inactive)
REMARK    1  A    between atoms: C_1  and  C_2 
REMARK    2  A    between atoms: C_2  and  C_3 
REMARK    3  A    between atoms: C_6  and  C_9 
REMARK    4  A    between atoms: N_15  and  C_30 
REMARK    5  A    between atoms: C_18  and  C_29 
REMARK    6  A    between atoms: C_33  and  N_36 
ROOT
ATOM      1  C   LIG d   1       4.444  -1.903  -4.816  0.00  0.00     0.027 C 
ATOM      2  H   LIG d   1       3.577  -2.473  -4.483  0.00  0.00     0.041 H 
ATOM      3  C   LIG d   1       5.088  -1.205  -3.610  0.00  0.00     0.028 C 
ATOM      4  N   LIG d   1       6.471  -0.882  -3.968  0.00  0.00    -0.265 N 
ATOM      5  C   LIG d   1       7.070   0.296  -4.142  0.00  0.00     0.317 C 
ATOM      6  O   LIG d   1       6.610   1.357  -3.766  0.00  0.00    -0.252 OA
ATOM      7  N   LIG d   1       8.241   0.169  -4.786  0.00  0.00    -0.192 N 
ATOM      8  C   LIG d   1       8.558  -1.128  -4.992  0.00  0.00     0.257 C 
ATOM      9  O   LIG d   1       9.514  -1.562  -5.599  0.00  0.00    -0.272 OA
ATOM     10  C   LIG d   1       7.470  -1.922  -4.311  0.00  0.00     0.153 C 
ATOM     11  C   LIG d   1       6.770  -2.848  -5.278  0.00  0.00     0.054 A 
ATOM     12  C   LIG d   1       5.432  -2.832  -5.473  0.00  0.00    -0.008 A 
ATOM     13  C   LIG d   1       5.146  -3.867  -6.451  0.00  0.00     0.004 A 
ATOM     14  C   LIG d   1       3.953  -4.314  -7.029  0.00  0.00    -0.052 A 
ATOM     15  C   LIG d   1       4.051  -5.340  -7.937  0.00  0.00    -0.061 A 
ATOM     16  C   LIG d   1       5.268  -5.904  -8.282  0.00  0.00    -0.060 A 
ATOM     17  C   LIG d   1       6.463  -5.481  -7.725  0.00  0.00    -0.038 A 
ATOM     18  C   LIG d   1       6.393  -4.446  -6.794  0.00  0.00     0.047 A 
ATOM     19  N   LIG d   1       7.353  -3.803  -6.067  0.00  0.00    -0.356 N 
ATOM     20  H   LIG d   1       8.302  -3.994  -6.103  0.00  0.00     0.166 HD
ATOM     21  H   LIG d   1       5.076  -1.872  -2.748  0.00  0.00     0.048 H 
ATOM     22  H   LIG d   1       4.544  -0.290  -3.378  0.00  0.00     0.048 H 
ATOM     23  H   LIG d   1       3.000  -3.878  -6.769  0.00  0.00     0.062 H 
ATOM     24  H   LIG d   1       3.150  -5.715  -8.401  0.00  0.00     0.062 H 
ATOM     25  H   LIG d   1       5.286  -6.705  -9.007  0.00  0.00     0.062 H 
ATOM     26  H   LIG d   1       7.405  -5.932  -7.999  0.00  0.00     0.064 H 
ENDROOT
BRANCH   1  27
ATOM     27  C   LIG d   1       3.998  -0.864  -5.813  0.00  0.00    -0.038 A 
ATOM     28  C   LIG d   1       2.918  -0.049  -5.527  0.00  0.00    -0.058 A 
ATOM     29  C   LIG d   1       2.509   0.904  -6.441  0.00  0.00    -0.058 A 
ATOM     30  H   LIG d   1       2.394  -0.157  -4.588  0.00  0.00     0.062 H 
ATOM     31  C   LIG d   1       3.181   1.042  -7.641  0.00  0.00    -0.048 A 
ATOM     32  H   LIG d   1       1.666   1.539  -6.217  0.00  0.00     0.062 H 
ATOM     33  C   LIG d   1       4.261   0.228  -7.927  0.00  0.00    -0.058 A 
ATOM     34  C   LIG d   1       4.672  -0.722  -7.012  0.00  0.00    -0.058 A 
ATOM     35  H   LIG d   1       4.785   0.337  -8.866  0.00  0.00     0.062 H 
ATOM     36  H   LIG d   1       5.519  -1.354  -7.234  0.00  0.00     0.062 H 
BRANCH  31  37
ATOM     37  C   LIG d   1       2.734   2.081  -8.638  0.00  0.00    -0.030 C 
ATOM     38  H   LIG d   1       2.050   1.626  -9.354  0.00  0.00     0.031 H 
ATOM     39  H   LIG d   1       2.230   2.893  -8.116  0.00  0.00     0.031 H 
BRANCH  37  40
ATOM     40  C   LIG d   1       3.954   2.632  -9.380  0.00  0.00    -0.061 C 
ATOM     41  H   LIG d   1       4.159   2.011 -10.253  0.00  0.00     0.023 H 
ATOM     42  H   LIG d   1       3.754   3.654  -9.701  0.00  0.00     0.023 H 
ATOM     43  H   LIG d   1       4.818   2.621  -8.717  0.00  0.00     0.023 H 
ENDBRANCH  37  40
ENDBRANCH  31  37
ENDBRANCH   1  27
BRANCH  10  44
ATOM     44  C   LIG d   1       7.977  -2.666  -3.075  0.00  0.00    -0.029 C 
ATOM     45  H   LIG d   1       7.397  -2.360  -2.203  0.00  0.00     0.026 H 
ATOM     46  H   LIG d   1       7.866  -3.740  -3.225  0.00  0.00     0.026 H 
ATOM     47  H   LIG d   1       9.028  -2.429  -2.913  0.00  0.00     0.026 H 
ENDBRANCH  10  44
BRANCH   7  48
ATOM     48  C   LIG d   1       9.038   1.249  -5.192  0.00  0.00     0.046 A 
ATOM     49  C   LIG d   1       8.806   1.864  -6.415  0.00  0.00    -0.033 A 
ATOM     50  C   LIG d   1       9.593   2.927  -6.812  0.00  0.00     0.017 A 
ATOM     51  H   LIG d   1       8.011   1.511  -7.054  0.00  0.00     0.064 H 
ATOM     52  C   LIG d   1      10.612   3.380  -5.993  0.00  0.00     0.273 A 
ATOM     53  H   LIG d   1       9.413   3.406  -7.763  0.00  0.00     0.069 H 
ATOM     54  C   LIG d   1      10.845   2.770  -4.774  0.00  0.00     0.017 A 
ATOM     55  C   LIG d   1      10.058   1.709  -4.370  0.00  0.00    -0.033 A 
ATOM     56  H   LIG d   1      11.640   3.125  -4.137  0.00  0.00     0.069 H 
ATOM     57  H   LIG d   1      10.237   1.236  -3.416  0.00  0.00     0.064 H 
BRANCH  52  58
ATOM     58  N   LIG d   1      11.453   4.519  -6.422  0.00  0.00     0.080 N 
ATOM     59  O   LIG d   1      12.407   4.860  -5.745  0.00  0.00     0.041 OA
ATOM     60  O   LIG d   1      11.193   5.115  -7.451  0.00  0.00    -0.576 OA
ENDBRANCH  52  58
ENDBRANCH   7  48
TORSDOF 6
ENDMDL
MODEL 8
REMARK VINA RESULT:      -6.2      6.048      9.205
REMARK  6 active torsions:
REMARK  status: ('A' for Active; 'I' for Inactive)
REMARK    1  A    between atoms: C_1  and  C_2 
REMARK    2  A    between atoms: C_2  and  C_3 
REMARK    3  A    between atoms: C_6  and  C_9 
REMARK    4  A    between atoms: N_15  and  C_30 
REMARK    5  A    between atoms: C_18  and  C_29 
REMARK    6  A    between atoms: C_33  and  N_36 
ROOT
ATOM      1  C   LIG d   1       9.750   0.837  -4.970  0.00  0.00     0.027 C 
ATOM      2  H   LIG d   1       9.998   0.111  -4.196  0.00  0.00     0.041 H 
ATOM      3  C   LIG d   1      10.787   0.752  -6.099  0.00  0.00     0.028 C 
ATOM      4  N   LIG d   1      10.186   1.334  -7.301  0.00  0.00    -0.265 N 
ATOM      5  C   LIG d   1      10.499   2.437  -7.981  0.00  0.00     0.317 C 
ATOM      6  O   LIG d   1      11.547   3.039  -7.858  0.00  0.00    -0.252 OA
ATOM      7  N   LIG d   1       9.513   2.804  -8.815  0.00  0.00    -0.192 N 
ATOM      8  C   LIG d   1       8.508   1.901  -8.828  0.00  0.00     0.257 C 
ATOM      9  O   LIG d   1       7.457   1.980  -9.428  0.00  0.00    -0.272 OA
ATOM     10  C   LIG d   1       8.969   0.773  -7.936  0.00  0.00     0.153 C 
ATOM     11  C   LIG d   1       8.000   0.530  -6.804  0.00  0.00     0.054 A 
ATOM     12  C   LIG d   1       8.370   0.548  -5.503  0.00  0.00    -0.008 A 
ATOM     13  C   LIG d   1       7.176   0.256  -4.730  0.00  0.00     0.004 A 
ATOM     14  C   LIG d   1       6.948   0.133  -3.355  0.00  0.00    -0.052 A 
ATOM     15  C   LIG d   1       5.665  -0.160  -2.963  0.00  0.00    -0.061 A 
ATOM     16  C   LIG d   1       4.634  -0.317  -3.875  0.00  0.00    -0.060 A 
ATOM     17  C   LIG d   1       4.831  -0.201  -5.241  0.00  0.00    -0.038 A 
ATOM     18  C   LIG d   1       6.126   0.088  -5.668  0.00  0.00     0.047 A 
ATOM     19  N   LIG d   1       6.662   0.264  -6.912  0.00  0.00    -0.356 N 
ATOM     20  H   LIG d   1       6.169   0.208  -7.744  0.00  0.00     0.166 HD
ATOM     21  H   LIG d   1      11.046  -0.290  -6.284  0.00  0.00     0.048 H 
ATOM     22  H   LIG d   1      11.680   1.313  -5.825  0.00  0.00     0.048 H 
ATOM     23  H   LIG d   1       7.745   0.258  -2.637  0.00  0.00     0.062 H 
ATOM     24  H   LIG d   1       5.452  -0.266  -1.910  0.00  0.00     0.062 H 
ATOM     25  H   LIG d   1       3.643  -0.541  -3.509  0.00  0.00     0.062 H 
ATOM     26  H   LIG d   1       4.021  -0.330  -5.942  0.00  0.00     0.064 H 
ENDROOT
BRANCH   1  27
ATOM     27  C   LIG d   1       9.774   2.222  -4.375  0.00  0.00    -0.038 A 
ATOM     28  C   LIG d   1       9.096   3.254  -4.997  0.00  0.00    -0.058 A 
ATOM     29  C   LIG d   1       9.118   4.524  -4.452  0.00  0.00    -0.058 A 
ATOM     30  H   LIG d   1       8.549   3.067  -5.911  0.00  0.00     0.062 H 
ATOM     31  C   LIG d   1       9.817   4.761  -3.284  0.00  0.00    -0.048 A 
ATOM     32  H   LIG d   1       8.588   5.329  -4.939  0.00  0.00     0.062 H 
ATOM     33  C   LIG d   1      10.494   3.730  -2.661  0.00  0.00    -0.058 A 
ATOM     34  C   LIG d   1      10.469   2.460  -3.205  0.00  0.00    -0.058 A 
ATOM     35  H   LIG d   1      11.041   3.917  -1.748  0.00  0.00     0.062 H 
ATOM     36  H   LIG d   1      10.995   1.653  -2.715  0.00  0.00     0.062 H 
BRANCH  31  37
ATOM     37  C   LIG d   1       9.841   6.146  -2.689  0.00  0.00    -0.030 C 
ATOM     38  H   LIG d   1      10.541   6.768  -3.247  0.00  0.00     0.031 H 
ATOM     39  H   LIG d   1       8.844   6.582  -2.743  0.00  0.00     0.031 H 
BRANCH  37  40
ATOM     40  C   LIG d   1      10.285   6.065  -1.227  0.00  0.00    -0.061 C 
ATOM     41  H   LIG d   1      11.344   6.317  -1.155  0.00  0.00     0.023 H 
ATOM     42  H   LIG d   1       9.704   6.768  -0.630  0.00  0.00     0.023 H 
ATOM     43  H   LIG d   1      10.126   5.054  -0.855  0.00  0.00     0.023 H 
ENDBRANCH  37  40
ENDBRANCH  31  37
ENDBRANCH   1  27
BRANCH  10  44
ATOM     44  C   LIG d   1       9.264  -0.507  -8.719  0.00  0.00    -0.029 C 
ATOM     45  H   LIG d   1      10.326  -0.745  -8.640  0.00  0.00     0.026 H 
ATOM     46  H   LIG d   1       8.677  -1.329  -8.308  0.00  0.00     0.026 H 
ATOM     47  H   LIG d   1       9.002  -0.362  -9.767  0.00  0.00     0.026 H 
ENDBRANCH  10  44
BRANCH   7  48
ATOM     48  C   LIG d   1       9.526   3.979  -9.581  0.00  0.00     0.046 A 
ATOM     49  C   LIG d   1       9.001   5.154  -9.060  0.00  0.00    -0.033 A 
ATOM     50  C   LIG d   1       9.015   6.310  -9.816  0.00  0.00     0.017 A 
ATOM     51  H   LIG d   1       8.584   5.164  -8.064  0.00  0.00     0.064 H 
ATOM     52  C   LIG d   1       9.550   6.298 -11.092  0.00  0.00     0.273 A 
ATOM     53  H   LIG d   1       8.607   7.225  -9.412  0.00  0.00     0.069 H 
ATOM     54  C   LIG d   1      10.073   5.128 -11.613  0.00  0.00     0.017 A 
ATOM     55  C   LIG d   1      10.066   3.971 -10.859  0.00  0.00    -0.033 A 
ATOM     56  H   LIG d   1      10.489   5.121 -12.609  0.00  0.00     0.069 H 
ATOM     57  H   LIG d   1      10.479   3.059 -11.265  0.00  0.00     0.064 H 
BRANCH  52  58
ATOM     58  N   LIG d   1       9.562   7.537 -11.900  0.00  0.00     0.080 N 
ATOM     59  O   LIG d   1       9.201   7.510 -13.063  0.00  0.00     0.041 OA
ATOM     60  O   LIG d   1       9.933   8.585 -11.402  0.00  0.00    -0.576 OA
ENDBRANCH  52  58
ENDBRANCH   7  48
TORSDOF 6
ENDMDL
MODEL 9
REMARK VINA RESULT:      -6.2      5.999      8.722
REMARK  6 active torsions:
REMARK  status: ('A' for Active; 'I' for Inactive)
REMARK    1  A    between atoms: C_1  and  C_2 
REMARK    2  A    between atoms: C_2  and  C_3 
REMARK    3  A    between atoms: C_6  and  C_9 
REMARK    4  A    between atoms: N_15  and  C_30 
REMARK    5  A    between atoms: C_18  and  C_29 
REMARK    6  A    between atoms: C_33  and  N_36 
ROOT
ATOM      1  C   LIG d   1      12.196   1.973  -5.834  0.00  0.00     0.027 C 
ATOM      2  H   LIG d   1      13.110   2.344  -6.298  0.00  0.00     0.041 H 
ATOM      3  C   LIG d   1      11.073   1.934  -6.880  0.00  0.00     0.028 C 
ATOM      4  N   LIG d   1      10.051   1.001  -6.402  0.00  0.00    -0.265 N 
ATOM      5  C   LIG d   1       8.794   1.215  -6.014  0.00  0.00     0.317 C 
ATOM      6  O   LIG d   1       8.174   2.235  -6.244  0.00  0.00    -0.252 OA
ATOM      7  N   LIG d   1       8.297   0.169  -5.336  0.00  0.00    -0.192 N 
ATOM      8  C   LIG d   1       9.161  -0.869  -5.317  0.00  0.00     0.257 C 
ATOM      9  O   LIG d   1       9.029  -1.925  -4.736  0.00  0.00    -0.272 OA
ATOM     10  C   LIG d   1      10.329  -0.437  -6.172  0.00  0.00     0.153 C 
ATOM     11  C   LIG d   1      11.626  -0.478  -5.401  0.00  0.00     0.054 A 
ATOM     12  C   LIG d   1      12.442   0.594  -5.278  0.00  0.00    -0.008 A 
ATOM     13  C   LIG d   1      13.582   0.156  -4.491  0.00  0.00     0.004 A 
ATOM     14  C   LIG d   1      14.736   0.816  -4.055  0.00  0.00    -0.052 A 
ATOM     15  C   LIG d   1      15.628   0.080  -3.314  0.00  0.00    -0.061 A 
ATOM     16  C   LIG d   1      15.400  -1.249  -2.996  0.00  0.00    -0.060 A 
ATOM     17  C   LIG d   1      14.267  -1.926  -3.415  0.00  0.00    -0.038 A 
ATOM     18  C   LIG d   1      13.348  -1.205  -4.176  0.00  0.00     0.047 A 
ATOM     19  N   LIG d   1      12.155  -1.554  -4.740  0.00  0.00    -0.356 N 
ATOM     20  H   LIG d   1      11.745  -2.430  -4.683  0.00  0.00     0.166 HD
ATOM     21  H   LIG d   1      11.470   1.589  -7.835  0.00  0.00     0.048 H 
ATOM     22  H   LIG d   1      10.641   2.928  -6.996  0.00  0.00     0.048 H 
ATOM     23  H   LIG d   1      14.920   1.852  -4.295  0.00  0.00     0.062 H 
ATOM     24  H   LIG d   1      16.533   0.554  -2.963  0.00  0.00     0.062 H 
ATOM     25  H   LIG d   1      16.134  -1.778  -2.405  0.00  0.00     0.062 H 
ATOM     26  H   LIG d   1      14.104  -2.963  -3.165  0.00  0.00     0.064 H 
ENDROOT
BRANCH   1  27
ATOM     27  C   LIG d   1      11.801   2.899  -4.712  0.00  0.00    -0.038 A 
ATOM     28  C   LIG d   1      11.151   2.399  -3.599  0.00  0.00    -0.058 A 
ATOM     29  C   LIG d   1      10.788   3.248  -2.571  0.00  0.00    -0.058 A 
ATOM     30  H   LIG d   1      10.926   1.344  -3.534  0.00  0.00     0.062 H 
ATOM     31  C   LIG d   1      11.076   4.597  -2.655  0.00  0.00    -0.048 A 
ATOM     32  H   LIG d   1      10.279   2.856  -1.703  0.00  0.00     0.062 H 
ATOM     33  C   LIG d   1      11.726   5.097  -3.767  0.00  0.00    -0.058 A 
ATOM     34  C   LIG d   1      12.093   4.247  -4.794  0.00  0.00    -0.058 A 
ATOM     35  H   LIG d   1      11.951   6.152  -3.832  0.00  0.00     0.062 H 
ATOM     36  H   LIG d   1      12.605   4.638  -5.660  0.00  0.00     0.062 H 
BRANCH  31  37
ATOM     37  C   LIG d   1      10.680   5.523  -1.533  0.00  0.00    -0.030 C 
ATOM     38  H   LIG d   1      10.219   4.945  -0.732  0.00  0.00     0.031 H 
ATOM     39  H   LIG d   1      11.564   6.033  -1.153  0.00  0.00     0.031 H 
BRANCH  37  40
ATOM     40  C   LIG d   1       9.680   6.557  -2.056  0.00  0.00    -0.061 C 
ATOM     41  H   LIG d   1       9.867   7.518  -1.575  0.00  0.00     0.023 H 
ATOM     42  H   LIG d   1       9.795   6.662  -3.135  0.00  0.00     0.023 H 
ATOM     43  H   LIG d   1       8.666   6.229  -1.829  0.00  0.00     0.023 H 
ENDBRANCH  37  40
ENDBRANCH  31  37
ENDBRANCH   1  27
BRANCH  10  44
ATOM     44  C   LIG d   1      10.418  -1.224  -7.480  0.00  0.00    -0.029 C 
ATOM     45  H   LIG d   1       9.443  -1.654  -7.713  0.00  0.00     0.026 H 
ATOM     46  H   LIG d   1      10.721  -0.556  -8.287  0.00  0.00     0.026 H 
ATOM     47  H   LIG d   1      11.151  -2.024  -7.375  0.00  0.00     0.026 H 
ENDBRANCH  10  44
BRANCH   7  48
ATOM     48  C   LIG d   1       7.035   0.154  -4.724  0.00  0.00     0.046 A 
ATOM     49  C   LIG d   1       6.864   0.722  -3.469  0.00  0.00    -0.033 A 
ATOM     50  C   LIG d   1       5.621   0.706  -2.868  0.00  0.00     0.017 A 
ATOM     51  H   LIG d   1       7.703   1.176  -2.963  0.00  0.00     0.064 H 
ATOM     52  C   LIG d   1       4.545   0.124  -3.516  0.00  0.00     0.273 A 
ATOM     53  H   LIG d   1       5.487   1.147  -1.892  0.00  0.00     0.069 H 
ATOM     54  C   LIG d   1       4.713  -0.442  -4.766  0.00  0.00     0.017 A 
ATOM     55  C   LIG d   1       5.954  -0.425  -5.374  0.00  0.00    -0.033 A 
ATOM     56  H   LIG d   1       3.873  -0.896  -5.270  0.00  0.00     0.069 H 
ATOM     57  H   LIG d   1       6.082  -0.863  -6.352  0.00  0.00     0.064 H 
BRANCH  52  58
ATOM     58  N   LIG d   1       3.214   0.108  -2.870  0.00  0.00     0.080 N 
ATOM     59  O   LIG d   1       2.424  -0.783  -3.126  0.00  0.00     0.041 OA
ATOM     60  O   LIG d   1       2.909   0.984  -2.081  0.00  0.00    -0.576 OA
ENDBRANCH  52  58
ENDBRANCH   7  48
TORSDOF 6
ENDMDL
MODEL 10
REMARK VINA RESULT:      -5.9      3.620      7.109
REMARK  6 active torsions:
REMARK  status: ('A' for Active; 'I' for Inactive)
REMARK    1  A    between atoms: C_1  and  C_2 
REMARK    2  A    between atoms: C_2  and  C_3 
REMARK    3  A    between atoms: C_6  and  C_9 
REMARK    4  A    between atoms: N_15  and  C_30 
REMARK    5  A    between atoms: C_18  and  C_29 
REMARK    6  A    between atoms: C_33  and  N_36 
ROOT
ATOM      1  C   LIG d   1       4.897  -1.095  -4.627  0.00  0.00     0.027 C 
ATOM      2  H   LIG d   1       4.008  -0.620  -4.210  0.00  0.00     0.041 H 
ATOM      3  C   LIG d   1       5.318  -2.265  -3.727  0.00  0.00     0.028 C 
ATOM      4  N   LIG d   1       6.154  -3.163  -4.526  0.00  0.00    -0.265 N 
ATOM      5  C   LIG d   1       7.448  -3.468  -4.420  0.00  0.00     0.317 C 
ATOM      6  O   LIG d   1       8.124  -3.237  -3.437  0.00  0.00    -0.252 OA
ATOM      7  N   LIG d   1       7.912  -4.061  -5.531  0.00  0.00    -0.192 N 
ATOM      8  C   LIG d   1       6.924  -4.291  -6.424  0.00  0.00     0.257 C 
ATOM      9  O   LIG d   1       7.036  -4.752  -7.540  0.00  0.00    -0.272 OA
ATOM     10  C   LIG d   1       5.652  -3.852  -5.740  0.00  0.00     0.153 C 
ATOM     11  C   LIG d   1       4.931  -2.791  -6.535  0.00  0.00     0.054 A 
ATOM     12  C   LIG d   1       4.594  -1.586  -6.019  0.00  0.00    -0.008 A 
ATOM     13  C   LIG d   1       3.908  -0.863  -7.075  0.00  0.00     0.004 A 
ATOM     14  C   LIG d   1       3.331   0.410  -7.124  0.00  0.00    -0.052 A 
ATOM     15  C   LIG d   1       2.750   0.782  -8.312  0.00  0.00    -0.061 A 
ATOM     16  C   LIG d   1       2.740  -0.051  -9.419  0.00  0.00    -0.060 A 
ATOM     17  C   LIG d   1       3.304  -1.315  -9.398  0.00  0.00    -0.038 A 
ATOM     18  C   LIG d   1       3.894  -1.722  -8.202  0.00  0.00     0.047 A 
ATOM     19  N   LIG d   1       4.524  -2.878  -7.839  0.00  0.00    -0.356 N 
ATOM     20  H   LIG d   1       4.661  -3.643  -8.417  0.00  0.00     0.166 HD
ATOM     21  H   LIG d   1       4.434  -2.798  -3.377  0.00  0.00     0.048 H 
ATOM     22  H   LIG d   1       5.886  -1.892  -2.876  0.00  0.00     0.048 H 
ATOM     23  H   LIG d   1       3.337   1.068  -6.268  0.00  0.00     0.062 H 
ATOM     24  H   LIG d   1       2.290   1.756  -8.387  0.00  0.00     0.062 H 
ATOM     25  H   LIG d   1       2.274   0.296 -10.329  0.00  0.00     0.062 H 
ATOM     26  H   LIG d   1       3.286  -1.957 -10.266  0.00  0.00     0.064 H 
ENDROOT
BRANCH   1  27
ATOM     27  C   LIG d   1       6.014  -0.085  -4.687  0.00  0.00    -0.038 A 
ATOM     28  C   LIG d   1       6.268   0.731  -3.600  0.00  0.00    -0.058 A 
ATOM     29  C   LIG d   1       7.293   1.657  -3.655  0.00  0.00    -0.058 A 
ATOM     30  H   LIG d   1       5.665   0.644  -2.707  0.00  0.00     0.062 H 
ATOM     31  C   LIG d   1       8.064   1.766  -4.796  0.00  0.00    -0.048 A 
ATOM     32  H   LIG d   1       7.490   2.294  -2.806  0.00  0.00     0.062 H 
ATOM     33  C   LIG d   1       7.811   0.950  -5.883  0.00  0.00    -0.058 A 
ATOM     34  C   LIG d   1       6.789   0.022  -5.826  0.00  0.00    -0.058 A 
ATOM     35  H   LIG d   1       8.415   1.036  -6.775  0.00  0.00     0.062 H 
ATOM     36  H   LIG d   1       6.595  -0.619  -6.674  0.00  0.00     0.062 H 
BRANCH  31  37
ATOM     37  C   LIG d   1       9.182   2.776  -4.856  0.00  0.00    -0.030 C 
ATOM     38  H   LIG d   1      10.054   2.325  -5.328  0.00  0.00     0.031 H 
ATOM     39  H   LIG d   1       8.860   3.641  -5.436  0.00  0.00     0.031 H 
BRANCH  37  40
ATOM     40  C   LIG d   1       9.543   3.220  -3.437  0.00  0.00    -0.061 C 
ATOM     41  H   LIG d   1       9.504   2.362  -2.767  0.00  0.00     0.023 H 
ATOM     42  H   LIG d   1      10.549   3.639  -3.431  0.00  0.00     0.023 H 
ATOM     43  H   LIG d   1       8.833   3.976  -3.101  0.00  0.00     0.023 H 
ENDBRANCH  37  40
ENDBRANCH  31  37
ENDBRANCH   1  27
BRANCH  10  44
ATOM     44  C   LIG d   1       4.737  -5.029  -5.398  0.00  0.00    -0.029 C 
ATOM     45  H   LIG d   1       3.698  -4.744  -5.571  0.00  0.00     0.026 H 
ATOM     46  H   LIG d   1       4.989  -5.881  -6.030  0.00  0.00     0.026 H 
ATOM     47  H   LIG d   1       4.869  -5.301  -4.351  0.00  0.00     0.026 H 
ENDBRANCH  10  44
BRANCH   7  48
ATOM     48  C   LIG d   1       9.257  -4.402  -5.739  0.00  0.00     0.046 A 
ATOM     49  C   LIG d   1      10.130  -3.477  -6.297  0.00  0.00    -0.033 A 
ATOM     50  C   LIG d   1      11.453  -3.815  -6.501  0.00  0.00     0.017 A 
ATOM     51  H   LIG d   1       9.774  -2.495  -6.570  0.00  0.00     0.064 H 
ATOM     52  C   LIG d   1      11.910  -5.074  -6.150  0.00  0.00     0.273 A 
ATOM     53  H   LIG d   1      12.133  -3.097  -6.935  0.00  0.00     0.069 H 
ATOM     54  C   LIG d   1      11.042  -5.996  -5.594  0.00  0.00     0.017 A 
ATOM     55  C   LIG d   1       9.718  -5.661  -5.384  0.00  0.00    -0.033 A 
ATOM     56  H   LIG d   1      11.400  -6.977  -5.322  0.00  0.00     0.069 H 
ATOM     57  H   LIG d   1       9.043  -6.381  -4.946  0.00  0.00     0.064 H 
BRANCH  52  58
ATOM     58  N   LIG d   1      13.328  -5.433  -6.370  0.00  0.00     0.080 N 
ATOM     59  O   LIG d   1      13.715  -6.562  -6.127  0.00  0.00     0.041 OA
ATOM     60  O   LIG d   1      14.109  -4.600  -6.796  0.00  0.00    -0.576 OA
ENDBRANCH  52  58
ENDBRANCH   7  48
TORSDOF 6
ENDMDL
