MODEL 1
REMARK VINA RESULT:      -7.8      0.000      0.000
REMARK  5 active torsions:
REMARK  status: ('A' for Active; 'I' for Inactive)
REMARK    1  A    between atoms: C_4  and  C_7 
REMARK    2  A    between atoms: C_7  and  C_8 
REMARK    3  A    between atoms: C_8  and  C_9 
REMARK    4  A    between atoms: C_14  and  N_15 
REMARK       I    between atoms: N_15  and  C_16 
REMARK    5  A    between atoms: C_16  and  C_18 
ROOT
ATOM      1  C   LIG d   1       3.344   0.721  -7.355  0.00  0.00    -0.026 A 
ATOM      2  C   LIG d   1       2.776   1.787  -8.024  0.00  0.00    -0.057 A 
ATOM      3  C   LIG d   1       3.469   2.414  -9.043  0.00  0.00    -0.061 A 
ATOM      4  C   LIG d   1       4.733   1.976  -9.397  0.00  0.00    -0.060 A 
ATOM      5  C   LIG d   1       5.306   0.910  -8.731  0.00  0.00    -0.040 A 
ATOM      6  C   LIG d   1       4.615   0.282  -7.703  0.00  0.00     0.037 A 
ATOM      7  H   LIG d   1       1.790   2.133  -7.751  0.00  0.00     0.062 H 
ATOM      8  H   LIG d   1       3.023   3.247  -9.565  0.00  0.00     0.062 H 
ATOM      9  H   LIG d   1       5.271   2.468 -10.192  0.00  0.00     0.062 H 
ATOM     10  H   LIG d   1       6.292   0.569  -9.007  0.00  0.00     0.064 H 
ENDROOT
BRANCH   1  11
ATOM     11  C   LIG d   1       2.588   0.038  -6.245  0.00  0.00    -0.022 C 
ATOM     12  H   LIG d   1       3.101  -0.883  -5.968  0.00  0.00     0.032 H 
ATOM     13  H   LIG d   1       1.578  -0.195  -6.581  0.00  0.00     0.032 H 
BRANCH  11  14
ATOM     14  C   LIG d   1       2.518   0.966  -5.030  0.00  0.00    -0.024 C 
ATOM     15  H   LIG d   1       1.475   1.167  -4.786  0.00  0.00     0.032 H 
ATOM     16  H   LIG d   1       3.023   1.904  -5.259  0.00  0.00     0.032 H 
BRANCH  14  17
ATOM     17  C   LIG d   1       3.192   0.306  -3.854  0.00  0.00    -0.047 A 
ATOM     18  C   LIG d   1       3.112  -1.064  -3.691  0.00  0.00    -0.059 A 
ATOM     19  C   LIG d   1       3.730  -1.669  -2.613  0.00  0.00    -0.061 A 
ATOM     20  H   LIG d   1       2.567  -1.662  -4.407  0.00  0.00     0.062 H 
ATOM     21  C   LIG d   1       4.427  -0.903  -1.698  0.00  0.00    -0.062 A 
ATOM     22  H   LIG d   1       3.668  -2.740  -2.486  0.00  0.00     0.062 H 
ATOM     23  C   LIG d   1       4.506   0.467  -1.860  0.00  0.00    -0.061 A 
ATOM     24  H   LIG d   1       4.914  -1.377  -0.858  0.00  0.00     0.062 H 
ATOM     25  C   LIG d   1       3.888   1.072  -2.938  0.00  0.00    -0.059 A 
ATOM     26  H   LIG d   1       5.051   1.065  -1.144  0.00  0.00     0.062 H 
ATOM     27  H   LIG d   1       3.951   2.143  -3.066  0.00  0.00     0.062 H 
ENDBRANCH  14  17
ENDBRANCH  11  14
ENDBRANCH   1  11
BRANCH   6  28
ATOM     28  N   LIG d   1       5.196  -0.794  -7.024  0.00  0.00    -0.281 N 
ATOM     29  C   LIG d   1       6.043  -0.567  -6.001  0.00  0.00     0.248 C 
ATOM     30  O   LIG d   1       6.240   0.569  -5.615  0.00  0.00    -0.270 OA
ATOM     31  H   LIG d   1       4.988  -1.703  -7.290  0.00  0.00     0.155 HD
BRANCH  29  32
ATOM     32  C   LIG d   1       6.733  -1.699  -5.348  0.00  0.00     0.037 A 
ATOM     33  C   LIG d   1       7.181  -1.582  -4.032  0.00  0.00    -0.050 A 
ATOM     34  C   LIG d   1       7.825  -2.642  -3.428  0.00  0.00    -0.061 A 
ATOM     35  H   LIG d   1       7.025  -0.663  -3.486  0.00  0.00     0.062 H 
ATOM     36  C   LIG d   1       8.027  -3.821  -4.126  0.00  0.00    -0.062 A 
ATOM     37  H   LIG d   1       8.172  -2.554  -2.410  0.00  0.00     0.062 H 
ATOM     38  C   LIG d   1       7.586  -3.943  -5.431  0.00  0.00    -0.061 A 
ATOM     39  H   LIG d   1       8.532  -4.648  -3.649  0.00  0.00     0.062 H 
ATOM     40  C   LIG d   1       6.935  -2.892  -6.044  0.00  0.00    -0.050 A 
ATOM     41  H   LIG d   1       7.745  -4.866  -5.969  0.00  0.00     0.062 H 
ATOM     42  H   LIG d   1       6.587  -2.992  -7.062  0.00  0.00     0.062 H 
ENDBRANCH  29  32
ENDBRANCH   6  28
TORSDOF 5
ENDMDL
MODEL 2
REMARK VINA RESULT:      -7.2      2.141      5.826
REMARK  5 active torsions:
REMARK  status: ('A' for Active; 'I' for Inactive)
REMARK    1  A    between atoms: C_4  and  C_7 
REMARK    2  A    between atoms: C_7  and  C_8 
REMARK    3  A    between atoms: C_8  and  C_9 
REMARK    4  A    between atoms: C_14  and  N_15 
REMARK       I    between atoms: N_15  and  C_16 
REMARK    5  A    between atoms: C_16  and  C_18 
ROOT
ATOM      1  C   LIG d   1       4.204  -1.122  -3.118  0.00  0.00    -0.026 A 
ATOM      2  C   LIG d   1       4.648  -0.649  -1.899  0.00  0.00    -0.057 A 
ATOM      3  C   LIG d   1       4.445   0.674  -1.554  0.00  0.00    -0.061 A 
ATOM      4  C   LIG d   1       3.797   1.529  -2.427  0.00  0.00    -0.060 A 
ATOM      5  C   LIG d   1       3.350   1.061  -3.648  0.00  0.00    -0.040 A 
ATOM      6  C   LIG d   1       3.557  -0.266  -3.999  0.00  0.00     0.037 A 
ATOM      7  H   LIG d   1       5.156  -1.313  -1.214  0.00  0.00     0.062 H 
ATOM      8  H   LIG d   1       4.794   1.042  -0.600  0.00  0.00     0.062 H 
ATOM      9  H   LIG d   1       3.640   2.561  -2.155  0.00  0.00     0.062 H 
ATOM     10  H   LIG d   1       2.844   1.729  -4.329  0.00  0.00     0.064 H 
ENDROOT
BRANCH   1  11
ATOM     11  C   LIG d   1       4.425  -2.565  -3.492  0.00  0.00    -0.022 C 
ATOM     12  H   LIG d   1       3.656  -2.879  -4.199  0.00  0.00     0.032 H 
ATOM     13  H   LIG d   1       4.373  -3.186  -2.599  0.00  0.00     0.032 H 
BRANCH  11  14
ATOM     14  C   LIG d   1       5.804  -2.719  -4.139  0.00  0.00    -0.024 C 
ATOM     15  H   LIG d   1       6.498  -3.147  -3.416  0.00  0.00     0.032 H 
ATOM     16  H   LIG d   1       6.168  -1.741  -4.454  0.00  0.00     0.032 H 
BRANCH  14  17
ATOM     17  C   LIG d   1       5.699  -3.627  -5.336  0.00  0.00    -0.047 A 
ATOM     18  C   LIG d   1       4.668  -4.544  -5.420  0.00  0.00    -0.059 A 
ATOM     19  C   LIG d   1       4.573  -5.378  -6.519  0.00  0.00    -0.061 A 
ATOM     20  H   LIG d   1       3.938  -4.610  -4.628  0.00  0.00     0.062 H 
ATOM     21  C   LIG d   1       5.508  -5.295  -7.533  0.00  0.00    -0.062 A 
ATOM     22  H   LIG d   1       3.767  -6.095  -6.584  0.00  0.00     0.062 H 
ATOM     23  C   LIG d   1       6.540  -4.378  -7.448  0.00  0.00    -0.061 A 
ATOM     24  H   LIG d   1       5.431  -5.942  -8.393  0.00  0.00     0.062 H 
ATOM     25  C   LIG d   1       6.635  -3.544  -6.350  0.00  0.00    -0.059 A 
ATOM     26  H   LIG d   1       7.270  -4.313  -8.241  0.00  0.00     0.062 H 
ATOM     27  H   LIG d   1       7.440  -2.827  -6.285  0.00  0.00     0.062 H 
ENDBRANCH  14  17
ENDBRANCH  11  14
ENDBRANCH   1  11
BRANCH   6  28
ATOM     28  N   LIG d   1       3.111  -0.741  -5.237  0.00  0.00    -0.281 N 
ATOM     29  C   LIG d   1       3.825  -0.491  -6.352  0.00  0.00     0.248 C 
ATOM     30  O   LIG d   1       4.897   0.077  -6.273  0.00  0.00    -0.270 OA
ATOM     31  H   LIG d   1       2.287  -1.250  -5.292  0.00  0.00     0.155 HD
BRANCH  29  32
ATOM     32  C   LIG d   1       3.303  -0.905  -7.672  0.00  0.00     0.037 A 
ATOM     33  C   LIG d   1       3.694  -2.124  -8.228  0.00  0.00    -0.050 A 
ATOM     34  C   LIG d   1       3.204  -2.505  -9.460  0.00  0.00    -0.061 A 
ATOM     35  H   LIG d   1       4.378  -2.768  -7.696  0.00  0.00     0.062 H 
ATOM     36  C   LIG d   1       2.327  -1.681 -10.145  0.00  0.00    -0.062 A 
ATOM     37  H   LIG d   1       3.505  -3.447  -9.892  0.00  0.00     0.062 H 
ATOM     38  C   LIG d   1       1.937  -0.471  -9.599  0.00  0.00    -0.061 A 
ATOM     39  H   LIG d   1       1.946  -1.984 -11.109  0.00  0.00     0.062 H 
ATOM     40  C   LIG d   1       2.415  -0.081  -8.364  0.00  0.00    -0.050 A 
ATOM     41  H   LIG d   1       1.251   0.167 -10.137  0.00  0.00     0.062 H 
ATOM     42  H   LIG d   1       2.105   0.861  -7.938  0.00  0.00     0.062 H 
ENDBRANCH  29  32
ENDBRANCH   6  28
TORSDOF 5
ENDMDL
MODEL 3
REMARK VINA RESULT:      -7.1      2.068      2.532
REMARK  5 active torsions:
REMARK  status: ('A' for Active; 'I' for Inactive)
REMARK    1  A    between atoms: C_4  and  C_7 
REMARK    2  A    between atoms: C_7  and  C_8 
REMARK    3  A    between atoms: C_8  and  C_9 
REMARK    4  A    between atoms: C_14  and  N_15 
REMARK       I    between atoms: N_15  and  C_16 
REMARK    5  A    between atoms: C_16  and  C_18 
ROOT
ATOM      1  C   LIG d   1       3.173   0.790  -7.382  0.00  0.00    -0.026 A 
ATOM      2  C   LIG d   1       2.851   1.989  -7.987  0.00  0.00    -0.057 A 
ATOM      3  C   LIG d   1       3.596   2.446  -9.058  0.00  0.00    -0.061 A 
ATOM      4  C   LIG d   1       4.665   1.706  -9.529  0.00  0.00    -0.060 A 
ATOM      5  C   LIG d   1       4.992   0.505  -8.928  0.00  0.00    -0.040 A 
ATOM      6  C   LIG d   1       4.249   0.046  -7.848  0.00  0.00     0.037 A 
ATOM      7  H   LIG d   1       2.018   2.571  -7.622  0.00  0.00     0.062 H 
ATOM      8  H   LIG d   1       3.342   3.384  -9.529  0.00  0.00     0.062 H 
ATOM      9  H   LIG d   1       5.244   2.066 -10.365  0.00  0.00     0.062 H 
ATOM     10  H   LIG d   1       5.827  -0.072  -9.296  0.00  0.00     0.064 H 
ENDROOT
BRANCH   1  11
ATOM     11  C   LIG d   1       2.361   0.292  -6.215  0.00  0.00    -0.022 C 
ATOM     12  H   LIG d   1       2.705  -0.702  -5.930  0.00  0.00     0.032 H 
ATOM     13  H   LIG d   1       1.309   0.246  -6.496  0.00  0.00     0.032 H 
BRANCH  11  14
ATOM     14  C   LIG d   1       2.530   1.248  -5.032  0.00  0.00    -0.024 C 
ATOM     15  H   LIG d   1       1.553   1.625  -4.727  0.00  0.00     0.032 H 
ATOM     16  H   LIG d   1       3.164   2.083  -5.327  0.00  0.00     0.032 H 
BRANCH  14  17
ATOM     17  C   LIG d   1       3.167   0.514  -3.880  0.00  0.00    -0.047 A 
ATOM     18  C   LIG d   1       3.032  -0.857  -3.775  0.00  0.00    -0.059 A 
ATOM     19  C   LIG d   1       3.617  -1.530  -2.718  0.00  0.00    -0.061 A 
ATOM     20  H   LIG d   1       2.471  -1.404  -4.518  0.00  0.00     0.062 H 
ATOM     21  C   LIG d   1       4.335  -0.831  -1.766  0.00  0.00    -0.062 A 
ATOM     22  H   LIG d   1       3.512  -2.602  -2.636  0.00  0.00     0.062 H 
ATOM     23  C   LIG d   1       4.469   0.541  -1.871  0.00  0.00    -0.061 A 
ATOM     24  H   LIG d   1       4.796  -1.357  -0.944  0.00  0.00     0.062 H 
ATOM     25  C   LIG d   1       3.884   1.214  -2.928  0.00  0.00    -0.059 A 
ATOM     26  H   LIG d   1       5.030   1.087  -1.127  0.00  0.00     0.062 H 
ATOM     27  H   LIG d   1       3.990   2.286  -3.010  0.00  0.00     0.062 H 
ENDBRANCH  14  17
ENDBRANCH  11  14
ENDBRANCH   1  11
BRANCH   6  28
ATOM     28  N   LIG d   1       4.582  -1.166  -7.235  0.00  0.00    -0.281 N 
ATOM     29  C   LIG d   1       4.040  -2.317  -7.679  0.00  0.00     0.248 C 
ATOM     30  O   LIG d   1       3.326  -2.314  -8.663  0.00  0.00    -0.270 OA
ATOM     31  H   LIG d   1       5.202  -1.178  -6.489  0.00  0.00     0.155 HD
BRANCH  29  32
ATOM     32  C   LIG d   1       4.313  -3.585  -6.969  0.00  0.00     0.037 A 
ATOM     33  C   LIG d   1       4.039  -4.806  -7.585  0.00  0.00    -0.050 A 
ATOM     34  C   LIG d   1       4.295  -5.986  -6.917  0.00  0.00    -0.061 A 
ATOM     35  H   LIG d   1       3.626  -4.828  -8.583  0.00  0.00     0.062 H 
ATOM     36  C   LIG d   1       4.825  -5.959  -5.638  0.00  0.00    -0.062 A 
ATOM     37  H   LIG d   1       4.084  -6.932  -7.392  0.00  0.00     0.062 H 
ATOM     38  C   LIG d   1       5.098  -4.751  -5.021  0.00  0.00    -0.061 A 
ATOM     39  H   LIG d   1       5.024  -6.885  -5.119  0.00  0.00     0.062 H 
ATOM     40  C   LIG d   1       4.852  -3.564  -5.681  0.00  0.00    -0.050 A 
ATOM     41  H   LIG d   1       5.512  -4.737  -4.024  0.00  0.00     0.062 H 
ATOM     42  H   LIG d   1       5.071  -2.623  -5.200  0.00  0.00     0.062 H 
ENDBRANCH  29  32
ENDBRANCH   6  28
TORSDOF 5
ENDMDL
MODEL 4
REMARK VINA RESULT:      -7.1      1.487      3.826
REMARK  5 active torsions:
REMARK  status: ('A' for Active; 'I' for Inactive)
REMARK    1  A    between atoms: C_4  and  C_7 
REMARK    2  A    between atoms: C_7  and  C_8 
REMARK    3  A    between atoms: C_8  and  C_9 
REMARK    4  A    between atoms: C_14  and  N_15 
REMARK       I    between atoms: N_15  and  C_16 
REMARK    5  A    between atoms: C_16  and  C_18 
ROOT
ATOM      1  C   LIG d   1       4.521   0.239  -8.599  0.00  0.00    -0.026 A 
ATOM      2  C   LIG d   1       4.304   0.635  -9.904  0.00  0.00    -0.057 A 
ATOM      3  C   LIG d   1       3.074   0.424 -10.498  0.00  0.00    -0.061 A 
ATOM      4  C   LIG d   1       2.055  -0.186  -9.788  0.00  0.00    -0.060 A 
ATOM      5  C   LIG d   1       2.265  -0.585  -8.482  0.00  0.00    -0.040 A 
ATOM      6  C   LIG d   1       3.502  -0.379  -7.885  0.00  0.00     0.037 A 
ATOM      7  H   LIG d   1       5.097   1.111 -10.463  0.00  0.00     0.062 H 
ATOM      8  H   LIG d   1       2.907   0.734 -11.518  0.00  0.00     0.062 H 
ATOM      9  H   LIG d   1       1.096  -0.351 -10.254  0.00  0.00     0.062 H 
ATOM     10  H   LIG d   1       1.470  -1.061  -7.928  0.00  0.00     0.064 H 
ENDROOT
BRANCH   1  11
ATOM     11  C   LIG d   1       5.862   0.471  -7.953  0.00  0.00    -0.022 C 
ATOM     12  H   LIG d   1       5.717   0.828  -6.933  0.00  0.00     0.032 H 
ATOM     13  H   LIG d   1       6.417   1.215  -8.523  0.00  0.00     0.032 H 
BRANCH  11  14
ATOM     14  C   LIG d   1       6.649  -0.841  -7.926  0.00  0.00    -0.024 C 
ATOM     15  H   LIG d   1       7.599  -0.705  -8.443  0.00  0.00     0.032 H 
ATOM     16  H   LIG d   1       6.073  -1.620  -8.425  0.00  0.00     0.032 H 
BRANCH  14  17
ATOM     17  C   LIG d   1       6.907  -1.243  -6.497  0.00  0.00    -0.047 A 
ATOM     18  C   LIG d   1       6.799  -2.569  -6.122  0.00  0.00    -0.059 A 
ATOM     19  C   LIG d   1       7.036  -2.939  -4.811  0.00  0.00    -0.061 A 
ATOM     20  H   LIG d   1       6.529  -3.317  -6.853  0.00  0.00     0.062 H 
ATOM     21  C   LIG d   1       7.380  -1.981  -3.875  0.00  0.00    -0.062 A 
ATOM     22  H   LIG d   1       6.951  -3.975  -4.518  0.00  0.00     0.062 H 
ATOM     23  C   LIG d   1       7.488  -0.655  -4.250  0.00  0.00    -0.061 A 
ATOM     24  H   LIG d   1       7.570  -2.270  -2.853  0.00  0.00     0.062 H 
ATOM     25  C   LIG d   1       7.251  -0.286  -5.562  0.00  0.00    -0.059 A 
ATOM     26  H   LIG d   1       7.757   0.093  -3.519  0.00  0.00     0.062 H 
ATOM     27  H   LIG d   1       7.336   0.750  -5.855  0.00  0.00     0.062 H 
ENDBRANCH  14  17
ENDBRANCH  11  14
ENDBRANCH   1  11
BRANCH   6  28
ATOM     28  N   LIG d   1       3.720  -0.787  -6.565  0.00  0.00    -0.281 N 
ATOM     29  C   LIG d   1       3.449   0.053  -5.546  0.00  0.00     0.248 C 
ATOM     30  O   LIG d   1       2.939   1.135  -5.769  0.00  0.00    -0.270 OA
ATOM     31  H   LIG d   1       4.066  -1.674  -6.383  0.00  0.00     0.155 HD
BRANCH  29  32
ATOM     32  C   LIG d   1       3.771  -0.341  -4.159  0.00  0.00     0.037 A 
ATOM     33  C   LIG d   1       4.176   0.622  -3.233  0.00  0.00    -0.050 A 
ATOM     34  C   LIG d   1       4.476   0.249  -1.940  0.00  0.00    -0.061 A 
ATOM     35  H   LIG d   1       4.255   1.658  -3.529  0.00  0.00     0.062 H 
ATOM     36  C   LIG d   1       4.376  -1.079  -1.558  0.00  0.00    -0.062 A 
ATOM     37  H   LIG d   1       4.789   0.992  -1.222  0.00  0.00     0.062 H 
ATOM     38  C   LIG d   1       3.975  -2.038  -2.471  0.00  0.00    -0.061 A 
ATOM     39  H   LIG d   1       4.611  -1.365  -0.545  0.00  0.00     0.062 H 
ATOM     40  C   LIG d   1       3.667  -1.676  -3.767  0.00  0.00    -0.050 A 
ATOM     41  H   LIG d   1       3.898  -3.071  -2.167  0.00  0.00     0.062 H 
ATOM     42  H   LIG d   1       3.349  -2.426  -4.476  0.00  0.00     0.062 H 
ENDBRANCH  29  32
ENDBRANCH   6  28
TORSDOF 5
ENDMDL
MODEL 5
REMARK VINA RESULT:      -6.9      1.885      5.724
REMARK  5 active torsions:
REMARK  status: ('A' for Active; 'I' for Inactive)
REMARK    1  A    between atoms: C_4  and  C_7 
REMARK    2  A    between atoms: C_7  and  C_8 
REMARK    3  A    between atoms: C_8  and  C_9 
REMARK    4  A    between atoms: C_14  and  N_15 
REMARK       I    between atoms: N_15  and  C_16 
REMARK    5  A    between atoms: C_16  and  C_18 
ROOT
ATOM      1  C   LIG d   1       4.348  -1.069  -3.330  0.00  0.00    -0.026 A 
ATOM      2  C   LIG d   1       4.783  -0.601  -2.106  0.00  0.00    -0.057 A 
ATOM      3  C   LIG d   1       4.442   0.672  -1.690  0.00  0.00    -0.061 A 
ATOM      4  C   LIG d   1       3.663   1.482  -2.496  0.00  0.00    -0.060 A 
ATOM      5  C   LIG d   1       3.224   1.020  -3.722  0.00  0.00    -0.040 A 
ATOM      6  C   LIG d   1       3.570  -0.257  -4.145  0.00  0.00     0.037 A 
ATOM      7  H   LIG d   1       5.393  -1.230  -1.474  0.00  0.00     0.062 H 
ATOM      8  H   LIG d   1       4.784   1.036  -0.732  0.00  0.00     0.062 H 
ATOM      9  H   LIG d   1       3.398   2.476  -2.168  0.00  0.00     0.062 H 
ATOM     10  H   LIG d   1       2.616   1.652  -4.351  0.00  0.00     0.064 H 
ENDROOT
BRANCH   1  11
ATOM     11  C   LIG d   1       4.720  -2.457  -3.783  0.00  0.00    -0.022 C 
ATOM     12  H   LIG d   1       4.366  -2.615  -4.802  0.00  0.00     0.032 H 
ATOM     13  H   LIG d   1       4.263  -3.191  -3.121  0.00  0.00     0.032 H 
BRANCH  11  14
ATOM     14  C   LIG d   1       6.242  -2.615  -3.743  0.00  0.00    -0.024 C 
ATOM     15  H   LIG d   1       6.496  -3.673  -3.672  0.00  0.00     0.032 H 
ATOM     16  H   LIG d   1       6.640  -2.088  -2.876  0.00  0.00     0.032 H 
BRANCH  14  17
ATOM     17  C   LIG d   1       6.841  -2.038  -5.000  0.00  0.00    -0.047 A 
ATOM     18  C   LIG d   1       7.632  -0.907  -4.933  0.00  0.00    -0.059 A 
ATOM     19  C   LIG d   1       8.181  -0.378  -6.087  0.00  0.00    -0.061 A 
ATOM     20  H   LIG d   1       7.822  -0.437  -3.980  0.00  0.00     0.062 H 
ATOM     21  C   LIG d   1       7.938  -0.981  -7.306  0.00  0.00    -0.062 A 
ATOM     22  H   LIG d   1       8.800   0.506  -6.034  0.00  0.00     0.062 H 
ATOM     23  C   LIG d   1       7.146  -2.111  -7.374  0.00  0.00    -0.061 A 
ATOM     24  H   LIG d   1       8.371  -0.571  -8.206  0.00  0.00     0.062 H 
ATOM     25  C   LIG d   1       6.597  -2.640  -6.220  0.00  0.00    -0.059 A 
ATOM     26  H   LIG d   1       6.956  -2.582  -8.327  0.00  0.00     0.062 H 
ATOM     27  H   LIG d   1       5.979  -3.525  -6.273  0.00  0.00     0.062 H 
ENDBRANCH  14  17
ENDBRANCH  11  14
ENDBRANCH   1  11
BRANCH   6  28
ATOM     28  N   LIG d   1       3.132  -0.725  -5.388  0.00  0.00    -0.281 N 
ATOM     29  C   LIG d   1       3.748  -0.321  -6.517  0.00  0.00     0.248 C 
ATOM     30  O   LIG d   1       4.735   0.387  -6.451  0.00  0.00    -0.270 OA
ATOM     31  H   LIG d   1       2.384  -1.341  -5.438  0.00  0.00     0.155 HD
BRANCH  29  32
ATOM     32  C   LIG d   1       3.223  -0.736  -7.835  0.00  0.00     0.037 A 
ATOM     33  C   LIG d   1       2.402   0.123  -8.565  0.00  0.00    -0.050 A 
ATOM     34  C   LIG d   1       1.915  -0.270  -9.794  0.00  0.00    -0.061 A 
ATOM     35  H   LIG d   1       2.148   1.096  -8.169  0.00  0.00     0.062 H 
ATOM     36  C   LIG d   1       2.240  -1.516 -10.304  0.00  0.00    -0.062 A 
ATOM     37  H   LIG d   1       1.280   0.394 -10.361  0.00  0.00     0.062 H 
ATOM     38  C   LIG d   1       3.053  -2.373  -9.585  0.00  0.00    -0.061 A 
ATOM     39  H   LIG d   1       1.857  -1.819 -11.266  0.00  0.00     0.062 H 
ATOM     40  C   LIG d   1       3.551  -1.989  -8.356  0.00  0.00    -0.050 A 
ATOM     41  H   LIG d   1       3.304  -3.343  -9.988  0.00  0.00     0.062 H 
ATOM     42  H   LIG d   1       4.190  -2.658  -7.799  0.00  0.00     0.062 H 
ENDBRANCH  29  32
ENDBRANCH   6  28
TORSDOF 5
ENDMDL
MODEL 6
REMARK VINA RESULT:      -6.9      2.108      4.325
REMARK  5 active torsions:
REMARK  status: ('A' for Active; 'I' for Inactive)
REMARK    1  A    between atoms: C_4  and  C_7 
REMARK    2  A    between atoms: C_7  and  C_8 
REMARK    3  A    between atoms: C_8  and  C_9 
REMARK    4  A    between atoms: C_14  and  N_15 
REMARK       I    between atoms: N_15  and  C_16 
REMARK    5  A    between atoms: C_16  and  C_18 
ROOT
ATOM      1  C   LIG d   1       3.541  -0.576  -9.386  0.00  0.00    -0.026 A 
ATOM      2  C   LIG d   1       3.747  -0.090 -10.662  0.00  0.00    -0.057 A 
ATOM      3  C   LIG d   1       3.742   1.273 -10.894  0.00  0.00    -0.061 A 
ATOM      4  C   LIG d   1       3.531   2.155  -9.849  0.00  0.00    -0.060 A 
ATOM      5  C   LIG d   1       3.324   1.675  -8.570  0.00  0.00    -0.040 A 
ATOM      6  C   LIG d   1       3.322   0.306  -8.336  0.00  0.00     0.037 A 
ATOM      7  H   LIG d   1       3.912  -0.775 -11.481  0.00  0.00     0.062 H 
ATOM      8  H   LIG d   1       3.904   1.651 -11.892  0.00  0.00     0.062 H 
ATOM      9  H   LIG d   1       3.527   3.219 -10.033  0.00  0.00     0.062 H 
ATOM     10  H   LIG d   1       3.158   2.364  -7.756  0.00  0.00     0.064 H 
ENDROOT
BRANCH   1  11
ATOM     11  C   LIG d   1       3.547  -2.061  -9.135  0.00  0.00    -0.022 C 
ATOM     12  H   LIG d   1       3.082  -2.575  -9.977  0.00  0.00     0.032 H 
ATOM     13  H   LIG d   1       2.991  -2.279  -8.224  0.00  0.00     0.032 H 
BRANCH  11  14
ATOM     14  C   LIG d   1       4.991  -2.546  -8.979  0.00  0.00    -0.024 C 
ATOM     15  H   LIG d   1       5.634  -1.698  -8.742  0.00  0.00     0.032 H 
ATOM     16  H   LIG d   1       5.323  -3.004  -9.910  0.00  0.00     0.032 H 
BRANCH  14  17
ATOM     17  C   LIG d   1       5.063  -3.559  -7.866  0.00  0.00    -0.047 A 
ATOM     18  C   LIG d   1       6.278  -3.848  -7.273  0.00  0.00    -0.059 A 
ATOM     19  C   LIG d   1       6.344  -4.778  -6.251  0.00  0.00    -0.061 A 
ATOM     20  H   LIG d   1       7.175  -3.348  -7.607  0.00  0.00     0.062 H 
ATOM     21  C   LIG d   1       5.196  -5.418  -5.824  0.00  0.00    -0.062 A 
ATOM     22  H   LIG d   1       7.294  -5.004  -5.788  0.00  0.00     0.062 H 
ATOM     23  C   LIG d   1       3.982  -5.130  -6.418  0.00  0.00    -0.061 A 
ATOM     24  H   LIG d   1       5.248  -6.140  -5.023  0.00  0.00     0.062 H 
ATOM     25  C   LIG d   1       3.915  -4.200  -7.439  0.00  0.00    -0.059 A 
ATOM     26  H   LIG d   1       3.085  -5.630  -6.084  0.00  0.00     0.062 H 
ATOM     27  H   LIG d   1       2.966  -3.973  -7.902  0.00  0.00     0.062 H 
ENDBRANCH  14  17
ENDBRANCH  11  14
ENDBRANCH   1  11
BRANCH   6  28
ATOM     28  N   LIG d   1       3.107  -0.183  -7.043  0.00  0.00    -0.281 N 
ATOM     29  C   LIG d   1       4.130  -0.246  -6.168  0.00  0.00     0.248 C 
ATOM     30  O   LIG d   1       5.221   0.196  -6.473  0.00  0.00    -0.270 OA
ATOM     31  H   LIG d   1       2.222  -0.476  -6.777  0.00  0.00     0.155 HD
BRANCH  29  32
ATOM     32  C   LIG d   1       3.926  -0.854  -4.836  0.00  0.00     0.037 A 
ATOM     33  C   LIG d   1       3.001  -0.303  -3.948  0.00  0.00    -0.050 A 
ATOM     34  C   LIG d   1       2.815  -0.875  -2.706  0.00  0.00    -0.061 A 
ATOM     35  H   LIG d   1       2.432   0.570  -4.232  0.00  0.00     0.062 H 
ATOM     36  C   LIG d   1       3.544  -1.994  -2.341  0.00  0.00    -0.062 A 
ATOM     37  H   LIG d   1       2.101  -0.450  -2.018  0.00  0.00     0.062 H 
ATOM     38  C   LIG d   1       4.463  -2.545  -3.216  0.00  0.00    -0.061 A 
ATOM     39  H   LIG d   1       3.395  -2.438  -1.368  0.00  0.00     0.062 H 
ATOM     40  C   LIG d   1       4.653  -1.986  -4.464  0.00  0.00    -0.050 A 
ATOM     41  H   LIG d   1       5.027  -3.419  -2.926  0.00  0.00     0.062 H 
ATOM     42  H   LIG d   1       5.367  -2.421  -5.148  0.00  0.00     0.062 H 
ENDBRANCH  29  32
ENDBRANCH   6  28
TORSDOF 5
ENDMDL
MODEL 7
REMARK VINA RESULT:      -6.7      1.849      5.037
REMARK  5 active torsions:
REMARK  status: ('A' for Active; 'I' for Inactive)
REMARK    1  A    between atoms: C_4  and  C_7 
REMARK    2  A    between atoms: C_7  and  C_8 
REMARK    3  A    between atoms: C_8  and  C_9 
REMARK    4  A    between atoms: C_14  and  N_15 
REMARK       I    between atoms: N_15  and  C_16 
REMARK    5  A    between atoms: C_16  and  C_18 
ROOT
ATOM      1  C   LIG d   1       3.929  -0.011  -4.490  0.00  0.00    -0.026 A 
ATOM      2  C   LIG d   1       3.196   0.983  -3.871  0.00  0.00    -0.057 A 
ATOM      3  C   LIG d   1       3.454   1.316  -2.555  0.00  0.00    -0.061 A 
ATOM      4  C   LIG d   1       4.447   0.657  -1.853  0.00  0.00    -0.060 A 
ATOM      5  C   LIG d   1       5.183  -0.338  -2.466  0.00  0.00    -0.040 A 
ATOM      6  C   LIG d   1       4.922  -0.679  -3.787  0.00  0.00     0.037 A 
ATOM      7  H   LIG d   1       2.419   1.500  -4.416  0.00  0.00     0.062 H 
ATOM      8  H   LIG d   1       2.880   2.094  -2.073  0.00  0.00     0.062 H 
ATOM      9  H   LIG d   1       4.646   0.920  -0.825  0.00  0.00     0.062 H 
ATOM     10  H   LIG d   1       5.958  -0.852  -1.917  0.00  0.00     0.064 H 
ENDROOT
BRANCH   1  11
ATOM     11  C   LIG d   1       3.647  -0.373  -5.925  0.00  0.00    -0.022 C 
ATOM     12  H   LIG d   1       3.191  -1.363  -5.968  0.00  0.00     0.032 H 
ATOM     13  H   LIG d   1       4.579  -0.377  -6.490  0.00  0.00     0.032 H 
BRANCH  11  14
ATOM     14  C   LIG d   1       2.689   0.654  -6.532  0.00  0.00    -0.024 C 
ATOM     15  H   LIG d   1       2.763   1.591  -5.979  0.00  0.00     0.032 H 
ATOM     16  H   LIG d   1       1.668   0.279  -6.471  0.00  0.00     0.032 H 
BRANCH  14  17
ATOM     17  C   LIG d   1       3.053   0.892  -7.975  0.00  0.00    -0.047 A 
ATOM     18  C   LIG d   1       3.190   2.182  -8.450  0.00  0.00    -0.059 A 
ATOM     19  C   LIG d   1       3.524   2.400  -9.774  0.00  0.00    -0.061 A 
ATOM     20  H   LIG d   1       3.035   3.021  -7.787  0.00  0.00     0.062 H 
ATOM     21  C   LIG d   1       3.722   1.326 -10.621  0.00  0.00    -0.062 A 
ATOM     22  H   LIG d   1       3.631   3.408 -10.145  0.00  0.00     0.062 H 
ATOM     23  C   LIG d   1       3.585   0.035 -10.146  0.00  0.00    -0.061 A 
ATOM     24  H   LIG d   1       3.988   1.496 -11.654  0.00  0.00     0.062 H 
ATOM     25  C   LIG d   1       3.250  -0.182  -8.822  0.00  0.00    -0.059 A 
ATOM     26  H   LIG d   1       3.740  -0.803 -10.809  0.00  0.00     0.062 H 
ATOM     27  H   LIG d   1       3.145  -1.191  -8.451  0.00  0.00     0.062 H 
ENDBRANCH  14  17
ENDBRANCH  11  14
ENDBRANCH   1  11
BRANCH   6  28
ATOM     28  N   LIG d   1       5.663  -1.690  -4.408  0.00  0.00    -0.281 N 
ATOM     29  C   LIG d   1       5.271  -2.975  -4.302  0.00  0.00     0.248 C 
ATOM     30  O   LIG d   1       4.231  -3.249  -3.734  0.00  0.00    -0.270 OA
ATOM     31  H   LIG d   1       6.458  -1.466  -4.915  0.00  0.00     0.155 HD
BRANCH  29  32
ATOM     32  C   LIG d   1       6.107  -4.052  -4.873  0.00  0.00     0.037 A 
ATOM     33  C   LIG d   1       7.492  -4.026  -4.710  0.00  0.00    -0.050 A 
ATOM     34  C   LIG d   1       8.267  -5.034  -5.246  0.00  0.00    -0.061 A 
ATOM     35  H   LIG d   1       7.958  -3.218  -4.164  0.00  0.00     0.062 H 
ATOM     36  C   LIG d   1       7.671  -6.070  -5.945  0.00  0.00    -0.062 A 
ATOM     37  H   LIG d   1       9.339  -5.015  -5.120  0.00  0.00     0.062 H 
ATOM     38  C   LIG d   1       6.299  -6.101  -6.111  0.00  0.00    -0.061 A 
ATOM     39  H   LIG d   1       8.282  -6.856  -6.363  0.00  0.00     0.062 H 
ATOM     40  C   LIG d   1       5.512  -5.102  -5.575  0.00  0.00    -0.050 A 
ATOM     41  H   LIG d   1       5.840  -6.913  -6.657  0.00  0.00     0.062 H 
ATOM     42  H   LIG d   1       4.440  -5.131  -5.701  0.00  0.00     0.062 H 
ENDBRANCH  29  32
ENDBRANCH   6  28
TORSDOF 5
ENDMDL
MODEL 8
REMARK VINA RESULT:      -6.5      1.889      6.285
REMARK  5 active torsions:
REMARK  status: ('A' for Active; 'I' for Inactive)
REMARK    1  A    between atoms: C_4  and  C_7 
REMARK    2  A    between atoms: C_7  and  C_8 
REMARK    3  A    between atoms: C_8  and  C_9 
REMARK    4  A    between atoms: C_14  and  N_15 
REMARK       I    between atoms: N_15  and  C_16 
REMARK    5  A    between atoms: C_16  and  C_18 
ROOT
ATOM      1  C   LIG d   1       5.375  -0.299  -3.983  0.00  0.00    -0.026 A 
ATOM      2  C   LIG d   1       5.530  -0.899  -2.749  0.00  0.00    -0.057 A 
ATOM      3  C   LIG d   1       4.441  -1.464  -2.113  0.00  0.00    -0.061 A 
ATOM      4  C   LIG d   1       3.193  -1.431  -2.708  0.00  0.00    -0.060 A 
ATOM      5  C   LIG d   1       3.032  -0.832  -3.942  0.00  0.00    -0.040 A 
ATOM      6  C   LIG d   1       4.123  -0.259  -4.582  0.00  0.00     0.037 A 
ATOM      7  H   LIG d   1       6.503  -0.927  -2.280  0.00  0.00     0.062 H 
ATOM      8  H   LIG d   1       4.564  -1.933  -1.147  0.00  0.00     0.062 H 
ATOM      9  H   LIG d   1       2.344  -1.872  -2.208  0.00  0.00     0.062 H 
ATOM     10  H   LIG d   1       2.057  -0.806  -4.407  0.00  0.00     0.064 H 
ENDROOT
BRANCH   1  11
ATOM     11  C   LIG d   1       6.563   0.315  -4.677  0.00  0.00    -0.022 C 
ATOM     12  H   LIG d   1       7.262   0.698  -3.932  0.00  0.00     0.032 H 
ATOM     13  H   LIG d   1       6.230   1.132  -5.317  0.00  0.00     0.032 H 
BRANCH  11  14
ATOM     14  C   LIG d   1       7.261  -0.746  -5.530  0.00  0.00    -0.024 C 
ATOM     15  H   LIG d   1       6.681  -1.669  -5.507  0.00  0.00     0.032 H 
ATOM     16  H   LIG d   1       8.258  -0.935  -5.131  0.00  0.00     0.032 H 
BRANCH  14  17
ATOM     17  C   LIG d   1       7.373  -0.257  -6.951  0.00  0.00    -0.047 A 
ATOM     18  C   LIG d   1       7.347   1.099  -7.219  0.00  0.00    -0.059 A 
ATOM     19  C   LIG d   1       7.450   1.548  -8.523  0.00  0.00    -0.061 A 
ATOM     20  H   LIG d   1       7.248   1.807  -6.410  0.00  0.00     0.062 H 
ATOM     21  C   LIG d   1       7.577   0.641  -9.557  0.00  0.00    -0.062 A 
ATOM     22  H   LIG d   1       7.430   2.607  -8.732  0.00  0.00     0.062 H 
ATOM     23  C   LIG d   1       7.601  -0.715  -9.290  0.00  0.00    -0.061 A 
ATOM     24  H   LIG d   1       7.662   0.992 -10.575  0.00  0.00     0.062 H 
ATOM     25  C   LIG d   1       7.499  -1.164  -7.986  0.00  0.00    -0.059 A 
ATOM     26  H   LIG d   1       7.700  -1.424 -10.099  0.00  0.00     0.062 H 
ATOM     27  H   LIG d   1       7.519  -2.224  -7.777  0.00  0.00     0.062 H 
ENDBRANCH  14  17
ENDBRANCH  11  14
ENDBRANCH   1  11
BRANCH   6  28
ATOM     28  N   LIG d   1       3.962   0.353  -5.829  0.00  0.00    -0.281 N 
ATOM     29  C   LIG d   1       3.949  -0.394  -6.951  0.00  0.00     0.248 C 
ATOM     30  O   LIG d   1       3.997  -1.607  -6.874  0.00  0.00    -0.270 OA
ATOM     31  H   LIG d   1       3.859   1.316  -5.887  0.00  0.00     0.155 HD
BRANCH  29  32
ATOM     32  C   LIG d   1       3.879   0.260  -8.274  0.00  0.00     0.037 A 
ATOM     33  C   LIG d   1       3.705   1.642  -8.365  0.00  0.00    -0.050 A 
ATOM     34  C   LIG d   1       3.640   2.247  -9.603  0.00  0.00    -0.061 A 
ATOM     35  H   LIG d   1       3.622   2.237  -7.467  0.00  0.00     0.062 H 
ATOM     36  C   LIG d   1       3.746   1.485 -10.755  0.00  0.00    -0.062 A 
ATOM     37  H   LIG d   1       3.506   3.315  -9.675  0.00  0.00     0.062 H 
ATOM     38  C   LIG d   1       3.918   0.115 -10.671  0.00  0.00    -0.061 A 
ATOM     39  H   LIG d   1       3.695   1.963 -11.721  0.00  0.00     0.062 H 
ATOM     40  C   LIG d   1       3.990  -0.501  -9.439  0.00  0.00    -0.050 A 
ATOM     41  H   LIG d   1       4.001  -0.473 -11.573  0.00  0.00     0.062 H 
ATOM     42  H   LIG d   1       4.129  -1.570  -9.376  0.00  0.00     0.062 H 
ENDBRANCH  29  32
ENDBRANCH   6  28
TORSDOF 5
ENDMDL
MODEL 9
REMARK VINA RESULT:      -6.5      2.101      4.218
REMARK  5 active torsions:
REMARK  status: ('A' for Active; 'I' for Inactive)
REMARK    1  A    between atoms: C_4  and  C_7 
REMARK    2  A    between atoms: C_7  and  C_8 
REMARK    3  A    between atoms: C_8  and  C_9 
REMARK    4  A    between atoms: C_14  and  N_15 
REMARK       I    between atoms: N_15  and  C_16 
REMARK    5  A    between atoms: C_16  and  C_18 
ROOT
ATOM      1  C   LIG d   1       4.631  -0.399  -8.834  0.00  0.00    -0.026 A 
ATOM      2  C   LIG d   1       4.419  -0.063 -10.157  0.00  0.00    -0.057 A 
ATOM      3  C   LIG d   1       3.131   0.059 -10.643  0.00  0.00    -0.061 A 
ATOM      4  C   LIG d   1       2.049  -0.153  -9.808  0.00  0.00    -0.060 A 
ATOM      5  C   LIG d   1       2.254  -0.489  -8.483  0.00  0.00    -0.040 A 
ATOM      6  C   LIG d   1       3.547  -0.618  -7.993  0.00  0.00     0.037 A 
ATOM      7  H   LIG d   1       5.261   0.102 -10.813  0.00  0.00     0.062 H 
ATOM      8  H   LIG d   1       2.968   0.321 -11.678  0.00  0.00     0.062 H 
ATOM      9  H   LIG d   1       1.045  -0.057 -10.191  0.00  0.00     0.062 H 
ATOM     10  H   LIG d   1       1.410  -0.654  -7.832  0.00  0.00     0.064 H 
ENDROOT
BRANCH   1  11
ATOM     11  C   LIG d   1       6.035  -0.531  -8.305  0.00  0.00    -0.022 C 
ATOM     12  H   LIG d   1       6.635  -1.112  -9.006  0.00  0.00     0.032 H 
ATOM     13  H   LIG d   1       6.015  -1.034  -7.339  0.00  0.00     0.032 H 
BRANCH  11  14
ATOM     14  C   LIG d   1       6.651   0.860  -8.141  0.00  0.00    -0.024 C 
ATOM     15  H   LIG d   1       5.866   1.615  -8.201  0.00  0.00     0.032 H 
ATOM     16  H   LIG d   1       7.379   1.031  -8.934  0.00  0.00     0.032 H 
BRANCH  14  17
ATOM     17  C   LIG d   1       7.336   0.952  -6.801  0.00  0.00    -0.047 A 
ATOM     18  C   LIG d   1       7.064   0.017  -5.821  0.00  0.00    -0.059 A 
ATOM     19  C   LIG d   1       7.692   0.102  -4.592  0.00  0.00    -0.061 A 
ATOM     20  H   LIG d   1       6.361  -0.780  -6.014  0.00  0.00     0.062 H 
ATOM     21  C   LIG d   1       8.592   1.121  -4.345  0.00  0.00    -0.062 A 
ATOM     22  H   LIG d   1       7.480  -0.629  -3.825  0.00  0.00     0.062 H 
ATOM     23  C   LIG d   1       8.863   2.057  -5.325  0.00  0.00    -0.061 A 
ATOM     24  H   LIG d   1       9.086   1.184  -3.387  0.00  0.00     0.062 H 
ATOM     25  C   LIG d   1       8.235   1.973  -6.554  0.00  0.00    -0.059 A 
ATOM     26  H   LIG d   1       9.566   2.854  -5.132  0.00  0.00     0.062 H 
ATOM     27  H   LIG d   1       8.448   2.703  -7.321  0.00  0.00     0.062 H 
ENDBRANCH  14  17
ENDBRANCH  11  14
ENDBRANCH   1  11
BRANCH   6  28
ATOM     28  N   LIG d   1       3.758  -0.963  -6.654  0.00  0.00    -0.281 N 
ATOM     29  C   LIG d   1       3.498  -0.070  -5.679  0.00  0.00     0.248 C 
ATOM     30  O   LIG d   1       3.005   1.007  -5.956  0.00  0.00    -0.270 OA
ATOM     31  H   LIG d   1       4.091  -1.845  -6.428  0.00  0.00     0.155 HD
BRANCH  29  32
ATOM     32  C   LIG d   1       3.814  -0.398  -4.273  0.00  0.00     0.037 A 
ATOM     33  C   LIG d   1       3.738  -1.718  -3.827  0.00  0.00    -0.050 A 
ATOM     34  C   LIG d   1       4.034  -2.019  -2.514  0.00  0.00    -0.061 A 
ATOM     35  H   LIG d   1       3.449  -2.504  -4.510  0.00  0.00     0.062 H 
ATOM     36  C   LIG d   1       4.405  -1.012  -1.638  0.00  0.00    -0.062 A 
ATOM     37  H   LIG d   1       3.976  -3.039  -2.168  0.00  0.00     0.062 H 
ATOM     38  C   LIG d   1       4.481   0.298  -2.073  0.00  0.00    -0.061 A 
ATOM     39  H   LIG d   1       4.635  -1.253  -0.611  0.00  0.00     0.062 H 
ATOM     40  C   LIG d   1       4.193   0.611  -3.387  0.00  0.00    -0.050 A 
ATOM     41  H   LIG d   1       4.772   1.078  -1.385  0.00  0.00     0.062 H 
ATOM     42  H   LIG d   1       4.258   1.634  -3.725  0.00  0.00     0.062 H 
ENDBRANCH  29  32
ENDBRANCH   6  28
TORSDOF 5
ENDMDL
