MODEL 1
REMARK VINA RESULT:      -6.1      0.000      0.000
REMARK  6 active torsions:
REMARK  status: ('A' for Active; 'I' for Inactive)
REMARK    1  A    between atoms: C_1  and  C_2 
REMARK    2  A    between atoms: C_2  and  N_3 
REMARK       I    between atoms: N_3  and  C_4 
REMARK       I    between atoms: C_4  and  N_6 
REMARK    3  A    between atoms: N_6  and  C_7 
REMARK    4  A    between atoms: C_16  and  N_21 
REMARK    5  A    between atoms: C_18  and  O_20 
REMARK    6  A    between atoms: C_24  and  C_27 
REMARK       I    between atoms: C_27  and  N_29 
ROOT
ATOM      1  C   LIG d   1       3.473  -0.498  -5.485  0.00  0.00     0.084 C 
ATOM      2  H   LIG d   1       2.709  -1.042  -6.060  0.00  0.00     0.055 H 
ATOM      3  C   LIG d   1       2.851   0.256  -4.299  0.00  0.00     0.106 C 
ATOM      4  H   LIG d   1       1.991   0.864  -4.616  0.00  0.00     0.064 H 
ATOM      5  C   LIG d   1       2.552  -0.778  -3.189  0.00  0.00     0.079 C 
ATOM      6  O   LIG d   1       3.747  -0.819  -2.388  0.00  0.00    -0.344 OA
ATOM      7  C   LIG d   1       4.691   0.083  -2.996  0.00  0.00     0.206 C 
ATOM      8  H   LIG d   1       5.313   0.549  -2.219  0.00  0.00     0.097 H 
ATOM      9  O   LIG d   1       3.895   1.077  -3.719  0.00  0.00    -0.339 OA
ATOM     10  C   LIG d   1       5.501  -0.702  -4.039  0.00  0.00     0.059 C 
ATOM     11  H   LIG d   1       6.199  -1.400  -3.553  0.00  0.00     0.093 H 
ATOM     12  C   LIG d   1       4.546  -1.452  -4.948  0.00  0.00     0.123 C 
ATOM     13  H   LIG d   1       5.085  -1.937  -5.775  0.00  0.00     0.067 H 
ATOM     14  H   LIG d   1       1.681  -0.447  -2.603  0.00  0.00     0.059 H 
ATOM     15  H   LIG d   1       2.336  -1.755  -3.646  0.00  0.00     0.059 H 
ENDROOT
BRANCH  10  16
ATOM     16  N   LIG d   1       6.302   0.230  -4.843  0.00  0.00     0.243 N 
ATOM     17  C   LIG d   1       7.049  -0.483  -5.886  0.00  0.00    -0.031 C 
ATOM     18  C   LIG d   1       7.754   0.529  -6.793  0.00  0.00    -0.001 C 
ATOM     19  H   LIG d   1       7.798  -1.138  -5.419  0.00  0.00     0.082 H 
ATOM     20  H   LIG d   1       6.354  -1.089  -6.486  0.00  0.00     0.082 H 
ATOM     21  C   LIG d   1       8.706   1.384  -5.952  0.00  0.00     0.045 C 
ATOM     22  H   LIG d   1       7.006   1.177  -7.273  0.00  0.00     0.032 H 
ATOM     23  H   LIG d   1       8.327  -0.004  -7.566  0.00  0.00     0.032 H 
ATOM     24  C   LIG d   1       7.910   2.078  -4.843  0.00  0.00    -0.001 C 
ATOM     25  H   LIG d   1       9.493   0.754  -5.513  0.00  0.00     0.040 H 
ATOM     26  C   LIG d   1       7.201   1.021  -3.993  0.00  0.00    -0.031 C 
ATOM     27  H   LIG d   1       7.164   2.751  -5.291  0.00  0.00     0.032 H 
ATOM     28  H   LIG d   1       8.594   2.660  -4.208  0.00  0.00     0.032 H 
ATOM     29  H   LIG d   1       6.617   1.518  -3.203  0.00  0.00     0.082 H 
ATOM     30  H   LIG d   1       7.949   0.359  -3.533  0.00  0.00     0.082 H 
ATOM     31  H   LIG d   1       5.613   0.928  -5.341  0.00  0.00     0.204 HD
BRANCH  21  32
ATOM     32  C   LIG d   1       9.360   2.422  -6.829  0.00  0.00     0.214 C 
ATOM     33  O   LIG d   1       9.636   2.156  -7.979  0.00  0.00    -0.276 OA
ATOM     34  N   LIG d   1       9.636   3.644  -6.334  0.00  0.00    -0.329 N 
ATOM     35  H   LIG d   1      10.113   4.401  -6.974  0.00  0.00     0.145 HD
ATOM     36  H   LIG d   1       9.385   3.885  -5.291  0.00  0.00     0.145 HD
ENDBRANCH  21  32
ENDBRANCH  10  16
BRANCH  12  37
ATOM     37  O   LIG d   1       3.924  -2.490  -4.189  0.00  0.00    -0.384 OA
ATOM     38  H   LIG d   1       3.954  -3.529  -4.550  0.00  0.00     0.210 HD
ENDBRANCH  12  37
BRANCH   1  39
ATOM     39  N   LIG d   1       4.084   0.460  -6.411  0.00  0.00    -0.291 N 
ATOM     40  C   LIG d   1       3.508   0.707  -7.603  0.00  0.00     0.300 C 
ATOM     41  N   LIG d   1       4.120   1.511  -8.495  0.00  0.00    -0.300 N 
ATOM     42  O   LIG d   1       2.433   0.205  -7.875  0.00  0.00    -0.253 OA
ATOM     43  H   LIG d   1       5.050   2.031  -8.219  0.00  0.00     0.150 HD
ATOM     44  H   LIG d   1       5.014   0.977  -6.132  0.00  0.00     0.151 HD
BRANCH  41  45
ATOM     45  C   LIG d   1       3.548   1.694  -9.830  0.00  0.00     0.010 C 
ATOM     46  H   LIG d   1       3.616   2.755 -10.117  0.00  0.00     0.046 H 
ATOM     47  H   LIG d   1       2.493   1.384  -9.823  0.00  0.00     0.046 H 
BRANCH  45  48
ATOM     48  C   LIG d   1       4.322   0.843 -10.839  0.00  0.00    -0.050 C 
ATOM     49  H   LIG d   1       3.930  -0.184 -10.831  0.00  0.00     0.025 H 
ATOM     50  H   LIG d   1       5.388   0.831 -10.565  0.00  0.00     0.025 H 
ATOM     51  H   LIG d   1       4.208   1.273 -11.844  0.00  0.00     0.025 H 
ENDBRANCH  45  48
ENDBRANCH  41  45
ENDBRANCH   1  39
TORSDOF 6
ENDMDL
MODEL 2
REMARK VINA RESULT:      -6.1      3.333      5.135
REMARK  6 active torsions:
REMARK  status: ('A' for Active; 'I' for Inactive)
REMARK    1  A    between atoms: C_1  and  C_2 
REMARK    2  A    between atoms: C_2  and  N_3 
REMARK       I    between atoms: N_3  and  C_4 
REMARK       I    between atoms: C_4  and  N_6 
REMARK    3  A    between atoms: N_6  and  C_7 
REMARK    4  A    between atoms: C_16  and  N_21 
REMARK    5  A    between atoms: C_18  and  O_20 
REMARK    6  A    between atoms: C_24  and  C_27 
REMARK       I    between atoms: C_27  and  N_29 
ROOT
ATOM      1  C   LIG d   1       4.411  -4.078  -7.908  0.00  0.00     0.084 C 
ATOM      2  H   LIG d   1       4.513  -4.109  -9.003  0.00  0.00     0.055 H 
ATOM      3  C   LIG d   1       3.726  -5.345  -7.372  0.00  0.00     0.106 C 
ATOM      4  H   LIG d   1       2.796  -5.561  -7.917  0.00  0.00     0.064 H 
ATOM      5  C   LIG d   1       4.773  -6.484  -7.381  0.00  0.00     0.079 C 
ATOM      6  O   LIG d   1       5.404  -6.418  -6.089  0.00  0.00    -0.344 OA
ATOM      7  C   LIG d   1       4.813  -5.307  -5.390  0.00  0.00     0.206 C 
ATOM      8  H   LIG d   1       4.768  -5.528  -4.313  0.00  0.00     0.097 H 
ATOM      9  O   LIG d   1       3.476  -5.133  -5.961  0.00  0.00    -0.339 OA
ATOM     10  C   LIG d   1       5.622  -4.045  -5.722  0.00  0.00     0.059 C 
ATOM     11  H   LIG d   1       6.607  -4.068  -5.234  0.00  0.00     0.093 H 
ATOM     12  C   LIG d   1       5.777  -3.936  -7.228  0.00  0.00     0.123 C 
ATOM     13  H   LIG d   1       6.256  -2.987  -7.509  0.00  0.00     0.067 H 
ATOM     14  H   LIG d   1       4.265  -7.448  -7.537  0.00  0.00     0.059 H 
ATOM     15  H   LIG d   1       5.493  -6.314  -8.195  0.00  0.00     0.059 H 
ENDROOT
BRANCH  10  16
ATOM     16  N   LIG d   1       4.912  -2.860  -5.223  0.00  0.00     0.243 N 
ATOM     17  C   LIG d   1       5.672  -1.635  -5.502  0.00  0.00    -0.031 C 
ATOM     18  C   LIG d   1       4.840  -0.414  -5.101  0.00  0.00    -0.001 C 
ATOM     19  H   LIG d   1       6.609  -1.644  -4.926  0.00  0.00     0.082 H 
ATOM     20  H   LIG d   1       5.903  -1.583  -6.577  0.00  0.00     0.082 H 
ATOM     21  C   LIG d   1       4.504  -0.499  -3.610  0.00  0.00     0.045 C 
ATOM     22  H   LIG d   1       3.909  -0.395  -5.687  0.00  0.00     0.032 H 
ATOM     23  H   LIG d   1       5.415   0.503  -5.295  0.00  0.00     0.032 H 
ATOM     24  C   LIG d   1       3.755  -1.807  -3.338  0.00  0.00    -0.001 C 
ATOM     25  H   LIG d   1       5.426  -0.461  -3.012  0.00  0.00     0.040 H 
ATOM     26  C   LIG d   1       4.618  -2.986  -3.790  0.00  0.00    -0.031 C 
ATOM     27  H   LIG d   1       2.806  -1.811  -3.895  0.00  0.00     0.032 H 
ATOM     28  H   LIG d   1       3.548  -1.895  -2.261  0.00  0.00     0.032 H 
ATOM     29  H   LIG d   1       4.077  -3.927  -3.608  0.00  0.00     0.082 H 
ATOM     30  H   LIG d   1       5.560  -2.991  -3.220  0.00  0.00     0.082 H 
ATOM     31  H   LIG d   1       3.953  -2.788  -5.756  0.00  0.00     0.204 HD
BRANCH  21  32
ATOM     32  C   LIG d   1       3.635   0.670  -3.222  0.00  0.00     0.214 C 
ATOM     33  O   LIG d   1       3.452   0.927  -2.052  0.00  0.00    -0.276 OA
ATOM     34  N   LIG d   1       3.064   1.430  -4.178  0.00  0.00    -0.329 N 
ATOM     35  H   LIG d   1       2.429   2.283  -3.895  0.00  0.00     0.145 HD
ATOM     36  H   LIG d   1       3.230   1.196  -5.239  0.00  0.00     0.145 HD
ENDBRANCH  21  32
ENDBRANCH  10  16
BRANCH  12  37
ATOM     37  O   LIG d   1       6.640  -4.986  -7.668  0.00  0.00    -0.384 OA
ATOM     38  H   LIG d   1       7.085  -5.675  -6.936  0.00  0.00     0.210 HD
ENDBRANCH  12  37
BRANCH   1  39
ATOM     39  N   LIG d   1       3.584  -2.907  -7.603  0.00  0.00    -0.291 N 
ATOM     40  C   LIG d   1       3.435  -1.929  -8.517  0.00  0.00     0.300 C 
ATOM     41  N   LIG d   1       2.758  -0.807  -8.202  0.00  0.00    -0.300 N 
ATOM     42  O   LIG d   1       3.911  -2.060  -9.630  0.00  0.00    -0.253 OA
ATOM     43  H   LIG d   1       2.258  -0.723  -7.226  0.00  0.00     0.150 HD
ATOM     44  H   LIG d   1       3.086  -2.826  -6.625  0.00  0.00     0.151 HD
BRANCH  41  45
ATOM     45  C   LIG d   1       2.688   0.300  -9.158  0.00  0.00     0.010 C 
ATOM     46  H   LIG d   1       1.685   0.330  -9.611  0.00  0.00     0.046 H 
ATOM     47  H   LIG d   1       3.442   0.152  -9.946  0.00  0.00     0.046 H 
BRANCH  45  48
ATOM     48  C   LIG d   1       2.960   1.619  -8.434  0.00  0.00    -0.050 C 
ATOM     49  H   LIG d   1       3.957   1.992  -8.710  0.00  0.00     0.025 H 
ATOM     50  H   LIG d   1       2.920   1.455  -7.346  0.00  0.00     0.025 H 
ATOM     51  H   LIG d   1       2.199   2.358  -8.720  0.00  0.00     0.025 H 
ENDBRANCH  45  48
ENDBRANCH  41  45
ENDBRANCH   1  39
TORSDOF 6
ENDMDL
MODEL 3
REMARK VINA RESULT:      -6.0      1.807      5.784
REMARK  6 active torsions:
REMARK  status: ('A' for Active; 'I' for Inactive)
REMARK    1  A    between atoms: C_1  and  C_2 
REMARK    2  A    between atoms: C_2  and  N_3 
REMARK       I    between atoms: N_3  and  C_4 
REMARK       I    between atoms: C_4  and  N_6 
REMARK    3  A    between atoms: N_6  and  C_7 
REMARK    4  A    between atoms: C_16  and  N_21 
REMARK    5  A    between atoms: C_18  and  O_20 
REMARK    6  A    between atoms: C_24  and  C_27 
REMARK       I    between atoms: C_27  and  N_29 
ROOT
ATOM      1  C   LIG d   1       5.714   0.774  -8.786  0.00  0.00     0.084 C 
ATOM      2  H   LIG d   1       6.620   0.657  -9.399  0.00  0.00     0.055 H 
ATOM      3  C   LIG d   1       4.814   1.899  -9.322  0.00  0.00     0.106 C 
ATOM      4  H   LIG d   1       5.384   2.826  -9.486  0.00  0.00     0.064 H 
ATOM      5  C   LIG d   1       4.072   1.356 -10.565  0.00  0.00     0.079 C 
ATOM      6  O   LIG d   1       2.855   0.786 -10.051  0.00  0.00    -0.344 OA
ATOM      7  C   LIG d   1       2.892   0.939  -8.620  0.00  0.00     0.206 C 
ATOM      8  H   LIG d   1       1.873   1.096  -8.236  0.00  0.00     0.097 H 
ATOM      9  O   LIG d   1       3.751   2.095  -8.357  0.00  0.00    -0.339 OA
ATOM     10  C   LIG d   1       3.586  -0.294  -8.022  0.00  0.00     0.059 C 
ATOM     11  H   LIG d   1       2.944  -1.184  -8.097  0.00  0.00     0.093 H 
ATOM     12  C   LIG d   1       4.899  -0.524  -8.747  0.00  0.00     0.123 C 
ATOM     13  H   LIG d   1       5.476  -1.332  -8.274  0.00  0.00     0.067 H 
ATOM     14  H   LIG d   1       3.870   2.183 -11.264  0.00  0.00     0.059 H 
ATOM     15  H   LIG d   1       4.696   0.599 -11.064  0.00  0.00     0.059 H 
ENDROOT
BRANCH  10  16
ATOM     16  N   LIG d   1       3.856  -0.065  -6.597  0.00  0.00     0.243 N 
ATOM     17  C   LIG d   1       4.492  -1.239  -5.986  0.00  0.00    -0.031 C 
ATOM     18  C   LIG d   1       4.889  -0.913  -4.544  0.00  0.00    -0.001 C 
ATOM     19  H   LIG d   1       3.786  -2.082  -5.989  0.00  0.00     0.082 H 
ATOM     20  H   LIG d   1       5.390  -1.510  -6.561  0.00  0.00     0.082 H 
ATOM     21  C   LIG d   1       3.639  -0.517  -3.753  0.00  0.00     0.045 C 
ATOM     22  H   LIG d   1       5.606  -0.079  -4.539  0.00  0.00     0.032 H 
ATOM     23  H   LIG d   1       5.351  -1.797  -4.081  0.00  0.00     0.032 H 
ATOM     24  C   LIG d   1       2.969   0.678  -4.437  0.00  0.00    -0.001 C 
ATOM     25  H   LIG d   1       2.940  -1.363  -3.702  0.00  0.00     0.040 H 
ATOM     26  C   LIG d   1       2.628   0.306  -5.881  0.00  0.00    -0.031 C 
ATOM     27  H   LIG d   1       3.656   1.538  -4.431  0.00  0.00     0.032 H 
ATOM     28  H   LIG d   1       2.047   0.941  -3.898  0.00  0.00     0.032 H 
ATOM     29  H   LIG d   1       2.159   1.168  -6.380  0.00  0.00     0.082 H 
ATOM     30  H   LIG d   1       1.929  -0.544  -5.886  0.00  0.00     0.082 H 
ATOM     31  H   LIG d   1       4.558   0.778  -6.515  0.00  0.00     0.204 HD
BRANCH  21  32
ATOM     32  C   LIG d   1       4.033  -0.139  -2.347  0.00  0.00     0.214 C 
ATOM     33  O   LIG d   1       4.360  -0.998  -1.558  0.00  0.00    -0.276 OA
ATOM     34  N   LIG d   1       4.020   1.155  -1.970  0.00  0.00    -0.329 N 
ATOM     35  H   LIG d   1       4.307   1.431  -0.944  0.00  0.00     0.145 HD
ATOM     36  H   LIG d   1       3.722   1.934  -2.686  0.00  0.00     0.145 HD
ENDBRANCH  21  32
ENDBRANCH  10  16
BRANCH  12  37
ATOM     37  O   LIG d   1       4.609  -0.944 -10.082  0.00  0.00    -0.384 OA
ATOM     38  H   LIG d   1       4.032  -1.864 -10.255  0.00  0.00     0.210 HD
ENDBRANCH  12  37
BRANCH   1  39
ATOM     39  N   LIG d   1       6.168   1.110  -7.434  0.00  0.00    -0.291 N 
ATOM     40  C   LIG d   1       7.443   1.492  -7.227  0.00  0.00     0.300 C 
ATOM     41  N   LIG d   1       7.889   1.705  -5.973  0.00  0.00    -0.300 N 
ATOM     42  O   LIG d   1       8.193   1.645  -8.173  0.00  0.00    -0.253 OA
ATOM     43  H   LIG d   1       7.191   1.648  -5.124  0.00  0.00     0.150 HD
ATOM     44  H   LIG d   1       5.468   1.051  -6.588  0.00  0.00     0.151 HD
BRANCH  41  45
ATOM     45  C   LIG d   1       9.301   2.015  -5.739  0.00  0.00     0.010 C 
ATOM     46  H   LIG d   1       9.877   1.814  -6.655  0.00  0.00     0.046 H 
ATOM     47  H   LIG d   1       9.683   1.387  -4.920  0.00  0.00     0.046 H 
BRANCH  45  48
ATOM     48  C   LIG d   1       9.445   3.489  -5.360  0.00  0.00    -0.050 C 
ATOM     49  H   LIG d   1      10.389   3.639  -4.817  0.00  0.00     0.025 H 
ATOM     50  H   LIG d   1       8.602   3.787  -4.718  0.00  0.00     0.025 H 
ATOM     51  H   LIG d   1       9.445   4.104  -6.272  0.00  0.00     0.025 H 
ENDBRANCH  45  48
ENDBRANCH  41  45
ENDBRANCH   1  39
TORSDOF 6
ENDMDL
MODEL 4
REMARK VINA RESULT:      -6.0      3.191      6.468
REMARK  6 active torsions:
REMARK  status: ('A' for Active; 'I' for Inactive)
REMARK    1  A    between atoms: C_1  and  C_2 
REMARK    2  A    between atoms: C_2  and  N_3 
REMARK       I    between atoms: N_3  and  C_4 
REMARK       I    between atoms: C_4  and  N_6 
REMARK    3  A    between atoms: N_6  and  C_7 
REMARK    4  A    between atoms: C_16  and  N_21 
REMARK    5  A    between atoms: C_18  and  O_20 
REMARK    6  A    between atoms: C_24  and  C_27 
REMARK       I    between atoms: C_27  and  N_29 
ROOT
ATOM      1  C   LIG d   1       3.455   0.508  -7.305  0.00  0.00     0.084 C 
ATOM      2  H   LIG d   1       3.341   1.477  -6.795  0.00  0.00     0.055 H 
ATOM      3  C   LIG d   1       2.557   0.420  -8.549  0.00  0.00     0.106 C 
ATOM      4  H   LIG d   1       1.519   0.700  -8.316  0.00  0.00     0.064 H 
ATOM      5  C   LIG d   1       3.225   1.247  -9.671  0.00  0.00     0.079 C 
ATOM      6  O   LIG d   1       4.077   0.316 -10.362  0.00  0.00    -0.344 OA
ATOM      7  C   LIG d   1       3.957  -0.947  -9.681  0.00  0.00     0.206 C 
ATOM      8  H   LIG d   1       4.052  -1.770 -10.404  0.00  0.00     0.097 H 
ATOM      9  O   LIG d   1       2.640  -0.940  -9.042  0.00  0.00    -0.339 OA
ATOM     10  C   LIG d   1       5.010  -0.991  -8.563  0.00  0.00     0.059 C 
ATOM     11  H   LIG d   1       6.022  -1.100  -8.978  0.00  0.00     0.093 H 
ATOM     12  C   LIG d   1       4.908   0.276  -7.735  0.00  0.00     0.123 C 
ATOM     13  H   LIG d   1       5.572   0.231  -6.860  0.00  0.00     0.067 H 
ATOM     14  H   LIG d   1       2.450   1.659 -10.336  0.00  0.00     0.059 H 
ATOM     15  H   LIG d   1       3.801   2.072  -9.226  0.00  0.00     0.059 H 
ENDROOT
BRANCH  10  16
ATOM     16  N   LIG d   1       4.762  -2.153  -7.700  0.00  0.00     0.243 N 
ATOM     17  C   LIG d   1       5.863  -2.345  -6.747  0.00  0.00    -0.031 C 
ATOM     18  C   LIG d   1       5.506  -3.469  -5.772  0.00  0.00    -0.001 C 
ATOM     19  H   LIG d   1       6.779  -2.613  -7.294  0.00  0.00     0.082 H 
ATOM     20  H   LIG d   1       6.030  -1.413  -6.186  0.00  0.00     0.082 H 
ATOM     21  C   LIG d   1       5.255  -4.759  -6.558  0.00  0.00     0.045 C 
ATOM     22  H   LIG d   1       4.598  -3.198  -5.214  0.00  0.00     0.032 H 
ATOM     23  H   LIG d   1       6.337  -3.625  -5.068  0.00  0.00     0.032 H 
ATOM     24  C   LIG d   1       4.137  -4.519  -7.576  0.00  0.00    -0.001 C 
ATOM     25  H   LIG d   1       6.175  -5.072  -7.074  0.00  0.00     0.040 H 
ATOM     26  C   LIG d   1       4.535  -3.364  -8.498  0.00  0.00    -0.031 C 
ATOM     27  H   LIG d   1       3.207  -4.263  -7.048  0.00  0.00     0.032 H 
ATOM     28  H   LIG d   1       3.982  -5.429  -8.174  0.00  0.00     0.032 H 
ATOM     29  H   LIG d   1       3.727  -3.180  -9.223  0.00  0.00     0.082 H 
ATOM     30  H   LIG d   1       5.457  -3.627  -9.038  0.00  0.00     0.082 H 
ATOM     31  H   LIG d   1       3.848  -1.957  -7.120  0.00  0.00     0.204 HD
BRANCH  21  32
ATOM     32  C   LIG d   1       4.846  -5.856  -5.608  0.00  0.00     0.214 C 
ATOM     33  O   LIG d   1       3.851  -5.729  -4.928  0.00  0.00    -0.276 OA
ATOM     34  N   LIG d   1       5.587  -6.978  -5.517  0.00  0.00    -0.329 N 
ATOM     35  H   LIG d   1       5.289  -7.779  -4.823  0.00  0.00     0.145 HD
ATOM     36  H   LIG d   1       6.489  -7.094  -6.134  0.00  0.00     0.145 HD
ENDBRANCH  21  32
ENDBRANCH  10  16
BRANCH  12  37
ATOM     37  O   LIG d   1       5.348   1.374  -8.537  0.00  0.00    -0.384 OA
ATOM     38  H   LIG d   1       5.004   1.469  -9.577  0.00  0.00     0.210 HD
ENDBRANCH  12  37
BRANCH   1  39
ATOM     39  N   LIG d   1       3.058  -0.519  -6.338  0.00  0.00    -0.291 N 
ATOM     40  C   LIG d   1       3.120  -0.261  -5.017  0.00  0.00     0.300 C 
ATOM     41  N   LIG d   1       2.851  -1.236  -4.126  0.00  0.00    -0.300 N 
ATOM     42  O   LIG d   1       3.419   0.852  -4.628  0.00  0.00    -0.253 OA
ATOM     43  H   LIG d   1       2.501  -2.219  -4.476  0.00  0.00     0.150 HD
ATOM     44  H   LIG d   1       2.710  -1.500  -6.691  0.00  0.00     0.151 HD
BRANCH  41  45
ATOM     45  C   LIG d   1       3.023  -0.988  -2.693  0.00  0.00     0.010 C 
ATOM     46  H   LIG d   1       2.091  -1.237  -2.163  0.00  0.00     0.046 H 
ATOM     47  H   LIG d   1       3.264   0.074  -2.532  0.00  0.00     0.046 H 
BRANCH  45  48
ATOM     48  C   LIG d   1       4.163  -1.855  -2.157  0.00  0.00    -0.050 C 
ATOM     49  H   LIG d   1       4.053  -2.882  -2.536  0.00  0.00     0.025 H 
ATOM     50  H   LIG d   1       4.130  -1.865  -1.057  0.00  0.00     0.025 H 
ATOM     51  H   LIG d   1       5.126  -1.442  -2.491  0.00  0.00     0.025 H 
ENDBRANCH  45  48
ENDBRANCH  41  45
ENDBRANCH   1  39
TORSDOF 6
ENDMDL
MODEL 5
REMARK VINA RESULT:      -6.0      3.167      5.281
REMARK  6 active torsions:
REMARK  status: ('A' for Active; 'I' for Inactive)
REMARK    1  A    between atoms: C_1  and  C_2 
REMARK    2  A    between atoms: C_2  and  N_3 
REMARK       I    between atoms: N_3  and  C_4 
REMARK       I    between atoms: C_4  and  N_6 
REMARK    3  A    between atoms: N_6  and  C_7 
REMARK    4  A    between atoms: C_16  and  N_21 
REMARK    5  A    between atoms: C_18  and  O_20 
REMARK    6  A    between atoms: C_24  and  C_27 
REMARK       I    between atoms: C_27  and  N_29 
ROOT
ATOM      1  C   LIG d   1       4.661  -2.569  -3.886  0.00  0.00     0.084 C 
ATOM      2  H   LIG d   1       5.184  -3.406  -3.398  0.00  0.00     0.055 H 
ATOM      3  C   LIG d   1       3.711  -1.856  -2.909  0.00  0.00     0.106 C 
ATOM      4  H   LIG d   1       3.055  -2.573  -2.392  0.00  0.00     0.064 H 
ATOM      5  C   LIG d   1       4.570  -0.964  -1.984  0.00  0.00     0.079 C 
ATOM      6  O   LIG d   1       4.644   0.306  -2.657  0.00  0.00    -0.344 OA
ATOM      7  C   LIG d   1       3.926   0.166  -3.897  0.00  0.00     0.206 C 
ATOM      8  H   LIG d   1       3.442   1.118  -4.155  0.00  0.00     0.097 H 
ATOM      9  O   LIG d   1       2.945  -0.898  -3.680  0.00  0.00    -0.339 OA
ATOM     10  C   LIG d   1       4.910  -0.329  -4.968  0.00  0.00     0.059 C 
ATOM     11  H   LIG d   1       5.617   0.464  -5.251  0.00  0.00     0.093 H 
ATOM     12  C   LIG d   1       5.655  -1.540  -4.436  0.00  0.00     0.123 C 
ATOM     13  H   LIG d   1       6.289  -1.988  -5.215  0.00  0.00     0.067 H 
ATOM     14  H   LIG d   1       4.081  -0.876  -1.001  0.00  0.00     0.059 H 
ATOM     15  H   LIG d   1       5.565  -1.416  -1.858  0.00  0.00     0.059 H 
ENDROOT
BRANCH  10  16
ATOM     16  N   LIG d   1       4.170  -0.711  -6.177  0.00  0.00     0.243 N 
ATOM     17  C   LIG d   1       5.088  -1.074  -7.264  0.00  0.00    -0.031 C 
ATOM     18  C   LIG d   1       4.287  -1.603  -8.456  0.00  0.00    -0.001 C 
ATOM     19  H   LIG d   1       5.660  -0.187  -7.573  0.00  0.00     0.082 H 
ATOM     20  H   LIG d   1       5.781  -1.854  -6.913  0.00  0.00     0.082 H 
ATOM     21  C   LIG d   1       3.310  -0.523  -8.928  0.00  0.00     0.045 C 
ATOM     22  H   LIG d   1       3.725  -2.499  -8.153  0.00  0.00     0.032 H 
ATOM     23  H   LIG d   1       4.973  -1.861  -9.276  0.00  0.00     0.032 H 
ATOM     24  C   LIG d   1       2.397  -0.128  -7.765  0.00  0.00    -0.001 C 
ATOM     25  H   LIG d   1       3.864   0.356  -9.288  0.00  0.00     0.040 H 
ATOM     26  C   LIG d   1       3.253   0.358  -6.593  0.00  0.00    -0.031 C 
ATOM     27  H   LIG d   1       1.804  -1.000  -7.449  0.00  0.00     0.032 H 
ATOM     28  H   LIG d   1       1.721   0.678  -8.085  0.00  0.00     0.032 H 
ATOM     29  H   LIG d   1       2.600   0.630  -5.750  0.00  0.00     0.082 H 
ATOM     30  H   LIG d   1       3.834   1.240  -6.905  0.00  0.00     0.082 H 
ATOM     31  H   LIG d   1       3.564  -1.598  -5.940  0.00  0.00     0.204 HD
BRANCH  21  32
ATOM     32  C   LIG d   1       2.477  -1.059 -10.065  0.00  0.00     0.214 C 
ATOM     33  O   LIG d   1       3.016  -1.472 -11.069  0.00  0.00    -0.276 OA
ATOM     34  N   LIG d   1       1.134  -1.080  -9.962  0.00  0.00    -0.329 N 
ATOM     35  H   LIG d   1       0.526  -1.472 -10.792  0.00  0.00     0.145 HD
ATOM     36  H   LIG d   1       0.645  -0.706  -9.051  0.00  0.00     0.145 HD
ENDBRANCH  21  32
ENDBRANCH  10  16
BRANCH  12  37
ATOM     37  O   LIG d   1       6.525  -1.109  -3.388  0.00  0.00    -0.384 OA
ATOM     38  H   LIG d   1       6.263  -0.228  -2.783  0.00  0.00     0.210 HD
ENDBRANCH  12  37
BRANCH   1  39
ATOM     39  N   LIG d   1       3.889  -3.147  -4.988  0.00  0.00    -0.291 N 
ATOM     40  C   LIG d   1       4.317  -4.272  -5.594  0.00  0.00     0.300 C 
ATOM     41  N   LIG d   1       3.663  -4.749  -6.671  0.00  0.00    -0.300 N 
ATOM     42  O   LIG d   1       5.295  -4.858  -5.167  0.00  0.00    -0.253 OA
ATOM     43  H   LIG d   1       2.733  -4.268  -7.008  0.00  0.00     0.150 HD
ATOM     44  H   LIG d   1       2.960  -2.663  -5.323  0.00  0.00     0.151 HD
BRANCH  41  45
ATOM     45  C   LIG d   1       4.190  -5.909  -7.394  0.00  0.00     0.010 C 
ATOM     46  H   LIG d   1       3.878  -6.832  -6.884  0.00  0.00     0.046 H 
ATOM     47  H   LIG d   1       5.288  -5.857  -7.420  0.00  0.00     0.046 H 
BRANCH  45  48
ATOM     48  C   LIG d   1       3.647  -5.909  -8.824  0.00  0.00    -0.050 C 
ATOM     49  H   LIG d   1       2.781  -6.583  -8.889  0.00  0.00     0.025 H 
ATOM     50  H   LIG d   1       4.432  -6.255  -9.514  0.00  0.00     0.025 H 
ATOM     51  H   LIG d   1       3.341  -4.890  -9.100  0.00  0.00     0.025 H 
ENDBRANCH  45  48
ENDBRANCH  41  45
ENDBRANCH   1  39
TORSDOF 6
ENDMDL
MODEL 6
REMARK VINA RESULT:      -5.7      2.906      5.400
REMARK  6 active torsions:
REMARK  status: ('A' for Active; 'I' for Inactive)
REMARK    1  A    between atoms: C_1  and  C_2 
REMARK    2  A    between atoms: C_2  and  N_3 
REMARK       I    between atoms: N_3  and  C_4 
REMARK       I    between atoms: C_4  and  N_6 
REMARK    3  A    between atoms: N_6  and  C_7 
REMARK    4  A    between atoms: C_16  and  N_21 
REMARK    5  A    between atoms: C_18  and  O_20 
REMARK    6  A    between atoms: C_24  and  C_27 
REMARK       I    between atoms: C_27  and  N_29 
ROOT
ATOM      1  C   LIG d   1       2.840   0.257  -7.635  0.00  0.00     0.084 C 
ATOM      2  H   LIG d   1       2.116   1.061  -7.434  0.00  0.00     0.055 H 
ATOM      3  C   LIG d   1       2.284  -0.758  -8.646  0.00  0.00     0.106 C 
ATOM      4  H   LIG d   1       1.280  -1.102  -8.359  0.00  0.00     0.064 H 
ATOM      5  C   LIG d   1       2.385  -0.125 -10.053  0.00  0.00     0.079 C 
ATOM      6  O   LIG d   1       3.679  -0.517 -10.545  0.00  0.00    -0.344 OA
ATOM      7  C   LIG d   1       4.310  -1.283  -9.501  0.00  0.00     0.206 C 
ATOM      8  H   LIG d   1       4.946  -2.062  -9.945  0.00  0.00     0.097 H 
ATOM      9  O   LIG d   1       3.224  -1.860  -8.708  0.00  0.00    -0.339 OA
ATOM     10  C   LIG d   1       5.078  -0.312  -8.591  0.00  0.00     0.059 C 
ATOM     11  H   LIG d   1       5.971   0.081  -9.098  0.00  0.00     0.093 H 
ATOM     12  C   LIG d   1       4.156   0.821  -8.184  0.00  0.00     0.123 C 
ATOM     13  H   LIG d   1       4.638   1.477  -7.444  0.00  0.00     0.067 H 
ATOM     14  H   LIG d   1       1.574  -0.511 -10.689  0.00  0.00     0.059 H 
ATOM     15  H   LIG d   1       2.296   0.969  -9.970  0.00  0.00     0.059 H 
ENDROOT
BRANCH  10  16
ATOM     16  N   LIG d   1       5.533  -1.022  -7.388  0.00  0.00     0.243 N 
ATOM     17  C   LIG d   1       6.415  -0.173  -6.579  0.00  0.00    -0.031 C 
ATOM     18  C   LIG d   1       6.751  -0.887  -5.268  0.00  0.00    -0.001 C 
ATOM     19  H   LIG d   1       7.344   0.027  -7.134  0.00  0.00     0.082 H 
ATOM     20  H   LIG d   1       5.909   0.779  -6.358  0.00  0.00     0.082 H 
ATOM     21  C   LIG d   1       7.438  -2.219  -5.579  0.00  0.00     0.045 C 
ATOM     22  H   LIG d   1       5.826  -1.075  -4.703  0.00  0.00     0.032 H 
ATOM     23  H   LIG d   1       7.426  -0.258  -4.667  0.00  0.00     0.032 H 
ATOM     24  C   LIG d   1       6.518  -3.065  -6.463  0.00  0.00    -0.001 C 
ATOM     25  H   LIG d   1       8.394  -2.040  -6.093  0.00  0.00     0.040 H 
ATOM     26  C   LIG d   1       6.189  -2.287  -7.739  0.00  0.00    -0.031 C 
ATOM     27  H   LIG d   1       5.588  -3.288  -5.919  0.00  0.00     0.032 H 
ATOM     28  H   LIG d   1       7.023  -4.006  -6.726  0.00  0.00     0.032 H 
ATOM     29  H   LIG d   1       5.516  -2.888  -8.370  0.00  0.00     0.082 H 
ATOM     30  H   LIG d   1       7.119  -2.079  -8.291  0.00  0.00     0.082 H 
ATOM     31  H   LIG d   1       4.648  -1.261  -6.780  0.00  0.00     0.204 HD
BRANCH  21  32
ATOM     32  C   LIG d   1       7.719  -2.954  -4.293  0.00  0.00     0.214 C 
ATOM     33  O   LIG d   1       7.899  -4.153  -4.306  0.00  0.00    -0.276 OA
ATOM     34  N   LIG d   1       7.770  -2.277  -3.129  0.00  0.00    -0.329 N 
ATOM     35  H   LIG d   1       7.974  -2.813  -2.190  0.00  0.00     0.145 HD
ATOM     36  H   LIG d   1       7.607  -1.190  -3.117  0.00  0.00     0.145 HD
ENDBRANCH  21  32
ENDBRANCH  10  16
BRANCH  12  37
ATOM     37  O   LIG d   1       3.887   1.620  -9.337  0.00  0.00    -0.384 OA
ATOM     38  H   LIG d   1       3.279   1.214 -10.158  0.00  0.00     0.210 HD
ENDBRANCH  12  37
BRANCH   1  39
ATOM     39  N   LIG d   1       3.086  -0.409  -6.354  0.00  0.00    -0.291 N 
ATOM     40  C   LIG d   1       2.980   0.281  -5.202  0.00  0.00     0.300 C 
ATOM     41  N   LIG d   1       3.302  -0.303  -4.031  0.00  0.00    -0.300 N 
ATOM     42  O   LIG d   1       2.591   1.434  -5.219  0.00  0.00    -0.253 OA
ATOM     43  H   LIG d   1       3.574  -1.369  -4.006  0.00  0.00     0.150 HD
ATOM     44  H   LIG d   1       3.359  -1.475  -6.332  0.00  0.00     0.151 HD
BRANCH  41  45
ATOM     45  C   LIG d   1       3.290   0.479  -2.793  0.00  0.00     0.010 C 
ATOM     46  H   LIG d   1       2.357   0.282  -2.244  0.00  0.00     0.046 H 
ATOM     47  H   LIG d   1       3.354   1.550  -3.036  0.00  0.00     0.046 H 
BRANCH  45  48
ATOM     48  C   LIG d   1       4.485   0.081  -1.926  0.00  0.00    -0.050 C 
ATOM     49  H   LIG d   1       4.382   0.532  -0.929  0.00  0.00     0.025 H 
ATOM     50  H   LIG d   1       5.414   0.438  -2.396  0.00  0.00     0.025 H 
ATOM     51  H   LIG d   1       4.521  -1.015  -1.832  0.00  0.00     0.025 H 
ENDBRANCH  45  48
ENDBRANCH  41  45
ENDBRANCH   1  39
TORSDOF 6
ENDMDL
MODEL 7
REMARK VINA RESULT:      -5.5      3.159      5.588
REMARK  6 active torsions:
REMARK  status: ('A' for Active; 'I' for Inactive)
REMARK    1  A    between atoms: C_1  and  C_2 
REMARK    2  A    between atoms: C_2  and  N_3 
REMARK       I    between atoms: N_3  and  C_4 
REMARK       I    between atoms: C_4  and  N_6 
REMARK    3  A    between atoms: N_6  and  C_7 
REMARK    4  A    between atoms: C_16  and  N_21 
REMARK    5  A    between atoms: C_18  and  O_20 
REMARK    6  A    between atoms: C_24  and  C_27 
REMARK       I    between atoms: C_27  and  N_29 
ROOT
ATOM      1  C   LIG d   1       4.668  -3.880  -5.408  0.00  0.00     0.084 C 
ATOM      2  H   LIG d   1       4.115  -4.366  -4.591  0.00  0.00     0.055 H 
ATOM      3  C   LIG d   1       6.163  -4.234  -5.363  0.00  0.00     0.106 C 
ATOM      4  H   LIG d   1       6.584  -4.073  -4.359  0.00  0.00     0.064 H 
ATOM      5  C   LIG d   1       6.324  -5.668  -5.920  0.00  0.00     0.079 C 
ATOM      6  O   LIG d   1       6.526  -5.495  -7.334  0.00  0.00    -0.344 OA
ATOM      7  C   LIG d   1       6.450  -4.082  -7.600  0.00  0.00     0.206 C 
ATOM      8  H   LIG d   1       7.130  -3.822  -8.423  0.00  0.00     0.097 H 
ATOM      9  O   LIG d   1       6.829  -3.414  -6.354  0.00  0.00    -0.339 OA
ATOM     10  C   LIG d   1       4.982  -3.727  -7.884  0.00  0.00     0.059 C 
ATOM     11  H   LIG d   1       4.663  -4.117  -8.861  0.00  0.00     0.093 H 
ATOM     12  C   LIG d   1       4.111  -4.291  -6.776  0.00  0.00     0.123 C 
ATOM     13  H   LIG d   1       3.068  -3.962  -6.887  0.00  0.00     0.067 H 
ATOM     14  H   LIG d   1       7.188  -6.153  -5.441  0.00  0.00     0.059 H 
ATOM     15  H   LIG d   1       5.414  -6.249  -5.707  0.00  0.00     0.059 H 
ENDROOT
BRANCH  10  16
ATOM     16  N   LIG d   1       4.829  -2.267  -7.922  0.00  0.00     0.243 N 
ATOM     17  C   LIG d   1       3.473  -1.891  -8.342  0.00  0.00    -0.031 C 
ATOM     18  C   LIG d   1       3.305  -0.374  -8.231  0.00  0.00    -0.001 C 
ATOM     19  H   LIG d   1       3.313  -2.201  -9.386  0.00  0.00     0.082 H 
ATOM     20  H   LIG d   1       2.736  -2.390  -7.695  0.00  0.00     0.082 H 
ATOM     21  C   LIG d   1       4.344   0.316  -9.119  0.00  0.00     0.045 C 
ATOM     22  H   LIG d   1       3.450  -0.063  -7.186  0.00  0.00     0.032 H 
ATOM     23  H   LIG d   1       2.294  -0.090  -8.561  0.00  0.00     0.032 H 
ATOM     24  C   LIG d   1       5.745  -0.129  -8.691  0.00  0.00    -0.001 C 
ATOM     25  H   LIG d   1       4.172   0.058 -10.173  0.00  0.00     0.040 H 
ATOM     26  C   LIG d   1       5.842  -1.653  -8.789  0.00  0.00    -0.031 C 
ATOM     27  H   LIG d   1       5.930   0.185  -7.653  0.00  0.00     0.032 H 
ATOM     28  H   LIG d   1       6.495   0.330  -9.352  0.00  0.00     0.032 H 
ATOM     29  H   LIG d   1       6.844  -1.977  -8.469  0.00  0.00     0.082 H 
ATOM     30  H   LIG d   1       5.672  -1.964  -9.831  0.00  0.00     0.082 H 
ATOM     31  H   LIG d   1       4.982  -1.882  -6.903  0.00  0.00     0.204 HD
BRANCH  21  32
ATOM     32  C   LIG d   1       4.221   1.812  -8.968  0.00  0.00     0.214 C 
ATOM     33  O   LIG d   1       5.069   2.540  -9.437  0.00  0.00    -0.276 OA
ATOM     34  N   LIG d   1       3.168   2.337  -8.312  0.00  0.00    -0.329 N 
ATOM     35  H   LIG d   1       3.078   3.429  -8.202  0.00  0.00     0.145 HD
ATOM     36  H   LIG d   1       2.399   1.677  -7.887  0.00  0.00     0.145 HD
ENDBRANCH  21  32
ENDBRANCH  10  16
BRANCH  12  37
ATOM     37  O   LIG d   1       4.114  -5.716  -6.883  0.00  0.00    -0.384 OA
ATOM     38  H   LIG d   1       4.242  -6.335  -5.983  0.00  0.00     0.210 HD
ENDBRANCH  12  37
BRANCH   1  39
ATOM     39  N   LIG d   1       4.499  -2.437  -5.221  0.00  0.00    -0.291 N 
ATOM     40  C   LIG d   1       4.075  -1.955  -4.037  0.00  0.00     0.300 C 
ATOM     41  N   LIG d   1       3.824  -0.638  -3.895  0.00  0.00    -0.300 N 
ATOM     42  O   LIG d   1       3.918  -2.709  -3.095  0.00  0.00    -0.253 OA
ATOM     43  H   LIG d   1       4.044   0.056  -4.720  0.00  0.00     0.150 HD
ATOM     44  H   LIG d   1       4.719  -1.746  -6.049  0.00  0.00     0.151 HD
BRANCH  41  45
ATOM     45  C   LIG d   1       3.260  -0.131  -2.642  0.00  0.00     0.010 C 
ATOM     46  H   LIG d   1       2.994  -0.976  -1.990  0.00  0.00     0.046 H 
ATOM     47  H   LIG d   1       2.360   0.463  -2.860  0.00  0.00     0.046 H 
BRANCH  45  48
ATOM     48  C   LIG d   1       4.293   0.750  -1.937  0.00  0.00    -0.050 C 
ATOM     49  H   LIG d   1       4.292   0.528  -0.860  0.00  0.00     0.025 H 
ATOM     50  H   LIG d   1       4.038   1.810  -2.093  0.00  0.00     0.025 H 
ATOM     51  H   LIG d   1       5.291   0.549  -2.353  0.00  0.00     0.025 H 
ENDBRANCH  45  48
ENDBRANCH  41  45
ENDBRANCH   1  39
TORSDOF 6
ENDMDL
MODEL 8
REMARK VINA RESULT:      -5.5      2.122      5.546
REMARK  6 active torsions:
REMARK  status: ('A' for Active; 'I' for Inactive)
REMARK    1  A    between atoms: C_1  and  C_2 
REMARK    2  A    between atoms: C_2  and  N_3 
REMARK       I    between atoms: N_3  and  C_4 
REMARK       I    between atoms: C_4  and  N_6 
REMARK    3  A    between atoms: N_6  and  C_7 
REMARK    4  A    between atoms: C_16  and  N_21 
REMARK    5  A    between atoms: C_18  and  O_20 
REMARK    6  A    between atoms: C_24  and  C_27 
REMARK       I    between atoms: C_27  and  N_29 
ROOT
ATOM      1  C   LIG d   1       8.041   1.430  -6.961  0.00  0.00     0.084 C 
ATOM      2  H   LIG d   1       8.033   2.245  -7.700  0.00  0.00     0.055 H 
ATOM      3  C   LIG d   1       9.024   0.319  -7.364  0.00  0.00     0.106 C 
ATOM      4  H   LIG d   1       8.865  -0.001  -8.404  0.00  0.00     0.064 H 
ATOM      5  C   LIG d   1      10.452   0.814  -7.039  0.00  0.00     0.079 C 
ATOM      6  O   LIG d   1      10.697   0.382  -5.689  0.00  0.00    -0.344 OA
ATOM      7  C   LIG d   1       9.500  -0.277  -5.236  0.00  0.00     0.206 C 
ATOM      8  H   LIG d   1       9.762  -1.092  -4.547  0.00  0.00     0.097 H 
ATOM      9  O   LIG d   1       8.833  -0.779  -6.438  0.00  0.00    -0.339 OA
ATOM     10  C   LIG d   1       8.579   0.781  -4.608  0.00  0.00     0.059 C 
ATOM     11  H   LIG d   1       8.976   1.128  -3.643  0.00  0.00     0.093 H 
ATOM     12  C   LIG d   1       8.430   1.944  -5.571  0.00  0.00     0.123 C 
ATOM     13  H   LIG d   1       7.691   2.670  -5.203  0.00  0.00     0.067 H 
ATOM     14  H   LIG d   1      11.167   0.364  -7.746  0.00  0.00     0.059 H 
ATOM     15  H   LIG d   1      10.490   1.910  -7.129  0.00  0.00     0.059 H 
ENDROOT
BRANCH  10  16
ATOM     16  N   LIG d   1       7.257   0.193  -4.353  0.00  0.00     0.243 N 
ATOM     17  C   LIG d   1       6.475   1.034  -3.439  0.00  0.00    -0.031 C 
ATOM     18  C   LIG d   1       5.058   0.470  -3.311  0.00  0.00    -0.001 C 
ATOM     19  H   LIG d   1       6.954   1.045  -2.449  0.00  0.00     0.082 H 
ATOM     20  H   LIG d   1       6.426   2.060  -3.834  0.00  0.00     0.082 H 
ATOM     21  C   LIG d   1       5.130  -0.964  -2.779  0.00  0.00     0.045 C 
ATOM     22  H   LIG d   1       4.571   0.471  -4.297  0.00  0.00     0.032 H 
ATOM     23  H   LIG d   1       4.476   1.091  -2.613  0.00  0.00     0.032 H 
ATOM     24  C   LIG d   1       5.990  -1.807  -3.724  0.00  0.00    -0.001 C 
ATOM     25  H   LIG d   1       5.563  -0.970  -1.768  0.00  0.00     0.040 H 
ATOM     26  C   LIG d   1       7.380  -1.177  -3.839  0.00  0.00    -0.031 C 
ATOM     27  H   LIG d   1       5.519  -1.843  -4.718  0.00  0.00     0.032 H 
ATOM     28  H   LIG d   1       6.083  -2.828  -3.325  0.00  0.00     0.032 H 
ATOM     29  H   LIG d   1       7.996  -1.774  -4.529  0.00  0.00     0.082 H 
ATOM     30  H   LIG d   1       7.857  -1.157  -2.848  0.00  0.00     0.082 H 
ATOM     31  H   LIG d   1       6.716   0.145  -5.310  0.00  0.00     0.204 HD
BRANCH  21  32
ATOM     32  C   LIG d   1       3.741  -1.545  -2.706  0.00  0.00     0.214 C 
ATOM     33  O   LIG d   1       3.583  -2.699  -2.370  0.00  0.00    -0.276 OA
ATOM     34  N   LIG d   1       2.675  -0.780  -3.015  0.00  0.00    -0.329 N 
ATOM     35  H   LIG d   1       1.661  -1.204  -2.962  0.00  0.00     0.145 HD
ATOM     36  H   LIG d   1       2.818   0.266  -3.320  0.00  0.00     0.145 HD
ENDBRANCH  21  32
ENDBRANCH  10  16
BRANCH  12  37
ATOM     37  O   LIG d   1       9.683   2.627  -5.649  0.00  0.00    -0.384 OA
ATOM     38  H   LIG d   1       9.738   3.624  -6.110  0.00  0.00     0.210 HD
ENDBRANCH  12  37
BRANCH   1  39
ATOM     39  N   LIG d   1       6.679   0.891  -6.924  0.00  0.00    -0.291 N 
ATOM     40  C   LIG d   1       5.862   1.047  -7.984  0.00  0.00     0.300 C 
ATOM     41  N   LIG d   1       4.579   0.640  -7.913  0.00  0.00    -0.300 N 
ATOM     42  O   LIG d   1       6.284   1.555  -9.006  0.00  0.00    -0.253 OA
ATOM     43  H   LIG d   1       4.220   0.107  -7.020  0.00  0.00     0.150 HD
ATOM     44  H   LIG d   1       6.323   0.359  -6.029  0.00  0.00     0.151 HD
BRANCH  41  45
ATOM     45  C   LIG d   1       3.663   0.907  -9.024  0.00  0.00     0.010 C 
ATOM     46  H   LIG d   1       3.028   0.025  -9.196  0.00  0.00     0.046 H 
ATOM     47  H   LIG d   1       4.244   1.123  -9.933  0.00  0.00     0.046 H 
BRANCH  45  48
ATOM     48  C   LIG d   1       2.784   2.111  -8.683  0.00  0.00    -0.050 C 
ATOM     49  H   LIG d   1       3.419   2.961  -8.397  0.00  0.00     0.025 H 
ATOM     50  H   LIG d   1       2.118   1.853  -7.846  0.00  0.00     0.025 H 
ATOM     51  H   LIG d   1       2.180   2.383  -9.561  0.00  0.00     0.025 H 
ENDBRANCH  45  48
ENDBRANCH  41  45
ENDBRANCH   1  39
TORSDOF 6
ENDMDL
MODEL 9
REMARK VINA RESULT:      -5.4      8.698     11.565
REMARK  6 active torsions:
REMARK  status: ('A' for Active; 'I' for Inactive)
REMARK    1  A    between atoms: C_1  and  C_2 
REMARK    2  A    between atoms: C_2  and  N_3 
REMARK       I    between atoms: N_3  and  C_4 
REMARK       I    between atoms: C_4  and  N_6 
REMARK    3  A    between atoms: N_6  and  C_7 
REMARK    4  A    between atoms: C_16  and  N_21 
REMARK    5  A    between atoms: C_18  and  O_20 
REMARK    6  A    between atoms: C_24  and  C_27 
REMARK       I    between atoms: C_27  and  N_29 
ROOT
ATOM      1  C   LIG d   1       9.547  10.840  -4.135  0.00  0.00     0.084 C 
ATOM      2  H   LIG d   1       8.982  10.825  -5.079  0.00  0.00     0.055 H 
ATOM      3  C   LIG d   1      10.565  11.992  -4.110  0.00  0.00     0.106 C 
ATOM      4  H   LIG d   1      11.184  12.001  -5.020  0.00  0.00     0.064 H 
ATOM      5  C   LIG d   1       9.789  13.300  -3.829  0.00  0.00     0.079 C 
ATOM      6  O   LIG d   1       9.783  13.427  -2.396  0.00  0.00    -0.344 OA
ATOM      7  C   LIG d   1      10.461  12.271  -1.869  0.00  0.00     0.206 C 
ATOM      8  H   LIG d   1      11.001  12.543  -0.951  0.00  0.00     0.097 H 
ATOM      9  O   LIG d   1      11.375  11.822  -2.920  0.00  0.00    -0.339 OA
ATOM     10  C   LIG d   1       9.421  11.160  -1.659  0.00  0.00     0.059 C 
ATOM     11  H   LIG d   1       8.762  11.391  -0.810  0.00  0.00     0.093 H 
ATOM     12  C   LIG d   1       8.611  10.991  -2.931  0.00  0.00     0.123 C 
ATOM     13  H   LIG d   1       7.931  10.130  -2.856  0.00  0.00     0.067 H 
ATOM     14  H   LIG d   1      10.306  14.144  -4.311  0.00  0.00     0.059 H 
ATOM     15  H   LIG d   1       8.770  13.216  -4.234  0.00  0.00     0.059 H 
ENDROOT
BRANCH  10  16
ATOM     16  N   LIG d   1      10.106   9.897  -1.352  0.00  0.00     0.243 N 
ATOM     17  C   LIG d   1       9.140   8.839  -1.032  0.00  0.00    -0.031 C 
ATOM     18  C   LIG d   1       9.876   7.508  -0.862  0.00  0.00    -0.001 C 
ATOM     19  H   LIG d   1       8.617   9.089  -0.098  0.00  0.00     0.082 H 
ATOM     20  H   LIG d   1       8.408   8.750  -1.849  0.00  0.00     0.082 H 
ATOM     21  C   LIG d   1      10.907   7.641   0.263  0.00  0.00     0.045 C 
ATOM     22  H   LIG d   1      10.389   7.248  -1.800  0.00  0.00     0.032 H 
ATOM     23  H   LIG d   1       9.155   6.718  -0.606  0.00  0.00     0.032 H 
ATOM     24  C   LIG d   1      11.872   8.782  -0.072  0.00  0.00    -0.001 C 
ATOM     25  H   LIG d   1      10.401   7.844   1.218  0.00  0.00     0.040 H 
ATOM     26  C   LIG d   1      11.077  10.075  -0.266  0.00  0.00    -0.031 C 
ATOM     27  H   LIG d   1      12.416   8.543  -0.998  0.00  0.00     0.032 H 
ATOM     28  H   LIG d   1      12.589   8.912   0.751  0.00  0.00     0.032 H 
ATOM     29  H   LIG d   1      11.767  10.894  -0.521  0.00  0.00     0.082 H 
ATOM     30  H   LIG d   1      10.546  10.321   0.666  0.00  0.00     0.082 H 
ATOM     31  H   LIG d   1      10.661   9.584  -2.249  0.00  0.00     0.204 HD
BRANCH  21  32
ATOM     32  C   LIG d   1      11.676   6.352   0.397  0.00  0.00     0.214 C 
ATOM     33  O   LIG d   1      12.874   6.338   0.211  0.00  0.00    -0.276 OA
ATOM     34  N   LIG d   1      11.031   5.214   0.723  0.00  0.00    -0.329 N 
ATOM     35  H   LIG d   1      11.592   4.273   0.820  0.00  0.00     0.145 HD
ATOM     36  H   LIG d   1       9.945   5.227   0.891  0.00  0.00     0.145 HD
ENDBRANCH  21  32
ENDBRANCH  10  16
BRANCH  12  37
ATOM     37  O   LIG d   1       7.797  12.153  -3.103  0.00  0.00    -0.384 OA
ATOM     38  H   LIG d   1       8.245  13.154  -3.031  0.00  0.00     0.210 HD
ENDBRANCH  12  37
BRANCH   1  39
ATOM     39  N   LIG d   1      10.252   9.559  -4.053  0.00  0.00    -0.291 N 
ATOM     40  C   LIG d   1       9.927   8.555  -4.890  0.00  0.00     0.300 C 
ATOM     41  N   LIG d   1      10.505   7.345  -4.751  0.00  0.00    -0.300 N 
ATOM     42  O   LIG d   1       9.111   8.741  -5.774  0.00  0.00    -0.253 OA
ATOM     43  H   LIG d   1      11.302   7.200  -4.006  0.00  0.00     0.150 HD
ATOM     44  H   LIG d   1      11.048   9.416  -3.307  0.00  0.00     0.151 HD
BRANCH  41  45
ATOM     45  C   LIG d   1      10.074   6.225  -5.590  0.00  0.00     0.010 C 
ATOM     46  H   LIG d   1      10.952   5.764  -6.066  0.00  0.00     0.046 H 
ATOM     47  H   LIG d   1       9.386   6.593  -6.366  0.00  0.00     0.046 H 
BRANCH  45  48
ATOM     48  C   LIG d   1       9.357   5.186  -4.726  0.00  0.00    -0.050 C 
ATOM     49  H   LIG d   1       9.409   4.203  -5.214  0.00  0.00     0.025 H 
ATOM     50  H   LIG d   1       8.303   5.478  -4.600  0.00  0.00     0.025 H 
ATOM     51  H   LIG d   1       9.842   5.133  -3.740  0.00  0.00     0.025 H 
ENDBRANCH  45  48
ENDBRANCH  41  45
ENDBRANCH   1  39
TORSDOF 6
ENDMDL
