MODEL 1
REMARK VINA RESULT:      -6.3      0.000      0.000
REMARK  12 active torsions:
REMARK  status: ('A' for Active; 'I' for Inactive)
REMARK    1  A    between atoms: C_1  and  C_2 
REMARK    2  A    between atoms: C_2  and  C_33 
REMARK    3  A    between atoms: C_3  and  C_6 
REMARK    4  A    between atoms: C_6  and  C_7 
REMARK    5  A    between atoms: C_9  and  C_14 
REMARK    6  A    between atoms: C_12  and  O_13 
REMARK    7  A    between atoms: C_14  and  C_15 
REMARK    8  A    between atoms: C_15  and  C_29 
REMARK    9  A    between atoms: C_16  and  C_22 
REMARK   10  A    between atoms: C_25  and  O_28 
REMARK   11  A    between atoms: C_29  and  O_31 
REMARK   12  A    between atoms: O_31  and  C_32 
ROOT
ATOM      1  C   LIG d   1       6.031  -2.371  -3.379  0.00  0.00     0.028 C 
ATOM      2  H   LIG d   1       6.761  -2.317  -2.571  0.00  0.00     0.036 H 
ATOM      3  H   LIG d   1       5.362  -3.214  -3.210  0.00  0.00     0.036 H 
ENDROOT
BRANCH   1   4
ATOM      4  C   LIG d   1       5.230  -1.095  -3.416  0.00  0.00    -0.042 A 
ATOM      5  C   LIG d   1       4.352  -0.861  -4.458  0.00  0.00    -0.052 A 
ATOM      6  C   LIG d   1       3.617   0.308  -4.495  0.00  0.00    -0.003 A 
ATOM      7  H   LIG d   1       4.241  -1.593  -5.245  0.00  0.00     0.062 H 
ATOM      8  C   LIG d   1       3.763   1.251  -3.488  0.00  0.00     0.120 A 
ATOM      9  C   LIG d   1       4.642   1.012  -2.440  0.00  0.00    -0.020 A 
ATOM     10  C   LIG d   1       5.375  -0.159  -2.409  0.00  0.00    -0.055 A 
ATOM     11  H   LIG d   1       4.755   1.742  -1.653  0.00  0.00     0.065 H 
ATOM     12  H   LIG d   1       6.061  -0.344  -1.595  0.00  0.00     0.062 H 
BRANCH   6  13
ATOM     13  C   LIG d   1       2.659   0.562  -5.630  0.00  0.00     0.005 C 
ATOM     14  H   LIG d   1       2.553   1.636  -5.783  0.00  0.00     0.034 H 
ATOM     15  H   LIG d   1       1.687   0.132  -5.388  0.00  0.00     0.034 H 
BRANCH  13  16
ATOM     16  C   LIG d   1       3.199  -0.083  -6.908  0.00  0.00     0.092 A 
ATOM     17  C   LIG d   1       3.195   0.756  -8.187  0.00  0.00     0.091 A 
ATOM     18  O   LIG d   1       4.396   0.455  -7.473  0.00  0.00    -0.365 OA
ATOM     19  H   LIG d   1       3.029  -1.156  -7.004  0.00  0.00     0.063 H 
BRANCH  17  20
ATOM     20  C   LIG d   1       2.954   0.033  -9.514  0.00  0.00    -0.034 C 
ATOM     21  H   LIG d   1       1.896   0.093  -9.773  0.00  0.00     0.026 H 
ATOM     22  H   LIG d   1       3.548   0.504 -10.298  0.00  0.00     0.026 H 
ATOM     23  H   LIG d   1       3.245  -1.012  -9.415  0.00  0.00     0.026 H 
ENDBRANCH  17  20
BRANCH  17  24
ATOM     24  C   LIG d   1       2.655   2.185  -8.102  0.00  0.00    -0.034 C 
ATOM     25  H   LIG d   1       1.674   2.175  -7.625  0.00  0.00     0.026 H 
ATOM     26  H   LIG d   1       3.339   2.798  -7.515  0.00  0.00     0.026 H 
ATOM     27  H   LIG d   1       2.565   2.601  -9.105  0.00  0.00     0.026 H 
ENDBRANCH  17  24
ENDBRANCH  13  16
ENDBRANCH   6  13
BRANCH   8  28
ATOM     28  O   LIG d   1       3.046   2.404  -3.524  0.00  0.00    -0.506 OA
ATOM     29  H   LIG d   1       3.406   3.071  -4.125  0.00  0.00     0.292 HD
ENDBRANCH   8  28
ENDBRANCH   1   4
BRANCH   1  30
ATOM     30  C   LIG d   1       6.757  -2.556  -4.712  0.00  0.00     0.238 A 
ATOM     31  O   LIG d   1       6.754  -1.329  -5.448  0.00  0.00    -0.439 OA
ATOM     32  C   LIG d   1       8.030  -0.948  -5.646  0.00  0.00     0.326 A 
ATOM     33  C   LIG d   1       8.941  -1.920  -5.041  0.00  0.00    -0.013 A 
ATOM     34  O   LIG d   1       8.374   0.056  -6.239  0.00  0.00    -0.246 OA
ATOM     35  C   LIG d   1       8.207  -2.904  -4.469  0.00  0.00     0.013 A 
ATOM     36  O   LIG d   1      10.298  -1.847  -5.053  0.00  0.00    -0.869 OA
BRANCH  35  37
ATOM     37  C   LIG d   1       8.720  -4.080  -3.752  0.00  0.00    -0.018 A 
ATOM     38  C   LIG d   1       9.197  -3.951  -2.443  0.00  0.00    -0.051 A 
ATOM     39  C   LIG d   1       9.672  -5.056  -1.773  0.00  0.00    -0.020 A 
ATOM     40  H   LIG d   1       9.190  -2.986  -1.957  0.00  0.00     0.062 H 
ATOM     41  C   LIG d   1       9.689  -6.297  -2.400  0.00  0.00     0.117 A 
ATOM     42  H   LIG d   1      10.037  -4.959  -0.762  0.00  0.00     0.065 H 
ATOM     43  C   LIG d   1       9.222  -6.430  -3.702  0.00  0.00    -0.020 A 
ATOM     44  C   LIG d   1       8.739  -5.332  -4.378  0.00  0.00    -0.051 A 
ATOM     45  H   LIG d   1       9.236  -7.396  -4.184  0.00  0.00     0.065 H 
ATOM     46  H   LIG d   1       8.376  -5.435  -5.390  0.00  0.00     0.062 H 
BRANCH  41  47
ATOM     47  O   LIG d   1      10.163  -7.383  -1.738  0.00  0.00    -0.507 OA
ATOM     48  H   LIG d   1       9.711  -8.208  -1.959  0.00  0.00     0.292 HD
ENDBRANCH  41  47
ENDBRANCH  35  37
BRANCH  30  49
ATOM     49  C   LIG d   1       6.091  -3.643  -5.518  0.00  0.00     0.356 C 
ATOM     50  O   LIG d   1       6.502  -3.912  -6.621  0.00  0.00    -0.246 OA
BRANCH  49  51
ATOM     51  O   LIG d   1       5.044  -4.309  -5.010  0.00  0.00    -0.465 OA
BRANCH  51  52
ATOM     52  C   LIG d   1       4.733  -5.575  -5.598  0.00  0.00     0.082 C 
ATOM     53  H   LIG d   1       3.652  -5.674  -5.696  0.00  0.00     0.066 H 
ATOM     54  H   LIG d   1       5.195  -5.641  -6.583  0.00  0.00     0.066 H 
ATOM     55  H   LIG d   1       5.114  -6.374  -4.963  0.00  0.00     0.066 H 
ENDBRANCH  51  52
ENDBRANCH  49  51
ENDBRANCH  30  49
ENDBRANCH   1  30
TORSDOF 12
ENDMDL
MODEL 2
REMARK VINA RESULT:      -6.2      2.246      4.610
REMARK  12 active torsions:
REMARK  status: ('A' for Active; 'I' for Inactive)
REMARK    1  A    between atoms: C_1  and  C_2 
REMARK    2  A    between atoms: C_2  and  C_33 
REMARK    3  A    between atoms: C_3  and  C_6 
REMARK    4  A    between atoms: C_6  and  C_7 
REMARK    5  A    between atoms: C_9  and  C_14 
REMARK    6  A    between atoms: C_12  and  O_13 
REMARK    7  A    between atoms: C_14  and  C_15 
REMARK    8  A    between atoms: C_15  and  C_29 
REMARK    9  A    between atoms: C_16  and  C_22 
REMARK   10  A    between atoms: C_25  and  O_28 
REMARK   11  A    between atoms: C_29  and  O_31 
REMARK   12  A    between atoms: O_31  and  C_32 
ROOT
ATOM      1  C   LIG d   1       6.556  -0.894  -6.913  0.00  0.00     0.028 C 
ATOM      2  H   LIG d   1       6.332  -1.938  -7.136  0.00  0.00     0.036 H 
ATOM      3  H   LIG d   1       7.616  -0.706  -7.080  0.00  0.00     0.036 H 
ENDROOT
BRANCH   1   4
ATOM      4  C   LIG d   1       5.739  -0.004  -7.814  0.00  0.00    -0.042 A 
ATOM      5  C   LIG d   1       4.479  -0.401  -8.219  0.00  0.00    -0.052 A 
ATOM      6  C   LIG d   1       3.728   0.413  -9.045  0.00  0.00    -0.003 A 
ATOM      7  H   LIG d   1       4.081  -1.351  -7.890  0.00  0.00     0.062 H 
ATOM      8  C   LIG d   1       4.242   1.629  -9.471  0.00  0.00     0.120 A 
ATOM      9  C   LIG d   1       5.505   2.028  -9.059  0.00  0.00    -0.020 A 
ATOM     10  C   LIG d   1       6.252   1.210  -8.233  0.00  0.00    -0.055 A 
ATOM     11  H   LIG d   1       5.905   2.976  -9.387  0.00  0.00     0.065 H 
ATOM     12  H   LIG d   1       7.237   1.519  -7.915  0.00  0.00     0.062 H 
BRANCH   6  13
ATOM     13  C   LIG d   1       2.354  -0.021  -9.485  0.00  0.00     0.005 C 
ATOM     14  H   LIG d   1       2.135   0.407 -10.463  0.00  0.00     0.034 H 
ATOM     15  H   LIG d   1       1.615   0.325  -8.763  0.00  0.00     0.034 H 
BRANCH  13  16
ATOM     16  C   LIG d   1       2.305  -1.548  -9.576  0.00  0.00     0.092 A 
ATOM     17  C   LIG d   1       1.566  -2.168 -10.763  0.00  0.00     0.091 A 
ATOM     18  O   LIG d   1       2.992  -2.175 -10.660  0.00  0.00    -0.365 OA
ATOM     19  H   LIG d   1       2.269  -2.076  -8.623  0.00  0.00     0.063 H 
BRANCH  17  20
ATOM     20  C   LIG d   1       0.828  -3.489 -10.533  0.00  0.00    -0.034 C 
ATOM     21  H   LIG d   1      -0.148  -3.448 -11.016  0.00  0.00     0.026 H 
ATOM     22  H   LIG d   1       1.410  -4.309 -10.954  0.00  0.00     0.026 H 
ATOM     23  H   LIG d   1       0.697  -3.649  -9.462  0.00  0.00     0.026 H 
ENDBRANCH  17  20
BRANCH  17  24
ATOM     24  C   LIG d   1       0.930  -1.221 -11.782  0.00  0.00    -0.034 C 
ATOM     25  H   LIG d   1       0.542  -1.799 -12.622  0.00  0.00     0.026 H 
ATOM     26  H   LIG d   1       0.115  -0.674 -11.310  0.00  0.00     0.026 H 
ATOM     27  H   LIG d   1       1.680  -0.518 -12.142  0.00  0.00     0.026 H 
ENDBRANCH  17  24
ENDBRANCH  13  16
ENDBRANCH   6  13
BRANCH   8  28
ATOM     28  O   LIG d   1       3.508   2.429 -10.288  0.00  0.00    -0.506 OA
ATOM     29  H   LIG d   1       3.068   1.956 -11.009  0.00  0.00     0.292 HD
ENDBRANCH   8  28
ENDBRANCH   1   4
BRANCH   1  30
ATOM     30  C   LIG d   1       6.209  -0.599  -5.453  0.00  0.00     0.238 A 
ATOM     31  O   LIG d   1       4.973   0.118  -5.377  0.00  0.00    -0.439 OA
ATOM     32  C   LIG d   1       4.097  -0.620  -4.669  0.00  0.00     0.326 A 
ATOM     33  C   LIG d   1       4.726  -1.869  -4.242  0.00  0.00    -0.013 A 
ATOM     34  O   LIG d   1       2.952  -0.295  -4.421  0.00  0.00    -0.246 OA
ATOM     35  C   LIG d   1       6.001  -1.890  -4.697  0.00  0.00     0.013 A 
ATOM     36  O   LIG d   1       4.129  -2.847  -3.509  0.00  0.00    -0.869 OA
BRANCH  35  37
ATOM     37  C   LIG d   1       6.989  -2.960  -4.496  0.00  0.00    -0.018 A 
ATOM     38  C   LIG d   1       6.924  -4.129  -5.261  0.00  0.00    -0.051 A 
ATOM     39  C   LIG d   1       7.855  -5.126  -5.073  0.00  0.00    -0.020 A 
ATOM     40  H   LIG d   1       6.146  -4.249  -6.002  0.00  0.00     0.062 H 
ATOM     41  C   LIG d   1       8.852  -4.976  -4.116  0.00  0.00     0.117 A 
ATOM     42  H   LIG d   1       7.808  -6.027  -5.666  0.00  0.00     0.065 H 
ATOM     43  C   LIG d   1       8.919  -3.820  -3.350  0.00  0.00    -0.020 A 
ATOM     44  C   LIG d   1       7.996  -2.814  -3.534  0.00  0.00    -0.051 A 
ATOM     45  H   LIG d   1       9.696  -3.708  -2.608  0.00  0.00     0.065 H 
ATOM     46  H   LIG d   1       8.048  -1.915  -2.938  0.00  0.00     0.062 H 
BRANCH  41  47
ATOM     47  O   LIG d   1       9.765  -5.965  -3.931  0.00  0.00    -0.507 OA
ATOM     48  H   LIG d   1       9.860  -6.245  -3.011  0.00  0.00     0.292 HD
ENDBRANCH  41  47
ENDBRANCH  35  37
BRANCH  30  49
ATOM     49  C   LIG d   1       7.311   0.205  -4.812  0.00  0.00     0.356 C 
ATOM     50  O   LIG d   1       7.174   0.626  -3.687  0.00  0.00    -0.246 OA
BRANCH  49  51
ATOM     51  O   LIG d   1       8.443   0.453  -5.488  0.00  0.00    -0.465 OA
BRANCH  51  52
ATOM     52  C   LIG d   1       8.846   1.820  -5.599  0.00  0.00     0.082 C 
ATOM     53  H   LIG d   1       7.966   2.449  -5.735  0.00  0.00     0.066 H 
ATOM     54  H   LIG d   1       9.370   2.120  -4.691  0.00  0.00     0.066 H 
ATOM     55  H   LIG d   1       9.509   1.935  -6.457  0.00  0.00     0.066 H 
ENDBRANCH  51  52
ENDBRANCH  49  51
ENDBRANCH  30  49
ENDBRANCH   1  30
TORSDOF 12
ENDMDL
MODEL 3
REMARK VINA RESULT:      -6.1      2.645      7.392
REMARK  12 active torsions:
REMARK  status: ('A' for Active; 'I' for Inactive)
REMARK    1  A    between atoms: C_1  and  C_2 
REMARK    2  A    between atoms: C_2  and  C_33 
REMARK    3  A    between atoms: C_3  and  C_6 
REMARK    4  A    between atoms: C_6  and  C_7 
REMARK    5  A    between atoms: C_9  and  C_14 
REMARK    6  A    between atoms: C_12  and  O_13 
REMARK    7  A    between atoms: C_14  and  C_15 
REMARK    8  A    between atoms: C_15  and  C_29 
REMARK    9  A    between atoms: C_16  and  C_22 
REMARK   10  A    between atoms: C_25  and  O_28 
REMARK   11  A    between atoms: C_29  and  O_31 
REMARK   12  A    between atoms: O_31  and  C_32 
ROOT
ATOM      1  C   LIG d   1       4.322  -2.241  -7.239  0.00  0.00     0.028 C 
ATOM      2  H   LIG d   1       4.248  -3.129  -7.868  0.00  0.00     0.036 H 
ATOM      3  H   LIG d   1       3.381  -2.090  -6.712  0.00  0.00     0.036 H 
ENDROOT
BRANCH   1   4
ATOM      4  C   LIG d   1       5.434  -2.427  -6.239  0.00  0.00    -0.042 A 
ATOM      5  C   LIG d   1       5.615  -1.502  -5.228  0.00  0.00    -0.052 A 
ATOM      6  C   LIG d   1       6.633  -1.669  -4.309  0.00  0.00    -0.003 A 
ATOM      7  H   LIG d   1       4.960  -0.645  -5.157  0.00  0.00     0.062 H 
ATOM      8  C   LIG d   1       7.478  -2.765  -4.404  0.00  0.00     0.120 A 
ATOM      9  C   LIG d   1       7.292  -3.696  -5.417  0.00  0.00    -0.020 A 
ATOM     10  C   LIG d   1       6.272  -3.523  -6.333  0.00  0.00    -0.055 A 
ATOM     11  H   LIG d   1       7.946  -4.552  -5.490  0.00  0.00     0.065 H 
ATOM     12  H   LIG d   1       6.128  -4.246  -7.123  0.00  0.00     0.062 H 
BRANCH   6  13
ATOM     13  C   LIG d   1       6.829  -0.660  -3.207  0.00  0.00     0.005 C 
ATOM     14  H   LIG d   1       7.870  -0.337  -3.192  0.00  0.00     0.034 H 
ATOM     15  H   LIG d   1       6.575  -1.114  -2.250  0.00  0.00     0.034 H 
BRANCH  13  16
ATOM     16  C   LIG d   1       5.925   0.549  -3.455  0.00  0.00     0.092 A 
ATOM     17  C   LIG d   1       4.642   0.661  -2.629  0.00  0.00     0.091 A 
ATOM     18  O   LIG d   1       5.776   1.499  -2.398  0.00  0.00    -0.365 OA
ATOM     19  H   LIG d   1       5.904   0.921  -4.479  0.00  0.00     0.063 H 
BRANCH  17  20
ATOM     20  C   LIG d   1       3.416   1.288  -3.298  0.00  0.00    -0.034 C 
ATOM     21  H   LIG d   1       2.590   1.317  -2.587  0.00  0.00     0.026 H 
ATOM     22  H   LIG d   1       3.656   2.302  -3.619  0.00  0.00     0.026 H 
ATOM     23  H   LIG d   1       3.130   0.691  -4.163  0.00  0.00     0.026 H 
ENDBRANCH  17  20
BRANCH  17  24
ATOM     24  C   LIG d   1       4.350  -0.441  -1.610  0.00  0.00    -0.034 C 
ATOM     25  H   LIG d   1       3.699  -1.191  -2.061  0.00  0.00     0.026 H 
ATOM     26  H   LIG d   1       5.285  -0.910  -1.303  0.00  0.00     0.026 H 
ATOM     27  H   LIG d   1       3.858  -0.010  -0.739  0.00  0.00     0.026 H 
ENDBRANCH  17  24
ENDBRANCH  13  16
ENDBRANCH   6  13
BRANCH   8  28
ATOM     28  O   LIG d   1       8.484  -2.930  -3.506  0.00  0.00    -0.506 OA
ATOM     29  H   LIG d   1       8.552  -3.828  -3.152  0.00  0.00     0.292 HD
ENDBRANCH   8  28
ENDBRANCH   1   4
BRANCH   1  30
ATOM     30  C   LIG d   1       4.620  -1.021  -8.111  0.00  0.00     0.238 A 
ATOM     31  O   LIG d   1       5.998  -0.653  -7.988  0.00  0.00    -0.439 OA
ATOM     32  C   LIG d   1       6.573  -0.744  -9.202  0.00  0.00     0.326 A 
ATOM     33  C   LIG d   1       5.587  -1.181 -10.190  0.00  0.00    -0.013 A 
ATOM     34  O   LIG d   1       7.739  -0.500  -9.441  0.00  0.00    -0.246 OA
ATOM     35  C   LIG d   1       4.397  -1.357  -9.567  0.00  0.00     0.013 A 
ATOM     36  O   LIG d   1       5.826  -1.377 -11.515  0.00  0.00    -0.869 OA
BRANCH  35  37
ATOM     37  C   LIG d   1       3.137  -1.792 -10.186  0.00  0.00    -0.018 A 
ATOM     38  C   LIG d   1       2.713  -3.120 -10.061  0.00  0.00    -0.051 A 
ATOM     39  C   LIG d   1       1.529  -3.520 -10.637  0.00  0.00    -0.020 A 
ATOM     40  H   LIG d   1       3.313  -3.829  -9.509  0.00  0.00     0.062 H 
ATOM     41  C   LIG d   1       0.760  -2.610 -11.353  0.00  0.00     0.117 A 
ATOM     42  H   LIG d   1       1.199  -4.543 -10.538  0.00  0.00     0.065 H 
ATOM     43  C   LIG d   1       1.178  -1.291 -11.486  0.00  0.00    -0.020 A 
ATOM     44  C   LIG d   1       2.358  -0.880 -10.908  0.00  0.00    -0.051 A 
ATOM     45  H   LIG d   1       0.576  -0.589 -12.043  0.00  0.00     0.065 H 
ATOM     46  H   LIG d   1       2.683   0.145 -11.011  0.00  0.00     0.062 H 
BRANCH  41  47
ATOM     47  O   LIG d   1      -0.405  -3.011 -11.925  0.00  0.00    -0.507 OA
ATOM     48  H   LIG d   1      -1.183  -2.880 -11.367  0.00  0.00     0.292 HD
ENDBRANCH  41  47
ENDBRANCH  35  37
BRANCH  30  49
ATOM     49  C   LIG d   1       3.740   0.133  -7.706  0.00  0.00     0.356 C 
ATOM     50  O   LIG d   1       2.728  -0.072  -7.078  0.00  0.00    -0.246 OA
BRANCH  49  51
ATOM     51  O   LIG d   1       4.079   1.387  -8.041  0.00  0.00    -0.465 OA
BRANCH  51  52
ATOM     52  C   LIG d   1       3.127   2.136  -8.799  0.00  0.00     0.082 C 
ATOM     53  H   LIG d   1       2.733   2.948  -8.186  0.00  0.00     0.066 H 
ATOM     54  H   LIG d   1       3.611   2.551  -9.683  0.00  0.00     0.066 H 
ATOM     55  H   LIG d   1       2.310   1.483  -9.104  0.00  0.00     0.066 H 
ENDBRANCH  51  52
ENDBRANCH  49  51
ENDBRANCH  30  49
ENDBRANCH   1  30
TORSDOF 12
ENDMDL
MODEL 4
REMARK VINA RESULT:      -6.0      2.398      5.054
REMARK  12 active torsions:
REMARK  status: ('A' for Active; 'I' for Inactive)
REMARK    1  A    between atoms: C_1  and  C_2 
REMARK    2  A    between atoms: C_2  and  C_33 
REMARK    3  A    between atoms: C_3  and  C_6 
REMARK    4  A    between atoms: C_6  and  C_7 
REMARK    5  A    between atoms: C_9  and  C_14 
REMARK    6  A    between atoms: C_12  and  O_13 
REMARK    7  A    between atoms: C_14  and  C_15 
REMARK    8  A    between atoms: C_15  and  C_29 
REMARK    9  A    between atoms: C_16  and  C_22 
REMARK   10  A    between atoms: C_25  and  O_28 
REMARK   11  A    between atoms: C_29  and  O_31 
REMARK   12  A    between atoms: O_31  and  C_32 
ROOT
ATOM      1  C   LIG d   1       6.139  -0.334  -6.377  0.00  0.00     0.028 C 
ATOM      2  H   LIG d   1       6.864  -1.130  -6.552  0.00  0.00     0.036 H 
ATOM      3  H   LIG d   1       6.578   0.625  -6.648  0.00  0.00     0.036 H 
ENDROOT
BRANCH   1   4
ATOM      4  C   LIG d   1       4.913  -0.580  -7.218  0.00  0.00    -0.042 A 
ATOM      5  C   LIG d   1       4.639  -1.853  -7.683  0.00  0.00    -0.052 A 
ATOM      6  C   LIG d   1       3.516  -2.082  -8.455  0.00  0.00    -0.003 A 
ATOM      7  H   LIG d   1       5.305  -2.670  -7.444  0.00  0.00     0.062 H 
ATOM      8  C   LIG d   1       2.664  -1.032  -8.766  0.00  0.00     0.120 A 
ATOM      9  C   LIG d   1       2.939   0.244  -8.295  0.00  0.00    -0.020 A 
ATOM     10  C   LIG d   1       4.063   0.467  -7.524  0.00  0.00    -0.055 A 
ATOM     11  H   LIG d   1       2.275   1.062  -8.532  0.00  0.00     0.065 H 
ATOM     12  H   LIG d   1       4.279   1.461  -7.159  0.00  0.00     0.062 H 
BRANCH   6  13
ATOM     13  C   LIG d   1       3.218  -3.470  -8.960  0.00  0.00     0.005 C 
ATOM     14  H   LIG d   1       2.493  -3.412  -9.772  0.00  0.00     0.034 H 
ATOM     15  H   LIG d   1       2.808  -4.071  -8.149  0.00  0.00     0.034 H 
BRANCH  13  16
ATOM     16  C   LIG d   1       4.507  -4.114  -9.474  0.00  0.00     0.092 A 
ATOM     17  C   LIG d   1       5.079  -5.292  -8.683  0.00  0.00     0.091 A 
ATOM     18  O   LIG d   1       4.437  -5.460  -9.949  0.00  0.00    -0.365 OA
ATOM     19  H   LIG d   1       5.211  -3.439  -9.961  0.00  0.00     0.063 H 
BRANCH  17  20
ATOM     20  C   LIG d   1       6.601  -5.444  -8.630  0.00  0.00    -0.034 C 
ATOM     21  H   LIG d   1       7.039  -5.021  -9.534  0.00  0.00     0.026 H 
ATOM     22  H   LIG d   1       6.988  -4.917  -7.758  0.00  0.00     0.026 H 
ATOM     23  H   LIG d   1       6.858  -6.500  -8.561  0.00  0.00     0.026 H 
ENDBRANCH  17  20
BRANCH  17  24
ATOM     24  C   LIG d   1       4.323  -5.749  -7.434  0.00  0.00    -0.034 C 
ATOM     25  H   LIG d   1       4.894  -6.528  -6.928  0.00  0.00     0.026 H 
ATOM     26  H   LIG d   1       4.188  -4.902  -6.761  0.00  0.00     0.026 H 
ATOM     27  H   LIG d   1       3.349  -6.142  -7.722  0.00  0.00     0.026 H 
ENDBRANCH  17  24
ENDBRANCH  13  16
ENDBRANCH   6  13
BRANCH   8  28
ATOM     28  O   LIG d   1       1.562  -1.253  -9.529  0.00  0.00    -0.506 OA
ATOM     29  H   LIG d   1       1.204  -0.455  -9.943  0.00  0.00     0.292 HD
ENDBRANCH   8  28
ENDBRANCH   1   4
BRANCH   1  30
ATOM     30  C   LIG d   1       5.748  -0.316  -4.899  0.00  0.00     0.238 A 
ATOM     31  O   LIG d   1       4.447   0.259  -4.741  0.00  0.00    -0.439 OA
ATOM     32  C   LIG d   1       3.638  -0.664  -4.187  0.00  0.00     0.326 A 
ATOM     33  C   LIG d   1       4.381  -1.902  -3.952  0.00  0.00    -0.013 A 
ATOM     34  O   LIG d   1       2.465  -0.493  -3.921  0.00  0.00    -0.246 OA
ATOM     35  C   LIG d   1       5.657  -1.728  -4.369  0.00  0.00     0.013 A 
ATOM     36  O   LIG d   1       3.873  -3.039  -3.404  0.00  0.00    -0.869 OA
BRANCH  35  37
ATOM     37  C   LIG d   1       6.742  -2.719  -4.318  0.00  0.00    -0.018 A 
ATOM     38  C   LIG d   1       7.762  -2.595  -3.368  0.00  0.00    -0.051 A 
ATOM     39  C   LIG d   1       8.773  -3.529  -3.320  0.00  0.00    -0.020 A 
ATOM     40  H   LIG d   1       7.755  -1.770  -2.670  0.00  0.00     0.062 H 
ATOM     41  C   LIG d   1       8.787  -4.587  -4.221  0.00  0.00     0.117 A 
ATOM     42  H   LIG d   1       9.558  -3.437  -2.585  0.00  0.00     0.065 H 
ATOM     43  C   LIG d   1       7.780  -4.712  -5.170  0.00  0.00    -0.020 A 
ATOM     44  C   LIG d   1       6.761  -3.787  -5.222  0.00  0.00    -0.051 A 
ATOM     45  H   LIG d   1       7.796  -5.536  -5.868  0.00  0.00     0.065 H 
ATOM     46  H   LIG d   1       5.979  -3.884  -5.960  0.00  0.00     0.062 H 
BRANCH  41  47
ATOM     47  O   LIG d   1       9.789  -5.502  -4.173  0.00  0.00    -0.507 OA
ATOM     48  H   LIG d   1      10.472  -5.374  -4.846  0.00  0.00     0.292 HD
ENDBRANCH  41  47
ENDBRANCH  35  37
BRANCH  30  49
ATOM     49  C   LIG d   1       6.759   0.471  -4.105  0.00  0.00     0.356 C 
ATOM     50  O   LIG d   1       6.460   0.920  -3.024  0.00  0.00    -0.246 OA
BRANCH  49  51
ATOM     51  O   LIG d   1       7.990   0.673  -4.599  0.00  0.00    -0.465 OA
BRANCH  51  52
ATOM     52  C   LIG d   1       8.733   1.769  -4.060  0.00  0.00     0.082 C 
ATOM     53  H   LIG d   1       9.792   1.508  -4.026  0.00  0.00     0.066 H 
ATOM     54  H   LIG d   1       8.595   2.647  -4.691  0.00  0.00     0.066 H 
ATOM     55  H   LIG d   1       8.382   1.986  -3.051  0.00  0.00     0.066 H 
ENDBRANCH  51  52
ENDBRANCH  49  51
ENDBRANCH  30  49
ENDBRANCH   1  30
TORSDOF 12
ENDMDL
MODEL 5
REMARK VINA RESULT:      -6.0      2.167      8.667
REMARK  12 active torsions:
REMARK  status: ('A' for Active; 'I' for Inactive)
REMARK    1  A    between atoms: C_1  and  C_2 
REMARK    2  A    between atoms: C_2  and  C_33 
REMARK    3  A    between atoms: C_3  and  C_6 
REMARK    4  A    between atoms: C_6  and  C_7 
REMARK    5  A    between atoms: C_9  and  C_14 
REMARK    6  A    between atoms: C_12  and  O_13 
REMARK    7  A    between atoms: C_14  and  C_15 
REMARK    8  A    between atoms: C_15  and  C_29 
REMARK    9  A    between atoms: C_16  and  C_22 
REMARK   10  A    between atoms: C_25  and  O_28 
REMARK   11  A    between atoms: C_29  and  O_31 
REMARK   12  A    between atoms: O_31  and  C_32 
ROOT
ATOM      1  C   LIG d   1       8.260  -3.023  -3.254  0.00  0.00     0.028 C 
ATOM      2  H   LIG d   1       7.556  -3.352  -2.489  0.00  0.00     0.036 H 
ATOM      3  H   LIG d   1       8.593  -2.010  -3.031  0.00  0.00     0.036 H 
ENDROOT
BRANCH   1   4
ATOM      4  C   LIG d   1       9.450  -3.949  -3.271  0.00  0.00    -0.042 A 
ATOM      5  C   LIG d   1       9.348  -5.213  -2.720  0.00  0.00    -0.052 A 
ATOM      6  C   LIG d   1      10.436  -6.064  -2.734  0.00  0.00    -0.003 A 
ATOM      7  H   LIG d   1       8.416  -5.535  -2.278  0.00  0.00     0.062 H 
ATOM      8  C   LIG d   1      11.634  -5.647  -3.297  0.00  0.00     0.120 A 
ATOM      9  C   LIG d   1      11.732  -4.379  -3.853  0.00  0.00    -0.020 A 
ATOM     10  C   LIG d   1      10.641  -3.533  -3.836  0.00  0.00    -0.055 A 
ATOM     11  H   LIG d   1      12.663  -4.055  -4.296  0.00  0.00     0.065 H 
ATOM     12  H   LIG d   1      10.718  -2.544  -4.266  0.00  0.00     0.062 H 
BRANCH   6  13
ATOM     13  C   LIG d   1      10.324  -7.442  -2.136  0.00  0.00     0.005 C 
ATOM     14  H   LIG d   1      10.875  -8.151  -2.753  0.00  0.00     0.034 H 
ATOM     15  H   LIG d   1       9.276  -7.735  -2.093  0.00  0.00     0.034 H 
BRANCH  13  16
ATOM     16  C   LIG d   1      10.910  -7.434  -0.722  0.00  0.00     0.092 A 
ATOM     17  C   LIG d   1      11.180  -8.784  -0.054  0.00  0.00     0.091 A 
ATOM     18  O   LIG d   1      12.231  -7.949  -0.545  0.00  0.00    -0.365 OA
ATOM     19  H   LIG d   1      10.597  -6.606  -0.086  0.00  0.00     0.063 H 
BRANCH  17  20
ATOM     20  C   LIG d   1      10.993  -8.880   1.461  0.00  0.00    -0.034 C 
ATOM     21  H   LIG d   1      11.959  -8.768   1.954  0.00  0.00     0.026 H 
ATOM     22  H   LIG d   1      10.320  -8.090   1.795  0.00  0.00     0.026 H 
ATOM     23  H   LIG d   1      10.567  -9.851   1.713  0.00  0.00     0.026 H 
ENDBRANCH  17  20
BRANCH  17  24
ATOM     24  C   LIG d   1      10.848 -10.051  -0.846  0.00  0.00    -0.034 C 
ATOM     25  H   LIG d   1       9.766 -10.147  -0.940  0.00  0.00     0.026 H 
ATOM     26  H   LIG d   1      11.296  -9.987  -1.837  0.00  0.00     0.026 H 
ATOM     27  H   LIG d   1      11.246 -10.920  -0.323  0.00  0.00     0.026 H 
ENDBRANCH  17  24
ENDBRANCH  13  16
ENDBRANCH   6  13
BRANCH   8  28
ATOM     28  O   LIG d   1      12.707  -6.480  -3.307  0.00  0.00    -0.506 OA
ATOM     29  H   LIG d   1      12.575  -7.286  -3.826  0.00  0.00     0.292 HD
ENDBRANCH   8  28
ENDBRANCH   1   4
BRANCH   1  30
ATOM     30  C   LIG d   1       7.577  -3.046  -4.621  0.00  0.00     0.238 A 
ATOM     31  O   LIG d   1       7.825  -4.295  -5.274  0.00  0.00    -0.439 OA
ATOM     32  C   LIG d   1       6.643  -4.904  -5.491  0.00  0.00     0.326 A 
ATOM     33  C   LIG d   1       5.552  -4.071  -4.985  0.00  0.00    -0.013 A 
ATOM     34  O   LIG d   1       6.505  -5.985  -6.028  0.00  0.00    -0.246 OA
ATOM     35  C   LIG d   1       6.079  -2.942  -4.454  0.00  0.00     0.013 A 
ATOM     36  O   LIG d   1       4.229  -4.380  -5.041  0.00  0.00    -0.869 OA
BRANCH  35  37
ATOM     37  C   LIG d   1       5.338  -1.833  -3.835  0.00  0.00    -0.018 A 
ATOM     38  C   LIG d   1       5.013  -1.878  -2.475  0.00  0.00    -0.051 A 
ATOM     39  C   LIG d   1       4.324  -0.835  -1.899  0.00  0.00    -0.020 A 
ATOM     40  H   LIG d   1       5.305  -2.730  -1.877  0.00  0.00     0.062 H 
ATOM     41  C   LIG d   1       3.942   0.258  -2.669  0.00  0.00     0.117 A 
ATOM     42  H   LIG d   1       4.076  -0.867  -0.848  0.00  0.00     0.065 H 
ATOM     43  C   LIG d   1       4.257   0.306  -4.021  0.00  0.00    -0.020 A 
ATOM     44  C   LIG d   1       4.951  -0.731  -4.606  0.00  0.00    -0.051 A 
ATOM     45  H   LIG d   1       3.958   1.156  -4.615  0.00  0.00     0.065 H 
ATOM     46  H   LIG d   1       5.196  -0.693  -5.657  0.00  0.00     0.062 H 
BRANCH  41  47
ATOM     47  O   LIG d   1       3.258   1.282  -2.097  0.00  0.00    -0.507 OA
ATOM     48  H   LIG d   1       3.757   2.107  -2.044  0.00  0.00     0.292 HD
ENDBRANCH  41  47
ENDBRANCH  35  37
BRANCH  30  49
ATOM     49  C   LIG d   1       8.083  -1.910  -5.473  0.00  0.00     0.356 C 
ATOM     50  O   LIG d   1       8.029  -1.989  -6.677  0.00  0.00    -0.246 OA
BRANCH  49  51
ATOM     51  O   LIG d   1       8.593  -0.813  -4.894  0.00  0.00    -0.465 OA
BRANCH  51  52
ATOM     52  C   LIG d   1       8.354   0.436  -5.547  0.00  0.00     0.082 C 
ATOM     53  H   LIG d   1       8.875   1.231  -5.012  0.00  0.00     0.066 H 
ATOM     54  H   LIG d   1       8.721   0.387  -6.572  0.00  0.00     0.066 H 
ATOM     55  H   LIG d   1       7.284   0.645  -5.552  0.00  0.00     0.066 H 
ENDBRANCH  51  52
ENDBRANCH  49  51
ENDBRANCH  30  49
ENDBRANCH   1  30
TORSDOF 12
ENDMDL
MODEL 6
REMARK VINA RESULT:      -5.9      2.109      8.043
REMARK  12 active torsions:
REMARK  status: ('A' for Active; 'I' for Inactive)
REMARK    1  A    between atoms: C_1  and  C_2 
REMARK    2  A    between atoms: C_2  and  C_33 
REMARK    3  A    between atoms: C_3  and  C_6 
REMARK    4  A    between atoms: C_6  and  C_7 
REMARK    5  A    between atoms: C_9  and  C_14 
REMARK    6  A    between atoms: C_12  and  O_13 
REMARK    7  A    between atoms: C_14  and  C_15 
REMARK    8  A    between atoms: C_15  and  C_29 
REMARK    9  A    between atoms: C_16  and  C_22 
REMARK   10  A    between atoms: C_25  and  O_28 
REMARK   11  A    between atoms: C_29  and  O_31 
REMARK   12  A    between atoms: O_31  and  C_32 
ROOT
ATOM      1  C   LIG d   1       8.271  -2.896  -3.296  0.00  0.00     0.028 C 
ATOM      2  H   LIG d   1       7.548  -3.133  -2.515  0.00  0.00     0.036 H 
ATOM      3  H   LIG d   1       8.683  -1.903  -3.120  0.00  0.00     0.036 H 
ENDROOT
BRANCH   1   4
ATOM      4  C   LIG d   1       9.384  -3.912  -3.274  0.00  0.00    -0.042 A 
ATOM      5  C   LIG d   1       9.148  -5.183  -2.784  0.00  0.00    -0.052 A 
ATOM      6  C   LIG d   1      10.166  -6.117  -2.762  0.00  0.00    -0.003 A 
ATOM      7  H   LIG d   1       8.167  -5.446  -2.416  0.00  0.00     0.062 H 
ATOM      8  C   LIG d   1      11.428  -5.777  -3.228  0.00  0.00     0.120 A 
ATOM      9  C   LIG d   1      11.661  -4.502  -3.724  0.00  0.00    -0.020 A 
ATOM     10  C   LIG d   1      10.639  -3.572  -3.743  0.00  0.00    -0.055 A 
ATOM     11  H   LIG d   1      12.641  -4.236  -4.091  0.00  0.00     0.065 H 
ATOM     12  H   LIG d   1      10.821  -2.578  -4.126  0.00  0.00     0.062 H 
BRANCH   6  13
ATOM     13  C   LIG d   1       9.908  -7.502  -2.228  0.00  0.00     0.005 C 
ATOM     14  H   LIG d   1       9.174  -7.450  -1.425  0.00  0.00     0.034 H 
ATOM     15  H   LIG d   1      10.837  -7.922  -1.845  0.00  0.00     0.034 H 
BRANCH  13  16
ATOM     16  C   LIG d   1       9.371  -8.390  -3.352  0.00  0.00     0.092 A 
ATOM     17  C   LIG d   1       8.235  -9.358  -3.015  0.00  0.00     0.091 A 
ATOM     18  O   LIG d   1       8.028  -8.175  -3.789  0.00  0.00    -0.365 OA
ATOM     19  H   LIG d   1      10.103  -8.705  -4.096  0.00  0.00     0.063 H 
BRANCH  17  20
ATOM     20  C   LIG d   1       8.204 -10.703  -3.745  0.00  0.00    -0.034 C 
ATOM     21  H   LIG d   1       7.495 -10.651  -4.571  0.00  0.00     0.026 H 
ATOM     22  H   LIG d   1       9.197 -10.929  -4.132  0.00  0.00     0.026 H 
ATOM     23  H   LIG d   1       7.897 -11.485  -3.052  0.00  0.00     0.026 H 
ENDBRANCH  17  20
BRANCH  17  24
ATOM     24  C   LIG d   1       7.711  -9.371  -1.578  0.00  0.00    -0.034 C 
ATOM     25  H   LIG d   1       6.732  -8.890  -1.545  0.00  0.00     0.026 H 
ATOM     26  H   LIG d   1       7.622 -10.401  -1.233  0.00  0.00     0.026 H 
ATOM     27  H   LIG d   1       8.403  -8.830  -0.934  0.00  0.00     0.026 H 
ENDBRANCH  17  24
ENDBRANCH  13  16
ENDBRANCH   6  13
BRANCH   8  28
ATOM     28  O   LIG d   1      12.432  -6.691  -3.202  0.00  0.00    -0.506 OA
ATOM     29  H   LIG d   1      12.432  -7.253  -2.414  0.00  0.00     0.292 HD
ENDBRANCH   8  28
ENDBRANCH   1   4
BRANCH   1  30
ATOM     30  C   LIG d   1       7.579  -2.927  -4.659  0.00  0.00     0.238 A 
ATOM     31  O   LIG d   1       7.851  -4.167  -5.320  0.00  0.00    -0.439 OA
ATOM     32  C   LIG d   1       6.682  -4.800  -5.534  0.00  0.00     0.326 A 
ATOM     33  C   LIG d   1       5.576  -3.995  -5.017  0.00  0.00    -0.013 A 
ATOM     34  O   LIG d   1       6.565  -5.882  -6.076  0.00  0.00    -0.246 OA
ATOM     35  C   LIG d   1       6.081  -2.858  -4.483  0.00  0.00     0.013 A 
ATOM     36  O   LIG d   1       4.260  -4.333  -5.065  0.00  0.00    -0.869 OA
BRANCH  35  37
ATOM     37  C   LIG d   1       5.320  -1.769  -3.853  0.00  0.00    -0.018 A 
ATOM     38  C   LIG d   1       4.796  -0.734  -4.636  0.00  0.00    -0.051 A 
ATOM     39  C   LIG d   1       4.079   0.281  -4.043  0.00  0.00    -0.020 A 
ATOM     40  H   LIG d   1       4.952  -0.732  -5.706  0.00  0.00     0.062 H 
ATOM     41  C   LIG d   1       3.885   0.284  -2.666  0.00  0.00     0.117 A 
ATOM     42  H   LIG d   1       3.671   1.078  -4.646  0.00  0.00     0.065 H 
ATOM     43  C   LIG d   1       4.407  -0.738  -1.883  0.00  0.00    -0.020 A 
ATOM     44  C   LIG d   1       5.120  -1.760  -2.468  0.00  0.00    -0.051 A 
ATOM     45  H   LIG d   1       4.252  -0.731  -0.814  0.00  0.00     0.065 H 
ATOM     46  H   LIG d   1       5.526  -2.555  -1.859  0.00  0.00     0.062 H 
BRANCH  41  47
ATOM     47  O   LIG d   1       3.182   1.290  -2.085  0.00  0.00    -0.507 OA
ATOM     48  H   LIG d   1       3.411   2.170  -2.412  0.00  0.00     0.292 HD
ENDBRANCH  41  47
ENDBRANCH  35  37
BRANCH  30  49
ATOM     49  C   LIG d   1       8.055  -1.775  -5.508  0.00  0.00     0.356 C 
ATOM     50  O   LIG d   1       7.799  -1.751  -6.688  0.00  0.00    -0.246 OA
BRANCH  49  51
ATOM     51  O   LIG d   1       8.761  -0.779  -4.953  0.00  0.00    -0.465 OA
BRANCH  51  52
ATOM     52  C   LIG d   1       8.221   0.540  -5.065  0.00  0.00     0.082 C 
ATOM     53  H   LIG d   1       9.036   1.263  -5.114  0.00  0.00     0.066 H 
ATOM     54  H   LIG d   1       7.618   0.610  -5.970  0.00  0.00     0.066 H 
ATOM     55  H   LIG d   1       7.600   0.753  -4.195  0.00  0.00     0.066 H 
ENDBRANCH  51  52
ENDBRANCH  49  51
ENDBRANCH  30  49
ENDBRANCH   1  30
TORSDOF 12
ENDMDL
MODEL 7
REMARK VINA RESULT:      -5.9      5.686      8.805
REMARK  12 active torsions:
REMARK  status: ('A' for Active; 'I' for Inactive)
REMARK    1  A    between atoms: C_1  and  C_2 
REMARK    2  A    between atoms: C_2  and  C_33 
REMARK    3  A    between atoms: C_3  and  C_6 
REMARK    4  A    between atoms: C_6  and  C_7 
REMARK    5  A    between atoms: C_9  and  C_14 
REMARK    6  A    between atoms: C_12  and  O_13 
REMARK    7  A    between atoms: C_14  and  C_15 
REMARK    8  A    between atoms: C_15  and  C_29 
REMARK    9  A    between atoms: C_16  and  C_22 
REMARK   10  A    between atoms: C_25  and  O_28 
REMARK   11  A    between atoms: C_29  and  O_31 
REMARK   12  A    between atoms: O_31  and  C_32 
ROOT
ATOM      1  C   LIG d   1       8.867   3.958  -4.193  0.00  0.00     0.028 C 
ATOM      2  H   LIG d   1       8.889   4.640  -5.044  0.00  0.00     0.036 H 
ATOM      3  H   LIG d   1       8.138   4.309  -3.464  0.00  0.00     0.036 H 
ENDROOT
BRANCH   1   4
ATOM      4  C   LIG d   1       8.480   2.580  -4.666  0.00  0.00    -0.042 A 
ATOM      5  C   LIG d   1       7.791   1.729  -3.822  0.00  0.00    -0.052 A 
ATOM      6  C   LIG d   1       7.435   0.465  -4.252  0.00  0.00    -0.003 A 
ATOM      7  H   LIG d   1       7.532   2.052  -2.824  0.00  0.00     0.062 H 
ATOM      8  C   LIG d   1       7.774   0.048  -5.531  0.00  0.00     0.120 A 
ATOM      9  C   LIG d   1       8.462   0.906  -6.378  0.00  0.00    -0.020 A 
ATOM     10  C   LIG d   1       8.814   2.168  -5.943  0.00  0.00    -0.055 A 
ATOM     11  H   LIG d   1       8.722   0.585  -7.376  0.00  0.00     0.065 H 
ATOM     12  H   LIG d   1       9.353   2.835  -6.601  0.00  0.00     0.062 H 
BRANCH   6  13
ATOM     13  C   LIG d   1       6.684  -0.461  -3.331  0.00  0.00     0.005 C 
ATOM     14  H   LIG d   1       6.690  -0.053  -2.321  0.00  0.00     0.034 H 
ATOM     15  H   LIG d   1       7.163  -1.440  -3.331  0.00  0.00     0.034 H 
BRANCH  13  16
ATOM     16  C   LIG d   1       5.239  -0.600  -3.815  0.00  0.00     0.092 A 
ATOM     17  C   LIG d   1       4.141   0.065  -2.983  0.00  0.00     0.091 A 
ATOM     18  O   LIG d   1       4.563   0.582  -4.246  0.00  0.00    -0.365 OA
ATOM     19  H   LIG d   1       4.998  -1.537  -4.319  0.00  0.00     0.063 H 
BRANCH  17  20
ATOM     20  C   LIG d   1       2.779  -0.629  -2.914  0.00  0.00    -0.034 C 
ATOM     21  H   LIG d   1       2.819  -1.437  -2.183  0.00  0.00     0.026 H 
ATOM     22  H   LIG d   1       2.018   0.093  -2.618  0.00  0.00     0.026 H 
ATOM     23  H   LIG d   1       2.531  -1.038  -3.894  0.00  0.00     0.026 H 
ENDBRANCH  17  20
BRANCH  17  24
ATOM     24  C   LIG d   1       4.562   0.827  -1.724  0.00  0.00    -0.034 C 
ATOM     25  H   LIG d   1       5.105   1.728  -2.011  0.00  0.00     0.026 H 
ATOM     26  H   LIG d   1       3.675   1.103  -1.153  0.00  0.00     0.026 H 
ATOM     27  H   LIG d   1       5.205   0.194  -1.114  0.00  0.00     0.026 H 
ENDBRANCH  17  24
ENDBRANCH  13  16
ENDBRANCH   6  13
BRANCH   8  28
ATOM     28  O   LIG d   1       7.431  -1.196  -5.954  0.00  0.00    -0.506 OA
ATOM     29  H   LIG d   1       7.855  -1.911  -5.459  0.00  0.00     0.292 HD
ENDBRANCH   8  28
ENDBRANCH   1   4
BRANCH   1  30
ATOM     30  C   LIG d   1      10.251   3.905  -3.545  0.00  0.00     0.238 A 
ATOM     31  O   LIG d   1      10.538   2.573  -3.107  0.00  0.00    -0.439 OA
ATOM     32  C   LIG d   1      11.634   2.138  -3.757  0.00  0.00     0.326 A 
ATOM     33  C   LIG d   1      12.123   3.177  -4.662  0.00  0.00    -0.013 A 
ATOM     34  O   LIG d   1      12.141   1.043  -3.612  0.00  0.00    -0.246 OA
ATOM     35  C   LIG d   1      11.312   4.258  -4.560  0.00  0.00     0.013 A 
ATOM     36  O   LIG d   1      13.211   3.075  -5.471  0.00  0.00    -0.869 OA
BRANCH  35  37
ATOM     37  C   LIG d   1      11.440   5.525  -5.294  0.00  0.00    -0.018 A 
ATOM     38  C   LIG d   1      12.250   6.550  -4.791  0.00  0.00    -0.051 A 
ATOM     39  C   LIG d   1      12.371   7.733  -5.484  0.00  0.00    -0.020 A 
ATOM     40  H   LIG d   1      12.783   6.411  -3.861  0.00  0.00     0.062 H 
ATOM     41  C   LIG d   1      11.681   7.914  -6.678  0.00  0.00     0.117 A 
ATOM     42  H   LIG d   1      12.999   8.522  -5.099  0.00  0.00     0.065 H 
ATOM     43  C   LIG d   1      10.871   6.903  -7.179  0.00  0.00    -0.020 A 
ATOM     44  C   LIG d   1      10.748   5.714  -6.496  0.00  0.00    -0.051 A 
ATOM     45  H   LIG d   1      10.337   7.050  -8.106  0.00  0.00     0.065 H 
ATOM     46  H   LIG d   1      10.118   4.928  -6.886  0.00  0.00     0.062 H 
BRANCH  41  47
ATOM     47  O   LIG d   1      11.799   9.085  -7.355  0.00  0.00    -0.507 OA
ATOM     48  H   LIG d   1      12.602   9.581  -7.147  0.00  0.00     0.292 HD
ENDBRANCH  41  47
ENDBRANCH  35  37
BRANCH  30  49
ATOM     49  C   LIG d   1      10.313   4.857  -2.378  0.00  0.00     0.356 C 
ATOM     50  O   LIG d   1      11.056   4.629  -1.453  0.00  0.00    -0.246 OA
BRANCH  49  51
ATOM     51  O   LIG d   1       9.544   5.956  -2.366  0.00  0.00    -0.465 OA
BRANCH  51  52
ATOM     52  C   LIG d   1       9.899   6.986  -1.441  0.00  0.00     0.082 C 
ATOM     53  H   LIG d   1      10.586   6.584  -0.696  0.00  0.00     0.066 H 
ATOM     54  H   LIG d   1      10.382   7.804  -1.976  0.00  0.00     0.066 H 
ATOM     55  H   LIG d   1       9.001   7.355  -0.945  0.00  0.00     0.066 H 
ENDBRANCH  51  52
ENDBRANCH  49  51
ENDBRANCH  30  49
ENDBRANCH   1  30
TORSDOF 12
ENDMDL
MODEL 8
REMARK VINA RESULT:      -5.8      9.600     12.213
REMARK  12 active torsions:
REMARK  status: ('A' for Active; 'I' for Inactive)
REMARK    1  A    between atoms: C_1  and  C_2 
REMARK    2  A    between atoms: C_2  and  C_33 
REMARK    3  A    between atoms: C_3  and  C_6 
REMARK    4  A    between atoms: C_6  and  C_7 
REMARK    5  A    between atoms: C_9  and  C_14 
REMARK    6  A    between atoms: C_12  and  O_13 
REMARK    7  A    between atoms: C_14  and  C_15 
REMARK    8  A    between atoms: C_15  and  C_29 
REMARK    9  A    between atoms: C_16  and  C_22 
REMARK   10  A    between atoms: C_25  and  O_28 
REMARK   11  A    between atoms: C_29  and  O_31 
REMARK   12  A    between atoms: O_31  and  C_32 
ROOT
ATOM      1  C   LIG d   1       9.923   6.322  -1.892  0.00  0.00     0.028 C 
ATOM      2  H   LIG d   1       9.398   7.261  -1.715  0.00  0.00     0.036 H 
ATOM      3  H   LIG d   1       9.471   5.533  -1.293  0.00  0.00     0.036 H 
ENDROOT
BRANCH   1   4
ATOM      4  C   LIG d   1       9.826   5.961  -3.352  0.00  0.00    -0.042 A 
ATOM      5  C   LIG d   1       9.746   6.958  -4.306  0.00  0.00    -0.052 A 
ATOM      6  C   LIG d   1       9.656   6.631  -5.645  0.00  0.00    -0.003 A 
ATOM      7  H   LIG d   1       9.752   7.996  -4.003  0.00  0.00     0.062 H 
ATOM      8  C   LIG d   1       9.642   5.299  -6.033  0.00  0.00     0.120 A 
ATOM      9  C   LIG d   1       9.727   4.299  -5.074  0.00  0.00    -0.020 A 
ATOM     10  C   LIG d   1       9.817   4.633  -3.737  0.00  0.00    -0.055 A 
ATOM     11  H   LIG d   1       9.721   3.261  -5.374  0.00  0.00     0.065 H 
ATOM     12  H   LIG d   1       9.880   3.854  -2.989  0.00  0.00     0.062 H 
BRANCH   6  13
ATOM     13  C   LIG d   1       9.570   7.719  -6.684  0.00  0.00     0.005 C 
ATOM     14  H   LIG d   1       8.657   7.593  -7.266  0.00  0.00     0.034 H 
ATOM     15  H   LIG d   1      10.434   7.659  -7.345  0.00  0.00     0.034 H 
BRANCH  13  16
ATOM     16  C   LIG d   1       9.549   9.084  -5.994  0.00  0.00     0.092 A 
ATOM     17  C   LIG d   1      10.810   9.946  -6.079  0.00  0.00     0.091 A 
ATOM     18  O   LIG d   1       9.624  10.250  -6.817  0.00  0.00    -0.365 OA
ATOM     19  H   LIG d   1       8.954   9.143  -5.082  0.00  0.00     0.063 H 
BRANCH  17  20
ATOM     20  C   LIG d   1      11.150  10.833  -4.879  0.00  0.00    -0.034 C 
ATOM     21  H   LIG d   1      11.092  11.881  -5.174  0.00  0.00     0.026 H 
ATOM     22  H   LIG d   1      10.441  10.642  -4.073  0.00  0.00     0.026 H 
ATOM     23  H   LIG d   1      12.159  10.608  -4.536  0.00  0.00     0.026 H 
ENDBRANCH  17  20
BRANCH  17  24
ATOM     24  C   LIG d   1      12.006   9.387  -6.851  0.00  0.00    -0.034 C 
ATOM     25  H   LIG d   1      12.880   9.362  -6.198  0.00  0.00     0.026 H 
ATOM     26  H   LIG d   1      11.778   8.377  -7.192  0.00  0.00     0.026 H 
ATOM     27  H   LIG d   1      12.214  10.023  -7.711  0.00  0.00     0.026 H 
ENDBRANCH  17  24
ENDBRANCH  13  16
ENDBRANCH   6  13
BRANCH   8  28
ATOM     28  O   LIG d   1       9.548   4.974  -7.348  0.00  0.00    -0.506 OA
ATOM     29  H   LIG d   1      10.144   5.477  -7.921  0.00  0.00     0.292 HD
ENDBRANCH   8  28
ENDBRANCH   1   4
BRANCH   1  30
ATOM     30  C   LIG d   1      11.394   6.479  -1.503  0.00  0.00     0.238 A 
ATOM     31  O   LIG d   1      12.222   5.732  -2.400  0.00  0.00    -0.439 OA
ATOM     32  C   LIG d   1      13.056   6.588  -3.020  0.00  0.00     0.326 A 
ATOM     33  C   LIG d   1      12.811   7.952  -2.553  0.00  0.00    -0.013 A 
ATOM     34  O   LIG d   1      13.890   6.273  -3.847  0.00  0.00    -0.246 OA
ATOM     35  C   LIG d   1      11.814   7.923  -1.636  0.00  0.00     0.013 A 
ATOM     36  O   LIG d   1      13.474   9.064  -2.970  0.00  0.00    -0.869 OA
BRANCH  35  37
ATOM     37  C   LIG d   1      11.251   9.073  -0.913  0.00  0.00    -0.018 A 
ATOM     38  C   LIG d   1      10.200   9.808  -1.472  0.00  0.00    -0.051 A 
ATOM     39  C   LIG d   1       9.673  10.880  -0.788  0.00  0.00    -0.020 A 
ATOM     40  H   LIG d   1       9.800   9.532  -2.437  0.00  0.00     0.062 H 
ATOM     41  C   LIG d   1      10.191  11.240   0.450  0.00  0.00     0.117 A 
ATOM     42  H   LIG d   1       8.858  11.446  -1.217  0.00  0.00     0.065 H 
ATOM     43  C   LIG d   1      11.239  10.518   1.008  0.00  0.00    -0.020 A 
ATOM     44  C   LIG d   1      11.769   9.440   0.334  0.00  0.00    -0.051 A 
ATOM     45  H   LIG d   1      11.638  10.802   1.970  0.00  0.00     0.065 H 
ATOM     46  H   LIG d   1      12.584   8.879   0.768  0.00  0.00     0.062 H 
BRANCH  41  47
ATOM     47  O   LIG d   1       9.671  12.302   1.118  0.00  0.00    -0.507 OA
ATOM     48  H   LIG d   1       9.122  12.881   0.571  0.00  0.00     0.292 HD
ENDBRANCH  41  47
ENDBRANCH  35  37
BRANCH  30  49
ATOM     49  C   LIG d   1      11.608   6.005  -0.088  0.00  0.00     0.356 C 
ATOM     50  O   LIG d   1      12.726   5.768   0.305  0.00  0.00    -0.246 OA
BRANCH  49  51
ATOM     51  O   LIG d   1      10.560   5.847   0.734  0.00  0.00    -0.465 OA
BRANCH  51  52
ATOM     52  C   LIG d   1      10.842   5.730   2.130  0.00  0.00     0.082 C 
ATOM     53  H   LIG d   1      10.785   4.682   2.425  0.00  0.00     0.066 H 
ATOM     54  H   LIG d   1      11.843   6.111   2.332  0.00  0.00     0.066 H 
ATOM     55  H   LIG d   1      10.111   6.306   2.698  0.00  0.00     0.066 H 
ENDBRANCH  51  52
ENDBRANCH  49  51
ENDBRANCH  30  49
ENDBRANCH   1  30
TORSDOF 12
ENDMDL
MODEL 9
REMARK VINA RESULT:      -5.8      5.441      9.093
REMARK  12 active torsions:
REMARK  status: ('A' for Active; 'I' for Inactive)
REMARK    1  A    between atoms: C_1  and  C_2 
REMARK    2  A    between atoms: C_2  and  C_33 
REMARK    3  A    between atoms: C_3  and  C_6 
REMARK    4  A    between atoms: C_6  and  C_7 
REMARK    5  A    between atoms: C_9  and  C_14 
REMARK    6  A    between atoms: C_12  and  O_13 
REMARK    7  A    between atoms: C_14  and  C_15 
REMARK    8  A    between atoms: C_15  and  C_29 
REMARK    9  A    between atoms: C_16  and  C_22 
REMARK   10  A    between atoms: C_25  and  O_28 
REMARK   11  A    between atoms: C_29  and  O_31 
REMARK   12  A    between atoms: O_31  and  C_32 
ROOT
ATOM      1  C   LIG d   1       9.170   2.977  -6.393  0.00  0.00     0.028 C 
ATOM      2  H   LIG d   1       9.455   2.945  -7.446  0.00  0.00     0.036 H 
ATOM      3  H   LIG d   1       8.223   3.505  -6.289  0.00  0.00     0.036 H 
ENDROOT
BRANCH   1   4
ATOM      4  C   LIG d   1       9.020   1.570  -5.872  0.00  0.00    -0.042 A 
ATOM      5  C   LIG d   1       8.100   1.297  -4.877  0.00  0.00    -0.052 A 
ATOM      6  C   LIG d   1       7.961   0.009  -4.397  0.00  0.00    -0.003 A 
ATOM      7  H   LIG d   1       7.490   2.093  -4.474  0.00  0.00     0.062 H 
ATOM      8  C   LIG d   1       8.749  -1.010  -4.911  0.00  0.00     0.120 A 
ATOM      9  C   LIG d   1       9.669  -0.734  -5.912  0.00  0.00    -0.020 A 
ATOM     10  C   LIG d   1       9.804   0.555  -6.389  0.00  0.00    -0.055 A 
ATOM     11  H   LIG d   1      10.281  -1.528  -6.317  0.00  0.00     0.065 H 
ATOM     12  H   LIG d   1      10.522   0.771  -7.167  0.00  0.00     0.062 H 
BRANCH   6  13
ATOM     13  C   LIG d   1       6.957  -0.288  -3.313  0.00  0.00     0.005 C 
ATOM     14  H   LIG d   1       7.453  -0.263  -2.343  0.00  0.00     0.034 H 
ATOM     15  H   LIG d   1       6.528  -1.276  -3.477  0.00  0.00     0.034 H 
BRANCH  13  16
ATOM     16  C   LIG d   1       5.846   0.764  -3.344  0.00  0.00     0.092 A 
ATOM     17  C   LIG d   1       4.529   0.430  -2.641  0.00  0.00     0.091 A 
ATOM     18  O   LIG d   1       5.465   1.368  -2.107  0.00  0.00    -0.365 OA
ATOM     19  H   LIG d   1       5.801   1.376  -4.244  0.00  0.00     0.063 H 
BRANCH  17  20
ATOM     20  C   LIG d   1       3.237   0.979  -3.250  0.00  0.00    -0.034 C 
ATOM     21  H   LIG d   1       3.342   1.035  -4.334  0.00  0.00     0.026 H 
ATOM     22  H   LIG d   1       2.407   0.319  -2.999  0.00  0.00     0.026 H 
ATOM     23  H   LIG d   1       3.043   1.975  -2.852  0.00  0.00     0.026 H 
ENDBRANCH  17  20
BRANCH  17  24
ATOM     24  C   LIG d   1       4.412  -0.931  -1.953  0.00  0.00    -0.034 C 
ATOM     25  H   LIG d   1       4.917  -0.894  -0.987  0.00  0.00     0.026 H 
ATOM     26  H   LIG d   1       3.360  -1.174  -1.804  0.00  0.00     0.026 H 
ATOM     27  H   LIG d   1       4.876  -1.695  -2.576  0.00  0.00     0.026 H 
ENDBRANCH  17  24
ENDBRANCH  13  16
ENDBRANCH   6  13
BRANCH   8  28
ATOM     28  O   LIG d   1       8.619  -2.276  -4.436  0.00  0.00    -0.506 OA
ATOM     29  H   LIG d   1       9.457  -2.754  -4.356  0.00  0.00     0.292 HD
ENDBRANCH   8  28
ENDBRANCH   1   4
BRANCH   1  30
ATOM     30  C   LIG d   1      10.251   3.705  -5.594  0.00  0.00     0.238 A 
ATOM     31  O   LIG d   1      11.300   2.796  -5.245  0.00  0.00    -0.439 OA
ATOM     32  C   LIG d   1      12.446   3.238  -5.797  0.00  0.00     0.326 A 
ATOM     33  C   LIG d   1      12.199   4.472  -6.542  0.00  0.00    -0.013 A 
ATOM     34  O   LIG d   1      13.527   2.691  -5.692  0.00  0.00    -0.246 OA
ATOM     35  C   LIG d   1      10.885   4.783  -6.441  0.00  0.00     0.013 A 
ATOM     36  O   LIG d   1      13.134   5.187  -7.223  0.00  0.00    -0.869 OA
BRANCH  35  37
ATOM     37  C   LIG d   1      10.207   5.943  -7.038  0.00  0.00    -0.018 A 
ATOM     38  C   LIG d   1       9.716   5.873  -8.347  0.00  0.00    -0.051 A 
ATOM     39  C   LIG d   1       9.078   6.960  -8.900  0.00  0.00    -0.020 A 
ATOM     40  H   LIG d   1       9.835   4.965  -8.921  0.00  0.00     0.062 H 
ATOM     41  C   LIG d   1       8.931   8.130  -8.164  0.00  0.00     0.117 A 
ATOM     42  H   LIG d   1       8.695   6.905  -9.908  0.00  0.00     0.065 H 
ATOM     43  C   LIG d   1       9.421   8.208  -6.867  0.00  0.00    -0.020 A 
ATOM     44  C   LIG d   1      10.056   7.124  -6.302  0.00  0.00    -0.051 A 
ATOM     45  H   LIG d   1       9.304   9.120  -6.300  0.00  0.00     0.065 H 
ATOM     46  H   LIG d   1      10.437   7.185  -5.294  0.00  0.00     0.062 H 
BRANCH  41  47
ATOM     47  O   LIG d   1       8.305   9.201  -8.717  0.00  0.00    -0.507 OA
ATOM     48  H   LIG d   1       8.565  10.050  -8.334  0.00  0.00     0.292 HD
ENDBRANCH  41  47
ENDBRANCH  35  37
BRANCH  30  49
ATOM     49  C   LIG d   1       9.655   4.308  -4.347  0.00  0.00     0.356 C 
ATOM     50  O   LIG d   1       8.568   4.832  -4.392  0.00  0.00    -0.246 OA
BRANCH  49  51
ATOM     51  O   LIG d   1      10.332   4.262  -3.190  0.00  0.00    -0.465 OA
BRANCH  51  52
ATOM     52  C   LIG d   1      10.284   5.427  -2.364  0.00  0.00     0.082 C 
ATOM     53  H   LIG d   1      10.707   6.274  -2.905  0.00  0.00     0.066 H 
ATOM     54  H   LIG d   1       9.248   5.644  -2.101  0.00  0.00     0.066 H 
ATOM     55  H   LIG d   1      10.861   5.253  -1.455  0.00  0.00     0.066 H 
ENDBRANCH  51  52
ENDBRANCH  49  51
ENDBRANCH  30  49
ENDBRANCH   1  30
TORSDOF 12
ENDMDL
