MODEL 1
REMARK VINA RESULT:      -7.5      0.000      0.000
REMARK  9 active torsions:
REMARK  status: ('A' for Active; 'I' for Inactive)
REMARK    1  A    between atoms: C_1  and  O_2 
REMARK    2  A    between atoms: O_2  and  C_3 
REMARK    3  A    between atoms: C_3  and  C_4 
REMARK    4  A    between atoms: C_4  and  N_5 
REMARK    5  A    between atoms: N_5  and  C_6 
REMARK    6  A    between atoms: C_9  and  C_12 
REMARK    7  A    between atoms: C_14  and  C_17 
REMARK    8  A    between atoms: N_22  and  C_23 
REMARK    9  A    between atoms: C_23  and  C_24 
ROOT
ATOM      1  C   LIG d   1       5.358   0.729  -8.482  0.00  0.00     0.060 C 
ATOM      2  H   LIG d   1       5.304  -0.037  -9.255  0.00  0.00     0.095 H 
ATOM      3  C   LIG d   1       5.158   2.138  -9.094  0.00  0.00     0.004 C 
ATOM      4  C   LIG d   1       3.621   2.244  -9.225  0.00  0.00    -0.007 C 
ATOM      5  C   LIG d   1       3.061   1.225  -8.215  0.00  0.00    -0.031 C 
ATOM      6  N   LIG d   1       4.219   0.601  -7.536  0.00  0.00     0.247 N 
ATOM      7  H   LIG d   1       5.543   2.908  -8.425  0.00  0.00     0.033 H 
ATOM      8  H   LIG d   1       5.634   2.204 -10.073  0.00  0.00     0.033 H 
ATOM      9  H   LIG d   1       3.289   3.251  -8.971  0.00  0.00     0.032 H 
ATOM     10  H   LIG d   1       3.309   1.986 -10.237  0.00  0.00     0.032 H 
ATOM     11  H   LIG d   1       2.430   1.734  -7.485  0.00  0.00     0.082 H 
ATOM     12  H   LIG d   1       2.486   0.462  -8.739  0.00  0.00     0.082 H 
ATOM     13  H   LIG d   1       4.423   1.091  -6.678  0.00  0.00     0.204 HD
ENDROOT
BRANCH   1  14
ATOM     14  C   LIG d   1       6.671   0.649  -7.747  0.00  0.00     0.276 A 
ATOM     15  N   LIG d   1       7.018   1.384  -6.727  0.00  0.00    -0.186 NA
ATOM     16  C   LIG d   1       8.255   1.047  -6.319  0.00  0.00     0.208 A 
ATOM     17  N   LIG d   1       8.706   0.089  -7.090  0.00  0.00    -0.056 NA
ATOM     18  O   LIG d   1       7.677  -0.188  -8.029  0.00  0.00    -0.332 OA
BRANCH  16  19
ATOM     19  C   LIG d   1       8.990   1.664  -5.187  0.00  0.00     0.086 A 
ATOM     20  C   LIG d   1       8.509   2.829  -4.579  0.00  0.00    -0.038 A 
ATOM     21  C   LIG d   1       9.226   3.367  -3.529  0.00  0.00     0.027 A 
ATOM     22  H   LIG d   1       7.597   3.297  -4.924  0.00  0.00     0.063 H 
ATOM     23  C   LIG d   1      10.395   2.737  -3.113  0.00  0.00     0.269 A 
ATOM     24  H   LIG d   1       8.883   4.265  -3.037  0.00  0.00     0.070 H 
ATOM     25  N   LIG d   1      10.826   1.637  -3.713  0.00  0.00    -0.198 N 
ATOM     26  C   LIG d   1      10.168   1.091  -4.716  0.00  0.00     0.182 A 
ATOM     27  H   LIG d   1      11.647   1.222  -3.405  0.00  0.00     0.454 HD
ATOM     28  H   LIG d   1      10.548   0.192  -5.178  0.00  0.00     0.138 H 
BRANCH  23  29
ATOM     29  N   LIG d   1      11.123   3.271  -2.058  0.00  0.00    -0.289 N 
ATOM     30  H   LIG d   1      11.508   2.685  -1.388  0.00  0.00     0.152 HD
BRANCH  29  31
ATOM     31  C   LIG d   1      11.309   4.720  -1.956  0.00  0.00     0.038 C 
ATOM     32  H   LIG d   1      10.506   5.228  -2.491  0.00  0.00     0.049 H 
ATOM     33  H   LIG d   1      12.268   4.994  -2.395  0.00  0.00     0.049 H 
BRANCH  31  34
ATOM     34  C   LIG d   1      11.284   5.136  -0.484  0.00  0.00     0.063 C 
ATOM     35  H   LIG d   1      12.269   5.505  -0.195  0.00  0.00     0.058 H 
ATOM     36  H   LIG d   1      11.023   4.276   0.132  0.00  0.00     0.058 H 
BRANCH  34  37
ATOM     37  O   LIG d   1      10.314   6.168  -0.297  0.00  0.00    -0.381 OA
BRANCH  37  38
ATOM     38  C   LIG d   1       9.816   6.725  -1.514  0.00  0.00     0.036 C 
ATOM     39  H   LIG d   1       8.879   7.247  -1.318  0.00  0.00     0.052 H 
ATOM     40  H   LIG d   1      10.545   7.427  -1.918  0.00  0.00     0.052 H 
ATOM     41  H   LIG d   1       9.642   5.927  -2.235  0.00  0.00     0.052 H 
ENDBRANCH  37  38
ENDBRANCH  34  37
ENDBRANCH  31  34
ENDBRANCH  29  31
ENDBRANCH  23  29
ENDBRANCH  16  19
ENDBRANCH   1  14
BRANCH   6  42
ATOM     42  C   LIG d   1       3.947  -0.816  -7.260  0.00  0.00    -0.003 C 
ATOM     43  H   LIG d   1       2.869  -0.975  -7.207  0.00  0.00     0.087 H 
ATOM     44  H   LIG d   1       4.366  -1.428  -8.058  0.00  0.00     0.087 H 
BRANCH  42  45
ATOM     45  C   LIG d   1       4.576  -1.200  -5.946  0.00  0.00     0.022 A 
ATOM     46  C   LIG d   1       4.248  -0.652  -4.629  0.00  0.00     0.008 A 
ATOM     47  C   LIG d   1       5.086  -1.312  -3.712  0.00  0.00     0.047 A 
ATOM     48  C   LIG d   1       3.341   0.308  -4.176  0.00  0.00    -0.052 A 
ATOM     49  N   LIG d   1       5.867  -2.187  -4.433  0.00  0.00    -0.360 N 
ATOM     50  C   LIG d   1       4.998  -0.999  -2.360  0.00  0.00    -0.038 A 
ATOM     51  C   LIG d   1       5.550  -2.106  -5.763  0.00  0.00     0.011 A 
ATOM     52  H   LIG d   1       6.542  -2.773  -4.057  0.00  0.00     0.165 HD
ATOM     53  H   LIG d   1       6.013  -2.686  -6.547  0.00  0.00     0.081 H 
ATOM     54  C   LIG d   1       4.102  -0.042  -1.935  0.00  0.00    -0.060 A 
ATOM     55  H   LIG d   1       5.639  -1.496  -1.646  0.00  0.00     0.064 H 
ATOM     56  C   LIG d   1       3.275   0.604  -2.843  0.00  0.00    -0.061 A 
ATOM     57  H   LIG d   1       4.039   0.203  -0.886  0.00  0.00     0.062 H 
ATOM     58  H   LIG d   1       2.572   1.347  -2.494  0.00  0.00     0.062 H 
ATOM     59  H   LIG d   1       2.694   0.815  -4.877  0.00  0.00     0.062 H 
ENDBRANCH  42  45
ENDBRANCH   6  42
TORSDOF 9
ENDMDL
MODEL 2
REMARK VINA RESULT:      -7.4      1.213      1.740
REMARK  9 active torsions:
REMARK  status: ('A' for Active; 'I' for Inactive)
REMARK    1  A    between atoms: C_1  and  O_2 
REMARK    2  A    between atoms: O_2  and  C_3 
REMARK    3  A    between atoms: C_3  and  C_4 
REMARK    4  A    between atoms: C_4  and  N_5 
REMARK    5  A    between atoms: N_5  and  C_6 
REMARK    6  A    between atoms: C_9  and  C_12 
REMARK    7  A    between atoms: C_14  and  C_17 
REMARK    8  A    between atoms: N_22  and  C_23 
REMARK    9  A    between atoms: C_23  and  C_24 
ROOT
ATOM      1  C   LIG d   1       4.775   0.424  -8.507  0.00  0.00     0.060 C 
ATOM      2  H   LIG d   1       4.391  -0.502  -8.934  0.00  0.00     0.095 H 
ATOM      3  C   LIG d   1       5.105   1.445  -9.625  0.00  0.00     0.004 C 
ATOM      4  C   LIG d   1       3.725   2.057  -9.953  0.00  0.00    -0.007 C 
ATOM      5  C   LIG d   1       2.864   1.803  -8.701  0.00  0.00    -0.031 C 
ATOM      6  N   LIG d   1       3.723   1.111  -7.714  0.00  0.00     0.247 N 
ATOM      7  H   LIG d   1       5.790   2.209  -9.258  0.00  0.00     0.033 H 
ATOM      8  H   LIG d   1       5.522   0.940 -10.497  0.00  0.00     0.033 H 
ATOM      9  H   LIG d   1       3.820   3.128 -10.137  0.00  0.00     0.032 H 
ATOM     10  H   LIG d   1       3.288   1.561 -10.820  0.00  0.00     0.032 H 
ATOM     11  H   LIG d   1       2.516   2.752  -8.292  0.00  0.00     0.082 H 
ATOM     12  H   LIG d   1       2.015   1.171  -8.957  0.00  0.00     0.082 H 
ATOM     13  H   LIG d   1       4.143   1.782  -7.089  0.00  0.00     0.204 HD
ENDROOT
BRANCH   1  14
ATOM     14  C   LIG d   1       5.990   0.153  -7.657  0.00  0.00     0.276 A 
ATOM     15  N   LIG d   1       6.564   1.006  -6.857  0.00  0.00    -0.186 NA
ATOM     16  C   LIG d   1       7.621   0.432  -6.255  0.00  0.00     0.208 A 
ATOM     17  N   LIG d   1       7.726  -0.803  -6.678  0.00  0.00    -0.056 NA
ATOM     18  O   LIG d   1       6.660  -1.005  -7.595  0.00  0.00    -0.332 OA
BRANCH  16  19
ATOM     19  C   LIG d   1       8.523   1.090  -5.277  0.00  0.00     0.086 A 
ATOM     20  C   LIG d   1       8.107   2.234  -4.586  0.00  0.00    -0.038 A 
ATOM     21  C   LIG d   1       8.979   2.812  -3.686  0.00  0.00     0.027 A 
ATOM     22  H   LIG d   1       7.125   2.655  -4.753  0.00  0.00     0.063 H 
ATOM     23  C   LIG d   1      10.235   2.242  -3.496  0.00  0.00     0.269 A 
ATOM     24  H   LIG d   1       8.691   3.695  -3.135  0.00  0.00     0.070 H 
ATOM     25  N   LIG d   1      10.600   1.161  -4.170  0.00  0.00    -0.198 N 
ATOM     26  C   LIG d   1       9.794   0.577  -5.034  0.00  0.00     0.182 A 
ATOM     27  H   LIG d   1      11.483   0.787  -4.021  0.00  0.00     0.454 HD
ATOM     28  H   LIG d   1      10.125  -0.305  -5.562  0.00  0.00     0.138 H 
BRANCH  23  29
ATOM     29  N   LIG d   1      11.119   2.816  -2.593  0.00  0.00    -0.289 N 
ATOM     30  H   LIG d   1      11.465   2.294  -1.852  0.00  0.00     0.152 HD
BRANCH  29  31
ATOM     31  C   LIG d   1      11.530   4.213  -2.758  0.00  0.00     0.038 C 
ATOM     32  H   LIG d   1      10.929   4.678  -3.539  0.00  0.00     0.049 H 
ATOM     33  H   LIG d   1      12.582   4.250  -3.039  0.00  0.00     0.049 H 
BRANCH  31  34
ATOM     34  C   LIG d   1      11.325   4.964  -1.441  0.00  0.00     0.063 C 
ATOM     35  H   LIG d   1      12.117   5.704  -1.320  0.00  0.00     0.058 H 
ATOM     36  H   LIG d   1      11.357   4.258  -0.612  0.00  0.00     0.058 H 
BRANCH  34  37
ATOM     37  O   LIG d   1      10.057   5.621  -1.459  0.00  0.00    -0.381 OA
BRANCH  37  38
ATOM     38  C   LIG d   1       9.791   6.338  -2.666  0.00  0.00     0.036 C 
ATOM     39  H   LIG d   1      10.298   7.302  -2.636  0.00  0.00     0.052 H 
ATOM     40  H   LIG d   1      10.154   5.763  -3.518  0.00  0.00     0.052 H 
ATOM     41  H   LIG d   1       8.717   6.495  -2.766  0.00  0.00     0.052 H 
ENDBRANCH  37  38
ENDBRANCH  34  37
ENDBRANCH  31  34
ENDBRANCH  29  31
ENDBRANCH  23  29
ENDBRANCH  16  19
ENDBRANCH   1  14
BRANCH   6  42
ATOM     42  C   LIG d   1       2.938   0.129  -6.954  0.00  0.00    -0.003 C 
ATOM     43  H   LIG d   1       1.888   0.207  -7.236  0.00  0.00     0.087 H 
ATOM     44  H   LIG d   1       3.301  -0.875  -7.176  0.00  0.00     0.087 H 
BRANCH  42  45
ATOM     45  C   LIG d   1       3.084   0.403  -5.480  0.00  0.00     0.022 A 
ATOM     46  C   LIG d   1       3.631  -0.511  -4.474  0.00  0.00     0.008 A 
ATOM     47  C   LIG d   1       3.568   0.178  -3.248  0.00  0.00     0.047 A 
ATOM     48  C   LIG d   1       4.150  -1.806  -4.519  0.00  0.00    -0.052 A 
ATOM     49  N   LIG d   1       3.014   1.412  -3.504  0.00  0.00    -0.360 N 
ATOM     50  C   LIG d   1       4.028  -0.444  -2.093  0.00  0.00    -0.038 A 
ATOM     51  C   LIG d   1       2.732   1.528  -4.838  0.00  0.00     0.011 A 
ATOM     52  H   LIG d   1       2.848   2.097  -2.838  0.00  0.00     0.165 HD
ATOM     53  H   LIG d   1       2.292   2.396  -5.306  0.00  0.00     0.081 H 
ATOM     54  C   LIG d   1       4.529  -1.727  -2.159  0.00  0.00    -0.060 A 
ATOM     55  H   LIG d   1       3.982   0.071  -1.145  0.00  0.00     0.064 H 
ATOM     56  C   LIG d   1       4.591  -2.401  -3.370  0.00  0.00    -0.061 A 
ATOM     57  H   LIG d   1       4.881  -2.210  -1.260  0.00  0.00     0.062 H 
ATOM     58  H   LIG d   1       4.993  -3.403  -3.406  0.00  0.00     0.062 H 
ATOM     59  H   LIG d   1       4.201  -2.336  -5.459  0.00  0.00     0.062 H 
ENDBRANCH  42  45
ENDBRANCH   6  42
TORSDOF 9
ENDMDL
MODEL 3
REMARK VINA RESULT:      -7.4      1.360      1.584
REMARK  9 active torsions:
REMARK  status: ('A' for Active; 'I' for Inactive)
REMARK    1  A    between atoms: C_1  and  O_2 
REMARK    2  A    between atoms: O_2  and  C_3 
REMARK    3  A    between atoms: C_3  and  C_4 
REMARK    4  A    between atoms: C_4  and  N_5 
REMARK    5  A    between atoms: N_5  and  C_6 
REMARK    6  A    between atoms: C_9  and  C_12 
REMARK    7  A    between atoms: C_14  and  C_17 
REMARK    8  A    between atoms: N_22  and  C_23 
REMARK    9  A    between atoms: C_23  and  C_24 
ROOT
ATOM      1  C   LIG d   1       6.690   0.907  -8.181  0.00  0.00     0.060 C 
ATOM      2  H   LIG d   1       7.008   0.132  -8.877  0.00  0.00     0.095 H 
ATOM      3  C   LIG d   1       5.778   1.939  -8.892  0.00  0.00     0.004 C 
ATOM      4  C   LIG d   1       4.399   1.241  -8.892  0.00  0.00    -0.007 C 
ATOM      5  C   LIG d   1       4.472   0.208  -7.752  0.00  0.00    -0.031 C 
ATOM      6  N   LIG d   1       5.808   0.338  -7.129  0.00  0.00     0.247 N 
ATOM      7  H   LIG d   1       5.739   2.871  -8.330  0.00  0.00     0.033 H 
ATOM      8  H   LIG d   1       6.121   2.117  -9.912  0.00  0.00     0.033 H 
ATOM      9  H   LIG d   1       3.608   1.965  -8.697  0.00  0.00     0.032 H 
ATOM     10  H   LIG d   1       4.228   0.741  -9.846  0.00  0.00     0.032 H 
ATOM     11  H   LIG d   1       3.695   0.414  -7.015  0.00  0.00     0.082 H 
ATOM     12  H   LIG d   1       4.350  -0.797  -8.154  0.00  0.00     0.082 H 
ATOM     13  H   LIG d   1       5.763   0.964  -6.339  0.00  0.00     0.204 HD
ENDROOT
BRANCH   1  14
ATOM     14  C   LIG d   1       7.883   1.588  -7.564  0.00  0.00     0.276 A 
ATOM     15  N   LIG d   1       8.009   1.914  -6.308  0.00  0.00    -0.186 NA
ATOM     16  C   LIG d   1       9.200   2.505  -6.103  0.00  0.00     0.208 A 
ATOM     17  N   LIG d   1       9.842   2.562  -7.244  0.00  0.00    -0.056 NA
ATOM     18  O   LIG d   1       8.995   1.960  -8.212  0.00  0.00    -0.332 OA
BRANCH  16  19
ATOM     19  C   LIG d   1       9.701   3.014  -4.802  0.00  0.00     0.086 A 
ATOM     20  C   LIG d   1       9.507   4.351  -4.441  0.00  0.00    -0.038 A 
ATOM     21  C   LIG d   1       9.990   4.780  -3.221  0.00  0.00     0.027 A 
ATOM     22  H   LIG d   1       8.990   5.033  -5.102  0.00  0.00     0.063 H 
ATOM     23  C   LIG d   1      10.650   3.873  -2.396  0.00  0.00     0.269 A 
ATOM     24  H   LIG d   1       9.857   5.805  -2.911  0.00  0.00     0.070 H 
ATOM     25  N   LIG d   1      10.822   2.614  -2.771  0.00  0.00    -0.198 N 
ATOM     26  C   LIG d   1      10.371   2.165  -3.925  0.00  0.00     0.182 A 
ATOM     27  H   LIG d   1      11.290   2.005  -2.178  0.00  0.00     0.454 HD
ATOM     28  H   LIG d   1      10.527   1.131  -4.194  0.00  0.00     0.138 H 
BRANCH  23  29
ATOM     29  N   LIG d   1      11.139   4.295  -1.168  0.00  0.00    -0.289 N 
ATOM     30  H   LIG d   1      11.149   3.685  -0.413  0.00  0.00     0.152 HD
BRANCH  29  31
ATOM     31  C   LIG d   1      11.642   5.662  -1.010  0.00  0.00     0.038 C 
ATOM     32  H   LIG d   1      11.483   6.217  -1.935  0.00  0.00     0.049 H 
ATOM     33  H   LIG d   1      12.707   5.633  -0.783  0.00  0.00     0.049 H 
BRANCH  31  34
ATOM     34  C   LIG d   1      10.895   6.351   0.133  0.00  0.00     0.063 C 
ATOM     35  H   LIG d   1      11.536   7.113   0.578  0.00  0.00     0.058 H 
ATOM     36  H   LIG d   1      10.628   5.614   0.890  0.00  0.00     0.058 H 
BRANCH  34  37
ATOM     37  O   LIG d   1       9.709   6.965  -0.374  0.00  0.00    -0.381 OA
BRANCH  37  38
ATOM     38  C   LIG d   1       9.953   8.037  -1.286  0.00  0.00     0.036 C 
ATOM     39  H   LIG d   1       9.296   7.936  -2.150  0.00  0.00     0.052 H 
ATOM     40  H   LIG d   1       9.757   8.988  -0.791  0.00  0.00     0.052 H 
ATOM     41  H   LIG d   1      10.992   8.006  -1.614  0.00  0.00     0.052 H 
ENDBRANCH  37  38
ENDBRANCH  34  37
ENDBRANCH  31  34
ENDBRANCH  29  31
ENDBRANCH  23  29
ENDBRANCH  16  19
ENDBRANCH   1  14
BRANCH   6  42
ATOM     42  C   LIG d   1       6.306  -0.978  -6.708  0.00  0.00    -0.003 C 
ATOM     43  H   LIG d   1       6.271  -1.666  -7.552  0.00  0.00     0.087 H 
ATOM     44  H   LIG d   1       7.334  -0.882  -6.359  0.00  0.00     0.087 H 
BRANCH  42  45
ATOM     45  C   LIG d   1       5.444  -1.507  -5.592  0.00  0.00     0.022 A 
ATOM     46  C   LIG d   1       5.217  -0.875  -4.291  0.00  0.00     0.008 A 
ATOM     47  C   LIG d   1       4.346  -1.728  -3.589  0.00  0.00     0.047 A 
ATOM     48  C   LIG d   1       5.666   0.305  -3.694  0.00  0.00    -0.052 A 
ATOM     49  N   LIG d   1       4.080  -2.800  -4.411  0.00  0.00    -0.360 N 
ATOM     50  C   LIG d   1       3.941  -1.383  -2.305  0.00  0.00    -0.038 A 
ATOM     51  C   LIG d   1       4.742  -2.651  -5.600  0.00  0.00     0.011 A 
ATOM     52  H   LIG d   1       3.508  -3.550  -4.182  0.00  0.00     0.165 HD
ATOM     53  H   LIG d   1       4.705  -3.351  -6.422  0.00  0.00     0.081 H 
ATOM     54  C   LIG d   1       4.404  -0.218  -1.731  0.00  0.00    -0.060 A 
ATOM     55  H   LIG d   1       3.276  -2.032  -1.753  0.00  0.00     0.064 H 
ATOM     56  C   LIG d   1       5.260   0.622  -2.428  0.00  0.00    -0.061 A 
ATOM     57  H   LIG d   1       4.092   0.046  -0.731  0.00  0.00     0.062 H 
ATOM     58  H   LIG d   1       5.608   1.535  -1.967  0.00  0.00     0.062 H 
ATOM     59  H   LIG d   1       6.333   0.963  -4.230  0.00  0.00     0.062 H 
ENDBRANCH  42  45
ENDBRANCH   6  42
TORSDOF 9
ENDMDL
MODEL 4
REMARK VINA RESULT:      -7.3      2.697      3.606
REMARK  9 active torsions:
REMARK  status: ('A' for Active; 'I' for Inactive)
REMARK    1  A    between atoms: C_1  and  O_2 
REMARK    2  A    between atoms: O_2  and  C_3 
REMARK    3  A    between atoms: C_3  and  C_4 
REMARK    4  A    between atoms: C_4  and  N_5 
REMARK    5  A    between atoms: N_5  and  C_6 
REMARK    6  A    between atoms: C_9  and  C_12 
REMARK    7  A    between atoms: C_14  and  C_17 
REMARK    8  A    between atoms: N_22  and  C_23 
REMARK    9  A    between atoms: C_23  and  C_24 
ROOT
ATOM      1  C   LIG d   1       8.995  -1.602  -5.405  0.00  0.00     0.060 C 
ATOM      2  H   LIG d   1       9.669  -1.862  -4.590  0.00  0.00     0.095 H 
ATOM      3  C   LIG d   1       9.630  -1.955  -6.774  0.00  0.00     0.004 C 
ATOM      4  C   LIG d   1       9.354  -3.471  -6.903  0.00  0.00    -0.007 C 
ATOM      5  C   LIG d   1       8.162  -3.742  -5.965  0.00  0.00    -0.031 C 
ATOM      6  N   LIG d   1       7.773  -2.446  -5.366  0.00  0.00     0.247 N 
ATOM      7  H   LIG d   1       9.144  -1.404  -7.578  0.00  0.00     0.033 H 
ATOM      8  H   LIG d   1      10.703  -1.758  -6.763  0.00  0.00     0.033 H 
ATOM      9  H   LIG d   1       9.092  -3.721  -7.931  0.00  0.00     0.032 H 
ATOM     10  H   LIG d   1      10.225  -4.043  -6.583  0.00  0.00     0.032 H 
ATOM     11  H   LIG d   1       7.328  -4.154  -6.536  0.00  0.00     0.082 H 
ATOM     12  H   LIG d   1       8.458  -4.438  -5.181  0.00  0.00     0.082 H 
ATOM     13  H   LIG d   1       7.038  -2.019  -5.908  0.00  0.00     0.204 HD
ENDROOT
BRANCH   1  14
ATOM     14  C   LIG d   1       8.633  -0.140  -5.348  0.00  0.00     0.276 A 
ATOM     15  N   LIG d   1       9.343   0.799  -4.789  0.00  0.00    -0.186 NA
ATOM     16  C   LIG d   1       8.724   1.985  -4.924  0.00  0.00     0.208 A 
ATOM     17  N   LIG d   1       7.602   1.802  -5.574  0.00  0.00    -0.056 NA
ATOM     18  O   LIG d   1       7.529   0.414  -5.865  0.00  0.00    -0.332 OA
BRANCH  16  19
ATOM     19  C   LIG d   1       9.226   3.286  -4.415  0.00  0.00     0.086 A 
ATOM     20  C   LIG d   1       9.361   4.380  -5.276  0.00  0.00    -0.038 A 
ATOM     21  C   LIG d   1       9.832   5.570  -4.757  0.00  0.00     0.027 A 
ATOM     22  H   LIG d   1       9.103   4.296  -6.322  0.00  0.00     0.063 H 
ATOM     23  C   LIG d   1      10.154   5.641  -3.405  0.00  0.00     0.269 A 
ATOM     24  H   LIG d   1       9.948   6.435  -5.393  0.00  0.00     0.070 H 
ATOM     25  N   LIG d   1      10.019   4.584  -2.617  0.00  0.00    -0.198 N 
ATOM     26  C   LIG d   1       9.569   3.432  -3.073  0.00  0.00     0.182 A 
ATOM     27  H   LIG d   1      10.256   4.661  -1.680  0.00  0.00     0.454 HD
ATOM     28  H   LIG d   1       9.469   2.594  -2.400  0.00  0.00     0.138 H 
BRANCH  23  29
ATOM     29  N   LIG d   1      10.628   6.833  -2.875  0.00  0.00    -0.289 N 
ATOM     30  H   LIG d   1      11.494   7.176  -3.147  0.00  0.00     0.152 HD
BRANCH  29  31
ATOM     31  C   LIG d   1       9.821   7.574  -1.902  0.00  0.00     0.038 C 
ATOM     32  H   LIG d   1       8.823   7.141  -1.853  0.00  0.00     0.049 H 
ATOM     33  H   LIG d   1       9.749   8.617  -2.210  0.00  0.00     0.049 H 
BRANCH  31  34
ATOM     34  C   LIG d   1      10.481   7.493  -0.525  0.00  0.00     0.063 C 
ATOM     35  H   LIG d   1      10.058   8.259   0.126  0.00  0.00     0.058 H 
ATOM     36  H   LIG d   1      11.554   7.655  -0.626  0.00  0.00     0.058 H 
BRANCH  34  37
ATOM     37  O   LIG d   1      10.245   6.204   0.042  0.00  0.00    -0.381 OA
BRANCH  37  38
ATOM     38  C   LIG d   1      11.164   5.846   1.077  0.00  0.00     0.036 C 
ATOM     39  H   LIG d   1      10.624   5.367   1.893  0.00  0.00     0.052 H 
ATOM     40  H   LIG d   1      11.908   5.156   0.679  0.00  0.00     0.052 H 
ATOM     41  H   LIG d   1      11.662   6.742   1.447  0.00  0.00     0.052 H 
ENDBRANCH  37  38
ENDBRANCH  34  37
ENDBRANCH  31  34
ENDBRANCH  29  31
ENDBRANCH  23  29
ENDBRANCH  16  19
ENDBRANCH   1  14
BRANCH   6  42
ATOM     42  C   LIG d   1       7.335  -2.638  -3.976  0.00  0.00    -0.003 C 
ATOM     43  H   LIG d   1       7.493  -3.676  -3.686  0.00  0.00     0.087 H 
ATOM     44  H   LIG d   1       7.911  -1.984  -3.321  0.00  0.00     0.087 H 
BRANCH  42  45
ATOM     45  C   LIG d   1       5.871  -2.301  -3.862  0.00  0.00     0.022 A 
ATOM     46  C   LIG d   1       5.300  -1.068  -3.314  0.00  0.00     0.008 A 
ATOM     47  C   LIG d   1       3.904  -1.205  -3.418  0.00  0.00     0.047 A 
ATOM     48  C   LIG d   1       5.847   0.096  -2.769  0.00  0.00    -0.052 A 
ATOM     49  N   LIG d   1       3.658  -2.438  -3.979  0.00  0.00    -0.360 N 
ATOM     50  C   LIG d   1       3.083  -0.174  -2.975  0.00  0.00    -0.038 A 
ATOM     51  C   LIG d   1       4.841  -3.076  -4.237  0.00  0.00     0.011 A 
ATOM     52  H   LIG d   1       2.778  -2.801  -4.165  0.00  0.00     0.165 HD
ATOM     53  H   LIG d   1       4.933  -4.058  -4.677  0.00  0.00     0.081 H 
ATOM     54  C   LIG d   1       3.643   0.962  -2.433  0.00  0.00    -0.060 A 
ATOM     55  H   LIG d   1       2.009  -0.269  -3.045  0.00  0.00     0.064 H 
ATOM     56  C   LIG d   1       5.021   1.095  -2.335  0.00  0.00    -0.061 A 
ATOM     57  H   LIG d   1       3.004   1.760  -2.085  0.00  0.00     0.062 H 
ATOM     58  H   LIG d   1       5.445   1.994  -1.914  0.00  0.00     0.062 H 
ATOM     59  H   LIG d   1       6.918   0.205  -2.691  0.00  0.00     0.062 H 
ENDBRANCH  42  45
ENDBRANCH   6  42
TORSDOF 9
ENDMDL
MODEL 5
REMARK VINA RESULT:      -7.0      1.722      4.246
REMARK  9 active torsions:
REMARK  status: ('A' for Active; 'I' for Inactive)
REMARK    1  A    between atoms: C_1  and  O_2 
REMARK    2  A    between atoms: O_2  and  C_3 
REMARK    3  A    between atoms: C_3  and  C_4 
REMARK    4  A    between atoms: C_4  and  N_5 
REMARK    5  A    between atoms: N_5  and  C_6 
REMARK    6  A    between atoms: C_9  and  C_12 
REMARK    7  A    between atoms: C_14  and  C_17 
REMARK    8  A    between atoms: N_22  and  C_23 
REMARK    9  A    between atoms: C_23  and  C_24 
ROOT
ATOM      1  C   LIG d   1       4.892   0.226  -3.514  0.00  0.00     0.060 C 
ATOM      2  H   LIG d   1       4.184   1.002  -3.227  0.00  0.00     0.095 H 
ATOM      3  C   LIG d   1       5.236  -0.675  -2.302  0.00  0.00     0.004 C 
ATOM      4  C   LIG d   1       4.041  -1.654  -2.247  0.00  0.00    -0.007 C 
ATOM      5  C   LIG d   1       3.442  -1.635  -3.667  0.00  0.00    -0.031 C 
ATOM      6  N   LIG d   1       4.272  -0.719  -4.479  0.00  0.00     0.247 N 
ATOM      7  H   LIG d   1       6.168  -1.213  -2.474  0.00  0.00     0.033 H 
ATOM      8  H   LIG d   1       5.294  -0.085  -1.387  0.00  0.00     0.033 H 
ATOM      9  H   LIG d   1       4.384  -2.657  -1.995  0.00  0.00     0.032 H 
ATOM     10  H   LIG d   1       3.304  -1.311  -1.521  0.00  0.00     0.032 H 
ATOM     11  H   LIG d   1       3.468  -2.639  -4.093  0.00  0.00     0.082 H 
ATOM     12  H   LIG d   1       2.416  -1.270  -3.631  0.00  0.00     0.082 H 
ATOM     13  H   LIG d   1       4.988  -1.237  -4.965  0.00  0.00     0.204 HD
ENDROOT
BRANCH   1  14
ATOM     14  C   LIG d   1       6.141   0.836  -4.095  0.00  0.00     0.276 A 
ATOM     15  N   LIG d   1       6.956   1.640  -3.472  0.00  0.00    -0.186 NA
ATOM     16  C   LIG d   1       7.966   1.993  -4.287  0.00  0.00     0.208 A 
ATOM     17  N   LIG d   1       7.792   1.410  -5.448  0.00  0.00    -0.056 NA
ATOM     18  O   LIG d   1       6.602   0.644  -5.338  0.00  0.00    -0.332 OA
BRANCH  16  19
ATOM     19  C   LIG d   1       9.089   2.897  -3.933  0.00  0.00     0.086 A 
ATOM     20  C   LIG d   1       9.143   4.197  -4.449  0.00  0.00    -0.038 A 
ATOM     21  C   LIG d   1      10.205   5.002  -4.091  0.00  0.00     0.027 A 
ATOM     22  H   LIG d   1       8.370   4.562  -5.111  0.00  0.00     0.063 H 
ATOM     23  C   LIG d   1      11.181   4.498  -3.236  0.00  0.00     0.269 A 
ATOM     24  H   LIG d   1      10.278   6.011  -4.471  0.00  0.00     0.070 H 
ATOM     25  N   LIG d   1      11.103   3.261  -2.769  0.00  0.00    -0.198 N 
ATOM     26  C   LIG d   1      10.102   2.463  -3.083  0.00  0.00     0.182 A 
ATOM     27  H   LIG d   1      11.799   2.934  -2.178  0.00  0.00     0.454 HD
ATOM     28  H   LIG d   1      10.070   1.462  -2.680  0.00  0.00     0.138 H 
BRANCH  23  29
ATOM     29  N   LIG d   1      12.253   5.300  -2.871  0.00  0.00    -0.289 N 
ATOM     30  H   LIG d   1      13.103   5.215  -3.332  0.00  0.00     0.152 HD
BRANCH  29  31
ATOM     31  C   LIG d   1      12.103   6.275  -1.788  0.00  0.00     0.038 C 
ATOM     32  H   LIG d   1      11.044   6.427  -1.579  0.00  0.00     0.049 H 
ATOM     33  H   LIG d   1      12.553   7.222  -2.088  0.00  0.00     0.049 H 
BRANCH  31  34
ATOM     34  C   LIG d   1      12.802   5.754  -0.531  0.00  0.00     0.063 C 
ATOM     35  H   LIG d   1      13.874   5.940  -0.609  0.00  0.00     0.058 H 
ATOM     36  H   LIG d   1      12.625   4.683  -0.435  0.00  0.00     0.058 H 
BRANCH  34  37
ATOM     37  O   LIG d   1      12.283   6.427   0.617  0.00  0.00    -0.381 OA
BRANCH  37  38
ATOM     38  C   LIG d   1      11.104   5.829   1.158  0.00  0.00     0.036 C 
ATOM     39  H   LIG d   1      10.969   4.837   0.727  0.00  0.00     0.052 H 
ATOM     40  H   LIG d   1      11.204   5.743   2.240  0.00  0.00     0.052 H 
ATOM     41  H   LIG d   1      10.240   6.448   0.921  0.00  0.00     0.052 H 
ENDBRANCH  37  38
ENDBRANCH  34  37
ENDBRANCH  31  34
ENDBRANCH  29  31
ENDBRANCH  23  29
ENDBRANCH  16  19
ENDBRANCH   1  14
BRANCH   6  42
ATOM     42  C   LIG d   1       3.435   0.014  -5.438  0.00  0.00    -0.003 C 
ATOM     43  H   LIG d   1       2.387  -0.231  -5.266  0.00  0.00     0.087 H 
ATOM     44  H   LIG d   1       3.584   1.086  -5.306  0.00  0.00     0.087 H 
BRANCH  42  45
ATOM     45  C   LIG d   1       3.819  -0.378  -6.841  0.00  0.00     0.022 A 
ATOM     46  C   LIG d   1       3.727   0.463  -8.037  0.00  0.00     0.008 A 
ATOM     47  C   LIG d   1       4.197  -0.325  -9.104  0.00  0.00     0.047 A 
ATOM     48  C   LIG d   1       3.302   1.772  -8.273  0.00  0.00    -0.052 A 
ATOM     49  N   LIG d   1       4.537  -1.553  -8.582  0.00  0.00    -0.360 N 
ATOM     50  C   LIG d   1       4.234   0.214 -10.385  0.00  0.00    -0.038 A 
ATOM     51  C   LIG d   1       4.305  -1.566  -7.233  0.00  0.00     0.011 A 
ATOM     52  H   LIG d   1       4.888  -2.298  -9.094  0.00  0.00     0.165 HD
ATOM     53  H   LIG d   1       4.486  -2.407  -6.581  0.00  0.00     0.081 H 
ATOM     54  C   LIG d   1       3.801   1.505 -10.597  0.00  0.00    -0.060 A 
ATOM     55  H   LIG d   1       4.588  -0.381 -11.213  0.00  0.00     0.064 H 
ATOM     56  C   LIG d   1       3.341   2.280  -9.541  0.00  0.00    -0.061 A 
ATOM     57  H   LIG d   1       3.825   1.921 -11.593  0.00  0.00     0.062 H 
ATOM     58  H   LIG d   1       3.012   3.292  -9.722  0.00  0.00     0.062 H 
ATOM     59  H   LIG d   1       2.942   2.380  -7.456  0.00  0.00     0.062 H 
ENDBRANCH  42  45
ENDBRANCH   6  42
TORSDOF 9
ENDMDL
MODEL 6
REMARK VINA RESULT:      -6.9      2.767      4.528
REMARK  9 active torsions:
REMARK  status: ('A' for Active; 'I' for Inactive)
REMARK    1  A    between atoms: C_1  and  O_2 
REMARK    2  A    between atoms: O_2  and  C_3 
REMARK    3  A    between atoms: C_3  and  C_4 
REMARK    4  A    between atoms: C_4  and  N_5 
REMARK    5  A    between atoms: N_5  and  C_6 
REMARK    6  A    between atoms: C_9  and  C_12 
REMARK    7  A    between atoms: C_14  and  C_17 
REMARK    8  A    between atoms: N_22  and  C_23 
REMARK    9  A    between atoms: C_23  and  C_24 
ROOT
ATOM      1  C   LIG d   1       9.339   1.866  -6.034  0.00  0.00     0.060 C 
ATOM      2  H   LIG d   1       9.957   0.997  -6.260  0.00  0.00     0.095 H 
ATOM      3  C   LIG d   1       9.399   2.894  -7.192  0.00  0.00     0.004 C 
ATOM      4  C   LIG d   1       8.389   2.324  -8.214  0.00  0.00    -0.007 C 
ATOM      5  C   LIG d   1       7.457   1.413  -7.392  0.00  0.00    -0.031 C 
ATOM      6  N   LIG d   1       7.903   1.489  -5.983  0.00  0.00     0.247 N 
ATOM      7  H   LIG d   1       9.086   3.880  -6.848  0.00  0.00     0.033 H 
ATOM      8  H   LIG d   1      10.401   2.934  -7.621  0.00  0.00     0.033 H 
ATOM      9  H   LIG d   1       7.820   3.132  -8.674  0.00  0.00     0.032 H 
ATOM     10  H   LIG d   1       8.909   1.744  -8.977  0.00  0.00     0.032 H 
ATOM     11  H   LIG d   1       6.427   1.762  -7.477  0.00  0.00     0.082 H 
ATOM     12  H   LIG d   1       7.535   0.386  -7.748  0.00  0.00     0.082 H 
ATOM     13  H   LIG d   1       7.377   2.195  -5.491  0.00  0.00     0.204 HD
ENDROOT
BRANCH   1  14
ATOM     14  C   LIG d   1       9.770   2.499  -4.737  0.00  0.00     0.276 A 
ATOM     15  N   LIG d   1       9.550   3.734  -4.383  0.00  0.00    -0.186 NA
ATOM     16  C   LIG d   1      10.071   3.963  -3.164  0.00  0.00     0.208 A 
ATOM     17  N   LIG d   1      10.634   2.860  -2.735  0.00  0.00    -0.056 NA
ATOM     18  O   LIG d   1      10.442   1.889  -3.752  0.00  0.00    -0.332 OA
BRANCH  16  19
ATOM     19  C   LIG d   1      10.020   5.251  -2.429  0.00  0.00     0.086 A 
ATOM     20  C   LIG d   1      10.678   5.395  -1.203  0.00  0.00    -0.038 A 
ATOM     21  C   LIG d   1      10.604   6.612  -0.556  0.00  0.00     0.027 A 
ATOM     22  H   LIG d   1      11.232   4.573  -0.773  0.00  0.00     0.063 H 
ATOM     23  C   LIG d   1       9.882   7.648  -1.140  0.00  0.00     0.269 A 
ATOM     24  H   LIG d   1      11.101   6.758   0.392  0.00  0.00     0.070 H 
ATOM     25  N   LIG d   1       9.265   7.478  -2.301  0.00  0.00    -0.198 N 
ATOM     26  C   LIG d   1       9.317   6.333  -2.952  0.00  0.00     0.182 A 
ATOM     27  H   LIG d   1       8.765   8.216  -2.683  0.00  0.00     0.454 HD
ATOM     28  H   LIG d   1       8.805   6.232  -3.897  0.00  0.00     0.138 H 
BRANCH  23  29
ATOM     29  N   LIG d   1       9.801   8.876  -0.497  0.00  0.00    -0.289 N 
ATOM     30  H   LIG d   1       8.974   9.146  -0.068  0.00  0.00     0.152 HD
BRANCH  29  31
ATOM     31  C   LIG d   1      10.966   9.764  -0.467  0.00  0.00     0.038 C 
ATOM     32  H   LIG d   1      11.877   9.168  -0.432  0.00  0.00     0.049 H 
ATOM     33  H   LIG d   1      10.914  10.400   0.418  0.00  0.00     0.049 H 
BRANCH  31  34
ATOM     34  C   LIG d   1      10.974  10.638  -1.723  0.00  0.00     0.063 C 
ATOM     35  H   LIG d   1      11.258  10.032  -2.584  0.00  0.00     0.058 H 
ATOM     36  H   LIG d   1      11.690  11.449  -1.596  0.00  0.00     0.058 H 
BRANCH  34  37
ATOM     37  O   LIG d   1       9.670  11.182  -1.933  0.00  0.00    -0.381 OA
BRANCH  37  38
ATOM     38  C   LIG d   1       9.240  11.150  -3.295  0.00  0.00     0.036 C 
ATOM     39  H   LIG d   1       9.069  12.168  -3.646  0.00  0.00     0.052 H 
ATOM     40  H   LIG d   1      10.007  10.679  -3.908  0.00  0.00     0.052 H 
ATOM     41  H   LIG d   1       8.314  10.580  -3.370  0.00  0.00     0.052 H 
ENDBRANCH  37  38
ENDBRANCH  34  37
ENDBRANCH  31  34
ENDBRANCH  29  31
ENDBRANCH  23  29
ENDBRANCH  16  19
ENDBRANCH   1  14
BRANCH   6  42
ATOM     42  C   LIG d   1       7.744   0.185  -5.325  0.00  0.00    -0.003 C 
ATOM     43  H   LIG d   1       7.382  -0.544  -6.050  0.00  0.00     0.087 H 
ATOM     44  H   LIG d   1       8.706  -0.141  -4.929  0.00  0.00     0.087 H 
BRANCH  42  45
ATOM     45  C   LIG d   1       6.752   0.310  -4.198  0.00  0.00     0.022 A 
ATOM     46  C   LIG d   1       5.807  -0.716  -3.752  0.00  0.00     0.008 A 
ATOM     47  C   LIG d   1       5.096  -0.149  -2.678  0.00  0.00     0.047 A 
ATOM     48  C   LIG d   1       5.525  -2.020  -4.163  0.00  0.00    -0.052 A 
ATOM     49  N   LIG d   1       5.576   1.129  -2.503  0.00  0.00    -0.360 N 
ATOM     50  C   LIG d   1       4.117  -0.900  -2.037  0.00  0.00    -0.038 A 
ATOM     51  C   LIG d   1       6.562   1.385  -3.417  0.00  0.00     0.011 A 
ATOM     52  H   LIG d   1       5.263   1.755  -1.832  0.00  0.00     0.165 HD
ATOM     53  H   LIG d   1       7.107   2.314  -3.498  0.00  0.00     0.081 H 
ATOM     54  C   LIG d   1       3.848  -2.183  -2.464  0.00  0.00    -0.060 A 
ATOM     55  H   LIG d   1       3.561  -0.476  -1.214  0.00  0.00     0.064 H 
ATOM     56  C   LIG d   1       4.555  -2.739  -3.521  0.00  0.00    -0.061 A 
ATOM     57  H   LIG d   1       3.085  -2.763  -1.968  0.00  0.00     0.062 H 
ATOM     58  H   LIG d   1       4.337  -3.748  -3.840  0.00  0.00     0.062 H 
ATOM     59  H   LIG d   1       6.070  -2.459  -4.985  0.00  0.00     0.062 H 
ENDBRANCH  42  45
ENDBRANCH   6  42
TORSDOF 9
ENDMDL
MODEL 7
REMARK VINA RESULT:      -6.8      6.061     10.430
REMARK  9 active torsions:
REMARK  status: ('A' for Active; 'I' for Inactive)
REMARK    1  A    between atoms: C_1  and  O_2 
REMARK    2  A    between atoms: O_2  and  C_3 
REMARK    3  A    between atoms: C_3  and  C_4 
REMARK    4  A    between atoms: C_4  and  N_5 
REMARK    5  A    between atoms: N_5  and  C_6 
REMARK    6  A    between atoms: C_9  and  C_12 
REMARK    7  A    between atoms: C_14  and  C_17 
REMARK    8  A    between atoms: N_22  and  C_23 
REMARK    9  A    between atoms: C_23  and  C_24 
ROOT
ATOM      1  C   LIG d   1      10.606  10.482  -1.142  0.00  0.00     0.060 C 
ATOM      2  H   LIG d   1       9.903  10.740  -0.351  0.00  0.00     0.095 H 
ATOM      3  C   LIG d   1      11.891  11.340  -1.034  0.00  0.00     0.004 C 
ATOM      4  C   LIG d   1      12.706  10.607   0.056  0.00  0.00    -0.007 C 
ATOM      5  C   LIG d   1      12.152   9.170   0.074  0.00  0.00    -0.031 C 
ATOM      6  N   LIG d   1      11.104   9.093  -0.969  0.00  0.00     0.247 N 
ATOM      7  H   LIG d   1      12.431  11.346  -1.981  0.00  0.00     0.033 H 
ATOM      8  H   LIG d   1      11.651  12.356  -0.720  0.00  0.00     0.033 H 
ATOM      9  H   LIG d   1      13.765  10.602  -0.202  0.00  0.00     0.032 H 
ATOM     10  H   LIG d   1      12.554  11.083   1.025  0.00  0.00     0.032 H 
ATOM     11  H   LIG d   1      12.951   8.462  -0.148  0.00  0.00     0.082 H 
ATOM     12  H   LIG d   1      11.718   8.951   1.049  0.00  0.00     0.082 H 
ATOM     13  H   LIG d   1      11.499   8.755  -1.833  0.00  0.00     0.204 HD
ENDROOT
BRANCH   1  14
ATOM     14  C   LIG d   1       9.965  10.651  -2.496  0.00  0.00     0.276 A 
ATOM     15  N   LIG d   1      10.253   9.965  -3.566  0.00  0.00    -0.186 NA
ATOM     16  C   LIG d   1       9.491  10.377  -4.595  0.00  0.00     0.208 A 
ATOM     17  N   LIG d   1       8.708  11.342  -4.178  0.00  0.00    -0.056 NA
ATOM     18  O   LIG d   1       9.003  11.531  -2.802  0.00  0.00    -0.332 OA
BRANCH  16  19
ATOM     19  C   LIG d   1       9.533   9.833  -5.975  0.00  0.00     0.086 A 
ATOM     20  C   LIG d   1       9.109   8.525  -6.236  0.00  0.00    -0.038 A 
ATOM     21  C   LIG d   1       9.166   8.063  -7.535  0.00  0.00     0.027 A 
ATOM     22  H   LIG d   1       8.744   7.893  -5.439  0.00  0.00     0.063 H 
ATOM     23  C   LIG d   1       9.641   8.906  -8.535  0.00  0.00     0.269 A 
ATOM     24  H   LIG d   1       8.846   7.059  -7.772  0.00  0.00     0.070 H 
ATOM     25  N   LIG d   1      10.041  10.137  -8.254  0.00  0.00    -0.198 N 
ATOM     26  C   LIG d   1       9.997  10.618  -7.027  0.00  0.00     0.182 A 
ATOM     27  H   LIG d   1      10.372  10.702  -8.970  0.00  0.00     0.454 HD
ATOM     28  H   LIG d   1      10.327  11.628  -6.837  0.00  0.00     0.138 H 
BRANCH  23  29
ATOM     29  N   LIG d   1       9.703   8.449  -9.845  0.00  0.00    -0.289 N 
ATOM     30  H   LIG d   1       9.400   9.015 -10.572  0.00  0.00     0.152 HD
BRANCH  29  31
ATOM     31  C   LIG d   1      10.225   7.110 -10.129  0.00  0.00     0.038 C 
ATOM     32  H   LIG d   1      10.320   6.551  -9.198  0.00  0.00     0.049 H 
ATOM     33  H   LIG d   1      11.203   7.195 -10.603  0.00  0.00     0.049 H 
BRANCH  31  34
ATOM     34  C   LIG d   1       9.265   6.377 -11.068  0.00  0.00     0.063 C 
ATOM     35  H   LIG d   1       9.826   5.671 -11.681  0.00  0.00     0.058 H 
ATOM     36  H   LIG d   1       8.764   7.099 -11.712  0.00  0.00     0.058 H 
BRANCH  34  37
ATOM     37  O   LIG d   1       8.292   5.670 -10.298  0.00  0.00    -0.381 OA
BRANCH  37  38
ATOM     38  C   LIG d   1       8.850   4.785  -9.325  0.00  0.00     0.036 C 
ATOM     39  H   LIG d   1       9.464   5.354  -8.626  0.00  0.00     0.052 H 
ATOM     40  H   LIG d   1       8.047   4.289  -8.781  0.00  0.00     0.052 H 
ATOM     41  H   LIG d   1       9.467   4.038  -9.825  0.00  0.00     0.052 H 
ENDBRANCH  37  38
ENDBRANCH  34  37
ENDBRANCH  31  34
ENDBRANCH  29  31
ENDBRANCH  23  29
ENDBRANCH  16  19
ENDBRANCH   1  14
BRANCH   6  42
ATOM     42  C   LIG d   1      10.011   8.214  -0.531  0.00  0.00    -0.003 C 
ATOM     43  H   LIG d   1       9.866   8.324   0.544  0.00  0.00     0.087 H 
ATOM     44  H   LIG d   1       9.094   8.487  -1.052  0.00  0.00     0.087 H 
BRANCH  42  45
ATOM     45  C   LIG d   1      10.362   6.783  -0.847  0.00  0.00     0.022 A 
ATOM     46  C   LIG d   1      10.091   6.075  -2.100  0.00  0.00     0.008 A 
ATOM     47  C   LIG d   1      10.598   4.774  -1.930  0.00  0.00     0.047 A 
ATOM     48  C   LIG d   1       9.484   6.434  -3.305  0.00  0.00    -0.052 A 
ATOM     49  N   LIG d   1      11.126   4.707  -0.660  0.00  0.00    -0.360 N 
ATOM     50  C   LIG d   1      10.488   3.859  -2.971  0.00  0.00    -0.038 A 
ATOM     51  C   LIG d   1      10.976   5.913  -0.030  0.00  0.00     0.011 A 
ATOM     52  H   LIG d   1      11.542   3.923  -0.270  0.00  0.00     0.165 HD
ATOM     53  H   LIG d   1      11.304   6.132   0.975  0.00  0.00     0.081 H 
ATOM     54  C   LIG d   1       9.878   4.231  -4.149  0.00  0.00    -0.060 A 
ATOM     55  H   LIG d   1      10.870   2.855  -2.852  0.00  0.00     0.064 H 
ATOM     56  C   LIG d   1       9.382   5.517  -4.313  0.00  0.00    -0.061 A 
ATOM     57  H   LIG d   1       9.789   3.517  -4.954  0.00  0.00     0.062 H 
ATOM     58  H   LIG d   1       8.912   5.796  -5.245  0.00  0.00     0.062 H 
ATOM     59  H   LIG d   1       9.095   7.433  -3.439  0.00  0.00     0.062 H 
ENDBRANCH  42  45
ENDBRANCH   6  42
TORSDOF 9
ENDMDL
MODEL 8
REMARK VINA RESULT:      -6.6      5.170      8.842
REMARK  9 active torsions:
REMARK  status: ('A' for Active; 'I' for Inactive)
REMARK    1  A    between atoms: C_1  and  O_2 
REMARK    2  A    between atoms: O_2  and  C_3 
REMARK    3  A    between atoms: C_3  and  C_4 
REMARK    4  A    between atoms: C_4  and  N_5 
REMARK    5  A    between atoms: N_5  and  C_6 
REMARK    6  A    between atoms: C_9  and  C_12 
REMARK    7  A    between atoms: C_14  and  C_17 
REMARK    8  A    between atoms: N_22  and  C_23 
REMARK    9  A    between atoms: C_23  and  C_24 
ROOT
ATOM      1  C   LIG d   1       2.656  -0.226  -9.448  0.00  0.00     0.060 C 
ATOM      2  H   LIG d   1       1.687   0.234  -9.261  0.00  0.00     0.095 H 
ATOM      3  C   LIG d   1       3.313   0.378 -10.714  0.00  0.00     0.004 C 
ATOM      4  C   LIG d   1       3.934   1.692 -10.189  0.00  0.00    -0.007 C 
ATOM      5  C   LIG d   1       4.094   1.483  -8.671  0.00  0.00    -0.031 C 
ATOM      6  N   LIG d   1       3.616   0.116  -8.367  0.00  0.00     0.247 N 
ATOM      7  H   LIG d   1       4.086  -0.286 -11.102  0.00  0.00     0.033 H 
ATOM      8  H   LIG d   1       2.562   0.583 -11.478  0.00  0.00     0.033 H 
ATOM      9  H   LIG d   1       4.905   1.864 -10.653  0.00  0.00     0.032 H 
ATOM     10  H   LIG d   1       3.266   2.531 -10.387  0.00  0.00     0.032 H 
ATOM     11  H   LIG d   1       5.144   1.582  -8.392  0.00  0.00     0.082 H 
ATOM     12  H   LIG d   1       3.493   2.212  -8.131  0.00  0.00     0.082 H 
ATOM     13  H   LIG d   1       4.390  -0.532  -8.372  0.00  0.00     0.204 HD
ENDROOT
BRANCH   1  14
ATOM     14  C   LIG d   1       2.516  -1.721  -9.582  0.00  0.00     0.276 A 
ATOM     15  N   LIG d   1       3.175  -2.612  -8.896  0.00  0.00    -0.186 NA
ATOM     16  C   LIG d   1       2.802  -3.848  -9.271  0.00  0.00     0.208 A 
ATOM     17  N   LIG d   1       1.897  -3.747 -10.212  0.00  0.00    -0.056 NA
ATOM     18  O   LIG d   1       1.693  -2.357 -10.425  0.00  0.00    -0.332 OA
BRANCH  16  19
ATOM     19  C   LIG d   1       3.334  -5.118  -8.715  0.00  0.00     0.086 A 
ATOM     20  C   LIG d   1       3.293  -6.295  -9.470  0.00  0.00    -0.038 A 
ATOM     21  C   LIG d   1       3.799  -7.452  -8.912  0.00  0.00     0.027 A 
ATOM     22  H   LIG d   1       2.875  -6.298 -10.467  0.00  0.00     0.063 H 
ATOM     23  C   LIG d   1       4.329  -7.409  -7.626  0.00  0.00     0.269 A 
ATOM     24  H   LIG d   1       3.784  -8.378  -9.467  0.00  0.00     0.070 H 
ATOM     25  N   LIG d   1       4.348  -6.278  -6.935  0.00  0.00    -0.198 N 
ATOM     26  C   LIG d   1       3.879  -5.153  -7.435  0.00  0.00     0.182 A 
ATOM     27  H   LIG d   1       4.719  -6.279  -6.039  0.00  0.00     0.454 HD
ATOM     28  H   LIG d   1       3.915  -4.250  -6.843  0.00  0.00     0.138 H 
BRANCH  23  29
ATOM     29  N   LIG d   1       4.840  -8.567  -7.056  0.00  0.00    -0.289 N 
ATOM     30  H   LIG d   1       4.692  -9.425  -7.484  0.00  0.00     0.152 HD
BRANCH  29  31
ATOM     31  C   LIG d   1       5.602  -8.494  -5.807  0.00  0.00     0.038 C 
ATOM     32  H   LIG d   1       5.800  -7.451  -5.563  0.00  0.00     0.049 H 
ATOM     33  H   LIG d   1       6.547  -9.024  -5.927  0.00  0.00     0.049 H 
BRANCH  31  34
ATOM     34  C   LIG d   1       4.796  -9.139  -4.679  0.00  0.00     0.063 C 
ATOM     35  H   LIG d   1       4.239  -8.368  -4.144  0.00  0.00     0.058 H 
ATOM     36  H   LIG d   1       5.473  -9.642  -3.989  0.00  0.00     0.058 H 
BRANCH  34  37
ATOM     37  O   LIG d   1       3.883 -10.090  -5.228  0.00  0.00    -0.381 OA
BRANCH  37  38
ATOM     38  C   LIG d   1       3.911 -11.364  -4.581  0.00  0.00     0.036 C 
ATOM     39  H   LIG d   1       2.939 -11.564  -4.131  0.00  0.00     0.052 H 
ATOM     40  H   LIG d   1       4.138 -12.139  -5.313  0.00  0.00     0.052 H 
ATOM     41  H   LIG d   1       4.677 -11.361  -3.806  0.00  0.00     0.052 H 
ENDBRANCH  37  38
ENDBRANCH  34  37
ENDBRANCH  31  34
ENDBRANCH  29  31
ENDBRANCH  23  29
ENDBRANCH  16  19
ENDBRANCH   1  14
BRANCH   6  42
ATOM     42  C   LIG d   1       2.941   0.090  -7.062  0.00  0.00    -0.003 C 
ATOM     43  H   LIG d   1       2.622   1.098  -6.799  0.00  0.00     0.087 H 
ATOM     44  H   LIG d   1       2.070  -0.565  -7.117  0.00  0.00     0.087 H 
BRANCH  42  45
ATOM     45  C   LIG d   1       3.892  -0.427  -6.015  0.00  0.00     0.022 A 
ATOM     46  C   LIG d   1       3.921  -0.048  -4.601  0.00  0.00     0.008 A 
ATOM     47  C   LIG d   1       4.971  -0.784  -4.021  0.00  0.00     0.047 A 
ATOM     48  C   LIG d   1       3.165   0.823  -3.814  0.00  0.00    -0.052 A 
ATOM     49  N   LIG d   1       5.535  -1.543  -5.022  0.00  0.00    -0.360 N 
ATOM     50  C   LIG d   1       5.240  -0.636  -2.665  0.00  0.00    -0.038 A 
ATOM     51  C   LIG d   1       4.880  -1.317  -6.203  0.00  0.00     0.011 A 
ATOM     52  H   LIG d   1       6.284  -2.147  -4.908  0.00  0.00     0.165 HD
ATOM     53  H   LIG d   1       5.121  -1.785  -7.145  0.00  0.00     0.081 H 
ATOM     54  C   LIG d   1       4.487   0.236  -1.909  0.00  0.00    -0.060 A 
ATOM     55  H   LIG d   1       6.045  -1.192  -2.209  0.00  0.00     0.064 H 
ATOM     56  C   LIG d   1       3.451   0.958  -2.484  0.00  0.00    -0.061 A 
ATOM     57  H   LIG d   1       4.701   0.354  -0.857  0.00  0.00     0.062 H 
ATOM     58  H   LIG d   1       2.865   1.632  -1.876  0.00  0.00     0.062 H 
ATOM     59  H   LIG d   1       2.357   1.389  -4.255  0.00  0.00     0.062 H 
ENDBRANCH  42  45
ENDBRANCH   6  42
TORSDOF 9
ENDMDL
MODEL 9
REMARK VINA RESULT:      -6.5      5.081      8.719
REMARK  9 active torsions:
REMARK  status: ('A' for Active; 'I' for Inactive)
REMARK    1  A    between atoms: C_1  and  O_2 
REMARK    2  A    between atoms: O_2  and  C_3 
REMARK    3  A    between atoms: C_3  and  C_4 
REMARK    4  A    between atoms: C_4  and  N_5 
REMARK    5  A    between atoms: N_5  and  C_6 
REMARK    6  A    between atoms: C_9  and  C_12 
REMARK    7  A    between atoms: C_14  and  C_17 
REMARK    8  A    between atoms: N_22  and  C_23 
REMARK    9  A    between atoms: C_23  and  C_24 
ROOT
ATOM      1  C   LIG d   1       3.485  -0.298  -8.626  0.00  0.00     0.060 C 
ATOM      2  H   LIG d   1       2.498  -0.651  -8.921  0.00  0.00     0.095 H 
ATOM      3  C   LIG d   1       4.144   0.507  -9.775  0.00  0.00     0.004 C 
ATOM      4  C   LIG d   1       3.498   1.904  -9.634  0.00  0.00    -0.007 C 
ATOM      5  C   LIG d   1       3.006   1.973  -8.176  0.00  0.00    -0.031 C 
ATOM      6  N   LIG d   1       3.380   0.697  -7.528  0.00  0.00     0.247 N 
ATOM      7  H   LIG d   1       5.223   0.564  -9.636  0.00  0.00     0.033 H 
ATOM      8  H   LIG d   1       3.902   0.065 -10.743  0.00  0.00     0.033 H 
ATOM      9  H   LIG d   1       4.237   2.683  -9.822  0.00  0.00     0.032 H 
ATOM     10  H   LIG d   1       2.658   2.004 -10.322  0.00  0.00     0.032 H 
ATOM     11  H   LIG d   1       3.486   2.807  -7.662  0.00  0.00     0.082 H 
ATOM     12  H   LIG d   1       1.924   2.094  -8.155  0.00  0.00     0.082 H 
ATOM     13  H   LIG d   1       4.268   0.793  -7.060  0.00  0.00     0.204 HD
ENDROOT
BRANCH   1  14
ATOM     14  C   LIG d   1       4.361  -1.453  -8.215  0.00  0.00     0.276 A 
ATOM     15  N   LIG d   1       3.944  -2.638  -7.869  0.00  0.00    -0.186 NA
ATOM     16  C   LIG d   1       4.993  -3.424  -7.565  0.00  0.00     0.208 A 
ATOM     17  N   LIG d   1       6.095  -2.730  -7.714  0.00  0.00    -0.056 NA
ATOM     18  O   LIG d   1       5.698  -1.436  -8.146  0.00  0.00    -0.332 OA
BRANCH  16  19
ATOM     19  C   LIG d   1       4.916  -4.839  -7.126  0.00  0.00     0.086 A 
ATOM     20  C   LIG d   1       4.833  -5.157  -5.766  0.00  0.00    -0.038 A 
ATOM     21  C   LIG d   1       4.763  -6.488  -5.405  0.00  0.00     0.027 A 
ATOM     22  H   LIG d   1       4.825  -4.379  -5.015  0.00  0.00     0.063 H 
ATOM     23  C   LIG d   1       4.776  -7.462  -6.399  0.00  0.00     0.269 A 
ATOM     24  H   LIG d   1       4.698  -6.769  -4.364  0.00  0.00     0.070 H 
ATOM     25  N   LIG d   1       4.860  -7.128  -7.678  0.00  0.00    -0.198 N 
ATOM     26  C   LIG d   1       4.924  -5.869  -8.063  0.00  0.00     0.182 A 
ATOM     27  H   LIG d   1       4.871  -7.828  -8.350  0.00  0.00     0.454 HD
ATOM     28  H   LIG d   1       4.987  -5.634  -9.115  0.00  0.00     0.138 H 
BRANCH  23  29
ATOM     29  N   LIG d   1       4.705  -8.803  -6.045  0.00  0.00    -0.289 N 
ATOM     30  H   LIG d   1       4.617  -9.482  -6.732  0.00  0.00     0.152 HD
BRANCH  29  31
ATOM     31  C   LIG d   1       4.763  -9.192  -4.634  0.00  0.00     0.038 C 
ATOM     32  H   LIG d   1       3.957  -8.702  -4.088  0.00  0.00     0.049 H 
ATOM     33  H   LIG d   1       5.722  -8.888  -4.214  0.00  0.00     0.049 H 
BRANCH  31  34
ATOM     34  C   LIG d   1       4.612 -10.709  -4.516  0.00  0.00     0.063 C 
ATOM     35  H   LIG d   1       4.601 -10.992  -3.463  0.00  0.00     0.058 H 
ATOM     36  H   LIG d   1       5.449 -11.198  -5.015  0.00  0.00     0.058 H 
BRANCH  34  37
ATOM     37  O   LIG d   1       3.389 -11.115  -5.131  0.00  0.00    -0.381 OA
BRANCH  37  38
ATOM     38  C   LIG d   1       3.498 -12.308  -5.912  0.00  0.00     0.036 C 
ATOM     39  H   LIG d   1       4.228 -12.157  -6.706  0.00  0.00     0.052 H 
ATOM     40  H   LIG d   1       3.820 -13.131  -5.274  0.00  0.00     0.052 H 
ATOM     41  H   LIG d   1       2.529 -12.546  -6.350  0.00  0.00     0.052 H 
ENDBRANCH  37  38
ENDBRANCH  34  37
ENDBRANCH  31  34
ENDBRANCH  29  31
ENDBRANCH  23  29
ENDBRANCH  16  19
ENDBRANCH   1  14
BRANCH   6  42
ATOM     42  C   LIG d   1       2.343   0.287  -6.571  0.00  0.00    -0.003 C 
ATOM     43  H   LIG d   1       1.420   0.827  -6.783  0.00  0.00     0.087 H 
ATOM     44  H   LIG d   1       2.167  -0.785  -6.663  0.00  0.00     0.087 H 
BRANCH  42  45
ATOM     45  C   LIG d   1       2.800   0.603  -5.171  0.00  0.00     0.022 A 
ATOM     46  C   LIG d   1       3.403  -0.332  -4.219  0.00  0.00     0.008 A 
ATOM     47  C   LIG d   1       3.664   0.412  -3.053  0.00  0.00     0.047 A 
ATOM     48  C   LIG d   1       3.732  -1.689  -4.267  0.00  0.00    -0.052 A 
ATOM     49  N   LIG d   1       3.236   1.699  -3.290  0.00  0.00    -0.360 N 
ATOM     50  C   LIG d   1       4.249  -0.217  -1.960  0.00  0.00    -0.038 A 
ATOM     51  C   LIG d   1       2.724   1.794  -4.556  0.00  0.00     0.011 A 
ATOM     52  H   LIG d   1       3.289   2.430  -2.655  0.00  0.00     0.165 HD
ATOM     53  H   LIG d   1       2.320   2.694  -4.995  0.00  0.00     0.081 H 
ATOM     54  C   LIG d   1       4.558  -1.559  -2.026  0.00  0.00    -0.060 A 
ATOM     55  H   LIG d   1       4.451   0.342  -1.058  0.00  0.00     0.064 H 
ATOM     56  C   LIG d   1       4.302  -2.288  -3.178  0.00  0.00    -0.061 A 
ATOM     57  H   LIG d   1       5.008  -2.046  -1.174  0.00  0.00     0.062 H 
ATOM     58  H   LIG d   1       4.556  -3.337  -3.217  0.00  0.00     0.062 H 
ATOM     59  H   LIG d   1       3.536  -2.262  -5.161  0.00  0.00     0.062 H 
ENDBRANCH  42  45
ENDBRANCH   6  42
TORSDOF 9
ENDMDL
