MODEL 1
REMARK VINA RESULT:      -6.6      0.000      0.000
REMARK  8 active torsions:
REMARK  status: ('A' for Active; 'I' for Inactive)
REMARK    1  A    between atoms: C_1  and  C_2 
REMARK    2  A    between atoms: C_2  and  C_3 
REMARK    3  A    between atoms: C_2  and  N_4 
REMARK       I    between atoms: N_4  and  C_5 
REMARK       I    between atoms: C_5  and  N_7 
REMARK    4  A    between atoms: N_7  and  C_8 
REMARK       I    between atoms: N_12  and  C_26 
REMARK    5  A    between atoms: C_13  and  C_15 
REMARK       I    between atoms: C_15  and  N_17 
REMARK    6  A    between atoms: C_21  and  C_23 
REMARK       I    between atoms: C_23  and  N_25 
REMARK    7  A    between atoms: C_26  and  C_28 
REMARK    8  A    between atoms: N_32  and  C_33 
ROOT
ATOM      1  C   LIG d   1       7.964  -0.947  -5.544  0.00  0.00     0.053 C 
ATOM      2  H   LIG d   1       7.720  -0.210  -6.310  0.00  0.00     0.052 H 
ATOM      3  C   LIG d   1       8.528  -2.242  -6.188  0.00  0.00    -0.016 C 
ATOM      4  C   LIG d   1       7.227  -2.984  -6.584  0.00  0.00     0.018 C 
ATOM      5  N   LIG d   1       6.281  -2.695  -5.491  0.00  0.00    -0.283 N 
ATOM      6  C   LIG d   1       6.685  -1.442  -4.835  0.00  0.00     0.121 C 
ATOM      7  H   LIG d   1       6.893  -1.624  -3.781  0.00  0.00     0.062 H 
ATOM      8  C   LIG d   1       5.219  -3.452  -5.150  0.00  0.00     0.264 C 
ATOM      9  O   LIG d   1       4.564  -3.172  -4.164  0.00  0.00    -0.268 OA
ATOM     10  H   LIG d   1       9.128  -2.011  -7.068  0.00  0.00     0.030 H 
ATOM     11  H   LIG d   1       9.104  -2.819  -5.466  0.00  0.00     0.030 H 
ATOM     12  H   LIG d   1       6.844  -2.602  -7.529  0.00  0.00     0.046 H 
ATOM     13  H   LIG d   1       7.409  -4.056  -6.653  0.00  0.00     0.046 H 
ENDROOT
BRANCH   6  14
ATOM     14  C   LIG d   1       5.592  -0.415  -4.974  0.00  0.00     0.239 C 
ATOM     15  O   LIG d   1       5.287   0.002  -6.070  0.00  0.00    -0.274 OA
ATOM     16  N   LIG d   1       4.954   0.041  -3.877  0.00  0.00    -0.288 N 
ATOM     17  C   LIG d   1       3.874   1.038  -3.868  0.00  0.00     0.102 C 
ATOM     18  C   LIG d   1       5.222  -0.378  -2.490  0.00  0.00     0.016 C 
ATOM     19  C   LIG d   1       3.473   1.266  -2.395  0.00  0.00    -0.024 C 
ATOM     20  H   LIG d   1       4.227   1.972  -4.306  0.00  0.00     0.060 H 
ATOM     21  C   LIG d   1       4.733   0.804  -1.617  0.00  0.00    -0.035 C 
ATOM     22  H   LIG d   1       2.611   0.653  -2.130  0.00  0.00     0.029 H 
ATOM     23  H   LIG d   1       3.269   2.320  -2.208  0.00  0.00     0.029 H 
ATOM     24  H   LIG d   1       4.471   0.467  -0.613  0.00  0.00     0.028 H 
ATOM     25  H   LIG d   1       5.480   1.597  -1.577  0.00  0.00     0.028 H 
ATOM     26  H   LIG d   1       6.290  -0.541  -2.343  0.00  0.00     0.046 H 
ATOM     27  H   LIG d   1       4.664  -1.283  -2.251  0.00  0.00     0.046 H 
BRANCH  17  28
ATOM     28  C   LIG d   1       2.692   0.521  -4.647  0.00  0.00     0.231 C 
ATOM     29  O   LIG d   1       2.334   1.091  -5.656  0.00  0.00    -0.274 OA
ATOM     30  N   LIG d   1       2.032  -0.575  -4.223  0.00  0.00    -0.328 N 
ATOM     31  H   LIG d   1       2.319  -1.031  -3.416  0.00  0.00     0.145 HD
ATOM     32  H   LIG d   1       1.271  -0.908  -4.724  0.00  0.00     0.145 HD
ENDBRANCH  17  28
ENDBRANCH   6  14
BRANCH   1  33
ATOM     33  N   LIG d   1       8.913  -0.395  -4.575  0.00  0.00    -0.294 N 
ATOM     34  C   LIG d   1       9.371   0.864  -4.722  0.00  0.00     0.300 C 
ATOM     35  N   LIG d   1      10.244   1.373  -3.830  0.00  0.00    -0.297 N 
ATOM     36  O   LIG d   1       8.997   1.542  -5.660  0.00  0.00    -0.253 OA
ATOM     37  H   LIG d   1      10.543   0.832  -3.081  0.00  0.00     0.150 HD
ATOM     38  H   LIG d   1       9.212  -0.935  -3.827  0.00  0.00     0.151 HD
BRANCH  35  39
ATOM     39  C   LIG d   1      10.742   2.740  -3.989  0.00  0.00     0.019 C 
ATOM     40  H   LIG d   1      10.395   3.145  -4.941  0.00  0.00     0.049 H 
BRANCH  39  41
ATOM     41  C   LIG d   1      10.218   3.611  -2.845  0.00  0.00    -0.047 C 
ATOM     42  H   LIG d   1      10.534   4.643  -2.999  0.00  0.00     0.025 H 
ATOM     43  H   LIG d   1       9.129   3.564  -2.823  0.00  0.00     0.025 H 
ATOM     44  H   LIG d   1      10.616   3.246  -1.899  0.00  0.00     0.025 H 
ENDBRANCH  39  41
BRANCH  39  45
ATOM     45  C   LIG d   1      12.271   2.733  -3.965  0.00  0.00    -0.047 C 
ATOM     46  H   LIG d   1      12.644   3.722  -4.232  0.00  0.00     0.025 H 
ATOM     47  H   LIG d   1      12.618   2.473  -2.965  0.00  0.00     0.025 H 
ATOM     48  H   LIG d   1      12.642   1.999  -4.680  0.00  0.00     0.025 H 
ENDBRANCH  39  45
ENDBRANCH  35  39
ENDBRANCH   1  33
BRANCH   8  49
ATOM     49  C   LIG d   1       4.855  -4.615  -5.966  0.00  0.00     0.104 A 
ATOM     50  N   LIG d   1       4.252  -4.585  -7.203  0.00  0.00    -0.346 N 
ATOM     51  C   LIG d   1       4.081  -5.858  -7.633  0.00  0.00     0.005 A 
ATOM     52  C   LIG d   1       4.556  -6.707  -6.690  0.00  0.00    -0.043 A 
ATOM     53  H   LIG d   1       3.635  -6.150  -8.573  0.00  0.00     0.081 H 
ATOM     54  C   LIG d   1       5.048  -5.938  -5.630  0.00  0.00    -0.032 A 
ATOM     55  H   LIG d   1       4.555  -7.785  -6.747  0.00  0.00     0.063 H 
ATOM     56  H   LIG d   1       5.494  -6.311  -4.721  0.00  0.00     0.064 H 
BRANCH  50  57
ATOM     57  C   LIG d   1       3.863  -3.376  -7.934  0.00  0.00     0.012 C 
ATOM     58  H   LIG d   1       4.290  -2.501  -7.444  0.00  0.00     0.046 H 
ATOM     59  H   LIG d   1       4.234  -3.436  -8.957  0.00  0.00     0.046 H 
ATOM     60  H   LIG d   1       2.777  -3.293  -7.946  0.00  0.00     0.046 H 
ENDBRANCH  50  57
ENDBRANCH   8  49
TORSDOF 8
ENDMDL
MODEL 2
REMARK VINA RESULT:      -6.5      3.388      4.582
REMARK  8 active torsions:
REMARK  status: ('A' for Active; 'I' for Inactive)
REMARK    1  A    between atoms: C_1  and  C_2 
REMARK    2  A    between atoms: C_2  and  C_3 
REMARK    3  A    between atoms: C_2  and  N_4 
REMARK       I    between atoms: N_4  and  C_5 
REMARK       I    between atoms: C_5  and  N_7 
REMARK    4  A    between atoms: N_7  and  C_8 
REMARK       I    between atoms: N_12  and  C_26 
REMARK    5  A    between atoms: C_13  and  C_15 
REMARK       I    between atoms: C_15  and  N_17 
REMARK    6  A    between atoms: C_21  and  C_23 
REMARK       I    between atoms: C_23  and  N_25 
REMARK    7  A    between atoms: C_26  and  C_28 
REMARK    8  A    between atoms: N_32  and  C_33 
ROOT
ATOM      1  C   LIG d   1       7.445  -2.028  -6.471  0.00  0.00     0.053 C 
ATOM      2  H   LIG d   1       7.985  -1.158  -6.096  0.00  0.00     0.052 H 
ATOM      3  C   LIG d   1       7.757  -2.262  -7.973  0.00  0.00    -0.016 C 
ATOM      4  C   LIG d   1       6.774  -1.275  -8.652  0.00  0.00     0.018 C 
ATOM      5  N   LIG d   1       5.555  -1.328  -7.824  0.00  0.00    -0.283 N 
ATOM      6  C   LIG d   1       5.923  -1.769  -6.470  0.00  0.00     0.121 C 
ATOM      7  H   LIG d   1       5.392  -2.687  -6.220  0.00  0.00     0.062 H 
ATOM      8  C   LIG d   1       4.310  -1.020  -8.238  0.00  0.00     0.264 C 
ATOM      9  O   LIG d   1       3.362  -1.198  -7.496  0.00  0.00    -0.268 OA
ATOM     10  H   LIG d   1       8.791  -2.002  -8.203  0.00  0.00     0.030 H 
ATOM     11  H   LIG d   1       7.541  -3.290  -8.262  0.00  0.00     0.030 H 
ATOM     12  H   LIG d   1       7.189  -0.268  -8.654  0.00  0.00     0.046 H 
ATOM     13  H   LIG d   1       6.555  -1.598  -9.669  0.00  0.00     0.046 H 
ENDROOT
BRANCH   6  14
ATOM     14  C   LIG d   1       5.587  -0.692  -5.471  0.00  0.00     0.239 C 
ATOM     15  O   LIG d   1       5.997   0.437  -5.635  0.00  0.00    -0.274 OA
ATOM     16  N   LIG d   1       4.832  -0.986  -4.393  0.00  0.00    -0.288 N 
ATOM     17  C   LIG d   1       4.430  -0.037  -3.345  0.00  0.00     0.102 C 
ATOM     18  C   LIG d   1       4.270  -2.310  -4.072  0.00  0.00     0.016 C 
ATOM     19  C   LIG d   1       3.599  -0.823  -2.309  0.00  0.00    -0.024 C 
ATOM     20  H   LIG d   1       5.315   0.387  -2.869  0.00  0.00     0.060 H 
ATOM     21  C   LIG d   1       4.054  -2.289  -2.539  0.00  0.00    -0.035 C 
ATOM     22  H   LIG d   1       2.533  -0.715  -2.507  0.00  0.00     0.029 H 
ATOM     23  H   LIG d   1       3.838  -0.499  -1.295  0.00  0.00     0.029 H 
ATOM     24  H   LIG d   1       3.274  -2.991  -2.243  0.00  0.00     0.028 H 
ATOM     25  H   LIG d   1       4.985  -2.496  -2.009  0.00  0.00     0.028 H 
ATOM     26  H   LIG d   1       4.975  -3.097  -4.345  0.00  0.00     0.046 H 
ATOM     27  H   LIG d   1       3.321  -2.456  -4.587  0.00  0.00     0.046 H 
BRANCH  17  28
ATOM     28  C   LIG d   1       3.594   1.065  -3.943  0.00  0.00     0.231 C 
ATOM     29  O   LIG d   1       3.611   2.174  -3.453  0.00  0.00    -0.274 OA
ATOM     30  N   LIG d   1       2.827   0.818  -5.024  0.00  0.00    -0.328 N 
ATOM     31  H   LIG d   1       2.814  -0.070  -5.417  0.00  0.00     0.145 HD
ATOM     32  H   LIG d   1       2.288   1.527  -5.409  0.00  0.00     0.145 HD
ENDBRANCH  17  28
ENDBRANCH   6  14
BRANCH   1  33
ATOM     33  N   LIG d   1       7.768  -3.220  -5.684  0.00  0.00    -0.294 N 
ATOM     34  C   LIG d   1       8.716  -3.159  -4.727  0.00  0.00     0.300 C 
ATOM     35  N   LIG d   1       9.013  -4.256  -4.002  0.00  0.00    -0.297 N 
ATOM     36  O   LIG d   1       9.303  -2.115  -4.518  0.00  0.00    -0.253 OA
ATOM     37  H   LIG d   1       8.545  -5.089  -4.168  0.00  0.00     0.150 HD
ATOM     38  H   LIG d   1       7.300  -4.053  -5.850  0.00  0.00     0.151 HD
BRANCH  35  39
ATOM     39  C   LIG d   1      10.042  -4.190  -2.962  0.00  0.00     0.019 C 
ATOM     40  H   LIG d   1      10.132  -3.164  -2.604  0.00  0.00     0.049 H 
BRANCH  39  41
ATOM     41  C   LIG d   1       9.652  -5.104  -1.798  0.00  0.00    -0.047 C 
ATOM     42  H   LIG d   1       9.642  -4.528  -0.873  0.00  0.00     0.025 H 
ATOM     43  H   LIG d   1       8.660  -5.518  -1.980  0.00  0.00     0.025 H 
ATOM     44  H   LIG d   1      10.375  -5.914  -1.715  0.00  0.00     0.025 H 
ENDBRANCH  39  41
BRANCH  39  45
ATOM     45  C   LIG d   1      11.383  -4.647  -3.542  0.00  0.00    -0.047 C 
ATOM     46  H   LIG d   1      12.050  -3.790  -3.634  0.00  0.00     0.025 H 
ATOM     47  H   LIG d   1      11.832  -5.387  -2.879  0.00  0.00     0.025 H 
ATOM     48  H   LIG d   1      11.221  -5.091  -4.524  0.00  0.00     0.025 H 
ENDBRANCH  39  45
ENDBRANCH  35  39
ENDBRANCH   1  33
BRANCH   8  49
ATOM     49  C   LIG d   1       4.098  -0.473  -9.582  0.00  0.00     0.104 A 
ATOM     50  N   LIG d   1       4.260   0.839  -9.961  0.00  0.00    -0.346 N 
ATOM     51  C   LIG d   1       3.973   0.948 -11.281  0.00  0.00     0.005 A 
ATOM     52  C   LIG d   1       3.619  -0.271 -11.754  0.00  0.00    -0.043 A 
ATOM     53  H   LIG d   1       4.013   1.859 -11.861  0.00  0.00     0.081 H 
ATOM     54  C   LIG d   1       3.693  -1.180 -10.694  0.00  0.00    -0.032 A 
ATOM     55  H   LIG d   1       3.333  -0.500 -12.770  0.00  0.00     0.063 H 
ATOM     56  H   LIG d   1       3.474  -2.236 -10.739  0.00  0.00     0.064 H 
BRANCH  50  57
ATOM     57  C   LIG d   1       4.679   1.937  -9.086  0.00  0.00     0.012 C 
ATOM     58  H   LIG d   1       4.868   1.551  -8.084  0.00  0.00     0.046 H 
ATOM     59  H   LIG d   1       5.589   2.388  -9.478  0.00  0.00     0.046 H 
ATOM     60  H   LIG d   1       3.890   2.688  -9.043  0.00  0.00     0.046 H 
ENDBRANCH  50  57
ENDBRANCH   8  49
TORSDOF 8
ENDMDL
MODEL 3
REMARK VINA RESULT:      -6.3      2.937      6.885
REMARK  8 active torsions:
REMARK  status: ('A' for Active; 'I' for Inactive)
REMARK    1  A    between atoms: C_1  and  C_2 
REMARK    2  A    between atoms: C_2  and  C_3 
REMARK    3  A    between atoms: C_2  and  N_4 
REMARK       I    between atoms: N_4  and  C_5 
REMARK       I    between atoms: C_5  and  N_7 
REMARK    4  A    between atoms: N_7  and  C_8 
REMARK       I    between atoms: N_12  and  C_26 
REMARK    5  A    between atoms: C_13  and  C_15 
REMARK       I    between atoms: C_15  and  N_17 
REMARK    6  A    between atoms: C_21  and  C_23 
REMARK       I    between atoms: C_23  and  N_25 
REMARK    7  A    between atoms: C_26  and  C_28 
REMARK    8  A    between atoms: N_32  and  C_33 
ROOT
ATOM      1  C   LIG d   1       5.002  -3.670  -7.266  0.00  0.00     0.053 C 
ATOM      2  H   LIG d   1       6.086  -3.745  -7.181  0.00  0.00     0.052 H 
ATOM      3  C   LIG d   1       4.583  -3.407  -8.738  0.00  0.00    -0.016 C 
ATOM      4  C   LIG d   1       4.766  -1.872  -8.843  0.00  0.00     0.018 C 
ATOM      5  N   LIG d   1       4.337  -1.350  -7.532  0.00  0.00    -0.283 N 
ATOM      6  C   LIG d   1       4.482  -2.417  -6.530  0.00  0.00     0.121 C 
ATOM      7  H   LIG d   1       3.516  -2.631  -6.072  0.00  0.00     0.062 H 
ATOM      8  C   LIG d   1       3.889  -0.102  -7.292  0.00  0.00     0.264 C 
ATOM      9  O   LIG d   1       3.464   0.189  -6.190  0.00  0.00    -0.268 OA
ATOM     10  H   LIG d   1       5.245  -3.927  -9.431  0.00  0.00     0.030 H 
ATOM     11  H   LIG d   1       3.545  -3.689  -8.906  0.00  0.00     0.030 H 
ATOM     12  H   LIG d   1       5.811  -1.626  -9.026  0.00  0.00     0.046 H 
ATOM     13  H   LIG d   1       4.136  -1.469  -9.635  0.00  0.00     0.046 H 
ENDROOT
BRANCH   6  14
ATOM     14  C   LIG d   1       5.470  -1.996  -5.473  0.00  0.00     0.239 C 
ATOM     15  O   LIG d   1       6.645  -1.891  -5.750  0.00  0.00    -0.274 OA
ATOM     16  N   LIG d   1       5.046  -1.739  -4.219  0.00  0.00    -0.288 N 
ATOM     17  C   LIG d   1       5.898  -1.322  -3.096  0.00  0.00     0.102 C 
ATOM     18  C   LIG d   1       3.652  -1.827  -3.748  0.00  0.00     0.016 C 
ATOM     19  C   LIG d   1       4.986  -1.171  -1.860  0.00  0.00    -0.024 C 
ATOM     20  H   LIG d   1       6.659  -2.080  -2.907  0.00  0.00     0.060 H 
ATOM     21  C   LIG d   1       3.763  -2.057  -2.220  0.00  0.00    -0.035 C 
ATOM     22  H   LIG d   1       4.683  -0.132  -1.729  0.00  0.00     0.029 H 
ATOM     23  H   LIG d   1       5.483  -1.545  -0.965  0.00  0.00     0.029 H 
ATOM     24  H   LIG d   1       2.866  -1.712  -1.706  0.00  0.00     0.028 H 
ATOM     25  H   LIG d   1       3.962  -3.105  -1.995  0.00  0.00     0.028 H 
ATOM     26  H   LIG d   1       3.145  -2.668  -4.222  0.00  0.00     0.046 H 
ATOM     27  H   LIG d   1       3.122  -0.898  -3.955  0.00  0.00     0.046 H 
BRANCH  17  28
ATOM     28  C   LIG d   1       6.555  -0.004  -3.413  0.00  0.00     0.231 C 
ATOM     29  O   LIG d   1       5.888   1.008  -3.470  0.00  0.00    -0.274 OA
ATOM     30  N   LIG d   1       7.884   0.052  -3.633  0.00  0.00    -0.328 N 
ATOM     31  H   LIG d   1       8.417  -0.757  -3.587  0.00  0.00     0.145 HD
ATOM     32  H   LIG d   1       8.306   0.901  -3.837  0.00  0.00     0.145 HD
ENDBRANCH  17  28
ENDBRANCH   6  14
BRANCH   1  33
ATOM     33  N   LIG d   1       4.354  -4.879  -6.753  0.00  0.00    -0.294 N 
ATOM     34  C   LIG d   1       5.056  -6.023  -6.639  0.00  0.00     0.300 C 
ATOM     35  N   LIG d   1       4.461  -7.136  -6.166  0.00  0.00    -0.297 N 
ATOM     36  O   LIG d   1       6.228  -6.053  -6.964  0.00  0.00    -0.253 OA
ATOM     37  H   LIG d   1       3.526  -7.113  -5.907  0.00  0.00     0.150 HD
ATOM     38  H   LIG d   1       3.420  -4.856  -6.493  0.00  0.00     0.151 HD
BRANCH  35  39
ATOM     39  C   LIG d   1       5.224  -8.380  -6.042  0.00  0.00     0.019 C 
ATOM     40  H   LIG d   1       6.291  -8.157  -6.079  0.00  0.00     0.049 H 
BRANCH  39  41
ATOM     41  C   LIG d   1       4.890  -9.054  -4.709  0.00  0.00    -0.047 C 
ATOM     42  H   LIG d   1       4.397  -8.337  -4.054  0.00  0.00     0.025 H 
ATOM     43  H   LIG d   1       4.227  -9.900  -4.888  0.00  0.00     0.025 H 
ATOM     44  H   LIG d   1       5.809  -9.404  -4.240  0.00  0.00     0.025 H 
ENDBRANCH  39  41
BRANCH  39  45
ATOM     45  C   LIG d   1       4.860  -9.318  -7.194  0.00  0.00    -0.047 C 
ATOM     46  H   LIG d   1       5.769  -9.748  -7.614  0.00  0.00     0.025 H 
ATOM     47  H   LIG d   1       4.218 -10.118  -6.823  0.00  0.00     0.025 H 
ATOM     48  H   LIG d   1       4.331  -8.759  -7.966  0.00  0.00     0.025 H 
ENDBRANCH  39  45
ENDBRANCH  35  39
ENDBRANCH   1  33
BRANCH   8  49
ATOM     49  C   LIG d   1       3.911   0.904  -8.359  0.00  0.00     0.104 A 
ATOM     50  N   LIG d   1       5.022   1.561  -8.834  0.00  0.00    -0.346 N 
ATOM     51  C   LIG d   1       4.637   2.409  -9.819  0.00  0.00     0.005 A 
ATOM     52  C   LIG d   1       3.295   2.314  -9.978  0.00  0.00    -0.043 A 
ATOM     53  H   LIG d   1       5.291   3.058 -10.382  0.00  0.00     0.081 H 
ATOM     54  C   LIG d   1       2.820   1.367  -9.064  0.00  0.00    -0.032 A 
ATOM     55  H   LIG d   1       2.697   2.869 -10.686  0.00  0.00     0.063 H 
ATOM     56  H   LIG d   1       1.794   1.059  -8.934  0.00  0.00     0.064 H 
BRANCH  50  57
ATOM     57  C   LIG d   1       6.395   1.374  -8.359  0.00  0.00     0.012 C 
ATOM     58  H   LIG d   1       6.951   0.773  -9.079  0.00  0.00     0.046 H 
ATOM     59  H   LIG d   1       6.877   2.344  -8.248  0.00  0.00     0.046 H 
ATOM     60  H   LIG d   1       6.379   0.863  -7.396  0.00  0.00     0.046 H 
ENDBRANCH  50  57
ENDBRANCH   8  49
TORSDOF 8
ENDMDL
MODEL 4
REMARK VINA RESULT:      -5.9      1.467      1.631
REMARK  8 active torsions:
REMARK  status: ('A' for Active; 'I' for Inactive)
REMARK    1  A    between atoms: C_1  and  C_2 
REMARK    2  A    between atoms: C_2  and  C_3 
REMARK    3  A    between atoms: C_2  and  N_4 
REMARK       I    between atoms: N_4  and  C_5 
REMARK       I    between atoms: C_5  and  N_7 
REMARK    4  A    between atoms: N_7  and  C_8 
REMARK       I    between atoms: N_12  and  C_26 
REMARK    5  A    between atoms: C_13  and  C_15 
REMARK       I    between atoms: C_15  and  N_17 
REMARK    6  A    between atoms: C_21  and  C_23 
REMARK       I    between atoms: C_23  and  N_25 
REMARK    7  A    between atoms: C_26  and  C_28 
REMARK    8  A    between atoms: N_32  and  C_33 
ROOT
ATOM      1  C   LIG d   1       8.566   0.239  -4.971  0.00  0.00     0.053 C 
ATOM      2  H   LIG d   1       8.188   0.894  -5.755  0.00  0.00     0.052 H 
ATOM      3  C   LIG d   1       9.625  -0.744  -5.539  0.00  0.00    -0.016 C 
ATOM      4  C   LIG d   1       8.727  -1.859  -6.132  0.00  0.00     0.018 C 
ATOM      5  N   LIG d   1       7.601  -1.978  -5.188  0.00  0.00    -0.283 N 
ATOM      6  C   LIG d   1       7.455  -0.706  -4.465  0.00  0.00     0.121 C 
ATOM      7  H   LIG d   1       7.569  -0.871  -3.393  0.00  0.00     0.062 H 
ATOM      8  C   LIG d   1       6.832  -3.071  -5.017  0.00  0.00     0.264 C 
ATOM      9  O   LIG d   1       5.993  -3.092  -4.135  0.00  0.00    -0.268 OA
ATOM     10  H   LIG d   1      10.221  -0.268  -6.318  0.00  0.00     0.030 H 
ATOM     11  H   LIG d   1      10.262  -1.135  -4.747  0.00  0.00     0.030 H 
ATOM     12  H   LIG d   1       8.367  -1.571  -7.119  0.00  0.00     0.046 H 
ATOM     13  H   LIG d   1       9.277  -2.798  -6.187  0.00  0.00     0.046 H 
ENDROOT
BRANCH   6  14
ATOM     14  C   LIG d   1       6.103  -0.106  -4.751  0.00  0.00     0.239 C 
ATOM     15  O   LIG d   1       5.766   0.111  -5.895  0.00  0.00    -0.274 OA
ATOM     16  N   LIG d   1       5.269   0.191  -3.735  0.00  0.00    -0.288 N 
ATOM     17  C   LIG d   1       3.928   0.777  -3.871  0.00  0.00     0.102 C 
ATOM     18  C   LIG d   1       5.550  -0.020  -2.303  0.00  0.00     0.016 C 
ATOM     19  C   LIG d   1       3.361   0.962  -2.446  0.00  0.00    -0.024 C 
ATOM     20  H   LIG d   1       3.994   1.742  -4.373  0.00  0.00     0.060 H 
ATOM     21  C   LIG d   1       4.639   0.993  -1.567  0.00  0.00    -0.035 C 
ATOM     22  H   LIG d   1       2.725   0.120  -2.172  0.00  0.00     0.029 H 
ATOM     23  H   LIG d   1       2.814   1.901  -2.367  0.00  0.00     0.029 H 
ATOM     24  H   LIG d   1       4.423   0.659  -0.551  0.00  0.00     0.028 H 
ATOM     25  H   LIG d   1       5.085   1.988  -1.562  0.00  0.00     0.028 H 
ATOM     26  H   LIG d   1       6.598   0.187  -2.088  0.00  0.00     0.046 H 
ATOM     27  H   LIG d   1       5.296  -1.039  -2.012  0.00  0.00     0.046 H 
BRANCH  17  28
ATOM     28  C   LIG d   1       3.040  -0.151  -4.659  0.00  0.00     0.231 C 
ATOM     29  O   LIG d   1       2.234   0.301  -5.444  0.00  0.00    -0.274 OA
ATOM     30  N   LIG d   1       3.142  -1.485  -4.491  0.00  0.00    -0.328 N 
ATOM     31  H   LIG d   1       3.787  -1.847  -3.863  0.00  0.00     0.145 HD
ATOM     32  H   LIG d   1       2.570  -2.083  -4.998  0.00  0.00     0.145 HD
ENDBRANCH  17  28
ENDBRANCH   6  14
BRANCH   1  33
ATOM     33  N   LIG d   1       9.126   1.019  -3.865  0.00  0.00    -0.294 N 
ATOM     34  C   LIG d   1       9.621   2.251  -4.094  0.00  0.00     0.300 C 
ATOM     35  N   LIG d   1      10.136   2.971  -3.076  0.00  0.00    -0.297 N 
ATOM     36  O   LIG d   1       9.604   2.716  -5.217  0.00  0.00    -0.253 OA
ATOM     37  H   LIG d   1      10.150   2.601  -2.179  0.00  0.00     0.150 HD
ATOM     38  H   LIG d   1       9.140   0.650  -2.968  0.00  0.00     0.151 HD
BRANCH  35  39
ATOM     39  C   LIG d   1      10.674   4.310  -3.324  0.00  0.00     0.019 C 
ATOM     40  H   LIG d   1      10.450   4.608  -4.349  0.00  0.00     0.049 H 
BRANCH  39  41
ATOM     41  C   LIG d   1      10.034   5.305  -2.353  0.00  0.00    -0.047 C 
ATOM     42  H   LIG d   1      10.686   6.171  -2.239  0.00  0.00     0.025 H 
ATOM     43  H   LIG d   1       9.070   5.626  -2.746  0.00  0.00     0.025 H 
ATOM     44  H   LIG d   1       9.892   4.827  -1.384  0.00  0.00     0.025 H 
ENDBRANCH  39  41
BRANCH  39  45
ATOM     45  C   LIG d   1      12.190   4.297  -3.116  0.00  0.00    -0.047 C 
ATOM     46  H   LIG d   1      12.597   5.282  -3.348  0.00  0.00     0.025 H 
ATOM     47  H   LIG d   1      12.413   4.047  -2.079  0.00  0.00     0.025 H 
ATOM     48  H   LIG d   1      12.640   3.553  -3.774  0.00  0.00     0.025 H 
ENDBRANCH  39  45
ENDBRANCH  35  39
ENDBRANCH   1  33
BRANCH   8  49
ATOM     49  C   LIG d   1       7.006  -4.236  -5.892  0.00  0.00     0.104 A 
ATOM     50  N   LIG d   1       6.461  -4.400  -7.145  0.00  0.00    -0.346 N 
ATOM     51  C   LIG d   1       6.853  -5.602  -7.633  0.00  0.00     0.005 A 
ATOM     52  C   LIG d   1       7.633  -6.216  -6.711  0.00  0.00    -0.043 A 
ATOM     53  H   LIG d   1       6.584  -6.007  -8.597  0.00  0.00     0.081 H 
ATOM     54  C   LIG d   1       7.740  -5.367  -5.605  0.00  0.00    -0.032 A 
ATOM     55  H   LIG d   1       8.092  -7.189  -6.813  0.00  0.00     0.063 H 
ATOM     56  H   LIG d   1       8.292  -5.561  -4.698  0.00  0.00     0.064 H 
BRANCH  50  57
ATOM     57  C   LIG d   1       5.603  -3.436  -7.837  0.00  0.00     0.012 C 
ATOM     58  H   LIG d   1       5.185  -2.736  -7.114  0.00  0.00     0.046 H 
ATOM     59  H   LIG d   1       6.192  -2.888  -8.573  0.00  0.00     0.046 H 
ATOM     60  H   LIG d   1       4.795  -3.965  -8.341  0.00  0.00     0.046 H 
ENDBRANCH  50  57
ENDBRANCH   8  49
TORSDOF 8
ENDMDL
MODEL 5
REMARK VINA RESULT:      -5.9      2.203      6.879
REMARK  8 active torsions:
REMARK  status: ('A' for Active; 'I' for Inactive)
REMARK    1  A    between atoms: C_1  and  C_2 
REMARK    2  A    between atoms: C_2  and  C_3 
REMARK    3  A    between atoms: C_2  and  N_4 
REMARK       I    between atoms: N_4  and  C_5 
REMARK       I    between atoms: C_5  and  N_7 
REMARK    4  A    between atoms: N_7  and  C_8 
REMARK       I    between atoms: N_12  and  C_26 
REMARK    5  A    between atoms: C_13  and  C_15 
REMARK       I    between atoms: C_15  and  N_17 
REMARK    6  A    between atoms: C_21  and  C_23 
REMARK       I    between atoms: C_23  and  N_25 
REMARK    7  A    between atoms: C_26  and  C_28 
REMARK    8  A    between atoms: N_32  and  C_33 
ROOT
ATOM      1  C   LIG d   1       4.550  -1.918  -4.019  0.00  0.00     0.053 C 
ATOM      2  H   LIG d   1       3.735  -1.305  -3.634  0.00  0.00     0.052 H 
ATOM      3  C   LIG d   1       5.743  -1.931  -3.025  0.00  0.00    -0.016 C 
ATOM      4  C   LIG d   1       6.470  -0.613  -3.396  0.00  0.00     0.018 C 
ATOM      5  N   LIG d   1       6.339  -0.510  -4.861  0.00  0.00    -0.283 N 
ATOM      6  C   LIG d   1       5.162  -1.283  -5.285  0.00  0.00     0.121 C 
ATOM      7  H   LIG d   1       5.462  -2.065  -5.984  0.00  0.00     0.062 H 
ATOM      8  C   LIG d   1       7.161   0.180  -5.676  0.00  0.00     0.264 C 
ATOM      9  O   LIG d   1       7.018   0.112  -6.882  0.00  0.00    -0.268 OA
ATOM     10  H   LIG d   1       5.392  -1.906  -1.993  0.00  0.00     0.030 H 
ATOM     11  H   LIG d   1       6.386  -2.794  -3.196  0.00  0.00     0.030 H 
ATOM     12  H   LIG d   1       5.988   0.235  -2.911  0.00  0.00     0.046 H 
ATOM     13  H   LIG d   1       7.520  -0.668  -3.112  0.00  0.00     0.046 H 
ENDROOT
BRANCH   6  14
ATOM     14  C   LIG d   1       4.157  -0.370  -5.937  0.00  0.00     0.239 C 
ATOM     15  O   LIG d   1       3.752   0.608  -5.345  0.00  0.00    -0.274 OA
ATOM     16  N   LIG d   1       3.707  -0.640  -7.179  0.00  0.00    -0.288 N 
ATOM     17  C   LIG d   1       2.731   0.162  -7.930  0.00  0.00     0.102 C 
ATOM     18  C   LIG d   1       4.113  -1.789  -8.009  0.00  0.00     0.016 C 
ATOM     19  C   LIG d   1       2.503  -0.543  -9.284  0.00  0.00    -0.024 C 
ATOM     20  H   LIG d   1       1.793   0.219  -7.377  0.00  0.00     0.060 H 
ATOM     21  C   LIG d   1       2.936  -2.004  -8.992  0.00  0.00    -0.035 C 
ATOM     22  H   LIG d   1       3.130  -0.102 -10.059  0.00  0.00     0.029 H 
ATOM     23  H   LIG d   1       1.451  -0.501  -9.569  0.00  0.00     0.029 H 
ATOM     24  H   LIG d   1       3.272  -2.501  -9.903  0.00  0.00     0.028 H 
ATOM     25  H   LIG d   1       2.128  -2.563  -8.520  0.00  0.00     0.028 H 
ATOM     26  H   LIG d   1       4.254  -2.674  -7.388  0.00  0.00     0.046 H 
ATOM     27  H   LIG d   1       5.027  -1.559  -8.555  0.00  0.00     0.046 H 
BRANCH  17  28
ATOM     28  C   LIG d   1       3.275   1.549  -8.159  0.00  0.00     0.231 C 
ATOM     29  O   LIG d   1       2.632   2.517  -7.814  0.00  0.00    -0.274 OA
ATOM     30  N   LIG d   1       4.476   1.713  -8.747  0.00  0.00    -0.328 N 
ATOM     31  H   LIG d   1       4.991   0.938  -9.023  0.00  0.00     0.145 HD
ATOM     32  H   LIG d   1       4.827   2.605  -8.895  0.00  0.00     0.145 HD
ENDBRANCH  17  28
ENDBRANCH   6  14
BRANCH   1  33
ATOM     33  N   LIG d   1       4.091  -3.282  -4.293  0.00  0.00    -0.294 N 
ATOM     34  C   LIG d   1       4.865  -4.122  -5.008  0.00  0.00     0.300 C 
ATOM     35  N   LIG d   1       4.443  -5.378  -5.260  0.00  0.00    -0.297 N 
ATOM     36  O   LIG d   1       5.944  -3.748  -5.427  0.00  0.00    -0.253 OA
ATOM     37  H   LIG d   1       3.582  -5.676  -4.926  0.00  0.00     0.150 HD
ATOM     38  H   LIG d   1       3.231  -3.581  -3.959  0.00  0.00     0.151 HD
BRANCH  35  39
ATOM     39  C   LIG d   1       5.284  -6.291  -6.037  0.00  0.00     0.019 C 
ATOM     40  H   LIG d   1       6.291  -5.880  -6.116  0.00  0.00     0.049 H 
BRANCH  39  41
ATOM     41  C   LIG d   1       5.343  -7.651  -5.337  0.00  0.00    -0.047 C 
ATOM     42  H   LIG d   1       4.425  -8.203  -5.540  0.00  0.00     0.025 H 
ATOM     43  H   LIG d   1       6.197  -8.214  -5.713  0.00  0.00     0.025 H 
ATOM     44  H   LIG d   1       5.448  -7.502  -4.263  0.00  0.00     0.025 H 
ENDBRANCH  39  41
BRANCH  39  45
ATOM     45  C   LIG d   1       4.692  -6.463  -7.437  0.00  0.00    -0.047 C 
ATOM     46  H   LIG d   1       4.756  -5.518  -7.977  0.00  0.00     0.025 H 
ATOM     47  H   LIG d   1       5.251  -7.228  -7.977  0.00  0.00     0.025 H 
ATOM     48  H   LIG d   1       3.648  -6.766  -7.356  0.00  0.00     0.025 H 
ENDBRANCH  39  45
ENDBRANCH  35  39
ENDBRANCH   1  33
BRANCH   8  49
ATOM     49  C   LIG d   1       8.229   1.011  -5.109  0.00  0.00     0.104 A 
ATOM     50  N   LIG d   1       9.552   0.658  -4.978  0.00  0.00    -0.346 N 
ATOM     51  C   LIG d   1      10.223   1.691  -4.414  0.00  0.00     0.005 A 
ATOM     52  C   LIG d   1       9.350   2.699  -4.171  0.00  0.00    -0.043 A 
ATOM     53  H   LIG d   1      11.279   1.708  -4.189  0.00  0.00     0.081 H 
ATOM     54  C   LIG d   1       8.086   2.286  -4.604  0.00  0.00    -0.032 A 
ATOM     55  H   LIG d   1       9.589   3.653  -3.723  0.00  0.00     0.063 H 
ATOM     56  H   LIG d   1       7.172   2.857  -4.552  0.00  0.00     0.064 H 
BRANCH  50  57
ATOM     57  C   LIG d   1      10.140  -0.620  -5.385  0.00  0.00     0.012 C 
ATOM     58  H   LIG d   1      11.221  -0.582  -5.254  0.00  0.00     0.046 H 
ATOM     59  H   LIG d   1       9.728  -1.421  -4.772  0.00  0.00     0.046 H 
ATOM     60  H   LIG d   1       9.907  -0.810  -6.433  0.00  0.00     0.046 H 
ENDBRANCH  50  57
ENDBRANCH   8  49
TORSDOF 8
ENDMDL
MODEL 6
REMARK VINA RESULT:      -5.8      2.957      4.236
REMARK  8 active torsions:
REMARK  status: ('A' for Active; 'I' for Inactive)
REMARK    1  A    between atoms: C_1  and  C_2 
REMARK    2  A    between atoms: C_2  and  C_3 
REMARK    3  A    between atoms: C_2  and  N_4 
REMARK       I    between atoms: N_4  and  C_5 
REMARK       I    between atoms: C_5  and  N_7 
REMARK    4  A    between atoms: N_7  and  C_8 
REMARK       I    between atoms: N_12  and  C_26 
REMARK    5  A    between atoms: C_13  and  C_15 
REMARK       I    between atoms: C_15  and  N_17 
REMARK    6  A    between atoms: C_21  and  C_23 
REMARK       I    between atoms: C_23  and  N_25 
REMARK    7  A    between atoms: C_26  and  C_28 
REMARK    8  A    between atoms: N_32  and  C_33 
ROOT
ATOM      1  C   LIG d   1       6.575   1.326  -7.671  0.00  0.00     0.053 C 
ATOM      2  H   LIG d   1       6.098   1.950  -6.915  0.00  0.00     0.052 H 
ATOM      3  C   LIG d   1       6.203   1.812  -9.098  0.00  0.00    -0.016 C 
ATOM      4  C   LIG d   1       4.827   1.131  -9.309  0.00  0.00     0.018 C 
ATOM      5  N   LIG d   1       4.956  -0.187  -8.661  0.00  0.00    -0.283 N 
ATOM      6  C   LIG d   1       6.007  -0.109  -7.636  0.00  0.00     0.121 C 
ATOM      7  H   LIG d   1       6.798  -0.825  -7.857  0.00  0.00     0.062 H 
ATOM      8  C   LIG d   1       4.229  -1.283  -8.958  0.00  0.00     0.264 C 
ATOM      9  O   LIG d   1       4.491  -2.347  -8.429  0.00  0.00    -0.268 OA
ATOM     10  H   LIG d   1       6.109   2.898  -9.129  0.00  0.00     0.030 H 
ATOM     11  H   LIG d   1       6.929   1.463  -9.832  0.00  0.00     0.030 H 
ATOM     12  H   LIG d   1       4.039   1.713  -8.833  0.00  0.00     0.046 H 
ATOM     13  H   LIG d   1       4.623   1.012 -10.372  0.00  0.00     0.046 H 
ENDROOT
BRANCH   6  14
ATOM     14  C   LIG d   1       5.421  -0.394  -6.277  0.00  0.00     0.239 C 
ATOM     15  O   LIG d   1       4.346   0.074  -5.971  0.00  0.00    -0.274 OA
ATOM     16  N   LIG d   1       6.094  -1.169  -5.403  0.00  0.00    -0.288 N 
ATOM     17  C   LIG d   1       5.641  -1.526  -4.051  0.00  0.00     0.102 C 
ATOM     18  C   LIG d   1       7.404  -1.799  -5.644  0.00  0.00     0.016 C 
ATOM     19  C   LIG d   1       6.742  -2.402  -3.415  0.00  0.00    -0.024 C 
ATOM     20  H   LIG d   1       5.494  -0.623  -3.458  0.00  0.00     0.060 H 
ATOM     21  C   LIG d   1       8.004  -2.021  -4.234  0.00  0.00    -0.035 C 
ATOM     22  H   LIG d   1       6.510  -3.460  -3.534  0.00  0.00     0.029 H 
ATOM     23  H   LIG d   1       6.875  -2.151  -2.362  0.00  0.00     0.029 H 
ATOM     24  H   LIG d   1       8.726  -2.838  -4.239  0.00  0.00     0.028 H 
ATOM     25  H   LIG d   1       8.455  -1.105  -3.851  0.00  0.00     0.028 H 
ATOM     26  H   LIG d   1       8.043  -1.135  -6.227  0.00  0.00     0.046 H 
ATOM     27  H   LIG d   1       7.279  -2.752  -6.158  0.00  0.00     0.046 H 
BRANCH  17  28
ATOM     28  C   LIG d   1       4.351  -2.302  -4.131  0.00  0.00     0.231 C 
ATOM     29  O   LIG d   1       4.363  -3.463  -4.480  0.00  0.00    -0.274 OA
ATOM     30  N   LIG d   1       3.185  -1.706  -3.814  0.00  0.00    -0.328 N 
ATOM     31  H   LIG d   1       3.175  -0.777  -3.534  0.00  0.00     0.145 HD
ATOM     32  H   LIG d   1       2.355  -2.205  -3.866  0.00  0.00     0.145 HD
ENDBRANCH  17  28
ENDBRANCH   6  14
BRANCH   1  33
ATOM     33  N   LIG d   1       8.029   1.313  -7.493  0.00  0.00    -0.294 N 
ATOM     34  C   LIG d   1       8.566   1.681  -6.313  0.00  0.00     0.300 C 
ATOM     35  N   LIG d   1       9.904   1.668  -6.147  0.00  0.00    -0.297 N 
ATOM     36  O   LIG d   1       7.844   2.025  -5.396  0.00  0.00    -0.253 OA
ATOM     37  H   LIG d   1      10.480   1.394  -6.878  0.00  0.00     0.150 HD
ATOM     38  H   LIG d   1       8.605   1.039  -8.223  0.00  0.00     0.151 HD
BRANCH  35  39
ATOM     39  C   LIG d   1      10.488   2.068  -4.865  0.00  0.00     0.019 C 
ATOM     40  H   LIG d   1       9.706   2.102  -4.105  0.00  0.00     0.049 H 
BRANCH  39  41
ATOM     41  C   LIG d   1      11.556   1.052  -4.451  0.00  0.00    -0.047 C 
ATOM     42  H   LIG d   1      11.073   0.132  -4.123  0.00  0.00     0.025 H 
ATOM     43  H   LIG d   1      12.203   0.841  -5.303  0.00  0.00     0.025 H 
ATOM     44  H   LIG d   1      12.150   1.463  -3.636  0.00  0.00     0.025 H 
ENDBRANCH  39  41
BRANCH  39  45
ATOM     45  C   LIG d   1      11.125   3.451  -5.004  0.00  0.00    -0.047 C 
ATOM     46  H   LIG d   1      12.032   3.496  -4.401  0.00  0.00     0.025 H 
ATOM     47  H   LIG d   1      11.376   3.633  -6.049  0.00  0.00     0.025 H 
ATOM     48  H   LIG d   1      10.423   4.211  -4.661  0.00  0.00     0.025 H 
ENDBRANCH  39  45
ENDBRANCH  35  39
ENDBRANCH   1  33
BRANCH   8  49
ATOM     49  C   LIG d   1       3.124  -1.192  -9.919  0.00  0.00     0.104 A 
ATOM     50  N   LIG d   1       3.205  -1.413 -11.274  0.00  0.00    -0.346 N 
ATOM     51  C   LIG d   1       1.976  -1.236 -11.816  0.00  0.00     0.005 A 
ATOM     52  C   LIG d   1       1.108  -0.896 -10.833  0.00  0.00    -0.043 A 
ATOM     53  H   LIG d   1       1.728  -1.343 -12.862  0.00  0.00     0.081 H 
ATOM     54  C   LIG d   1       1.817  -0.864  -9.627  0.00  0.00    -0.032 A 
ATOM     55  H   LIG d   1       0.056  -0.688 -10.957  0.00  0.00     0.063 H 
ATOM     56  H   LIG d   1       1.417  -0.626  -8.654  0.00  0.00     0.064 H 
BRANCH  50  57
ATOM     57  C   LIG d   1       4.417  -1.782 -12.009  0.00  0.00     0.012 C 
ATOM     58  H   LIG d   1       4.433  -1.263 -12.968  0.00  0.00     0.046 H 
ATOM     59  H   LIG d   1       5.295  -1.498 -11.429  0.00  0.00     0.046 H 
ATOM     60  H   LIG d   1       4.426  -2.859 -12.178  0.00  0.00     0.046 H 
ENDBRANCH  50  57
ENDBRANCH   8  49
TORSDOF 8
ENDMDL
MODEL 7
REMARK VINA RESULT:      -5.7      3.496      5.426
REMARK  8 active torsions:
REMARK  status: ('A' for Active; 'I' for Inactive)
REMARK    1  A    between atoms: C_1  and  C_2 
REMARK    2  A    between atoms: C_2  and  C_3 
REMARK    3  A    between atoms: C_2  and  N_4 
REMARK       I    between atoms: N_4  and  C_5 
REMARK       I    between atoms: C_5  and  N_7 
REMARK    4  A    between atoms: N_7  and  C_8 
REMARK       I    between atoms: N_12  and  C_26 
REMARK    5  A    between atoms: C_13  and  C_15 
REMARK       I    between atoms: C_15  and  N_17 
REMARK    6  A    between atoms: C_21  and  C_23 
REMARK       I    between atoms: C_23  and  N_25 
REMARK    7  A    between atoms: C_26  and  C_28 
REMARK    8  A    between atoms: N_32  and  C_33 
ROOT
ATOM      1  C   LIG d   1       4.634  -2.951  -6.173  0.00  0.00     0.053 C 
ATOM      2  H   LIG d   1       5.688  -2.676  -6.224  0.00  0.00     0.052 H 
ATOM      3  C   LIG d   1       4.473  -4.491  -6.060  0.00  0.00    -0.016 C 
ATOM      4  C   LIG d   1       4.582  -4.924  -7.543  0.00  0.00     0.018 C 
ATOM      5  N   LIG d   1       3.895  -3.861  -8.298  0.00  0.00    -0.283 N 
ATOM      6  C   LIG d   1       3.918  -2.625  -7.501  0.00  0.00     0.121 C 
ATOM      7  H   LIG d   1       2.900  -2.292  -7.300  0.00  0.00     0.062 H 
ATOM      8  C   LIG d   1       3.339  -3.997  -9.518  0.00  0.00     0.264 C 
ATOM      9  O   LIG d   1       2.707  -3.078 -10.005  0.00  0.00    -0.268 OA
ATOM     10  H   LIG d   1       5.278  -4.925  -5.466  0.00  0.00     0.030 H 
ATOM     11  H   LIG d   1       3.500  -4.753  -5.646  0.00  0.00     0.030 H 
ATOM     12  H   LIG d   1       5.628  -4.988  -7.844  0.00  0.00     0.046 H 
ATOM     13  H   LIG d   1       4.083  -5.881  -7.696  0.00  0.00     0.046 H 
ENDROOT
BRANCH   6  14
ATOM     14  C   LIG d   1       4.674  -1.552  -8.240  0.00  0.00     0.239 C 
ATOM     15  O   LIG d   1       5.797  -1.767  -8.640  0.00  0.00    -0.274 OA
ATOM     16  N   LIG d   1       4.100  -0.351  -8.456  0.00  0.00    -0.288 N 
ATOM     17  C   LIG d   1       4.720   0.781  -9.160  0.00  0.00     0.102 C 
ATOM     18  C   LIG d   1       2.746   0.044  -8.027  0.00  0.00     0.016 C 
ATOM     19  C   LIG d   1       3.705   1.944  -9.141  0.00  0.00    -0.024 C 
ATOM     20  H   LIG d   1       5.637   1.077  -8.649  0.00  0.00     0.060 H 
ATOM     21  C   LIG d   1       2.793   1.589  -7.937  0.00  0.00    -0.035 C 
ATOM     22  H   LIG d   1       3.130   1.969 -10.066  0.00  0.00     0.029 H 
ATOM     23  H   LIG d   1       4.211   2.895  -8.975  0.00  0.00     0.029 H 
ATOM     24  H   LIG d   1       1.799   2.019  -8.061  0.00  0.00     0.028 H 
ATOM     25  H   LIG d   1       3.243   1.913  -6.998  0.00  0.00     0.028 H 
ATOM     26  H   LIG d   1       2.517  -0.386  -7.051  0.00  0.00     0.046 H 
ATOM     27  H   LIG d   1       2.007  -0.271  -8.763  0.00  0.00     0.046 H 
BRANCH  17  28
ATOM     28  C   LIG d   1       5.028   0.392 -10.583  0.00  0.00     0.231 C 
ATOM     29  O   LIG d   1       4.168   0.474 -11.434  0.00  0.00    -0.274 OA
ATOM     30  N   LIG d   1       6.260  -0.045 -10.910  0.00  0.00    -0.328 N 
ATOM     31  H   LIG d   1       6.949  -0.110 -10.230  0.00  0.00     0.145 HD
ATOM     32  H   LIG d   1       6.458  -0.296 -11.827  0.00  0.00     0.145 HD
ENDBRANCH  17  28
ENDBRANCH   6  14
BRANCH   1  33
ATOM     33  N   LIG d   1       3.975  -2.278  -5.051  0.00  0.00    -0.294 N 
ATOM     34  C   LIG d   1       4.457  -1.107  -4.591  0.00  0.00     0.300 C 
ATOM     35  N   LIG d   1       3.851  -0.487  -3.558  0.00  0.00    -0.297 N 
ATOM     36  O   LIG d   1       5.439  -0.608  -5.106  0.00  0.00    -0.253 OA
ATOM     37  H   LIG d   1       3.067  -0.884  -3.147  0.00  0.00     0.150 HD
ATOM     38  H   LIG d   1       3.192  -2.675  -4.639  0.00  0.00     0.151 HD
BRANCH  35  39
ATOM     39  C   LIG d   1       4.374   0.786  -3.058  0.00  0.00     0.019 C 
ATOM     40  H   LIG d   1       5.293   1.035  -3.590  0.00  0.00     0.049 H 
BRANCH  39  41
ATOM     41  C   LIG d   1       3.338   1.889  -3.287  0.00  0.00    -0.047 C 
ATOM     42  H   LIG d   1       3.787   2.693  -3.870  0.00  0.00     0.025 H 
ATOM     43  H   LIG d   1       2.486   1.479  -3.830  0.00  0.00     0.025 H 
ATOM     44  H   LIG d   1       3.005   2.279  -2.326  0.00  0.00     0.025 H 
ENDBRANCH  39  41
BRANCH  39  45
ATOM     45  C   LIG d   1       4.668   0.665  -1.562  0.00  0.00    -0.047 C 
ATOM     46  H   LIG d   1       3.735   0.513  -1.019  0.00  0.00     0.025 H 
ATOM     47  H   LIG d   1       5.331  -0.183  -1.389  0.00  0.00     0.025 H 
ATOM     48  H   LIG d   1       5.149   1.578  -1.211  0.00  0.00     0.025 H 
ENDBRANCH  39  45
ENDBRANCH  35  39
ENDBRANCH   1  33
BRANCH   8  49
ATOM     49  C   LIG d   1       3.495  -5.254 -10.259  0.00  0.00     0.104 A 
ATOM     50  N   LIG d   1       4.551  -5.593 -11.073  0.00  0.00    -0.346 N 
ATOM     51  C   LIG d   1       4.331  -6.832 -11.575  0.00  0.00     0.005 A 
ATOM     52  C   LIG d   1       3.147  -7.292 -11.104  0.00  0.00    -0.043 A 
ATOM     53  H   LIG d   1       4.990  -7.365 -12.245  0.00  0.00     0.081 H 
ATOM     54  C   LIG d   1       2.605  -6.307 -10.272  0.00  0.00    -0.032 A 
ATOM     55  H   LIG d   1       2.701  -8.249 -11.331  0.00  0.00     0.063 H 
ATOM     56  H   LIG d   1       1.667  -6.361  -9.740  0.00  0.00     0.064 H 
BRANCH  50  57
ATOM     57  C   LIG d   1       5.721  -4.755 -11.349  0.00  0.00     0.012 C 
ATOM     58  H   LIG d   1       6.283  -5.178 -12.181  0.00  0.00     0.046 H 
ATOM     59  H   LIG d   1       5.394  -3.748 -11.606  0.00  0.00     0.046 H 
ATOM     60  H   LIG d   1       6.356  -4.716 -10.464  0.00  0.00     0.046 H 
ENDBRANCH  50  57
ENDBRANCH   8  49
TORSDOF 8
ENDMDL
MODEL 8
REMARK VINA RESULT:      -5.7      3.676      6.613
REMARK  8 active torsions:
REMARK  status: ('A' for Active; 'I' for Inactive)
REMARK    1  A    between atoms: C_1  and  C_2 
REMARK    2  A    between atoms: C_2  and  C_3 
REMARK    3  A    between atoms: C_2  and  N_4 
REMARK       I    between atoms: N_4  and  C_5 
REMARK       I    between atoms: C_5  and  N_7 
REMARK    4  A    between atoms: N_7  and  C_8 
REMARK       I    between atoms: N_12  and  C_26 
REMARK    5  A    between atoms: C_13  and  C_15 
REMARK       I    between atoms: C_15  and  N_17 
REMARK    6  A    between atoms: C_21  and  C_23 
REMARK       I    between atoms: C_23  and  N_25 
REMARK    7  A    between atoms: C_26  and  C_28 
REMARK    8  A    between atoms: N_32  and  C_33 
ROOT
ATOM      1  C   LIG d   1       3.601  -0.360  -7.662  0.00  0.00     0.053 C 
ATOM      2  H   LIG d   1       2.604  -0.721  -7.410  0.00  0.00     0.052 H 
ATOM      3  C   LIG d   1       3.520   0.822  -8.664  0.00  0.00    -0.016 C 
ATOM      4  C   LIG d   1       3.377   0.075 -10.014  0.00  0.00     0.018 C 
ATOM      5  N   LIG d   1       4.236  -1.115  -9.880  0.00  0.00    -0.283 N 
ATOM      6  C   LIG d   1       4.386  -1.429  -8.451  0.00  0.00     0.121 C 
ATOM      7  H   LIG d   1       5.439  -1.397  -8.171  0.00  0.00     0.062 H 
ATOM      8  C   LIG d   1       4.789  -1.803 -10.898  0.00  0.00     0.264 C 
ATOM      9  O   LIG d   1       5.566  -2.711 -10.666  0.00  0.00    -0.268 OA
ATOM     10  H   LIG d   1       2.646   1.443  -8.467  0.00  0.00     0.030 H 
ATOM     11  H   LIG d   1       4.432   1.417  -8.641  0.00  0.00     0.030 H 
ATOM     12  H   LIG d   1       2.341  -0.220 -10.176  0.00  0.00     0.046 H 
ATOM     13  H   LIG d   1       3.726   0.704 -10.833  0.00  0.00     0.046 H 
ENDROOT
BRANCH   6  14
ATOM     14  C   LIG d   1       3.821  -2.796  -8.164  0.00  0.00     0.239 C 
ATOM     15  O   LIG d   1       2.877  -3.208  -8.803  0.00  0.00    -0.274 OA
ATOM     16  N   LIG d   1       4.366  -3.561  -7.197  0.00  0.00    -0.288 N 
ATOM     17  C   LIG d   1       3.916  -4.907  -6.814  0.00  0.00     0.102 C 
ATOM     18  C   LIG d   1       5.512  -3.186  -6.348  0.00  0.00     0.016 C 
ATOM     19  C   LIG d   1       4.815  -5.377  -5.651  0.00  0.00    -0.024 C 
ATOM     20  H   LIG d   1       2.876  -4.872  -6.490  0.00  0.00     0.060 H 
ATOM     21  C   LIG d   1       5.355  -4.044  -5.068  0.00  0.00    -0.035 C 
ATOM     22  H   LIG d   1       5.633  -5.995  -6.020  0.00  0.00     0.029 H 
ATOM     23  H   LIG d   1       4.231  -5.916  -4.904  0.00  0.00     0.029 H 
ATOM     24  H   LIG d   1       6.317  -4.193  -4.577  0.00  0.00     0.028 H 
ATOM     25  H   LIG d   1       4.634  -3.597  -4.383  0.00  0.00     0.028 H 
ATOM     26  H   LIG d   1       5.469  -2.125  -6.101  0.00  0.00     0.046 H 
ATOM     27  H   LIG d   1       6.450  -3.421  -6.850  0.00  0.00     0.046 H 
BRANCH  17  28
ATOM     28  C   LIG d   1       4.058  -5.846  -7.983  0.00  0.00     0.231 C 
ATOM     29  O   LIG d   1       3.093  -6.458  -8.390  0.00  0.00    -0.274 OA
ATOM     30  N   LIG d   1       5.257  -6.007  -8.578  0.00  0.00    -0.328 N 
ATOM     31  H   LIG d   1       6.029  -5.517  -8.253  0.00  0.00     0.145 HD
ATOM     32  H   LIG d   1       5.349  -6.612  -9.330  0.00  0.00     0.145 HD
ENDBRANCH  17  28
ENDBRANCH   6  14
BRANCH   1  33
ATOM     33  N   LIG d   1       4.331   0.034  -6.455  0.00  0.00    -0.294 N 
ATOM     34  C   LIG d   1       3.756  -0.105  -5.244  0.00  0.00     0.300 C 
ATOM     35  N   LIG d   1       4.428   0.257  -4.133  0.00  0.00    -0.297 N 
ATOM     36  O   LIG d   1       2.631  -0.556  -5.153  0.00  0.00    -0.253 OA
ATOM     37  H   LIG d   1       5.327   0.617  -4.205  0.00  0.00     0.150 HD
ATOM     38  H   LIG d   1       5.229   0.394  -6.527  0.00  0.00     0.151 HD
BRANCH  35  39
ATOM     39  C   LIG d   1       3.804   0.106  -2.817  0.00  0.00     0.019 C 
ATOM     40  H   LIG d   1       2.719   0.130  -2.925  0.00  0.00     0.049 H 
BRANCH  39  41
ATOM     41  C   LIG d   1       4.226  -1.229  -2.201  0.00  0.00    -0.047 C 
ATOM     42  H   LIG d   1       4.211  -1.149  -1.114  0.00  0.00     0.025 H 
ATOM     43  H   LIG d   1       3.533  -2.009  -2.517  0.00  0.00     0.025 H 
ATOM     44  H   LIG d   1       5.233  -1.481  -2.534  0.00  0.00     0.025 H 
ENDBRANCH  39  41
BRANCH  39  45
ATOM     45  C   LIG d   1       4.250   1.252  -1.906  0.00  0.00    -0.047 C 
ATOM     46  H   LIG d   1       4.151   2.198  -2.437  0.00  0.00     0.025 H 
ATOM     47  H   LIG d   1       3.626   1.270  -1.012  0.00  0.00     0.025 H 
ATOM     48  H   LIG d   1       5.291   1.103  -1.619  0.00  0.00     0.025 H 
ENDBRANCH  39  45
ENDBRANCH  35  39
ENDBRANCH   1  33
BRANCH   8  49
ATOM     49  C   LIG d   1       4.458  -1.457 -12.284  0.00  0.00     0.104 A 
ATOM     50  N   LIG d   1       3.359  -1.890 -12.990  0.00  0.00    -0.346 N 
ATOM     51  C   LIG d   1       3.403  -1.352 -14.233  0.00  0.00     0.005 A 
ATOM     52  C   LIG d   1       4.517  -0.589 -14.341  0.00  0.00    -0.043 A 
ATOM     53  H   LIG d   1       2.673  -1.511 -15.013  0.00  0.00     0.081 H 
ATOM     54  C   LIG d   1       5.195  -0.644 -13.119  0.00  0.00    -0.032 A 
ATOM     55  H   LIG d   1       4.826  -0.035 -15.215  0.00  0.00     0.063 H 
ATOM     56  H   LIG d   1       6.120  -0.145 -12.875  0.00  0.00     0.064 H 
BRANCH  50  57
ATOM     57  C   LIG d   1       2.313  -2.780 -12.481  0.00  0.00     0.012 C 
ATOM     58  H   LIG d   1       1.657  -3.075 -13.300  0.00  0.00     0.046 H 
ATOM     59  H   LIG d   1       2.771  -3.667 -12.046  0.00  0.00     0.046 H 
ATOM     60  H   LIG d   1       1.732  -2.260 -11.720  0.00  0.00     0.046 H 
ENDBRANCH  50  57
ENDBRANCH   8  49
TORSDOF 8
ENDMDL
MODEL 9
REMARK VINA RESULT:      -5.6      3.743      5.610
REMARK  8 active torsions:
REMARK  status: ('A' for Active; 'I' for Inactive)
REMARK    1  A    between atoms: C_1  and  C_2 
REMARK    2  A    between atoms: C_2  and  C_3 
REMARK    3  A    between atoms: C_2  and  N_4 
REMARK       I    between atoms: N_4  and  C_5 
REMARK       I    between atoms: C_5  and  N_7 
REMARK    4  A    between atoms: N_7  and  C_8 
REMARK       I    between atoms: N_12  and  C_26 
REMARK    5  A    between atoms: C_13  and  C_15 
REMARK       I    between atoms: C_15  and  N_17 
REMARK    6  A    between atoms: C_21  and  C_23 
REMARK       I    between atoms: C_23  and  N_25 
REMARK    7  A    between atoms: C_26  and  C_28 
REMARK    8  A    between atoms: N_32  and  C_33 
ROOT
ATOM      1  C   LIG d   1       7.742   0.157  -7.437  0.00  0.00     0.053 C 
ATOM      2  H   LIG d   1       8.050  -0.789  -7.883  0.00  0.00     0.052 H 
ATOM      3  C   LIG d   1       8.234   0.256  -5.967  0.00  0.00    -0.016 C 
ATOM      4  C   LIG d   1       7.131  -0.533  -5.217  0.00  0.00     0.018 C 
ATOM      5  N   LIG d   1       5.880  -0.193  -5.919  0.00  0.00    -0.283 N 
ATOM      6  C   LIG d   1       6.207   0.221  -7.292  0.00  0.00     0.121 C 
ATOM      7  H   LIG d   1       5.860   1.239  -7.468  0.00  0.00     0.062 H 
ATOM      8  C   LIG d   1       4.642  -0.252  -5.391  0.00  0.00     0.264 C 
ATOM      9  O   LIG d   1       3.688   0.150  -6.030  0.00  0.00    -0.268 OA
ATOM     10  H   LIG d   1       9.206  -0.222  -5.848  0.00  0.00     0.030 H 
ATOM     11  H   LIG d   1       8.267   1.293  -5.635  0.00  0.00     0.030 H 
ATOM     12  H   LIG d   1       7.322  -1.604  -5.279  0.00  0.00     0.046 H 
ATOM     13  H   LIG d   1       7.080  -0.215  -4.176  0.00  0.00     0.046 H 
ENDROOT
BRANCH   6  14
ATOM     14  C   LIG d   1       5.560  -0.718  -8.278  0.00  0.00     0.239 C 
ATOM     15  O   LIG d   1       5.775  -1.910  -8.210  0.00  0.00    -0.274 OA
ATOM     16  N   LIG d   1       4.744  -0.233  -9.234  0.00  0.00    -0.288 N 
ATOM     17  C   LIG d   1       4.051  -1.032 -10.255  0.00  0.00     0.102 C 
ATOM     18  C   LIG d   1       4.398   1.186  -9.430  0.00  0.00     0.016 C 
ATOM     19  C   LIG d   1       3.256  -0.052 -11.143  0.00  0.00    -0.024 C 
ATOM     20  H   LIG d   1       4.779  -1.575 -10.859  0.00  0.00     0.060 H 
ATOM     21  C   LIG d   1       3.994   1.295 -10.921  0.00  0.00    -0.035 C 
ATOM     22  H   LIG d   1       2.220   0.018 -10.810  0.00  0.00     0.029 H 
ATOM     23  H   LIG d   1       3.306  -0.351 -12.191  0.00  0.00     0.029 H 
ATOM     24  H   LIG d   1       3.324   2.140 -11.085  0.00  0.00     0.028 H 
ATOM     25  H   LIG d   1       4.875   1.367 -11.560  0.00  0.00     0.028 H 
ATOM     26  H   LIG d   1       5.261   1.819  -9.223  0.00  0.00     0.046 H 
ATOM     27  H   LIG d   1       3.561   1.465  -8.789  0.00  0.00     0.046 H 
BRANCH  17  28
ATOM     28  C   LIG d   1       3.109  -2.004  -9.593  0.00  0.00     0.231 C 
ATOM     29  O   LIG d   1       2.069  -1.607  -9.112  0.00  0.00    -0.274 OA
ATOM     30  N   LIG d   1       3.421  -3.313  -9.535  0.00  0.00    -0.328 N 
ATOM     31  H   LIG d   1       4.253  -3.631  -9.920  0.00  0.00     0.145 HD
ATOM     32  H   LIG d   1       2.815  -3.939  -9.108  0.00  0.00     0.145 HD
ENDBRANCH  17  28
ENDBRANCH   6  14
BRANCH   1  33
ATOM     33  N   LIG d   1       8.236   1.289  -8.224  0.00  0.00    -0.294 N 
ATOM     34  C   LIG d   1       9.301   1.132  -9.035  0.00  0.00     0.300 C 
ATOM     35  N   LIG d   1       9.755   2.173  -9.761  0.00  0.00    -0.297 N 
ATOM     36  O   LIG d   1       9.853   0.051  -9.112  0.00  0.00    -0.253 OA
ATOM     37  H   LIG d   1       9.315   3.036  -9.700  0.00  0.00     0.150 HD
ATOM     38  H   LIG d   1       7.796   2.151  -8.164  0.00  0.00     0.151 HD
BRANCH  35  39
ATOM     39  C   LIG d   1      10.913   2.003 -10.642  0.00  0.00     0.019 C 
ATOM     40  H   LIG d   1      11.398   1.051 -10.424  0.00  0.00     0.049 H 
BRANCH  39  41
ATOM     41  C   LIG d   1      10.451   2.018 -12.101  0.00  0.00    -0.047 C 
ATOM     42  H   LIG d   1      11.321   2.000 -12.757  0.00  0.00     0.025 H 
ATOM     43  H   LIG d   1       9.832   1.141 -12.293  0.00  0.00     0.025 H 
ATOM     44  H   LIG d   1       9.871   2.921 -12.289  0.00  0.00     0.025 H 
ENDBRANCH  39  41
BRANCH  39  45
ATOM     45  C   LIG d   1      11.903   3.145 -10.409  0.00  0.00    -0.047 C 
ATOM     46  H   LIG d   1      12.918   2.747 -10.384  0.00  0.00     0.025 H 
ATOM     47  H   LIG d   1      11.818   3.871 -11.218  0.00  0.00     0.025 H 
ATOM     48  H   LIG d   1      11.680   3.633  -9.460  0.00  0.00     0.025 H 
ENDBRANCH  39  45
ENDBRANCH  35  39
ENDBRANCH   1  33
BRANCH   8  49
ATOM     49  C   LIG d   1       4.444  -0.801  -4.045  0.00  0.00     0.104 A 
ATOM     50  N   LIG d   1       4.600  -0.122  -2.858  0.00  0.00    -0.346 N 
ATOM     51  C   LIG d   1       4.325  -0.967  -1.836  0.00  0.00     0.005 A 
ATOM     52  C   LIG d   1       4.004  -2.181  -2.345  0.00  0.00    -0.043 A 
ATOM     53  H   LIG d   1       4.361  -0.716  -0.786  0.00  0.00     0.081 H 
ATOM     54  C   LIG d   1       4.074  -2.093  -3.739  0.00  0.00    -0.032 A 
ATOM     55  H   LIG d   1       3.740  -3.059  -1.775  0.00  0.00     0.063 H 
ATOM     56  H   LIG d   1       3.877  -2.888  -4.442  0.00  0.00     0.064 H 
BRANCH  50  57
ATOM     57  C   LIG d   1       4.994   1.283  -2.723  0.00  0.00     0.012 C 
ATOM     58  H   LIG d   1       4.602   1.682  -1.788  0.00  0.00     0.046 H 
ATOM     59  H   LIG d   1       6.081   1.357  -2.721  0.00  0.00     0.046 H 
ATOM     60  H   LIG d   1       4.593   1.855  -3.559  0.00  0.00     0.046 H 
ENDBRANCH  50  57
ENDBRANCH   8  49
TORSDOF 8
ENDMDL
