MODEL 1
REMARK VINA RESULT:      -5.9      0.000      0.000
REMARK  6 active torsions:
REMARK  status: ('A' for Active; 'I' for Inactive)
REMARK    1  A    between atoms: C_1  and  C_2 
REMARK       I    between atoms: C_2  and  N_4 
REMARK    2  A    between atoms: N_4  and  C_5 
REMARK    3  A    between atoms: C_8  and  C_14 
REMARK    4  A    between atoms: C_9  and  N_11 
REMARK    5  A    between atoms: C_15  and  C_16 
REMARK    6  A    between atoms: C_19  and  N_22 
ROOT
ATOM      1  C   LIG d   1       9.026   6.635  -9.077  0.00  0.00     0.040 A 
ATOM      2  C   LIG d   1       9.015   7.832  -8.368  0.00  0.00    -0.040 A 
ATOM      3  C   LIG d   1       9.421   7.859  -7.053  0.00  0.00    -0.046 A 
ATOM      4  C   LIG d   1       9.856   6.685  -6.433  0.00  0.00     0.052 A 
ATOM      5  C   LIG d   1       9.866   5.484  -7.149  0.00  0.00     0.282 A 
ATOM      6  C   LIG d   1       9.453   5.464  -8.463  0.00  0.00     0.037 A 
ATOM      7  H   LIG d   1       8.682   8.741  -8.849  0.00  0.00     0.064 H 
ATOM      8  H   LIG d   1       9.406   8.789  -6.501  0.00  0.00     0.063 H 
ATOM      9  H   LIG d   1       9.461   4.536  -9.016  0.00  0.00     0.070 H 
ENDROOT
BRANCH   4  10
ATOM     10  C   LIG d   1      10.297   6.711  -5.028  0.00  0.00    -0.048 C 
ATOM     11  C   LIG d   1       9.394   6.622  -4.039  0.00  0.00    -0.054 C 
ATOM     12  H   LIG d   1       8.344   6.531  -4.273  0.00  0.00     0.062 H 
ATOM     13  H   LIG d   1      11.348   6.802  -4.794  0.00  0.00     0.063 H 
BRANCH  11  14
ATOM     14  C   LIG d   1       9.836   6.647  -2.633  0.00  0.00    -0.025 A 
ATOM     15  C   LIG d   1       9.695   7.812  -1.874  0.00  0.00    -0.048 A 
ATOM     16  C   LIG d   1      10.115   7.831  -0.561  0.00  0.00     0.016 A 
ATOM     17  H   LIG d   1       9.261   8.697  -2.316  0.00  0.00     0.063 H 
ATOM     18  C   LIG d   1      10.670   6.698   0.008  0.00  0.00     0.273 A 
ATOM     19  H   LIG d   1      10.012   8.731   0.026  0.00  0.00     0.069 H 
ATOM     20  C   LIG d   1      10.808   5.538  -0.735  0.00  0.00     0.016 A 
ATOM     21  C   LIG d   1      10.391   5.505  -2.050  0.00  0.00    -0.048 A 
ATOM     22  H   LIG d   1      11.241   4.658  -0.285  0.00  0.00     0.069 H 
ATOM     23  H   LIG d   1      10.499   4.600  -2.629  0.00  0.00     0.063 H 
BRANCH  18  24
ATOM     24  N   LIG d   1      11.119   6.725   1.418  0.00  0.00     0.080 N 
ATOM     25  O   LIG d   1      11.159   5.695   2.065  0.00  0.00     0.041 OA
ATOM     26  O   LIG d   1      11.449   7.780   1.932  0.00  0.00    -0.576 OA
ENDBRANCH  18  24
ENDBRANCH  11  14
ENDBRANCH   4  10
BRANCH   5  27
ATOM     27  N   LIG d   1      10.321   4.235  -6.495  0.00  0.00     0.080 N 
ATOM     28  O   LIG d   1       9.514   3.512  -5.939  0.00  0.00     0.042 OA
ATOM     29  O   LIG d   1      11.500   3.931  -6.516  0.00  0.00    -0.576 OA
ENDBRANCH   5  27
BRANCH   1  30
ATOM     30  N   LIG d   1       8.608   6.611 -10.411  0.00  0.00    -0.285 N 
ATOM     31  C   LIG d   1       9.514   6.719 -11.402  0.00  0.00     0.214 C 
ATOM     32  O   LIG d   1      10.680   6.929 -11.140  0.00  0.00    -0.276 OA
ATOM     33  H   LIG d   1       7.666   6.517 -10.622  0.00  0.00     0.155 HD
BRANCH  31  34
ATOM     34  C   LIG d   1       9.079   6.580 -12.839  0.00  0.00     0.013 C 
ATOM     35  H   LIG d   1       8.071   6.980 -12.954  0.00  0.00     0.032 H 
ATOM     36  H   LIG d   1       9.764   7.133 -13.481  0.00  0.00     0.032 H 
ATOM     37  H   LIG d   1       9.087   5.527 -13.120  0.00  0.00     0.032 H 
ENDBRANCH  31  34
ENDBRANCH   1  30
TORSDOF 6
ENDMDL
MODEL 2
REMARK VINA RESULT:      -5.8      6.596      8.065
REMARK  6 active torsions:
REMARK  status: ('A' for Active; 'I' for Inactive)
REMARK    1  A    between atoms: C_1  and  C_2 
REMARK       I    between atoms: C_2  and  N_4 
REMARK    2  A    between atoms: N_4  and  C_5 
REMARK    3  A    between atoms: C_8  and  C_14 
REMARK    4  A    between atoms: C_9  and  N_11 
REMARK    5  A    between atoms: C_15  and  C_16 
REMARK    6  A    between atoms: C_19  and  N_22 
ROOT
ATOM      1  C   LIG d   1       5.917  -2.182  -4.268  0.00  0.00     0.040 A 
ATOM      2  C   LIG d   1       7.192  -1.894  -4.743  0.00  0.00    -0.040 A 
ATOM      3  C   LIG d   1       7.727  -0.637  -4.564  0.00  0.00    -0.046 A 
ATOM      4  C   LIG d   1       6.993   0.345  -3.893  0.00  0.00     0.052 A 
ATOM      5  C   LIG d   1       5.712   0.050  -3.417  0.00  0.00     0.282 A 
ATOM      6  C   LIG d   1       5.181  -1.206  -3.605  0.00  0.00     0.037 A 
ATOM      7  H   LIG d   1       7.761  -2.654  -5.257  0.00  0.00     0.064 H 
ATOM      8  H   LIG d   1       8.716  -0.413  -4.938  0.00  0.00     0.063 H 
ATOM      9  H   LIG d   1       4.191  -1.434  -3.238  0.00  0.00     0.070 H 
ENDROOT
BRANCH   4  10
ATOM     10  C   LIG d   1       7.565   1.688  -3.694  0.00  0.00    -0.048 C 
ATOM     11  C   LIG d   1       8.864   1.908  -3.947  0.00  0.00    -0.054 C 
ATOM     12  H   LIG d   1       9.491   1.102  -4.298  0.00  0.00     0.062 H 
ATOM     13  H   LIG d   1       6.938   2.494  -3.343  0.00  0.00     0.063 H 
BRANCH  11  14
ATOM     14  C   LIG d   1       9.436   3.252  -3.748  0.00  0.00    -0.025 A 
ATOM     15  C   LIG d   1       9.137   4.282  -4.643  0.00  0.00    -0.048 A 
ATOM     16  C   LIG d   1       9.681   5.535  -4.454  0.00  0.00     0.016 A 
ATOM     17  H   LIG d   1       8.485   4.096  -5.484  0.00  0.00     0.063 H 
ATOM     18  C   LIG d   1      10.516   5.775  -3.377  0.00  0.00     0.273 A 
ATOM     19  H   LIG d   1       9.455   6.331  -5.147  0.00  0.00     0.069 H 
ATOM     20  C   LIG d   1      10.813   4.762  -2.483  0.00  0.00     0.016 A 
ATOM     21  C   LIG d   1      10.276   3.503  -2.660  0.00  0.00    -0.048 A 
ATOM     22  H   LIG d   1      11.465   4.956  -1.644  0.00  0.00     0.069 H 
ATOM     23  H   LIG d   1      10.508   2.713  -1.961  0.00  0.00     0.063 H 
BRANCH  18  24
ATOM     24  N   LIG d   1      11.096   7.123  -3.180  0.00  0.00     0.080 N 
ATOM     25  O   LIG d   1      11.075   7.934  -4.088  0.00  0.00     0.041 OA
ATOM     26  O   LIG d   1      11.595   7.421  -2.109  0.00  0.00    -0.576 OA
ENDBRANCH  18  24
ENDBRANCH  11  14
ENDBRANCH   4  10
BRANCH   5  27
ATOM     27  N   LIG d   1       4.926   1.089  -2.711  0.00  0.00     0.080 N 
ATOM     28  O   LIG d   1       4.961   1.157  -1.496  0.00  0.00     0.042 OA
ATOM     29  O   LIG d   1       4.248   1.876  -3.347  0.00  0.00    -0.576 OA
ENDBRANCH   5  27
BRANCH   1  30
ATOM     30  N   LIG d   1       5.374  -3.457  -4.456  0.00  0.00    -0.285 N 
ATOM     31  C   LIG d   1       4.781  -3.770  -5.625  0.00  0.00     0.214 C 
ATOM     32  O   LIG d   1       4.636  -2.921  -6.479  0.00  0.00    -0.276 OA
ATOM     33  H   LIG d   1       5.425  -4.115  -3.746  0.00  0.00     0.155 HD
BRANCH  31  34
ATOM     34  C   LIG d   1       4.298  -5.176  -5.871  0.00  0.00     0.013 C 
ATOM     35  H   LIG d   1       4.746  -5.560  -6.789  0.00  0.00     0.032 H 
ATOM     36  H   LIG d   1       4.586  -5.811  -5.033  0.00  0.00     0.032 H 
ATOM     37  H   LIG d   1       3.212  -5.175  -5.970  0.00  0.00     0.032 H 
ENDBRANCH  31  34
ENDBRANCH   1  30
TORSDOF 6
ENDMDL
MODEL 3
REMARK VINA RESULT:      -5.8      1.966      2.402
REMARK  6 active torsions:
REMARK  status: ('A' for Active; 'I' for Inactive)
REMARK    1  A    between atoms: C_1  and  C_2 
REMARK       I    between atoms: C_2  and  N_4 
REMARK    2  A    between atoms: N_4  and  C_5 
REMARK    3  A    between atoms: C_8  and  C_14 
REMARK    4  A    between atoms: C_9  and  N_11 
REMARK    5  A    between atoms: C_15  and  C_16 
REMARK    6  A    between atoms: C_19  and  N_22 
ROOT
ATOM      1  C   LIG d   1       9.044   6.331  -9.410  0.00  0.00     0.040 A 
ATOM      2  C   LIG d   1       9.198   5.135  -8.717  0.00  0.00    -0.040 A 
ATOM      3  C   LIG d   1       9.613   5.148  -7.404  0.00  0.00    -0.046 A 
ATOM      4  C   LIG d   1       9.867   6.364  -6.764  0.00  0.00     0.052 A 
ATOM      5  C   LIG d   1       9.709   7.564  -7.465  0.00  0.00     0.282 A 
ATOM      6  C   LIG d   1       9.300   7.543  -8.780  0.00  0.00     0.037 A 
ATOM      7  H   LIG d   1       8.998   4.195  -9.210  0.00  0.00     0.064 H 
ATOM      8  H   LIG d   1       9.738   4.218  -6.867  0.00  0.00     0.063 H 
ATOM      9  H   LIG d   1       9.179   8.469  -9.322  0.00  0.00     0.070 H 
ENDROOT
BRANCH   4  10
ATOM     10  C   LIG d   1      10.304   6.383  -5.358  0.00  0.00    -0.048 C 
ATOM     11  C   LIG d   1       9.404   6.237  -4.373  0.00  0.00    -0.054 C 
ATOM     12  H   LIG d   1       8.359   6.106  -4.611  0.00  0.00     0.062 H 
ATOM     13  H   LIG d   1      11.350   6.514  -5.119  0.00  0.00     0.063 H 
BRANCH  11  14
ATOM     14  C   LIG d   1       9.842   6.255  -2.966  0.00  0.00    -0.025 A 
ATOM     15  C   LIG d   1      10.535   5.166  -2.433  0.00  0.00    -0.048 A 
ATOM     16  C   LIG d   1      10.936   5.187  -1.113  0.00  0.00     0.016 A 
ATOM     17  H   LIG d   1      10.753   4.308  -3.051  0.00  0.00     0.063 H 
ATOM     18  C   LIG d   1      10.659   6.286  -0.319  0.00  0.00     0.273 A 
ATOM     19  H   LIG d   1      11.468   4.345  -0.697  0.00  0.00     0.069 H 
ATOM     20  C   LIG d   1       9.977   7.371  -0.842  0.00  0.00     0.016 A 
ATOM     21  C   LIG d   1       9.570   7.364  -2.160  0.00  0.00    -0.048 A 
ATOM     22  H   LIG d   1       9.764   8.226  -0.217  0.00  0.00     0.069 H 
ATOM     23  H   LIG d   1       9.038   8.211  -2.567  0.00  0.00     0.063 H 
BRANCH  18  24
ATOM     24  N   LIG d   1      11.092   6.302   1.096  0.00  0.00     0.080 N 
ATOM     25  O   LIG d   1      10.723   5.425   1.856  0.00  0.00     0.041 OA
ATOM     26  O   LIG d   1      11.819   7.193   1.500  0.00  0.00    -0.576 OA
ENDBRANCH  18  24
ENDBRANCH  11  14
ENDBRANCH   4  10
BRANCH   5  27
ATOM     27  N   LIG d   1       9.983   8.856  -6.795  0.00  0.00     0.080 N 
ATOM     28  O   LIG d   1       9.134   9.366  -6.087  0.00  0.00     0.042 OA
ATOM     29  O   LIG d   1      11.058   9.407  -6.951  0.00  0.00    -0.576 OA
ENDBRANCH   5  27
BRANCH   1  30
ATOM     30  N   LIG d   1       8.627   6.313 -10.746  0.00  0.00    -0.285 N 
ATOM     31  C   LIG d   1       9.540   6.249 -11.734  0.00  0.00     0.214 C 
ATOM     32  O   LIG d   1      10.724   6.299 -11.473  0.00  0.00    -0.276 OA
ATOM     33  H   LIG d   1       7.682   6.348 -10.959  0.00  0.00     0.155 HD
BRANCH  31  34
ATOM     34  C   LIG d   1       9.090   6.116 -13.167  0.00  0.00     0.013 C 
ATOM     35  H   LIG d   1       9.226   7.068 -13.681  0.00  0.00     0.032 H 
ATOM     36  H   LIG d   1       9.682   5.348 -13.664  0.00  0.00     0.032 H 
ATOM     37  H   LIG d   1       8.037   5.837 -13.192  0.00  0.00     0.032 H 
ENDBRANCH  31  34
ENDBRANCH   1  30
TORSDOF 6
ENDMDL
MODEL 4
REMARK VINA RESULT:      -5.4      2.740      3.090
REMARK  6 active torsions:
REMARK  status: ('A' for Active; 'I' for Inactive)
REMARK    1  A    between atoms: C_1  and  C_2 
REMARK       I    between atoms: C_2  and  N_4 
REMARK    2  A    between atoms: N_4  and  C_5 
REMARK    3  A    between atoms: C_8  and  C_14 
REMARK    4  A    between atoms: C_9  and  N_11 
REMARK    5  A    between atoms: C_15  and  C_16 
REMARK    6  A    between atoms: C_19  and  N_22 
ROOT
ATOM      1  C   LIG d   1       9.609   8.342  -8.663  0.00  0.00     0.040 A 
ATOM      2  C   LIG d   1       9.517   7.057  -8.138  0.00  0.00    -0.040 A 
ATOM      3  C   LIG d   1       9.585   6.862  -6.776  0.00  0.00    -0.046 A 
ATOM      4  C   LIG d   1       9.733   7.957  -5.921  0.00  0.00     0.052 A 
ATOM      5  C   LIG d   1       9.824   9.247  -6.453  0.00  0.00     0.282 A 
ATOM      6  C   LIG d   1       9.762   9.434  -7.816  0.00  0.00     0.037 A 
ATOM      7  H   LIG d   1       9.398   6.211  -8.799  0.00  0.00     0.064 H 
ATOM      8  H   LIG d   1       9.519   5.863  -6.369  0.00  0.00     0.063 H 
ATOM      9  H   LIG d   1       9.832  10.430  -8.228  0.00  0.00     0.070 H 
ENDROOT
BRANCH   4  10
ATOM     10  C   LIG d   1       9.799   7.754  -4.464  0.00  0.00    -0.048 C 
ATOM     11  C   LIG d   1      10.794   7.025  -3.932  0.00  0.00    -0.054 C 
ATOM     12  H   LIG d   1      11.546   6.589  -4.573  0.00  0.00     0.062 H 
ATOM     13  H   LIG d   1       9.047   8.190  -3.823  0.00  0.00     0.063 H 
BRANCH  11  14
ATOM     14  C   LIG d   1      10.860   6.821  -2.474  0.00  0.00    -0.025 A 
ATOM     15  C   LIG d   1      10.228   7.719  -1.611  0.00  0.00    -0.048 A 
ATOM     16  C   LIG d   1      10.299   7.525  -0.247  0.00  0.00     0.016 A 
ATOM     17  H   LIG d   1       9.688   8.565  -2.009  0.00  0.00     0.063 H 
ATOM     18  C   LIG d   1      10.990   6.441   0.267  0.00  0.00     0.273 A 
ATOM     19  H   LIG d   1       9.815   8.220   0.423  0.00  0.00     0.069 H 
ATOM     20  C   LIG d   1      11.614   5.544  -0.583  0.00  0.00     0.016 A 
ATOM     21  C   LIG d   1      11.551   5.726  -1.949  0.00  0.00    -0.048 A 
ATOM     22  H   LIG d   1      12.151   4.700  -0.175  0.00  0.00     0.069 H 
ATOM     23  H   LIG d   1      12.038   5.025  -2.611  0.00  0.00     0.063 H 
BRANCH  18  24
ATOM     24  N   LIG d   1      11.062   6.240   1.731  0.00  0.00     0.080 N 
ATOM     25  O   LIG d   1      11.408   7.155   2.456  0.00  0.00     0.041 OA
ATOM     26  O   LIG d   1      10.776   5.157   2.212  0.00  0.00    -0.576 OA
ENDBRANCH  18  24
ENDBRANCH  11  14
ENDBRANCH   4  10
BRANCH   5  27
ATOM     27  N   LIG d   1       9.988  10.411  -5.552  0.00  0.00     0.080 N 
ATOM     28  O   LIG d   1      11.103  10.822  -5.286  0.00  0.00     0.042 OA
ATOM     29  O   LIG d   1       9.007  10.958  -5.079  0.00  0.00    -0.576 OA
ENDBRANCH   5  27
BRANCH   1  30
ATOM     30  N   LIG d   1       9.545   8.535 -10.047  0.00  0.00    -0.285 N 
ATOM     31  C   LIG d   1      10.667   8.466 -10.788  0.00  0.00     0.214 C 
ATOM     32  O   LIG d   1      11.745   8.327 -10.248  0.00  0.00    -0.276 OA
ATOM     33  H   LIG d   1       8.693   8.720 -10.471  0.00  0.00     0.155 HD
BRANCH  31  34
ATOM     34  C   LIG d   1      10.585   8.562 -12.290  0.00  0.00     0.013 C 
ATOM     35  H   LIG d   1      11.489   9.033 -12.675  0.00  0.00     0.032 H 
ATOM     36  H   LIG d   1      10.488   7.562 -12.713  0.00  0.00     0.032 H 
ATOM     37  H   LIG d   1       9.716   9.159 -12.569  0.00  0.00     0.032 H 
ENDBRANCH  31  34
ENDBRANCH   1  30
TORSDOF 6
ENDMDL
MODEL 5
REMARK VINA RESULT:      -5.4     11.531     13.219
REMARK  6 active torsions:
REMARK  status: ('A' for Active; 'I' for Inactive)
REMARK    1  A    between atoms: C_1  and  C_2 
REMARK       I    between atoms: C_2  and  N_4 
REMARK    2  A    between atoms: N_4  and  C_5 
REMARK    3  A    between atoms: C_8  and  C_14 
REMARK    4  A    between atoms: C_9  and  N_11 
REMARK    5  A    between atoms: C_15  and  C_16 
REMARK    6  A    between atoms: C_19  and  N_22 
ROOT
ATOM      1  C   LIG d   1       4.529  -0.815  -7.041  0.00  0.00     0.040 A 
ATOM      2  C   LIG d   1       4.659  -1.921  -7.874  0.00  0.00    -0.040 A 
ATOM      3  C   LIG d   1       4.861  -3.171  -7.335  0.00  0.00    -0.046 A 
ATOM      4  C   LIG d   1       4.923  -3.331  -5.947  0.00  0.00     0.052 A 
ATOM      5  C   LIG d   1       4.791  -2.216  -5.113  0.00  0.00     0.282 A 
ATOM      6  C   LIG d   1       4.596  -0.968  -5.661  0.00  0.00     0.037 A 
ATOM      7  H   LIG d   1       4.608  -1.798  -8.946  0.00  0.00     0.064 H 
ATOM      8  H   LIG d   1       4.968  -4.030  -7.983  0.00  0.00     0.063 H 
ATOM      9  H   LIG d   1       4.494  -0.106  -5.018  0.00  0.00     0.070 H 
ENDROOT
BRANCH   4  10
ATOM     10  C   LIG d   1       5.132  -4.668  -5.366  0.00  0.00    -0.048 C 
ATOM     11  C   LIG d   1       5.796  -5.605  -6.059  0.00  0.00    -0.054 C 
ATOM     12  H   LIG d   1       6.178  -5.380  -7.044  0.00  0.00     0.062 H 
ATOM     13  H   LIG d   1       4.750  -4.893  -4.381  0.00  0.00     0.063 H 
BRANCH  11  14
ATOM     14  C   LIG d   1       6.005  -6.943  -5.478  0.00  0.00    -0.025 A 
ATOM     15  C   LIG d   1       7.284  -7.345  -5.085  0.00  0.00    -0.048 A 
ATOM     16  C   LIG d   1       7.474  -8.601  -4.547  0.00  0.00     0.016 A 
ATOM     17  H   LIG d   1       8.123  -6.676  -5.207  0.00  0.00     0.063 H 
ATOM     18  C   LIG d   1       6.400  -9.459  -4.389  0.00  0.00     0.273 A 
ATOM     19  H   LIG d   1       8.462  -8.915  -4.247  0.00  0.00     0.069 H 
ATOM     20  C   LIG d   1       5.129  -9.066  -4.770  0.00  0.00     0.016 A 
ATOM     21  C   LIG d   1       4.925  -7.813  -5.310  0.00  0.00    -0.048 A 
ATOM     22  H   LIG d   1       4.295  -9.741  -4.644  0.00  0.00     0.069 H 
ATOM     23  H   LIG d   1       3.932  -7.507  -5.607  0.00  0.00     0.063 H 
BRANCH  18  24
ATOM     24  N   LIG d   1       6.611 -10.806  -3.811  0.00  0.00     0.080 N 
ATOM     25  O   LIG d   1       5.804 -11.693  -4.020  0.00  0.00     0.041 OA
ATOM     26  O   LIG d   1       7.593 -11.026  -3.124  0.00  0.00    -0.576 OA
ENDBRANCH  18  24
ENDBRANCH  11  14
ENDBRANCH   4  10
BRANCH   5  27
ATOM     27  N   LIG d   1       4.862  -2.378  -3.643  0.00  0.00     0.080 N 
ATOM     28  O   LIG d   1       5.895  -2.121  -3.052  0.00  0.00     0.042 OA
ATOM     29  O   LIG d   1       3.886  -2.766  -3.025  0.00  0.00    -0.576 OA
ENDBRANCH   5  27
BRANCH   1  30
ATOM     30  N   LIG d   1       4.330   0.455  -7.594  0.00  0.00    -0.285 N 
ATOM     31  C   LIG d   1       3.118   0.797  -8.074  0.00  0.00     0.214 C 
ATOM     32  O   LIG d   1       2.226  -0.024  -8.111  0.00  0.00    -0.276 OA
ATOM     33  H   LIG d   1       5.063   1.087  -7.631  0.00  0.00     0.155 HD
BRANCH  31  34
ATOM     34  C   LIG d   1       2.872   2.200  -8.566  0.00  0.00     0.013 C 
ATOM     35  H   LIG d   1       1.886   2.256  -9.027  0.00  0.00     0.032 H 
ATOM     36  H   LIG d   1       2.920   2.893  -7.726  0.00  0.00     0.032 H 
ATOM     37  H   LIG d   1       3.633   2.466  -9.300  0.00  0.00     0.032 H 
ENDBRANCH  31  34
ENDBRANCH   1  30
TORSDOF 6
ENDMDL
MODEL 6
REMARK VINA RESULT:      -5.3      1.544      1.781
REMARK  6 active torsions:
REMARK  status: ('A' for Active; 'I' for Inactive)
REMARK    1  A    between atoms: C_1  and  C_2 
REMARK       I    between atoms: C_2  and  N_4 
REMARK    2  A    between atoms: N_4  and  C_5 
REMARK    3  A    between atoms: C_8  and  C_14 
REMARK    4  A    between atoms: C_9  and  N_11 
REMARK    5  A    between atoms: C_15  and  C_16 
REMARK    6  A    between atoms: C_19  and  N_22 
ROOT
ATOM      1  C   LIG d   1       9.750   7.929  -9.189  0.00  0.00     0.040 A 
ATOM      2  C   LIG d   1       8.934   8.556  -8.253  0.00  0.00    -0.040 A 
ATOM      3  C   LIG d   1       9.211   8.441  -6.909  0.00  0.00    -0.046 A 
ATOM      4  C   LIG d   1      10.322   7.706  -6.486  0.00  0.00     0.052 A 
ATOM      5  C   LIG d   1      11.141   7.079  -7.431  0.00  0.00     0.282 A 
ATOM      6  C   LIG d   1      10.853   7.192  -8.773  0.00  0.00     0.037 A 
ATOM      7  H   LIG d   1       8.078   9.127  -8.581  0.00  0.00     0.064 H 
ATOM      8  H   LIG d   1       8.573   8.924  -6.182  0.00  0.00     0.063 H 
ATOM      9  H   LIG d   1      11.485   6.708  -9.502  0.00  0.00     0.070 H 
ENDROOT
BRANCH   4  10
ATOM     10  C   LIG d   1      10.626   7.587  -5.050  0.00  0.00    -0.048 C 
ATOM     11  C   LIG d   1       9.753   6.987  -4.226  0.00  0.00    -0.054 C 
ATOM     12  H   LIG d   1       8.827   6.591  -4.616  0.00  0.00     0.062 H 
ATOM     13  H   LIG d   1      11.552   7.983  -4.660  0.00  0.00     0.063 H 
BRANCH  11  14
ATOM     14  C   LIG d   1      10.057   6.868  -2.789  0.00  0.00    -0.025 A 
ATOM     15  C   LIG d   1       9.901   7.970  -1.945  0.00  0.00    -0.048 A 
ATOM     16  C   LIG d   1      10.193   7.853  -0.602  0.00  0.00     0.016 A 
ATOM     17  H   LIG d   1       9.557   8.913  -2.344  0.00  0.00     0.063 H 
ATOM     18  C   LIG d   1      10.634   6.645  -0.089  0.00  0.00     0.273 A 
ATOM     19  H   LIG d   1      10.078   8.705   0.051  0.00  0.00     0.069 H 
ATOM     20  C   LIG d   1      10.785   5.547  -0.918  0.00  0.00     0.016 A 
ATOM     21  C   LIG d   1      10.496   5.650  -2.263  0.00  0.00    -0.048 A 
ATOM     22  H   LIG d   1      11.129   4.608  -0.510  0.00  0.00     0.069 H 
ATOM     23  H   LIG d   1      10.615   4.792  -2.909  0.00  0.00     0.063 H 
BRANCH  18  24
ATOM     24  N   LIG d   1      10.945   6.527   1.353  0.00  0.00     0.080 N 
ATOM     25  O   LIG d   1      11.429   7.471   1.952  0.00  0.00     0.041 OA
ATOM     26  O   LIG d   1      10.718   5.485   1.942  0.00  0.00    -0.576 OA
ENDBRANCH  18  24
ENDBRANCH  11  14
ENDBRANCH   4  10
BRANCH   5  27
ATOM     27  N   LIG d   1      12.315   6.292  -6.988  0.00  0.00     0.080 N 
ATOM     28  O   LIG d   1      12.196   5.105  -6.745  0.00  0.00     0.042 OA
ATOM     29  O   LIG d   1      13.400   6.833  -6.868  0.00  0.00    -0.576 OA
ENDBRANCH   5  27
BRANCH   1  30
ATOM     30  N   LIG d   1       9.462   8.043 -10.553  0.00  0.00    -0.285 N 
ATOM     31  C   LIG d   1      10.217   8.838 -11.336  0.00  0.00     0.214 C 
ATOM     32  O   LIG d   1      11.089   9.524 -10.845  0.00  0.00    -0.276 OA
ATOM     33  H   LIG d   1       8.719   7.551 -10.934  0.00  0.00     0.155 HD
BRANCH  31  34
ATOM     34  C   LIG d   1       9.979   8.874 -12.824  0.00  0.00     0.013 C 
ATOM     35  H   LIG d   1       9.174   9.576 -13.046  0.00  0.00     0.032 H 
ATOM     36  H   LIG d   1      10.889   9.194 -13.330  0.00  0.00     0.032 H 
ATOM     37  H   LIG d   1       9.700   7.879 -13.172  0.00  0.00     0.032 H 
ENDBRANCH  31  34
ENDBRANCH   1  30
TORSDOF 6
ENDMDL
MODEL 7
REMARK VINA RESULT:      -5.2      5.668      8.010
REMARK  6 active torsions:
REMARK  status: ('A' for Active; 'I' for Inactive)
REMARK    1  A    between atoms: C_1  and  C_2 
REMARK       I    between atoms: C_2  and  N_4 
REMARK    2  A    between atoms: N_4  and  C_5 
REMARK    3  A    between atoms: C_8  and  C_14 
REMARK    4  A    between atoms: C_9  and  N_11 
REMARK    5  A    between atoms: C_15  and  C_16 
REMARK    6  A    between atoms: C_19  and  N_22 
ROOT
ATOM      1  C   LIG d   1      11.720   5.306  -3.993  0.00  0.00     0.040 A 
ATOM      2  C   LIG d   1      10.442   5.484  -3.474  0.00  0.00    -0.040 A 
ATOM      3  C   LIG d   1       9.602   4.403  -3.321  0.00  0.00    -0.046 A 
ATOM      4  C   LIG d   1      10.041   3.124  -3.676  0.00  0.00     0.052 A 
ATOM      5  C   LIG d   1      11.327   2.950  -4.196  0.00  0.00     0.282 A 
ATOM      6  C   LIG d   1      12.158   4.037  -4.352  0.00  0.00     0.037 A 
ATOM      7  H   LIG d   1      10.105   6.472  -3.196  0.00  0.00     0.064 H 
ATOM      8  H   LIG d   1       8.607   4.543  -2.924  0.00  0.00     0.063 H 
ATOM      9  H   LIG d   1      13.152   3.902  -4.754  0.00  0.00     0.070 H 
ENDROOT
BRANCH   4  10
ATOM     10  C   LIG d   1       9.149   1.964  -3.508  0.00  0.00    -0.048 C 
ATOM     11  C   LIG d   1       7.853   2.059  -3.847  0.00  0.00    -0.054 C 
ATOM     12  H   LIG d   1       7.465   2.985  -4.243  0.00  0.00     0.062 H 
ATOM     13  H   LIG d   1       9.537   1.037  -3.112  0.00  0.00     0.063 H 
BRANCH  11  14
ATOM     14  C   LIG d   1       6.960   0.898  -3.679  0.00  0.00    -0.025 A 
ATOM     15  C   LIG d   1       7.309  -0.340  -4.224  0.00  0.00    -0.048 A 
ATOM     16  C   LIG d   1       6.466  -1.420  -4.068  0.00  0.00     0.016 A 
ATOM     17  H   LIG d   1       8.234  -0.450  -4.770  0.00  0.00     0.063 H 
ATOM     18  C   LIG d   1       5.280  -1.282  -3.368  0.00  0.00     0.273 A 
ATOM     19  H   LIG d   1       6.731  -2.377  -4.493  0.00  0.00     0.069 H 
ATOM     20  C   LIG d   1       4.930  -0.060  -2.820  0.00  0.00     0.016 A 
ATOM     21  C   LIG d   1       5.764   1.029  -2.968  0.00  0.00    -0.048 A 
ATOM     22  H   LIG d   1       4.004   0.041  -2.275  0.00  0.00     0.069 H 
ATOM     23  H   LIG d   1       5.491   1.982  -2.540  0.00  0.00     0.063 H 
BRANCH  18  24
ATOM     24  N   LIG d   1       4.380  -2.446  -3.205  0.00  0.00     0.080 N 
ATOM     25  O   LIG d   1       4.423  -3.366  -4.001  0.00  0.00     0.041 OA
ATOM     26  O   LIG d   1       3.596  -2.483  -2.273  0.00  0.00    -0.576 OA
ENDBRANCH  18  24
ENDBRANCH  11  14
ENDBRANCH   4  10
BRANCH   5  27
ATOM     27  N   LIG d   1      11.794   1.598  -4.580  0.00  0.00     0.080 N 
ATOM     28  O   LIG d   1      11.626   1.196  -5.717  0.00  0.00     0.042 OA
ATOM     29  O   LIG d   1      12.348   0.888  -3.759  0.00  0.00    -0.576 OA
ENDBRANCH   5  27
BRANCH   1  30
ATOM     30  N   LIG d   1      12.567   6.407  -4.151  0.00  0.00    -0.285 N 
ATOM     31  C   LIG d   1      13.469   6.705  -3.195  0.00  0.00     0.214 C 
ATOM     32  O   LIG d   1      13.486   6.076  -2.158  0.00  0.00    -0.276 OA
ATOM     33  H   LIG d   1      12.505   6.956  -4.948  0.00  0.00     0.155 HD
BRANCH  31  34
ATOM     34  C   LIG d   1      14.458   7.822  -3.415  0.00  0.00     0.013 C 
ATOM     35  H   LIG d   1      13.997   8.774  -3.148  0.00  0.00     0.032 H 
ATOM     36  H   LIG d   1      15.337   7.657  -2.793  0.00  0.00     0.032 H 
ATOM     37  H   LIG d   1      14.754   7.843  -4.464  0.00  0.00     0.032 H 
ENDBRANCH  31  34
ENDBRANCH   1  30
TORSDOF 6
ENDMDL
MODEL 8
REMARK VINA RESULT:      -5.1      9.061     11.567
REMARK  6 active torsions:
REMARK  status: ('A' for Active; 'I' for Inactive)
REMARK    1  A    between atoms: C_1  and  C_2 
REMARK       I    between atoms: C_2  and  N_4 
REMARK    2  A    between atoms: N_4  and  C_5 
REMARK    3  A    between atoms: C_8  and  C_14 
REMARK    4  A    between atoms: C_9  and  N_11 
REMARK    5  A    between atoms: C_15  and  C_16 
REMARK    6  A    between atoms: C_19  and  N_22 
ROOT
ATOM      1  C   LIG d   1       8.313   1.748  -4.273  0.00  0.00     0.040 A 
ATOM      2  C   LIG d   1       9.028   0.718  -4.875  0.00  0.00    -0.040 A 
ATOM      3  C   LIG d   1       8.503  -0.554  -4.917  0.00  0.00    -0.046 A 
ATOM      4  C   LIG d   1       7.244  -0.808  -4.365  0.00  0.00     0.052 A 
ATOM      5  C   LIG d   1       6.528   0.231  -3.762  0.00  0.00     0.282 A 
ATOM      6  C   LIG d   1       7.063   1.500  -3.718  0.00  0.00     0.037 A 
ATOM      7  H   LIG d   1       9.999   0.915  -5.305  0.00  0.00     0.064 H 
ATOM      8  H   LIG d   1       9.062  -1.355  -5.380  0.00  0.00     0.063 H 
ATOM      9  H   LIG d   1       6.510   2.302  -3.252  0.00  0.00     0.070 H 
ENDROOT
BRANCH   4  10
ATOM     10  C   LIG d   1       6.676  -2.165  -4.414  0.00  0.00    -0.048 C 
ATOM     11  C   LIG d   1       6.915  -2.956  -5.472  0.00  0.00    -0.054 C 
ATOM     12  H   LIG d   1       7.524  -2.596  -6.288  0.00  0.00     0.062 H 
ATOM     13  H   LIG d   1       6.066  -2.525  -3.598  0.00  0.00     0.063 H 
BRANCH  11  14
ATOM     14  C   LIG d   1       6.346  -4.314  -5.521  0.00  0.00    -0.025 A 
ATOM     15  C   LIG d   1       7.188  -5.429  -5.484  0.00  0.00    -0.048 A 
ATOM     16  C   LIG d   1       6.650  -6.698  -5.537  0.00  0.00     0.016 A 
ATOM     17  H   LIG d   1       8.258  -5.297  -5.420  0.00  0.00     0.063 H 
ATOM     18  C   LIG d   1       5.278  -6.868  -5.619  0.00  0.00     0.273 A 
ATOM     19  H   LIG d   1       7.298  -7.560  -5.513  0.00  0.00     0.069 H 
ATOM     20  C   LIG d   1       4.438  -5.769  -5.650  0.00  0.00     0.016 A 
ATOM     21  C   LIG d   1       4.963  -4.495  -5.599  0.00  0.00    -0.048 A 
ATOM     22  H   LIG d   1       3.369  -5.910  -5.714  0.00  0.00     0.069 H 
ATOM     23  H   LIG d   1       4.306  -3.638  -5.623  0.00  0.00     0.063 H 
BRANCH  18  24
ATOM     24  N   LIG d   1       4.708  -8.233  -5.675  0.00  0.00     0.080 N 
ATOM     25  O   LIG d   1       4.644  -8.824  -6.737  0.00  0.00     0.041 OA
ATOM     26  O   LIG d   1       4.301  -8.765  -4.657  0.00  0.00    -0.576 OA
ENDBRANCH  18  24
ENDBRANCH  11  14
ENDBRANCH   4  10
BRANCH   5  27
ATOM     27  N   LIG d   1       5.196  -0.033  -3.170  0.00  0.00     0.080 N 
ATOM     28  O   LIG d   1       4.195   0.074  -3.854  0.00  0.00     0.042 OA
ATOM     29  O   LIG d   1       5.104  -0.357  -2.000  0.00  0.00    -0.576 OA
ENDBRANCH   5  27
BRANCH   1  30
ATOM     30  N   LIG d   1       8.852   3.038  -4.228  0.00  0.00    -0.285 N 
ATOM     31  C   LIG d   1       9.866   3.314  -3.384  0.00  0.00     0.214 C 
ATOM     32  O   LIG d   1      10.251   2.472  -2.600  0.00  0.00    -0.276 OA
ATOM     33  H   LIG d   1       8.496   3.732  -4.803  0.00  0.00     0.155 HD
BRANCH  31  34
ATOM     34  C   LIG d   1      10.523   4.670  -3.415  0.00  0.00     0.013 C 
ATOM     35  H   LIG d   1       9.866   5.381  -3.917  0.00  0.00     0.032 H 
ATOM     36  H   LIG d   1      10.711   5.006  -2.395  0.00  0.00     0.032 H 
ATOM     37  H   LIG d   1      11.468   4.604  -3.955  0.00  0.00     0.032 H 
ENDBRANCH  31  34
ENDBRANCH   1  30
TORSDOF 6
ENDMDL
MODEL 9
REMARK VINA RESULT:      -5.1     15.684     17.064
REMARK  6 active torsions:
REMARK  status: ('A' for Active; 'I' for Inactive)
REMARK    1  A    between atoms: C_1  and  C_2 
REMARK       I    between atoms: C_2  and  N_4 
REMARK    2  A    between atoms: N_4  and  C_5 
REMARK    3  A    between atoms: C_8  and  C_14 
REMARK    4  A    between atoms: C_9  and  N_11 
REMARK    5  A    between atoms: C_15  and  C_16 
REMARK    6  A    between atoms: C_19  and  N_22 
ROOT
ATOM      1  C   LIG d   1       6.807  -9.154  -4.630  0.00  0.00     0.040 A 
ATOM      2  C   LIG d   1       7.814  -8.268  -4.261  0.00  0.00    -0.040 A 
ATOM      3  C   LIG d   1       8.410  -8.377  -3.025  0.00  0.00    -0.046 A 
ATOM      4  C   LIG d   1       8.010  -9.386  -2.144  0.00  0.00     0.052 A 
ATOM      5  C   LIG d   1       6.998 -10.275  -2.519  0.00  0.00     0.282 A 
ATOM      6  C   LIG d   1       6.402 -10.155  -3.755  0.00  0.00     0.037 A 
ATOM      7  H   LIG d   1       8.125  -7.491  -4.944  0.00  0.00     0.064 H 
ATOM      8  H   LIG d   1       9.188  -7.685  -2.737  0.00  0.00     0.063 H 
ATOM      9  H   LIG d   1       5.620 -10.841  -4.045  0.00  0.00     0.070 H 
ENDROOT
BRANCH   4  10
ATOM     10  C   LIG d   1       8.649  -9.510  -0.823  0.00  0.00    -0.048 C 
ATOM     11  C   LIG d   1       9.798 -10.193  -0.694  0.00  0.00    -0.054 C 
ATOM     12  H   LIG d   1      10.254 -10.651  -1.559  0.00  0.00     0.062 H 
ATOM     13  H   LIG d   1       8.193  -9.051   0.043  0.00  0.00     0.063 H 
BRANCH  11  14
ATOM     14  C   LIG d   1      10.438 -10.317   0.628  0.00  0.00    -0.025 A 
ATOM     15  C   LIG d   1      10.544 -11.567   1.241  0.00  0.00    -0.048 A 
ATOM     16  C   LIG d   1      11.139 -11.676   2.481  0.00  0.00     0.016 A 
ATOM     17  H   LIG d   1      10.157 -12.447   0.748  0.00  0.00     0.063 H 
ATOM     18  C   LIG d   1      11.636 -10.550   3.114  0.00  0.00     0.273 A 
ATOM     19  H   LIG d   1      11.217 -12.640   2.959  0.00  0.00     0.069 H 
ATOM     20  C   LIG d   1      11.540  -9.308   2.510  0.00  0.00     0.016 A 
ATOM     21  C   LIG d   1      10.947  -9.185   1.270  0.00  0.00    -0.048 A 
ATOM     22  H   LIG d   1      11.930  -8.434   3.010  0.00  0.00     0.069 H 
ATOM     23  H   LIG d   1      10.873  -8.216   0.800  0.00  0.00     0.063 H 
BRANCH  18  24
ATOM     24  N   LIG d   1      12.273 -10.673   4.444  0.00  0.00     0.080 N 
ATOM     25  O   LIG d   1      13.205  -9.949   4.743  0.00  0.00     0.041 OA
ATOM     26  O   LIG d   1      11.864 -11.500   5.241  0.00  0.00    -0.576 OA
ENDBRANCH  18  24
ENDBRANCH  11  14
ENDBRANCH   4  10
BRANCH   5  27
ATOM     27  N   LIG d   1       6.565 -11.342  -1.588  0.00  0.00     0.080 N 
ATOM     28  O   LIG d   1       5.832 -11.073  -0.653  0.00  0.00     0.042 OA
ATOM     29  O   LIG d   1       6.943 -12.487  -1.757  0.00  0.00    -0.576 OA
ENDBRANCH   5  27
BRANCH   1  30
ATOM     30  N   LIG d   1       6.200  -9.036  -5.885  0.00  0.00    -0.285 N 
ATOM     31  C   LIG d   1       5.083  -8.297  -6.026  0.00  0.00     0.214 C 
ATOM     32  O   LIG d   1       4.550  -7.809  -5.051  0.00  0.00    -0.276 OA
ATOM     33  H   LIG d   1       6.584  -9.487  -6.652  0.00  0.00     0.155 HD
BRANCH  31  34
ATOM     34  C   LIG d   1       4.493  -8.078  -7.396  0.00  0.00     0.013 C 
ATOM     35  H   LIG d   1       4.030  -7.092  -7.439  0.00  0.00     0.032 H 
ATOM     36  H   LIG d   1       5.281  -8.143  -8.145  0.00  0.00     0.032 H 
ATOM     37  H   LIG d   1       3.740  -8.842  -7.593  0.00  0.00     0.032 H 
ENDBRANCH  31  34
ENDBRANCH   1  30
TORSDOF 6
ENDMDL
MODEL 10
REMARK VINA RESULT:      -5.0     16.244     17.470
REMARK  6 active torsions:
REMARK  status: ('A' for Active; 'I' for Inactive)
REMARK    1  A    between atoms: C_1  and  C_2 
REMARK       I    between atoms: C_2  and  N_4 
REMARK    2  A    between atoms: N_4  and  C_5 
REMARK    3  A    between atoms: C_8  and  C_14 
REMARK    4  A    between atoms: C_9  and  N_11 
REMARK    5  A    between atoms: C_15  and  C_16 
REMARK    6  A    between atoms: C_19  and  N_22 
ROOT
ATOM      1  C   LIG d   1       5.441 -10.619  -3.844  0.00  0.00     0.040 A 
ATOM      2  C   LIG d   1       5.220 -11.072  -2.547  0.00  0.00    -0.040 A 
ATOM      3  C   LIG d   1       6.147 -10.819  -1.561  0.00  0.00    -0.046 A 
ATOM      4  C   LIG d   1       7.305 -10.095  -1.860  0.00  0.00     0.052 A 
ATOM      5  C   LIG d   1       7.522  -9.640  -3.165  0.00  0.00     0.282 A 
ATOM      6  C   LIG d   1       6.593  -9.903  -4.147  0.00  0.00     0.037 A 
ATOM      7  H   LIG d   1       4.324 -11.629  -2.316  0.00  0.00     0.064 H 
ATOM      8  H   LIG d   1       5.978 -11.177  -0.555  0.00  0.00     0.063 H 
ATOM      9  H   LIG d   1       6.760  -9.552  -5.155  0.00  0.00     0.070 H 
ENDROOT
BRANCH   4  10
ATOM     10  C   LIG d   1       8.295  -9.817  -0.806  0.00  0.00    -0.048 C 
ATOM     11  C   LIG d   1       9.120 -10.789  -0.387  0.00  0.00    -0.054 C 
ATOM     12  H   LIG d   1       9.058 -11.775  -0.822  0.00  0.00     0.062 H 
ATOM     13  H   LIG d   1       8.357  -8.830  -0.371  0.00  0.00     0.063 H 
BRANCH  11  14
ATOM     14  C   LIG d   1      10.112 -10.510   0.668  0.00  0.00    -0.025 A 
ATOM     15  C   LIG d   1      10.684  -9.241   0.774  0.00  0.00    -0.048 A 
ATOM     16  C   LIG d   1      11.616  -8.988   1.760  0.00  0.00     0.016 A 
ATOM     17  H   LIG d   1      10.402  -8.459   0.084  0.00  0.00     0.063 H 
ATOM     18  C   LIG d   1      11.979  -9.988   2.645  0.00  0.00     0.273 A 
ATOM     19  H   LIG d   1      12.064  -8.010   1.841  0.00  0.00     0.069 H 
ATOM     20  C   LIG d   1      11.412 -11.247   2.550  0.00  0.00     0.016 A 
ATOM     21  C   LIG d   1      10.479 -11.513   1.569  0.00  0.00    -0.048 A 
ATOM     22  H   LIG d   1      11.700 -12.022   3.244  0.00  0.00     0.069 H 
ATOM     23  H   LIG d   1      10.036 -12.496   1.495  0.00  0.00     0.063 H 
BRANCH  18  24
ATOM     24  N   LIG d   1      12.980  -9.711   3.701  0.00  0.00     0.080 N 
ATOM     25  O   LIG d   1      13.961 -10.423   3.813  0.00  0.00     0.041 OA
ATOM     26  O   LIG d   1      12.821  -8.768   4.457  0.00  0.00    -0.576 OA
ENDBRANCH  18  24
ENDBRANCH  11  14
ENDBRANCH   4  10
BRANCH   5  27
ATOM     27  N   LIG d   1       8.749  -8.878  -3.489  0.00  0.00     0.080 N 
ATOM     28  O   LIG d   1       9.754  -9.466  -3.844  0.00  0.00     0.042 OA
ATOM     29  O   LIG d   1       8.752  -7.663  -3.402  0.00  0.00    -0.576 OA
ENDBRANCH   5  27
BRANCH   1  30
ATOM     30  N   LIG d   1       4.500 -10.882  -4.844  0.00  0.00    -0.285 N 
ATOM     31  C   LIG d   1       4.576 -12.024  -5.556  0.00  0.00     0.214 C 
ATOM     32  O   LIG d   1       5.512 -12.779  -5.395  0.00  0.00    -0.276 OA
ATOM     33  H   LIG d   1       3.793 -10.244  -5.025  0.00  0.00     0.155 HD
BRANCH  31  34
ATOM     34  C   LIG d   1       3.499 -12.361  -6.555  0.00  0.00     0.013 C 
ATOM     35  H   LIG d   1       2.602 -12.684  -6.027  0.00  0.00     0.032 H 
ATOM     36  H   LIG d   1       3.271 -11.481  -7.155  0.00  0.00     0.032 H 
ATOM     37  H   LIG d   1       3.847 -13.164  -7.206  0.00  0.00     0.032 H 
ENDBRANCH  31  34
ENDBRANCH   1  30
TORSDOF 6
ENDMDL
