MODEL 1
REMARK VINA RESULT:      -6.9      0.000      0.000
REMARK  5 active torsions:
REMARK  status: ('A' for Active; 'I' for Inactive)
REMARK    1  A    between atoms: C_1  and  C_2 
REMARK    2  A    between atoms: C_6  and  C_26 
REMARK    3  A    between atoms: C_12  and  C_13 
REMARK    4  A    between atoms: C_12  and  C_14 
REMARK    5  A    between atoms: N_22  and  C_25 
ROOT
ATOM      1  C   LIG d   1      10.611   4.070  -3.272  0.00  0.00     0.052 C 
ATOM      2  C   LIG d   1       9.361   4.608  -3.985  0.00  0.00     0.014 C 
ATOM      3  N   LIG d   1       9.196   3.913  -5.269  0.00  0.00    -0.280 N 
ATOM      4  C   LIG d   1      10.312   4.178  -6.186  0.00  0.00     0.014 C 
ATOM      5  C   LIG d   1      11.610   3.618  -5.583  0.00  0.00     0.052 C 
ATOM      6  C   LIG d   1      11.784   4.282  -4.222  0.00  0.00     0.150 C 
ATOM      7  O   LIG d   1      12.765   4.920  -3.922  0.00  0.00    -0.296 OA
ATOM      8  C   LIG d   1      11.406   2.118  -5.311  0.00  0.00     0.014 C 
ATOM      9  N   LIG d   1      10.246   1.938  -4.428  0.00  0.00    -0.280 N 
ATOM     10  C   LIG d   1      10.454   2.549  -3.108  0.00  0.00     0.014 C 
ATOM     11  C   LIG d   1       9.027   2.467  -5.059  0.00  0.00     0.093 C 
ATOM     12  H   LIG d   1       8.476   4.432  -3.355  0.00  0.00     0.044 H 
ATOM     13  H   LIG d   1       9.476   5.688  -4.163  0.00  0.00     0.044 H 
ATOM     14  H   LIG d   1      10.116   3.690  -7.152  0.00  0.00     0.044 H 
ATOM     15  H   LIG d   1      10.414   5.262  -6.337  0.00  0.00     0.044 H 
ATOM     16  H   LIG d   1      11.230   1.594  -6.262  0.00  0.00     0.044 H 
ATOM     17  H   LIG d   1      12.305   1.707  -4.827  0.00  0.00     0.044 H 
ATOM     18  H   LIG d   1      11.363   2.133  -2.649  0.00  0.00     0.044 H 
ATOM     19  H   LIG d   1       9.588   2.336  -2.464  0.00  0.00     0.044 H 
ENDROOT
BRANCH  11  20
ATOM     20  C   LIG d   1       8.803   1.776  -6.405  0.00  0.00    -0.029 C 
ATOM     21  H   LIG d   1       8.138   0.910  -6.267  0.00  0.00     0.026 H 
ATOM     22  H   LIG d   1       9.769   1.435  -6.807  0.00  0.00     0.026 H 
ATOM     23  H   LIG d   1       8.342   2.484  -7.109  0.00  0.00     0.026 H 
ENDBRANCH  11  20
BRANCH  11  24
ATOM     24  C   LIG d   1       7.844   2.222  -4.157  0.00  0.00    -0.037 C 
ATOM     25  C   LIG d   1       7.403   0.969  -3.952  0.00  0.00     0.045 A 
ATOM     26  C   LIG d   1       8.024  -0.293  -4.415  0.00  0.00     0.251 A 
ATOM     27  C   LIG d   1       6.191   0.545  -3.207  0.00  0.00     0.008 A 
ATOM     28  N   LIG d   1       7.256  -1.310  -3.990  0.00  0.00    -0.270 N 
ATOM     29  O   LIG d   1       9.049  -0.392  -5.063  0.00  0.00    -0.270 OA
ATOM     30  C   LIG d   1       6.155  -0.852  -3.272  0.00  0.00     0.044 A 
ATOM     31  C   LIG d   1       5.110  -1.530  -2.654  0.00  0.00    -0.040 A 
ATOM     32  C   LIG d   1       4.124  -0.827  -1.993  0.00  0.00    -0.060 A 
ATOM     33  H   LIG d   1       5.071  -2.609  -2.690  0.00  0.00     0.064 H 
ATOM     34  C   LIG d   1       4.161   0.556  -1.936  0.00  0.00    -0.061 A 
ATOM     35  H   LIG d   1       3.315  -1.361  -1.514  0.00  0.00     0.062 H 
ATOM     36  C   LIG d   1       5.190   1.245  -2.545  0.00  0.00    -0.052 A 
ATOM     37  H   LIG d   1       3.383   1.096  -1.417  0.00  0.00     0.062 H 
ATOM     38  H   LIG d   1       5.220   2.324  -2.502  0.00  0.00     0.062 H 
ATOM     39  H   LIG d   1       7.342   3.069  -3.666  0.00  0.00     0.061 H 
BRANCH  28  40
ATOM     40  C   LIG d   1       7.541  -2.723  -4.250  0.00  0.00     0.009 C 
ATOM     41  H   LIG d   1       8.605  -2.844  -4.495  0.00  0.00     0.043 H 
ATOM     42  H   LIG d   1       6.928  -3.071  -5.095  0.00  0.00     0.043 H 
ATOM     43  H   LIG d   1       7.300  -3.316  -3.355  0.00  0.00     0.043 H 
ENDBRANCH  28  40
ENDBRANCH  11  24
BRANCH   1  44
ATOM     44  C   LIG d   1      10.839   4.770  -1.930  0.00  0.00    -0.050 C 
ATOM     45  H   LIG d   1      11.787   4.426  -1.493  0.00  0.00     0.024 H 
ATOM     46  H   LIG d   1      10.012   4.531  -1.246  0.00  0.00     0.024 H 
ATOM     47  H   LIG d   1      10.882   5.858  -2.088  0.00  0.00     0.024 H 
ENDBRANCH   1  44
BRANCH   5  48
ATOM     48  C   LIG d   1      12.811   3.877  -6.494  0.00  0.00    -0.050 C 
ATOM     49  H   LIG d   1      12.676   3.338  -7.443  0.00  0.00     0.024 H 
ATOM     50  H   LIG d   1      13.728   3.523  -5.999  0.00  0.00     0.024 H 
ATOM     51  H   LIG d   1      12.895   4.956  -6.692  0.00  0.00     0.024 H 
ENDBRANCH   5  48
TORSDOF 5
ENDMDL
MODEL 2
REMARK VINA RESULT:      -6.8      5.122      7.457
REMARK  5 active torsions:
REMARK  status: ('A' for Active; 'I' for Inactive)
REMARK    1  A    between atoms: C_1  and  C_2 
REMARK    2  A    between atoms: C_6  and  C_26 
REMARK    3  A    between atoms: C_12  and  C_13 
REMARK    4  A    between atoms: C_12  and  C_14 
REMARK    5  A    between atoms: N_22  and  C_25 
ROOT
ATOM      1  C   LIG d   1       3.758   0.707  -9.940  0.00  0.00     0.052 C 
ATOM      2  C   LIG d   1       2.493   0.143  -9.276  0.00  0.00     0.014 C 
ATOM      3  N   LIG d   1       2.711  -1.270  -8.935  0.00  0.00    -0.280 N 
ATOM      4  C   LIG d   1       2.927  -2.098 -10.128  0.00  0.00     0.014 C 
ATOM      5  C   LIG d   1       4.214  -1.645 -10.835  0.00  0.00     0.052 C 
ATOM      6  C   LIG d   1       4.042  -0.165 -11.157  0.00  0.00     0.150 C 
ATOM      7  O   LIG d   1       4.122   0.277 -12.278  0.00  0.00    -0.296 OA
ATOM      8  C   LIG d   1       5.374  -1.738  -9.828  0.00  0.00     0.014 C 
ATOM      9  N   LIG d   1       5.058  -0.923  -8.648  0.00  0.00    -0.280 N 
ATOM     10  C   LIG d   1       4.939   0.504  -8.976  0.00  0.00     0.014 C 
ATOM     11  C   LIG d   1       3.833  -1.410  -7.994  0.00  0.00     0.093 C 
ATOM     12  H   LIG d   1       2.274   0.713  -8.360  0.00  0.00     0.044 H 
ATOM     13  H   LIG d   1       1.644   0.226  -9.971  0.00  0.00     0.044 H 
ATOM     14  H   LIG d   1       3.023  -3.152  -9.830  0.00  0.00     0.044 H 
ATOM     15  H   LIG d   1       2.073  -1.987 -10.812  0.00  0.00     0.044 H 
ATOM     16  H   LIG d   1       5.513  -2.786  -9.525  0.00  0.00     0.044 H 
ATOM     17  H   LIG d   1       6.297  -1.366 -10.297  0.00  0.00     0.044 H 
ATOM     18  H   LIG d   1       5.867   0.852  -9.453  0.00  0.00     0.044 H 
ATOM     19  H   LIG d   1       4.763   1.080  -8.054  0.00  0.00     0.044 H 
ENDROOT
BRANCH  11  20
ATOM     20  C   LIG d   1       4.004  -2.881  -7.614  0.00  0.00    -0.029 C 
ATOM     21  H   LIG d   1       3.235  -3.162  -6.878  0.00  0.00     0.026 H 
ATOM     22  H   LIG d   1       5.002  -3.034  -7.178  0.00  0.00     0.026 H 
ATOM     23  H   LIG d   1       3.897  -3.507  -8.512  0.00  0.00     0.026 H 
ENDBRANCH  11  20
BRANCH  11  24
ATOM     24  C   LIG d   1       3.561  -0.592  -6.757  0.00  0.00    -0.037 C 
ATOM     25  C   LIG d   1       4.382  -0.684  -5.697  0.00  0.00     0.045 A 
ATOM     26  C   LIG d   1       5.660  -1.426  -5.607  0.00  0.00     0.251 A 
ATOM     27  C   LIG d   1       4.209  -0.061  -4.361  0.00  0.00     0.008 A 
ATOM     28  N   LIG d   1       6.152  -1.250  -4.369  0.00  0.00    -0.270 N 
ATOM     29  O   LIG d   1       6.175  -2.077  -6.496  0.00  0.00    -0.270 OA
ATOM     30  C   LIG d   1       5.316  -0.448  -3.597  0.00  0.00     0.044 A 
ATOM     31  C   LIG d   1       5.418  -0.006  -2.282  0.00  0.00    -0.040 A 
ATOM     32  C   LIG d   1       4.434   0.798  -1.744  0.00  0.00    -0.060 A 
ATOM     33  H   LIG d   1       6.269  -0.292  -1.682  0.00  0.00     0.064 H 
ATOM     34  C   LIG d   1       3.338   1.174  -2.502  0.00  0.00    -0.061 A 
ATOM     35  H   LIG d   1       4.520   1.138  -0.722  0.00  0.00     0.062 H 
ATOM     36  C   LIG d   1       3.220   0.744  -3.808  0.00  0.00    -0.052 A 
ATOM     37  H   LIG d   1       2.573   1.803  -2.070  0.00  0.00     0.062 H 
ATOM     38  H   LIG d   1       2.366   1.036  -4.401  0.00  0.00     0.062 H 
ATOM     39  H   LIG d   1       2.692   0.081  -6.723  0.00  0.00     0.061 H 
BRANCH  28  40
ATOM     40  C   LIG d   1       7.409  -1.830  -3.891  0.00  0.00     0.009 C 
ATOM     41  H   LIG d   1       8.165  -1.772  -4.686  0.00  0.00     0.043 H 
ATOM     42  H   LIG d   1       7.245  -2.883  -3.617  0.00  0.00     0.043 H 
ATOM     43  H   LIG d   1       7.758  -1.273  -3.009  0.00  0.00     0.043 H 
ENDBRANCH  28  40
ENDBRANCH  11  24
BRANCH   1  44
ATOM     44  C   LIG d   1       3.581   2.176 -10.329  0.00  0.00    -0.050 C 
ATOM     45  H   LIG d   1       3.313   2.244 -11.393  0.00  0.00     0.024 H 
ATOM     46  H   LIG d   1       4.522   2.719 -10.153  0.00  0.00     0.024 H 
ATOM     47  H   LIG d   1       2.781   2.623  -9.720  0.00  0.00     0.024 H 
ENDBRANCH   1  44
BRANCH   5  48
ATOM     48  C   LIG d   1       4.483  -2.469 -12.096  0.00  0.00    -0.050 C 
ATOM     49  H   LIG d   1       4.709  -1.794 -12.934  0.00  0.00     0.024 H 
ATOM     50  H   LIG d   1       3.594  -3.069 -12.338  0.00  0.00     0.024 H 
ATOM     51  H   LIG d   1       5.340  -3.137 -11.921  0.00  0.00     0.024 H 
ENDBRANCH   5  48
TORSDOF 5
ENDMDL
MODEL 3
REMARK VINA RESULT:      -6.5      5.567      7.974
REMARK  5 active torsions:
REMARK  status: ('A' for Active; 'I' for Inactive)
REMARK    1  A    between atoms: C_1  and  C_2 
REMARK    2  A    between atoms: C_6  and  C_26 
REMARK    3  A    between atoms: C_12  and  C_13 
REMARK    4  A    between atoms: C_12  and  C_14 
REMARK    5  A    between atoms: N_22  and  C_25 
ROOT
ATOM      1  C   LIG d   1       2.474  -1.573 -10.073  0.00  0.00     0.052 C 
ATOM      2  C   LIG d   1       3.599  -2.059  -9.146  0.00  0.00     0.014 C 
ATOM      3  N   LIG d   1       4.719  -1.109  -9.201  0.00  0.00    -0.280 N 
ATOM      4  C   LIG d   1       5.319  -1.041 -10.539  0.00  0.00     0.014 C 
ATOM      5  C   LIG d   1       4.280  -0.505 -11.536  0.00  0.00     0.052 C 
ATOM      6  C   LIG d   1       3.079  -1.440 -11.465  0.00  0.00     0.150 C 
ATOM      7  O   LIG d   1       2.645  -2.026 -12.428  0.00  0.00    -0.296 OA
ATOM      8  C   LIG d   1       3.793   0.865 -11.032  0.00  0.00     0.014 C 
ATOM      9  N   LIG d   1       3.254   0.718  -9.674  0.00  0.00    -0.280 N 
ATOM     10  C   LIG d   1       2.072  -0.153  -9.637  0.00  0.00     0.014 C 
ATOM     11  C   LIG d   1       4.292   0.225  -8.754  0.00  0.00     0.093 C 
ATOM     12  H   LIG d   1       3.222  -2.123  -8.114  0.00  0.00     0.044 H 
ATOM     13  H   LIG d   1       3.942  -3.052  -9.474  0.00  0.00     0.044 H 
ATOM     14  H   LIG d   1       6.189  -0.369 -10.517  0.00  0.00     0.044 H 
ATOM     15  H   LIG d   1       5.641  -2.047 -10.849  0.00  0.00     0.044 H 
ATOM     16  H   LIG d   1       4.636   1.571 -11.019  0.00  0.00     0.044 H 
ATOM     17  H   LIG d   1       3.007   1.244 -11.702  0.00  0.00     0.044 H 
ATOM     18  H   LIG d   1       1.305   0.237 -10.322  0.00  0.00     0.044 H 
ATOM     19  H   LIG d   1       1.669  -0.184  -8.614  0.00  0.00     0.044 H 
ENDROOT
BRANCH  11  20
ATOM     20  C   LIG d   1       5.487   1.179  -8.769  0.00  0.00    -0.029 C 
ATOM     21  H   LIG d   1       6.211   0.849  -9.529  0.00  0.00     0.026 H 
ATOM     22  H   LIG d   1       5.969   1.180  -7.780  0.00  0.00     0.026 H 
ATOM     23  H   LIG d   1       5.142   2.195  -9.010  0.00  0.00     0.026 H 
ENDBRANCH  11  20
BRANCH  11  24
ATOM     24  C   LIG d   1       3.729   0.135  -7.358  0.00  0.00    -0.037 C 
ATOM     25  C   LIG d   1       4.481  -0.362  -6.361  0.00  0.00     0.045 A 
ATOM     26  C   LIG d   1       5.910  -0.744  -6.413  0.00  0.00     0.251 A 
ATOM     27  C   LIG d   1       4.062  -0.642  -4.965  0.00  0.00     0.008 A 
ATOM     28  N   LIG d   1       6.260  -1.193  -5.196  0.00  0.00    -0.270 N 
ATOM     29  O   LIG d   1       6.639  -0.665  -7.384  0.00  0.00    -0.270 OA
ATOM     30  C   LIG d   1       5.188  -1.152  -4.309  0.00  0.00     0.044 A 
ATOM     31  C   LIG d   1       5.086  -1.510  -2.969  0.00  0.00    -0.040 A 
ATOM     32  C   LIG d   1       3.884  -1.367  -2.305  0.00  0.00    -0.060 A 
ATOM     33  H   LIG d   1       5.947  -1.899  -2.447  0.00  0.00     0.064 H 
ATOM     34  C   LIG d   1       2.771  -0.868  -2.960  0.00  0.00    -0.061 A 
ATOM     35  H   LIG d   1       3.812  -1.647  -1.264  0.00  0.00     0.062 H 
ATOM     36  C   LIG d   1       2.855  -0.508  -4.290  0.00  0.00    -0.052 A 
ATOM     37  H   LIG d   1       1.836  -0.762  -2.430  0.00  0.00     0.062 H 
ATOM     38  H   LIG d   1       1.988  -0.120  -4.802  0.00  0.00     0.062 H 
ATOM     39  H   LIG d   1       2.703   0.478  -7.157  0.00  0.00     0.061 H 
BRANCH  28  40
ATOM     40  C   LIG d   1       7.601  -1.666  -4.846  0.00  0.00     0.009 C 
ATOM     41  H   LIG d   1       8.338  -0.882  -5.071  0.00  0.00     0.043 H 
ATOM     42  H   LIG d   1       7.836  -2.568  -5.432  0.00  0.00     0.043 H 
ATOM     43  H   LIG d   1       7.637  -1.908  -3.774  0.00  0.00     0.043 H 
ENDBRANCH  28  40
ENDBRANCH  11  24
BRANCH   1  44
ATOM     44  C   LIG d   1       1.284  -2.534 -10.064  0.00  0.00    -0.050 C 
ATOM     45  H   LIG d   1       0.546  -2.210 -10.812  0.00  0.00     0.024 H 
ATOM     46  H   LIG d   1       0.819  -2.533  -9.067  0.00  0.00     0.024 H 
ATOM     47  H   LIG d   1       1.631  -3.549 -10.306  0.00  0.00     0.024 H 
ENDBRANCH   1  44
BRANCH   5  48
ATOM     48  C   LIG d   1       4.849  -0.424 -12.954  0.00  0.00    -0.050 C 
ATOM     49  H   LIG d   1       4.107   0.039 -13.621  0.00  0.00     0.024 H 
ATOM     50  H   LIG d   1       5.084  -1.437 -13.312  0.00  0.00     0.024 H 
ATOM     51  H   LIG d   1       5.766   0.184 -12.947  0.00  0.00     0.024 H 
ENDBRANCH   5  48
TORSDOF 5
ENDMDL
MODEL 4
REMARK VINA RESULT:      -6.2      3.075      6.546
REMARK  5 active torsions:
REMARK  status: ('A' for Active; 'I' for Inactive)
REMARK    1  A    between atoms: C_1  and  C_2 
REMARK    2  A    between atoms: C_6  and  C_26 
REMARK    3  A    between atoms: C_12  and  C_13 
REMARK    4  A    between atoms: C_12  and  C_14 
REMARK    5  A    between atoms: N_22  and  C_25 
ROOT
ATOM      1  C   LIG d   1       9.722  -5.360  -3.211  0.00  0.00     0.052 C 
ATOM      2  C   LIG d   1       9.759  -3.836  -3.019  0.00  0.00     0.014 C 
ATOM      3  N   LIG d   1       9.843  -3.182  -4.332  0.00  0.00    -0.280 N 
ATOM      4  C   LIG d   1      11.087  -3.516  -5.036  0.00  0.00     0.014 C 
ATOM      5  C   LIG d   1      11.117  -5.025  -5.329  0.00  0.00     0.052 C 
ATOM      6  C   LIG d   1      10.978  -5.736  -3.987  0.00  0.00     0.150 C 
ATOM      7  O   LIG d   1      11.793  -6.527  -3.576  0.00  0.00    -0.296 OA
ATOM      8  C   LIG d   1       9.859  -5.381  -6.140  0.00  0.00     0.014 C 
ATOM      9  N   LIG d   1       8.666  -4.972  -5.390  0.00  0.00    -0.280 N 
ATOM     10  C   LIG d   1       8.531  -5.701  -4.121  0.00  0.00     0.014 C 
ATOM     11  C   LIG d   1       8.672  -3.519  -5.156  0.00  0.00     0.093 C 
ATOM     12  H   LIG d   1       8.844  -3.509  -2.503  0.00  0.00     0.044 H 
ATOM     13  H   LIG d   1      10.638  -3.563  -2.415  0.00  0.00     0.044 H 
ATOM     14  H   LIG d   1      11.135  -2.957  -5.982  0.00  0.00     0.044 H 
ATOM     15  H   LIG d   1      11.949  -3.247  -4.408  0.00  0.00     0.044 H 
ATOM     16  H   LIG d   1       9.886  -4.856  -7.106  0.00  0.00     0.044 H 
ATOM     17  H   LIG d   1       9.831  -6.467  -6.315  0.00  0.00     0.044 H 
ATOM     18  H   LIG d   1       8.517  -6.783  -4.318  0.00  0.00     0.044 H 
ATOM     19  H   LIG d   1       7.593  -5.406  -3.626  0.00  0.00     0.044 H 
ENDROOT
BRANCH  11  20
ATOM     20  C   LIG d   1       8.758  -2.784  -6.494  0.00  0.00    -0.029 C 
ATOM     21  H   LIG d   1       7.762  -2.401  -6.767  0.00  0.00     0.026 H 
ATOM     22  H   LIG d   1       9.109  -3.477  -7.272  0.00  0.00     0.026 H 
ATOM     23  H   LIG d   1       9.461  -1.943  -6.407  0.00  0.00     0.026 H 
ENDBRANCH  11  20
BRANCH  11  24
ATOM     24  C   LIG d   1       7.412  -3.117  -4.433  0.00  0.00    -0.037 C 
ATOM     25  C   LIG d   1       7.203  -1.829  -4.112  0.00  0.00     0.045 A 
ATOM     26  C   LIG d   1       8.024  -0.658  -4.496  0.00  0.00     0.251 A 
ATOM     27  C   LIG d   1       6.095  -1.267  -3.299  0.00  0.00     0.008 A 
ATOM     28  N   LIG d   1       7.455   0.436  -3.962  0.00  0.00    -0.270 N 
ATOM     29  O   LIG d   1       9.032  -0.682  -5.176  0.00  0.00    -0.270 OA
ATOM     30  C   LIG d   1       6.310   0.115  -3.240  0.00  0.00     0.044 A 
ATOM     31  C   LIG d   1       5.414   0.908  -2.530  0.00  0.00    -0.040 A 
ATOM     32  C   LIG d   1       4.336   0.332  -1.890  0.00  0.00    -0.060 A 
ATOM     33  H   LIG d   1       5.563   1.976  -2.480  0.00  0.00     0.064 H 
ATOM     34  C   LIG d   1       4.131  -1.037  -1.946  0.00  0.00    -0.061 A 
ATOM     35  H   LIG d   1       3.645   0.954  -1.341  0.00  0.00     0.062 H 
ATOM     36  C   LIG d   1       5.010  -1.839  -2.646  0.00  0.00    -0.052 A 
ATOM     37  H   LIG d   1       3.285  -1.477  -1.441  0.00  0.00     0.062 H 
ATOM     38  H   LIG d   1       4.853  -2.906  -2.690  0.00  0.00     0.062 H 
ATOM     39  H   LIG d   1       6.664  -3.879  -4.169  0.00  0.00     0.061 H 
BRANCH  28  40
ATOM     40  C   LIG d   1       7.976   1.795  -4.120  0.00  0.00     0.009 C 
ATOM     41  H   LIG d   1       8.954   1.874  -3.625  0.00  0.00     0.043 H 
ATOM     42  H   LIG d   1       7.276   2.511  -3.664  0.00  0.00     0.043 H 
ATOM     43  H   LIG d   1       8.087   2.024  -5.191  0.00  0.00     0.043 H 
ENDBRANCH  28  40
ENDBRANCH  11  24
BRANCH   1  44
ATOM     44  C   LIG d   1       9.648  -6.094  -1.870  0.00  0.00    -0.050 C 
ATOM     45  H   LIG d   1       9.806  -7.170  -2.032  0.00  0.00     0.024 H 
ATOM     46  H   LIG d   1       8.658  -5.933  -1.418  0.00  0.00     0.024 H 
ATOM     47  H   LIG d   1      10.426  -5.706  -1.196  0.00  0.00     0.024 H 
ENDBRANCH   1  44
BRANCH   5  48
ATOM     48  C   LIG d   1      12.401  -5.433  -6.053  0.00  0.00    -0.050 C 
ATOM     49  H   LIG d   1      12.484  -6.529  -6.064  0.00  0.00     0.024 H 
ATOM     50  H   LIG d   1      13.268  -5.004  -5.530  0.00  0.00     0.024 H 
ATOM     51  H   LIG d   1      12.374  -5.056  -7.087  0.00  0.00     0.024 H 
ENDBRANCH   5  48
TORSDOF 5
ENDMDL
MODEL 5
REMARK VINA RESULT:      -5.9      5.064      6.531
REMARK  5 active torsions:
REMARK  status: ('A' for Active; 'I' for Inactive)
REMARK    1  A    between atoms: C_1  and  C_2 
REMARK    2  A    between atoms: C_6  and  C_26 
REMARK    3  A    between atoms: C_12  and  C_13 
REMARK    4  A    between atoms: C_12  and  C_14 
REMARK    5  A    between atoms: N_22  and  C_25 
ROOT
ATOM      1  C   LIG d   1       4.335   1.086  -9.308  0.00  0.00     0.052 C 
ATOM      2  C   LIG d   1       4.016  -0.166  -8.476  0.00  0.00     0.014 C 
ATOM      3  N   LIG d   1       5.136  -1.113  -8.572  0.00  0.00    -0.280 N 
ATOM      4  C   LIG d   1       5.333  -1.596  -9.944  0.00  0.00     0.014 C 
ATOM      5  C   LIG d   1       5.718  -0.416 -10.850  0.00  0.00     0.052 C 
ATOM      6  C   LIG d   1       4.598   0.612 -10.732  0.00  0.00     0.150 C 
ATOM      7  O   LIG d   1       3.973   1.014 -11.684  0.00  0.00    -0.296 OA
ATOM      8  C   LIG d   1       6.977   0.247 -10.266  0.00  0.00     0.014 C 
ATOM      9  N   LIG d   1       6.712   0.657  -8.881  0.00  0.00    -0.280 N 
ATOM     10  C   LIG d   1       5.659   1.678  -8.796  0.00  0.00     0.014 C 
ATOM     11  C   LIG d   1       6.372  -0.510  -8.051  0.00  0.00     0.093 C 
ATOM     12  H   LIG d   1       3.866   0.121  -7.424  0.00  0.00     0.044 H 
ATOM     13  H   LIG d   1       3.101  -0.640  -8.861  0.00  0.00     0.044 H 
ATOM     14  H   LIG d   1       6.138  -2.347  -9.957  0.00  0.00     0.044 H 
ATOM     15  H   LIG d   1       4.402  -2.053 -10.310  0.00  0.00     0.044 H 
ATOM     16  H   LIG d   1       7.811  -0.470 -10.285  0.00  0.00     0.044 H 
ATOM     17  H   LIG d   1       7.240   1.130 -10.868  0.00  0.00     0.044 H 
ATOM     18  H   LIG d   1       5.936   2.545  -9.414  0.00  0.00     0.044 H 
ATOM     19  H   LIG d   1       5.539   1.997  -7.750  0.00  0.00     0.044 H 
ENDROOT
BRANCH  11  20
ATOM     20  C   LIG d   1       7.508  -1.532  -8.112  0.00  0.00    -0.029 C 
ATOM     21  H   LIG d   1       8.445  -1.060  -7.779  0.00  0.00     0.026 H 
ATOM     22  H   LIG d   1       7.624  -1.889  -9.145  0.00  0.00     0.026 H 
ATOM     23  H   LIG d   1       7.272  -2.382  -7.454  0.00  0.00     0.026 H 
ENDBRANCH  11  20
BRANCH  11  24
ATOM     24  C   LIG d   1       6.158  -0.070  -6.625  0.00  0.00    -0.037 C 
ATOM     25  C   LIG d   1       5.683  -0.940  -5.717  0.00  0.00     0.045 A 
ATOM     26  C   LIG d   1       5.440  -2.389  -5.897  0.00  0.00     0.251 A 
ATOM     27  C   LIG d   1       5.293  -0.661  -4.312  0.00  0.00     0.008 A 
ATOM     28  N   LIG d   1       4.965  -2.874  -4.737  0.00  0.00    -0.270 N 
ATOM     29  O   LIG d   1       5.638  -3.028  -6.913  0.00  0.00    -0.270 OA
ATOM     30  C   LIG d   1       4.859  -1.876  -3.773  0.00  0.00     0.044 A 
ATOM     31  C   LIG d   1       4.425  -1.913  -2.452  0.00  0.00    -0.040 A 
ATOM     32  C   LIG d   1       4.419  -0.761  -1.693  0.00  0.00    -0.060 A 
ATOM     33  H   LIG d   1       4.091  -2.845  -2.020  0.00  0.00     0.064 H 
ATOM     34  C   LIG d   1       4.844   0.442  -2.233  0.00  0.00    -0.061 A 
ATOM     35  H   LIG d   1       4.080  -0.796  -0.668  0.00  0.00     0.062 H 
ATOM     36  C   LIG d   1       5.278   0.496  -3.542  0.00  0.00    -0.052 A 
ATOM     37  H   LIG d   1       4.835   1.337  -1.630  0.00  0.00     0.062 H 
ATOM     38  H   LIG d   1       5.610   1.433  -3.965  0.00  0.00     0.062 H 
ATOM     39  H   LIG d   1       6.392   0.963  -6.327  0.00  0.00     0.061 H 
BRANCH  28  40
ATOM     40  C   LIG d   1       4.602  -4.276  -4.517  0.00  0.00     0.009 C 
ATOM     41  H   LIG d   1       5.140  -4.661  -3.640  0.00  0.00     0.043 H 
ATOM     42  H   LIG d   1       4.875  -4.868  -5.404  0.00  0.00     0.043 H 
ATOM     43  H   LIG d   1       3.518  -4.351  -4.347  0.00  0.00     0.043 H 
ENDBRANCH  28  40
ENDBRANCH  11  24
BRANCH   1  44
ATOM     44  C   LIG d   1       3.194   2.103  -9.254  0.00  0.00    -0.050 C 
ATOM     45  H   LIG d   1       2.944   2.428 -10.274  0.00  0.00     0.024 H 
ATOM     46  H   LIG d   1       3.505   2.973  -8.658  0.00  0.00     0.024 H 
ATOM     47  H   LIG d   1       2.311   1.638  -8.790  0.00  0.00     0.024 H 
ENDBRANCH   1  44
BRANCH   5  48
ATOM     48  C   LIG d   1       5.924  -0.861 -12.298  0.00  0.00    -0.050 C 
ATOM     49  H   LIG d   1       5.107  -0.472 -12.923  0.00  0.00     0.024 H 
ATOM     50  H   LIG d   1       5.930  -1.961 -12.346  0.00  0.00     0.024 H 
ATOM     51  H   LIG d   1       6.886  -0.474 -12.668  0.00  0.00     0.024 H 
ENDBRANCH   5  48
TORSDOF 5
ENDMDL
MODEL 6
REMARK VINA RESULT:      -5.9      5.072      6.526
REMARK  5 active torsions:
REMARK  status: ('A' for Active; 'I' for Inactive)
REMARK    1  A    between atoms: C_1  and  C_2 
REMARK    2  A    between atoms: C_6  and  C_26 
REMARK    3  A    between atoms: C_12  and  C_13 
REMARK    4  A    between atoms: C_12  and  C_14 
REMARK    5  A    between atoms: N_22  and  C_25 
ROOT
ATOM      1  C   LIG d   1       9.247  -3.115  -5.434  0.00  0.00     0.052 C 
ATOM      2  C   LIG d   1       8.166  -2.172  -5.985  0.00  0.00     0.014 C 
ATOM      3  N   LIG d   1       7.034  -2.966  -6.481  0.00  0.00    -0.280 N 
ATOM      4  C   LIG d   1       7.415  -3.823  -7.611  0.00  0.00     0.014 C 
ATOM      5  C   LIG d   1       8.459  -4.849  -7.142  0.00  0.00     0.052 C 
ATOM      6  C   LIG d   1       9.629  -4.056  -6.570  0.00  0.00     0.150 C 
ATOM      7  O   LIG d   1      10.760  -4.163  -6.982  0.00  0.00    -0.296 OA
ATOM      8  C   LIG d   1       7.859  -5.643  -5.968  0.00  0.00     0.014 C 
ATOM      9  N   LIG d   1       7.461  -4.711  -4.905  0.00  0.00    -0.280 N 
ATOM     10  C   LIG d   1       8.610  -3.989  -4.341  0.00  0.00     0.014 C 
ATOM     11  C   LIG d   1       6.445  -3.766  -5.397  0.00  0.00     0.093 C 
ATOM     12  H   LIG d   1       7.821  -1.501  -5.183  0.00  0.00     0.044 H 
ATOM     13  H   LIG d   1       8.585  -1.574  -6.808  0.00  0.00     0.044 H 
ATOM     14  H   LIG d   1       6.526  -4.351  -7.988  0.00  0.00     0.044 H 
ATOM     15  H   LIG d   1       7.843  -3.205  -8.414  0.00  0.00     0.044 H 
ATOM     16  H   LIG d   1       6.979  -6.202  -6.316  0.00  0.00     0.044 H 
ATOM     17  H   LIG d   1       8.610  -6.347  -5.579  0.00  0.00     0.044 H 
ATOM     18  H   LIG d   1       9.353  -4.711  -3.970  0.00  0.00     0.044 H 
ATOM     19  H   LIG d   1       8.272  -3.351  -3.511  0.00  0.00     0.044 H 
ENDROOT
BRANCH  11  20
ATOM     20  C   LIG d   1       5.238  -4.541  -5.927  0.00  0.00    -0.029 C 
ATOM     21  H   LIG d   1       5.582  -5.341  -6.600  0.00  0.00     0.026 H 
ATOM     22  H   LIG d   1       4.577  -3.857  -6.478  0.00  0.00     0.026 H 
ATOM     23  H   LIG d   1       4.688  -4.984  -5.084  0.00  0.00     0.026 H 
ENDBRANCH  11  20
BRANCH  11  24
ATOM     24  C   LIG d   1       6.015  -2.857  -4.274  0.00  0.00    -0.037 C 
ATOM     25  C   LIG d   1       5.172  -1.839  -4.518  0.00  0.00     0.045 A 
ATOM     26  C   LIG d   1       4.467  -1.536  -5.785  0.00  0.00     0.251 A 
ATOM     27  C   LIG d   1       4.740  -0.775  -3.578  0.00  0.00     0.008 A 
ATOM     28  N   LIG d   1       3.728  -0.431  -5.589  0.00  0.00    -0.270 N 
ATOM     29  O   LIG d   1       4.542  -2.174  -6.817  0.00  0.00    -0.270 OA
ATOM     30  C   LIG d   1       3.867   0.053  -4.292  0.00  0.00     0.044 A 
ATOM     31  C   LIG d   1       3.302   1.151  -3.651  0.00  0.00    -0.040 A 
ATOM     32  C   LIG d   1       3.609   1.416  -2.332  0.00  0.00    -0.060 A 
ATOM     33  H   LIG d   1       2.622   1.796  -4.187  0.00  0.00     0.064 H 
ATOM     34  C   LIG d   1       4.478   0.597  -1.632  0.00  0.00    -0.061 A 
ATOM     35  H   LIG d   1       3.166   2.271  -1.841  0.00  0.00     0.062 H 
ATOM     36  C   LIG d   1       5.048  -0.497  -2.252  0.00  0.00    -0.052 A 
ATOM     37  H   LIG d   1       4.711   0.815  -0.600  0.00  0.00     0.062 H 
ATOM     38  H   LIG d   1       5.726  -1.136  -1.707  0.00  0.00     0.062 H 
ATOM     39  H   LIG d   1       6.390  -3.028  -3.254  0.00  0.00     0.061 H 
BRANCH  28  40
ATOM     40  C   LIG d   1       2.883   0.187  -6.613  0.00  0.00     0.009 C 
ATOM     41  H   LIG d   1       3.020   1.277  -6.595  0.00  0.00     0.043 H 
ATOM     42  H   LIG d   1       1.828  -0.053  -6.411  0.00  0.00     0.043 H 
ATOM     43  H   LIG d   1       3.163  -0.203  -7.603  0.00  0.00     0.043 H 
ENDBRANCH  28  40
ENDBRANCH  11  24
BRANCH   1  44
ATOM     44  C   LIG d   1      10.458  -2.338  -4.914  0.00  0.00    -0.050 C 
ATOM     45  H   LIG d   1      10.866  -2.845  -4.027  0.00  0.00     0.024 H 
ATOM     46  H   LIG d   1      10.151  -1.317  -4.644  0.00  0.00     0.024 H 
ATOM     47  H   LIG d   1      11.229  -2.294  -5.698  0.00  0.00     0.024 H 
ENDBRANCH   1  44
BRANCH   5  48
ATOM     48  C   LIG d   1       8.903  -5.764  -8.284  0.00  0.00    -0.050 C 
ATOM     49  H   LIG d   1       8.801  -6.815  -7.975  0.00  0.00     0.024 H 
ATOM     50  H   LIG d   1       9.954  -5.555  -8.533  0.00  0.00     0.024 H 
ATOM     51  H   LIG d   1       8.274  -5.579  -9.168  0.00  0.00     0.024 H 
ENDBRANCH   5  48
TORSDOF 5
ENDMDL
MODEL 7
REMARK VINA RESULT:      -5.9      5.107      7.293
REMARK  5 active torsions:
REMARK  status: ('A' for Active; 'I' for Inactive)
REMARK    1  A    between atoms: C_1  and  C_2 
REMARK    2  A    between atoms: C_6  and  C_26 
REMARK    3  A    between atoms: C_12  and  C_13 
REMARK    4  A    between atoms: C_12  and  C_14 
REMARK    5  A    between atoms: N_22  and  C_25 
ROOT
ATOM      1  C   LIG d   1       4.845  -1.496  -3.364  0.00  0.00     0.052 C 
ATOM      2  C   LIG d   1       5.014  -2.928  -3.895  0.00  0.00     0.014 C 
ATOM      3  N   LIG d   1       5.533  -2.879  -5.269  0.00  0.00    -0.280 N 
ATOM      4  C   LIG d   1       4.592  -2.230  -6.191  0.00  0.00     0.014 C 
ATOM      5  C   LIG d   1       4.401  -0.763  -5.775  0.00  0.00     0.052 C 
ATOM      6  C   LIG d   1       3.912  -0.776  -4.331  0.00  0.00     0.150 C 
ATOM      7  O   LIG d   1       2.876  -0.262  -3.984  0.00  0.00    -0.296 OA
ATOM      8  C   LIG d   1       5.783  -0.085  -5.758  0.00  0.00     0.014 C 
ATOM      9  N   LIG d   1       6.673  -0.821  -4.853  0.00  0.00    -0.280 N 
ATOM     10  C   LIG d   1       6.204  -0.784  -3.461  0.00  0.00     0.014 C 
ATOM     11  C   LIG d   1       6.842  -2.211  -5.307  0.00  0.00     0.093 C 
ATOM     12  H   LIG d   1       5.721  -3.476  -3.254  0.00  0.00     0.044 H 
ATOM     13  H   LIG d   1       4.040  -3.440  -3.888  0.00  0.00     0.044 H 
ATOM     14  H   LIG d   1       4.993  -2.272  -7.214  0.00  0.00     0.044 H 
ATOM     15  H   LIG d   1       3.624  -2.751  -6.156  0.00  0.00     0.044 H 
ATOM     16  H   LIG d   1       6.204  -0.089  -6.774  0.00  0.00     0.044 H 
ATOM     17  H   LIG d   1       5.677   0.953  -5.409  0.00  0.00     0.044 H 
ATOM     18  H   LIG d   1       6.095   0.261  -3.137  0.00  0.00     0.044 H 
ATOM     19  H   LIG d   1       6.933  -1.294  -2.813  0.00  0.00     0.044 H 
ENDROOT
BRANCH  11  20
ATOM     20  C   LIG d   1       7.384  -2.222  -6.737  0.00  0.00    -0.029 C 
ATOM     21  H   LIG d   1       6.943  -1.387  -7.303  0.00  0.00     0.026 H 
ATOM     22  H   LIG d   1       7.120  -3.173  -7.222  0.00  0.00     0.026 H 
ATOM     23  H   LIG d   1       8.478  -2.112  -6.716  0.00  0.00     0.026 H 
ENDBRANCH  11  20
BRANCH  11  24
ATOM     24  C   LIG d   1       7.803  -2.928  -4.392  0.00  0.00    -0.037 C 
ATOM     25  C   LIG d   1       8.039  -4.241  -4.562  0.00  0.00     0.045 A 
ATOM     26  C   LIG d   1       7.556  -5.110  -5.659  0.00  0.00     0.251 A 
ATOM     27  C   LIG d   1       8.845  -5.135  -3.694  0.00  0.00     0.008 A 
ATOM     28  N   LIG d   1       8.027  -6.349  -5.439  0.00  0.00    -0.270 N 
ATOM     29  O   LIG d   1       6.860  -4.764  -6.594  0.00  0.00    -0.270 OA
ATOM     30  C   LIG d   1       8.793  -6.405  -4.279  0.00  0.00     0.044 A 
ATOM     31  C   LIG d   1       9.467  -7.458  -3.669  0.00  0.00    -0.040 A 
ATOM     32  C   LIG d   1      10.170  -7.245  -2.500  0.00  0.00    -0.060 A 
ATOM     33  H   LIG d   1       9.442  -8.443  -4.111  0.00  0.00     0.064 H 
ATOM     34  C   LIG d   1      10.214  -5.988  -1.922  0.00  0.00    -0.061 A 
ATOM     35  H   LIG d   1      10.691  -8.068  -2.032  0.00  0.00     0.062 H 
ATOM     36  C   LIG d   1       9.550  -4.932  -2.514  0.00  0.00    -0.052 A 
ATOM     37  H   LIG d   1      10.766  -5.834  -1.008  0.00  0.00     0.062 H 
ATOM     38  H   LIG d   1       9.582  -3.951  -2.065  0.00  0.00     0.062 H 
ATOM     39  H   LIG d   1       8.310  -2.377  -3.587  0.00  0.00     0.061 H 
BRANCH  28  40
ATOM     40  C   LIG d   1       7.764  -7.497  -6.310  0.00  0.00     0.009 C 
ATOM     41  H   LIG d   1       8.543  -8.258  -6.159  0.00  0.00     0.043 H 
ATOM     42  H   LIG d   1       7.771  -7.169  -7.361  0.00  0.00     0.043 H 
ATOM     43  H   LIG d   1       6.780  -7.924  -6.067  0.00  0.00     0.043 H 
ENDBRANCH  28  40
ENDBRANCH  11  24
BRANCH   1  44
ATOM     44  C   LIG d   1       4.293  -1.487  -1.937  0.00  0.00    -0.050 C 
ATOM     45  H   LIG d   1       3.699  -0.575  -1.779  0.00  0.00     0.024 H 
ATOM     46  H   LIG d   1       5.128  -1.509  -1.221  0.00  0.00     0.024 H 
ATOM     47  H   LIG d   1       3.656  -2.371  -1.785  0.00  0.00     0.024 H 
ENDBRANCH   1  44
BRANCH   5  48
ATOM     48  C   LIG d   1       3.419  -0.039  -6.696  0.00  0.00    -0.050 C 
ATOM     49  H   LIG d   1       3.246   0.980  -6.321  0.00  0.00     0.024 H 
ATOM     50  H   LIG d   1       2.466  -0.588  -6.719  0.00  0.00     0.024 H 
ATOM     51  H   LIG d   1       3.837   0.010  -7.713  0.00  0.00     0.024 H 
ENDBRANCH   5  48
TORSDOF 5
ENDMDL
MODEL 8
REMARK VINA RESULT:      -5.8      2.205      6.759
REMARK  5 active torsions:
REMARK  status: ('A' for Active; 'I' for Inactive)
REMARK    1  A    between atoms: C_1  and  C_2 
REMARK    2  A    between atoms: C_6  and  C_26 
REMARK    3  A    between atoms: C_12  and  C_13 
REMARK    4  A    between atoms: C_12  and  C_14 
REMARK    5  A    between atoms: N_22  and  C_25 
ROOT
ATOM      1  C   LIG d   1       5.226  -1.215  -3.214  0.00  0.00     0.052 C 
ATOM      2  C   LIG d   1       6.755  -1.340  -3.133  0.00  0.00     0.014 C 
ATOM      3  N   LIG d   1       7.289  -1.658  -4.464  0.00  0.00    -0.280 N 
ATOM      4  C   LIG d   1       6.817  -2.960  -4.951  0.00  0.00     0.014 C 
ATOM      5  C   LIG d   1       5.291  -2.917  -5.122  0.00  0.00     0.052 C 
ATOM      6  C   LIG d   1       4.706  -2.537  -3.767  0.00  0.00     0.150 C 
ATOM      7  O   LIG d   1       3.903  -3.223  -3.182  0.00  0.00    -0.296 OA
ATOM      8  C   LIG d   1       4.948  -1.764  -6.081  0.00  0.00     0.014 C 
ATOM      9  N   LIG d   1       5.495  -0.510  -5.547  0.00  0.00    -0.280 N 
ATOM     10  C   LIG d   1       4.886  -0.142  -4.262  0.00  0.00     0.014 C 
ATOM     11  C   LIG d   1       6.959  -0.594  -5.424  0.00  0.00     0.093 C 
ATOM     12  H   LIG d   1       7.183  -0.388  -2.783  0.00  0.00     0.044 H 
ATOM     13  H   LIG d   1       7.022  -2.142  -2.429  0.00  0.00     0.044 H 
ATOM     14  H   LIG d   1       7.290  -3.183  -5.919  0.00  0.00     0.044 H 
ATOM     15  H   LIG d   1       7.084  -3.742  -4.224  0.00  0.00     0.044 H 
ATOM     16  H   LIG d   1       5.386  -1.966  -7.069  0.00  0.00     0.044 H 
ATOM     17  H   LIG d   1       3.855  -1.679  -6.176  0.00  0.00     0.044 H 
ATOM     18  H   LIG d   1       3.794  -0.075  -4.377  0.00  0.00     0.044 H 
ATOM     19  H   LIG d   1       5.281   0.831  -3.933  0.00  0.00     0.044 H 
ENDROOT
BRANCH  11  20
ATOM     20  C   LIG d   1       7.571  -0.922  -6.787  0.00  0.00    -0.029 C 
ATOM     21  H   LIG d   1       6.811  -0.790  -7.572  0.00  0.00     0.026 H 
ATOM     22  H   LIG d   1       7.922  -1.965  -6.789  0.00  0.00     0.026 H 
ATOM     23  H   LIG d   1       8.419  -0.249  -6.980  0.00  0.00     0.026 H 
ENDBRANCH  11  20
BRANCH  11  24
ATOM     24  C   LIG d   1       7.500   0.723  -4.926  0.00  0.00    -0.037 C 
ATOM     25  C   LIG d   1       8.821   0.877  -4.736  0.00  0.00     0.045 A 
ATOM     26  C   LIG d   1       9.900  -0.076  -5.080  0.00  0.00     0.251 A 
ATOM     27  C   LIG d   1       9.520   2.043  -4.139  0.00  0.00     0.008 A 
ATOM     28  N   LIG d   1      11.070   0.478  -4.718  0.00  0.00    -0.270 N 
ATOM     29  O   LIG d   1       9.754  -1.166  -5.600  0.00  0.00    -0.270 OA
ATOM     30  C   LIG d   1      10.885   1.735  -4.151  0.00  0.00     0.044 A 
ATOM     31  C   LIG d   1      11.791   2.659  -3.642  0.00  0.00    -0.040 A 
ATOM     32  C   LIG d   1      11.341   3.858  -3.127  0.00  0.00    -0.060 A 
ATOM     33  H   LIG d   1      12.848   2.439  -3.649  0.00  0.00     0.064 H 
ATOM     34  C   LIG d   1       9.988   4.156  -3.112  0.00  0.00    -0.061 A 
ATOM     35  H   LIG d   1      12.050   4.571  -2.733  0.00  0.00     0.062 H 
ATOM     36  C   LIG d   1       9.075   3.250  -3.613  0.00  0.00    -0.052 A 
ATOM     37  H   LIG d   1       9.648   5.097  -2.706  0.00  0.00     0.062 H 
ATOM     38  H   LIG d   1       8.021   3.480  -3.601  0.00  0.00     0.062 H 
ATOM     39  H   LIG d   1       6.813   1.557  -4.720  0.00  0.00     0.061 H 
BRANCH  28  40
ATOM     40  C   LIG d   1      12.375  -0.162  -4.897  0.00  0.00     0.009 C 
ATOM     41  H   LIG d   1      12.796   0.129  -5.869  0.00  0.00     0.043 H 
ATOM     42  H   LIG d   1      12.255  -1.256  -4.862  0.00  0.00     0.043 H 
ATOM     43  H   LIG d   1      13.053   0.157  -4.092  0.00  0.00     0.043 H 
ENDBRANCH  28  40
ENDBRANCH  11  24
BRANCH   1  44
ATOM     44  C   LIG d   1       4.615  -0.897  -1.848  0.00  0.00    -0.050 C 
ATOM     45  H   LIG d   1       5.161  -0.061  -1.388  0.00  0.00     0.024 H 
ATOM     46  H   LIG d   1       4.685  -1.782  -1.199  0.00  0.00     0.024 H 
ATOM     47  H   LIG d   1       3.558  -0.618  -1.975  0.00  0.00     0.024 H 
ENDBRANCH   1  44
BRANCH   5  48
ATOM     48  C   LIG d   1       4.741  -4.256  -5.617  0.00  0.00    -0.050 C 
ATOM     49  H   LIG d   1       3.654  -4.291  -5.454  0.00  0.00     0.024 H 
ATOM     50  H   LIG d   1       5.222  -5.076  -5.063  0.00  0.00     0.024 H 
ATOM     51  H   LIG d   1       4.955  -4.366  -6.691  0.00  0.00     0.024 H 
ENDBRANCH   5  48
TORSDOF 5
ENDMDL
MODEL 9
REMARK VINA RESULT:      -5.8      1.530      1.760
REMARK  5 active torsions:
REMARK  status: ('A' for Active; 'I' for Inactive)
REMARK    1  A    between atoms: C_1  and  C_2 
REMARK    2  A    between atoms: C_6  and  C_26 
REMARK    3  A    between atoms: C_12  and  C_13 
REMARK    4  A    between atoms: C_12  and  C_14 
REMARK    5  A    between atoms: N_22  and  C_25 
ROOT
ATOM      1  C   LIG d   1       9.881   4.051  -4.509  0.00  0.00     0.052 C 
ATOM      2  C   LIG d   1       8.725   3.461  -5.331  0.00  0.00     0.014 C 
ATOM      3  N   LIG d   1       9.108   2.131  -5.824  0.00  0.00    -0.280 N 
ATOM      4  C   LIG d   1      10.250   2.193  -6.746  0.00  0.00     0.014 C 
ATOM      5  C   LIG d   1      11.483   2.720  -5.995  0.00  0.00     0.052 C 
ATOM      6  C   LIG d   1      11.100   4.081  -5.423  0.00  0.00     0.150 C 
ATOM      7  O   LIG d   1      11.709   5.094  -5.674  0.00  0.00    -0.296 OA
ATOM      8  C   LIG d   1      11.740   1.801  -4.788  0.00  0.00     0.014 C 
ATOM      9  N   LIG d   1      10.538   1.757  -3.947  0.00  0.00    -0.280 N 
ATOM     10  C   LIG d   1      10.214   3.070  -3.373  0.00  0.00     0.014 C 
ATOM     11  C   LIG d   1       9.394   1.223  -4.703  0.00  0.00     0.093 C 
ATOM     12  H   LIG d   1       7.831   3.374  -4.696  0.00  0.00     0.044 H 
ATOM     13  H   LIG d   1       8.506   4.120  -6.184  0.00  0.00     0.044 H 
ATOM     14  H   LIG d   1      10.461   1.186  -7.136  0.00  0.00     0.044 H 
ATOM     15  H   LIG d   1      10.012   2.867  -7.581  0.00  0.00     0.044 H 
ATOM     16  H   LIG d   1      11.978   0.787  -5.145  0.00  0.00     0.044 H 
ATOM     17  H   LIG d   1      12.586   2.191  -4.204  0.00  0.00     0.044 H 
ATOM     18  H   LIG d   1      11.076   3.446  -2.804  0.00  0.00     0.044 H 
ATOM     19  H   LIG d   1       9.346   2.975  -2.703  0.00  0.00     0.044 H 
ENDROOT
BRANCH  11  20
ATOM     20  C   LIG d   1       9.737  -0.167  -5.241  0.00  0.00    -0.029 C 
ATOM     21  H   LIG d   1      10.160  -0.780  -4.432  0.00  0.00     0.026 H 
ATOM     22  H   LIG d   1      10.473  -0.074  -6.053  0.00  0.00     0.026 H 
ATOM     23  H   LIG d   1       8.825  -0.646  -5.626  0.00  0.00     0.026 H 
ENDBRANCH  11  20
BRANCH  11  24
ATOM     24  C   LIG d   1       8.188   1.137  -3.802  0.00  0.00    -0.037 C 
ATOM     25  C   LIG d   1       7.043   0.603  -4.260  0.00  0.00     0.045 A 
ATOM     26  C   LIG d   1       6.817  -0.065  -5.562  0.00  0.00     0.251 A 
ATOM     27  C   LIG d   1       5.730   0.548  -3.570  0.00  0.00     0.008 A 
ATOM     28  N   LIG d   1       5.530  -0.449  -5.609  0.00  0.00    -0.270 N 
ATOM     29  O   LIG d   1       7.648  -0.238  -6.433  0.00  0.00    -0.270 OA
ATOM     30  C   LIG d   1       4.851  -0.098  -4.446  0.00  0.00     0.044 A 
ATOM     31  C   LIG d   1       3.529  -0.290  -4.057  0.00  0.00    -0.040 A 
ATOM     32  C   LIG d   1       3.098   0.161  -2.826  0.00  0.00    -0.060 A 
ATOM     33  H   LIG d   1       2.839  -0.792  -4.719  0.00  0.00     0.064 H 
ATOM     34  C   LIG d   1       3.971   0.805  -1.965  0.00  0.00    -0.061 A 
ATOM     35  H   LIG d   1       2.070   0.009  -2.530  0.00  0.00     0.062 H 
ATOM     36  C   LIG d   1       5.285   1.003  -2.335  0.00  0.00    -0.052 A 
ATOM     37  H   LIG d   1       3.622   1.153  -1.005  0.00  0.00     0.062 H 
ATOM     38  H   LIG d   1       5.967   1.506  -1.666  0.00  0.00     0.062 H 
ATOM     39  H   LIG d   1       8.247   1.511  -2.769  0.00  0.00     0.061 H 
BRANCH  28  40
ATOM     40  C   LIG d   1       4.919  -1.147  -6.742  0.00  0.00     0.009 C 
ATOM     41  H   LIG d   1       4.459  -0.414  -7.420  0.00  0.00     0.043 H 
ATOM     42  H   LIG d   1       4.148  -1.840  -6.373  0.00  0.00     0.043 H 
ATOM     43  H   LIG d   1       5.692  -1.714  -7.283  0.00  0.00     0.043 H 
ENDBRANCH  28  40
ENDBRANCH  11  24
BRANCH   1  44
ATOM     44  C   LIG d   1       9.540   5.446  -3.980  0.00  0.00    -0.050 C 
ATOM     45  H   LIG d   1       9.748   6.194  -4.759  0.00  0.00     0.024 H 
ATOM     46  H   LIG d   1      10.152   5.662  -3.092  0.00  0.00     0.024 H 
ATOM     47  H   LIG d   1       8.474   5.484  -3.709  0.00  0.00     0.024 H 
ENDBRANCH   1  44
BRANCH   5  48
ATOM     48  C   LIG d   1      12.702   2.817  -6.912  0.00  0.00    -0.050 C 
ATOM     49  H   LIG d   1      12.971   1.814  -7.274  0.00  0.00     0.024 H 
ATOM     50  H   LIG d   1      13.548   3.244  -6.353  0.00  0.00     0.024 H 
ATOM     51  H   LIG d   1      12.466   3.466  -7.769  0.00  0.00     0.024 H 
ENDBRANCH   5  48
TORSDOF 5
ENDMDL
MODEL 10
REMARK VINA RESULT:      -5.8      3.260      7.232
REMARK  5 active torsions:
REMARK  status: ('A' for Active; 'I' for Inactive)
REMARK    1  A    between atoms: C_1  and  C_2 
REMARK    2  A    between atoms: C_6  and  C_26 
REMARK    3  A    between atoms: C_12  and  C_13 
REMARK    4  A    between atoms: C_12  and  C_14 
REMARK    5  A    between atoms: N_22  and  C_25 
ROOT
ATOM      1  C   LIG d   1       6.527  -4.797  -7.225  0.00  0.00     0.052 C 
ATOM      2  C   LIG d   1       6.211  -5.385  -5.841  0.00  0.00     0.014 C 
ATOM      3  N   LIG d   1       7.342  -5.136  -4.937  0.00  0.00    -0.280 N 
ATOM      4  C   LIG d   1       8.563  -5.820  -5.381  0.00  0.00     0.014 C 
ATOM      5  C   LIG d   1       8.997  -5.254  -6.743  0.00  0.00     0.052 C 
ATOM      6  C   LIG d   1       7.822  -5.449  -7.694  0.00  0.00     0.150 C 
ATOM      7  O   LIG d   1       7.910  -6.067  -8.728  0.00  0.00    -0.296 OA
ATOM      8  C   LIG d   1       9.185  -3.734  -6.593  0.00  0.00     0.014 C 
ATOM      9  N   LIG d   1       7.938  -3.137  -6.101  0.00  0.00    -0.280 N 
ATOM     10  C   LIG d   1       6.831  -3.300  -7.053  0.00  0.00     0.014 C 
ATOM     11  C   LIG d   1       7.579  -3.693  -4.787  0.00  0.00     0.093 C 
ATOM     12  H   LIG d   1       5.305  -4.907  -5.438  0.00  0.00     0.044 H 
ATOM     13  H   LIG d   1       6.044  -6.469  -5.932  0.00  0.00     0.044 H 
ATOM     14  H   LIG d   1       9.363  -5.657  -4.644  0.00  0.00     0.044 H 
ATOM     15  H   LIG d   1       8.367  -6.898  -5.477  0.00  0.00     0.044 H 
ATOM     16  H   LIG d   1       9.997  -3.535  -5.878  0.00  0.00     0.044 H 
ATOM     17  H   LIG d   1       9.443  -3.299  -7.570  0.00  0.00     0.044 H 
ATOM     18  H   LIG d   1       7.114  -2.869  -8.025  0.00  0.00     0.044 H 
ATOM     19  H   LIG d   1       5.937  -2.785  -6.671  0.00  0.00     0.044 H 
ENDROOT
BRANCH  11  20
ATOM     20  C   LIG d   1       8.724  -3.460  -3.800  0.00  0.00    -0.029 C 
ATOM     21  H   LIG d   1       9.513  -4.209  -3.970  0.00  0.00     0.026 H 
ATOM     22  H   LIG d   1       8.346  -3.553  -2.772  0.00  0.00     0.026 H 
ATOM     23  H   LIG d   1       9.138  -2.452  -3.950  0.00  0.00     0.026 H 
ENDBRANCH  11  20
BRANCH  11  24
ATOM     24  C   LIG d   1       6.326  -3.024  -4.280  0.00  0.00    -0.037 C 
ATOM     25  C   LIG d   1       6.337  -1.714  -3.982  0.00  0.00     0.045 A 
ATOM     26  C   LIG d   1       7.435  -0.746  -4.207  0.00  0.00     0.251 A 
ATOM     27  C   LIG d   1       5.250  -0.917  -3.359  0.00  0.00     0.008 A 
ATOM     28  N   LIG d   1       7.024   0.453  -3.762  0.00  0.00    -0.270 N 
ATOM     29  O   LIG d   1       8.516  -0.992  -4.708  0.00  0.00    -0.270 OA
ATOM     30  C   LIG d   1       5.733   0.391  -3.247  0.00  0.00     0.044 A 
ATOM     31  C   LIG d   1       4.915   1.367  -2.687  0.00  0.00    -0.040 A 
ATOM     32  C   LIG d   1       3.650   1.040  -2.245  0.00  0.00    -0.060 A 
ATOM     33  H   LIG d   1       5.271   2.383  -2.598  0.00  0.00     0.064 H 
ATOM     34  C   LIG d   1       3.179  -0.258  -2.353  0.00  0.00    -0.061 A 
ATOM     35  H   LIG d   1       3.020   1.803  -1.811  0.00  0.00     0.062 H 
ATOM     36  C   LIG d   1       3.977  -1.239  -2.905  0.00  0.00    -0.052 A 
ATOM     37  H   LIG d   1       2.187  -0.503  -2.003  0.00  0.00     0.062 H 
ATOM     38  H   LIG d   1       3.611  -2.252  -2.990  0.00  0.00     0.062 H 
ATOM     39  H   LIG d   1       5.403  -3.609  -4.156  0.00  0.00     0.061 H 
BRANCH  28  40
ATOM     40  C   LIG d   1       7.834   1.672  -3.812  0.00  0.00     0.009 C 
ATOM     41  H   LIG d   1       7.753   2.126  -4.809  0.00  0.00     0.043 H 
ATOM     42  H   LIG d   1       8.886   1.422  -3.607  0.00  0.00     0.043 H 
ATOM     43  H   LIG d   1       7.473   2.383  -3.054  0.00  0.00     0.043 H 
ENDBRANCH  28  40
ENDBRANCH  11  24
BRANCH   1  44
ATOM     44  C   LIG d   1       5.384  -5.040  -8.214  0.00  0.00    -0.050 C 
ATOM     45  H   LIG d   1       5.339  -4.210  -8.934  0.00  0.00     0.024 H 
ATOM     46  H   LIG d   1       4.432  -5.102  -7.666  0.00  0.00     0.024 H 
ATOM     47  H   LIG d   1       5.559  -5.984  -8.752  0.00  0.00     0.024 H 
ENDBRANCH   1  44
BRANCH   5  48
ATOM     48  C   LIG d   1      10.262  -5.940  -7.261  0.00  0.00    -0.050 C 
ATOM     49  H   LIG d   1      10.286  -5.886  -8.359  0.00  0.00     0.024 H 
ATOM     50  H   LIG d   1      10.262  -6.994  -6.945  0.00  0.00     0.024 H 
ATOM     51  H   LIG d   1      11.148  -5.435  -6.848  0.00  0.00     0.024 H 
ENDBRANCH   5  48
TORSDOF 5
ENDMDL
