MODEL 1
REMARK VINA RESULT:      -7.2      0.000      0.000
REMARK  15 active torsions:
REMARK  status: ('A' for Active; 'I' for Inactive)
REMARK    1  A    between atoms: C_1  and  N_2 
REMARK    2  A    between atoms: N_2  and  C_3 
REMARK       I    between atoms: N_2  and  C_18 
REMARK    3  A    between atoms: C_3  and  C_4 
REMARK    4  A    between atoms: C_4  and  C_6 
REMARK    5  A    between atoms: C_4  and  O_17 
REMARK    6  A    between atoms: C_6  and  C_8 
REMARK    7  A    between atoms: C_6  and  O_16 
REMARK    8  A    between atoms: C_8  and  C_10 
REMARK    9  A    between atoms: C_8  and  O_15 
REMARK   10  A    between atoms: C_10  and  C_12 
REMARK   11  A    between atoms: C_10  and  O_14 
REMARK   12  A    between atoms: C_12  and  O_13 
REMARK   13  A    between atoms: C_18  and  C_20 
REMARK   14  A    between atoms: C_20  and  O_21 
REMARK   15  A    between atoms: O_21  and  C_22 
ROOT
ATOM      1  N   LIG d   1      10.662   4.869  -4.297  0.00  0.00    -0.299 N 
ATOM      2  C   LIG d   1      11.079   3.645  -4.680  0.00  0.00     0.253 C 
ATOM      3  O   LIG d   1      12.050   3.144  -4.154  0.00  0.00    -0.272 OA
ENDROOT
BRANCH   1   4
ATOM      4  C   LIG d   1       9.489   5.475  -4.932  0.00  0.00     0.003 C 
ATOM      5  H   LIG d   1       8.825   4.689  -5.293  0.00  0.00     0.043 H 
ATOM      6  H   LIG d   1       8.961   6.091  -4.205  0.00  0.00     0.043 H 
ATOM      7  H   LIG d   1       9.810   6.094  -5.770  0.00  0.00     0.043 H 
ENDBRANCH   1   4
BRANCH   1   8
ATOM      8  C   LIG d   1      11.382   5.592  -3.246  0.00  0.00     0.043 C 
ATOM      9  H   LIG d   1      12.400   5.208  -3.173  0.00  0.00     0.049 H 
ATOM     10  H   LIG d   1      11.412   6.654  -3.491  0.00  0.00     0.049 H 
BRANCH   8  11
ATOM     11  C   LIG d   1      10.665   5.396  -1.909  0.00  0.00     0.099 C 
ATOM     12  H   LIG d   1       9.592   5.317  -2.081  0.00  0.00     0.064 H 
BRANCH  11  13
ATOM     13  C   LIG d   1      10.949   6.592  -0.999  0.00  0.00     0.111 C 
ATOM     14  H   LIG d   1      12.024   6.686  -0.846  0.00  0.00     0.065 H 
BRANCH  13  15
ATOM     15  C   LIG d   1      10.415   7.869  -1.653  0.00  0.00     0.111 C 
ATOM     16  H   LIG d   1      10.001   7.629  -2.633  0.00  0.00     0.065 H 
BRANCH  15  17
ATOM     17  C   LIG d   1       9.320   8.474  -0.772  0.00  0.00     0.106 C 
ATOM     18  H   LIG d   1       9.543   8.270   0.276  0.00  0.00     0.064 H 
BRANCH  17  19
ATOM     19  C   LIG d   1       9.261   9.985  -0.998  0.00  0.00     0.073 C 
ATOM     20  H   LIG d   1       9.405  10.501  -0.048  0.00  0.00     0.058 H 
ATOM     21  H   LIG d   1      10.046  10.280  -1.694  0.00  0.00     0.058 H 
BRANCH  19  22
ATOM     22  O   LIG d   1       7.986  10.336  -1.542  0.00  0.00    -0.392 OA
ATOM     23  H   LIG d   1       7.511  11.005  -1.029  0.00  0.00     0.209 HD
ENDBRANCH  19  22
ENDBRANCH  17  19
BRANCH  17  24
ATOM     24  O   LIG d   1       8.059   7.891  -1.112  0.00  0.00    -0.387 OA
ATOM     25  H   LIG d   1       7.896   7.835  -2.063  0.00  0.00     0.210 HD
ENDBRANCH  17  24
ENDBRANCH  15  17
BRANCH  15  26
ATOM     26  O   LIG d   1      11.480   8.809  -1.802  0.00  0.00    -0.387 OA
ATOM     27  H   LIG d   1      11.210   9.650  -2.196  0.00  0.00     0.210 HD
ENDBRANCH  15  26
ENDBRANCH  13  15
BRANCH  13  28
ATOM     28  O   LIG d   1      10.304   6.397   0.261  0.00  0.00    -0.387 OA
ATOM     29  H   LIG d   1       9.366   6.174   0.192  0.00  0.00     0.210 HD
ENDBRANCH  13  28
ENDBRANCH  11  13
BRANCH  11  30
ATOM     30  O   LIG d   1      11.138   4.201  -1.286  0.00  0.00    -0.388 OA
ATOM     31  H   LIG d   1      12.077   4.220  -1.058  0.00  0.00     0.210 HD
ENDBRANCH  11  30
ENDBRANCH   8  11
ENDBRANCH   1   8
BRANCH   2  32
ATOM     32  C   LIG d   1      10.337   2.901  -5.761  0.00  0.00     0.165 C 
ATOM     33  H   LIG d   1       9.297   3.224  -5.777  0.00  0.00     0.080 H 
ATOM     34  H   LIG d   1      10.798   3.110  -6.726  0.00  0.00     0.080 H 
BRANCH  32  35
ATOM     35  O   LIG d   1      10.397   1.497  -5.499  0.00  0.00    -0.483 OA
BRANCH  35  36
ATOM     36  C   LIG d   1       9.270   0.912  -5.017  0.00  0.00     0.125 A 
ATOM     37  C   LIG d   1       8.357   1.666  -4.299  0.00  0.00     0.023 A 
ATOM     38  C   LIG d   1       7.202   1.075  -3.810  0.00  0.00     0.143 A 
ATOM     39  H   LIG d   1       8.542   2.715  -4.123  0.00  0.00     0.069 H 
ATOM     40  C   LIG d   1       6.972  -0.290  -4.047  0.00  0.00     0.025 A 
ATOM     41  O   LIG d   1       6.307   1.808  -3.102  0.00  0.00    -0.422 OA
ATOM     42  C   LIG d   1       7.901  -1.042  -4.763  0.00  0.00    -0.047 A 
ATOM     43  C   LIG d   1       5.729  -0.898  -3.533  0.00  0.00    -0.000 A 
ATOM     44  C   LIG d   1       9.043  -0.442  -5.244  0.00  0.00    -0.019 A 
ATOM     45  H   LIG d   1       7.726  -2.093  -4.940  0.00  0.00     0.063 H 
ATOM     46  H   LIG d   1       9.764  -1.024  -5.800  0.00  0.00     0.065 H 
ATOM     47  C   LIG d   1       4.725  -0.021  -3.061  0.00  0.00     0.067 A 
ATOM     48  C   LIG d   1       5.519  -2.269  -3.501  0.00  0.00    -0.053 A 
ATOM     49  C   LIG d   1       3.532  -0.535  -2.570  0.00  0.00    -0.047 A 
ATOM     50  C   LIG d   1       5.009   1.424  -3.116  0.00  0.00     0.345 C 
ATOM     51  C   LIG d   1       3.341  -1.901  -2.546  0.00  0.00    -0.061 A 
ATOM     52  H   LIG d   1       2.759   0.129  -2.211  0.00  0.00     0.063 H 
ATOM     53  C   LIG d   1       4.327  -2.762  -3.008  0.00  0.00    -0.061 A 
ATOM     54  H   LIG d   1       2.415  -2.306  -2.166  0.00  0.00     0.062 H 
ATOM     55  H   LIG d   1       4.160  -3.829  -2.980  0.00  0.00     0.062 H 
ATOM     56  O   LIG d   1       4.110   2.241  -3.172  0.00  0.00    -0.244 OA
ATOM     57  H   LIG d   1       6.282  -2.945  -3.858  0.00  0.00     0.062 H 
ENDBRANCH  35  36
ENDBRANCH  32  35
ENDBRANCH   2  32
TORSDOF 15
ENDMDL
MODEL 2
REMARK VINA RESULT:      -7.2      0.869      1.302
REMARK  15 active torsions:
REMARK  status: ('A' for Active; 'I' for Inactive)
REMARK    1  A    between atoms: C_1  and  N_2 
REMARK    2  A    between atoms: N_2  and  C_3 
REMARK       I    between atoms: N_2  and  C_18 
REMARK    3  A    between atoms: C_3  and  C_4 
REMARK    4  A    between atoms: C_4  and  C_6 
REMARK    5  A    between atoms: C_4  and  O_17 
REMARK    6  A    between atoms: C_6  and  C_8 
REMARK    7  A    between atoms: C_6  and  O_16 
REMARK    8  A    between atoms: C_8  and  C_10 
REMARK    9  A    between atoms: C_8  and  O_15 
REMARK   10  A    between atoms: C_10  and  C_12 
REMARK   11  A    between atoms: C_10  and  O_14 
REMARK   12  A    between atoms: C_12  and  O_13 
REMARK   13  A    between atoms: C_18  and  C_20 
REMARK   14  A    between atoms: C_20  and  O_21 
REMARK   15  A    between atoms: O_21  and  C_22 
ROOT
ATOM      1  N   LIG d   1      10.582   5.256  -3.401  0.00  0.00    -0.299 N 
ATOM      2  C   LIG d   1      10.898   4.056  -3.927  0.00  0.00     0.253 C 
ATOM      3  O   LIG d   1      11.776   3.387  -3.427  0.00  0.00    -0.272 OA
ENDROOT
BRANCH   1   4
ATOM      4  C   LIG d   1       9.520   6.065  -4.005  0.00  0.00     0.003 C 
ATOM      5  H   LIG d   1       8.765   5.408  -4.437  0.00  0.00     0.043 H 
ATOM      6  H   LIG d   1       9.062   6.692  -3.241  0.00  0.00     0.043 H 
ATOM      7  H   LIG d   1       9.945   6.695  -4.786  0.00  0.00     0.043 H 
ENDBRANCH   1   4
BRANCH   1   8
ATOM      8  C   LIG d   1      11.300   5.751  -2.223  0.00  0.00     0.043 C 
ATOM      9  H   LIG d   1      11.820   4.923  -1.740  0.00  0.00     0.049 H 
ATOM     10  H   LIG d   1      12.024   6.506  -2.530  0.00  0.00     0.049 H 
BRANCH   8  11
ATOM     11  C   LIG d   1      10.303   6.370  -1.241  0.00  0.00     0.099 C 
ATOM     12  H   LIG d   1       9.295   6.289  -1.648  0.00  0.00     0.064 H 
BRANCH  11  13
ATOM     13  C   LIG d   1      10.650   7.844  -1.025  0.00  0.00     0.111 C 
ATOM     14  H   LIG d   1      11.116   8.244  -1.926  0.00  0.00     0.065 H 
BRANCH  13  15
ATOM     15  C   LIG d   1       9.371   8.629  -0.722  0.00  0.00     0.111 C 
ATOM     16  H   LIG d   1       9.331   8.859   0.344  0.00  0.00     0.065 H 
BRANCH  15  17
ATOM     17  C   LIG d   1       9.370   9.932  -1.524  0.00  0.00     0.106 C 
ATOM     18  H   LIG d   1       9.992  10.671  -1.019  0.00  0.00     0.064 H 
BRANCH  17  19
ATOM     19  C   LIG d   1       9.925   9.669  -2.925  0.00  0.00     0.073 C 
ATOM     20  H   LIG d   1      10.925  10.094  -3.005  0.00  0.00     0.058 H 
ATOM     21  H   LIG d   1       9.971   8.594  -3.102  0.00  0.00     0.058 H 
BRANCH  19  22
ATOM     22  O   LIG d   1       9.070  10.275  -3.897  0.00  0.00    -0.392 OA
ATOM     23  H   LIG d   1       8.142  10.324  -3.627  0.00  0.00     0.209 HD
ENDBRANCH  19  22
ENDBRANCH  17  19
BRANCH  17  24
ATOM     24  O   LIG d   1       8.032  10.427  -1.626  0.00  0.00    -0.387 OA
ATOM     25  H   LIG d   1       7.524  10.038  -2.350  0.00  0.00     0.210 HD
ENDBRANCH  17  24
ENDBRANCH  15  17
BRANCH  15  26
ATOM     26  O   LIG d   1       8.234   7.845  -1.085  0.00  0.00    -0.387 OA
ATOM     27  H   LIG d   1       7.449   8.367  -1.301  0.00  0.00     0.210 HD
ENDBRANCH  15  26
ENDBRANCH  13  15
BRANCH  13  28
ATOM     28  O   LIG d   1      11.555   7.965   0.073  0.00  0.00    -0.387 OA
ATOM     29  H   LIG d   1      11.157   7.775   0.934  0.00  0.00     0.210 HD
ENDBRANCH  13  28
ENDBRANCH  11  13
BRANCH  11  30
ATOM     30  O   LIG d   1      10.370   5.677   0.006  0.00  0.00    -0.388 OA
ATOM     31  H   LIG d   1      11.022   4.963   0.026  0.00  0.00     0.210 HD
ENDBRANCH  11  30
ENDBRANCH   8  11
ENDBRANCH   1   8
BRANCH   2  32
ATOM     32  C   LIG d   1      10.158   3.547  -5.138  0.00  0.00     0.165 C 
ATOM     33  H   LIG d   1       9.112   3.843  -5.077  0.00  0.00     0.080 H 
ATOM     34  H   LIG d   1      10.603   3.971  -6.039  0.00  0.00     0.080 H 
BRANCH  32  35
ATOM     35  O   LIG d   1      10.250   2.122  -5.187  0.00  0.00    -0.483 OA
BRANCH  35  36
ATOM     36  C   LIG d   1       9.161   1.420  -4.778  0.00  0.00     0.125 A 
ATOM     37  C   LIG d   1       8.158   2.060  -4.069  0.00  0.00     0.023 A 
ATOM     38  C   LIG d   1       7.042   1.350  -3.653  0.00  0.00     0.143 A 
ATOM     39  H   LIG d   1       8.243   3.113  -3.844  0.00  0.00     0.069 H 
ATOM     40  C   LIG d   1       6.944  -0.018  -3.953  0.00  0.00     0.025 A 
ATOM     41  O   LIG d   1       6.059   1.971  -2.954  0.00  0.00    -0.422 OA
ATOM     42  C   LIG d   1       7.962  -0.655  -4.659  0.00  0.00    -0.047 A 
ATOM     43  C   LIG d   1       5.740  -0.753  -3.517  0.00  0.00    -0.000 A 
ATOM     44  C   LIG d   1       9.064   0.063  -5.068  0.00  0.00    -0.019 A 
ATOM     45  H   LIG d   1       7.888  -1.708  -4.885  0.00  0.00     0.063 H 
ATOM     46  H   LIG d   1       9.855  -0.429  -5.615  0.00  0.00     0.065 H 
ATOM     47  C   LIG d   1       4.646   0.011  -3.053  0.00  0.00     0.067 A 
ATOM     48  C   LIG d   1       5.652  -2.138  -3.548  0.00  0.00    -0.053 A 
ATOM     49  C   LIG d   1       3.484  -0.626  -2.634  0.00  0.00    -0.047 A 
ATOM     50  C   LIG d   1       4.802   1.476  -3.039  0.00  0.00     0.345 C 
ATOM     51  C   LIG d   1       3.415  -2.003  -2.673  0.00  0.00    -0.061 A 
ATOM     52  H   LIG d   1       2.642  -0.047  -2.281  0.00  0.00     0.063 H 
ATOM     53  C   LIG d   1       4.490  -2.754  -3.126  0.00  0.00    -0.061 A 
ATOM     54  H   LIG d   1       2.514  -2.503  -2.348  0.00  0.00     0.062 H 
ATOM     55  H   LIG d   1       4.418  -3.831  -3.148  0.00  0.00     0.062 H 
ATOM     56  O   LIG d   1       3.837   2.213  -3.099  0.00  0.00    -0.244 OA
ATOM     57  H   LIG d   1       6.485  -2.729  -3.900  0.00  0.00     0.062 H 
ENDBRANCH  35  36
ENDBRANCH  32  35
ENDBRANCH   2  32
TORSDOF 15
ENDMDL
MODEL 3
REMARK VINA RESULT:      -7.0      1.421      2.063
REMARK  15 active torsions:
REMARK  status: ('A' for Active; 'I' for Inactive)
REMARK    1  A    between atoms: C_1  and  N_2 
REMARK    2  A    between atoms: N_2  and  C_3 
REMARK       I    between atoms: N_2  and  C_18 
REMARK    3  A    between atoms: C_3  and  C_4 
REMARK    4  A    between atoms: C_4  and  C_6 
REMARK    5  A    between atoms: C_4  and  O_17 
REMARK    6  A    between atoms: C_6  and  C_8 
REMARK    7  A    between atoms: C_6  and  O_16 
REMARK    8  A    between atoms: C_8  and  C_10 
REMARK    9  A    between atoms: C_8  and  O_15 
REMARK   10  A    between atoms: C_10  and  C_12 
REMARK   11  A    between atoms: C_10  and  O_14 
REMARK   12  A    between atoms: C_12  and  O_13 
REMARK   13  A    between atoms: C_18  and  C_20 
REMARK   14  A    between atoms: C_20  and  O_21 
REMARK   15  A    between atoms: O_21  and  C_22 
ROOT
ATOM      1  N   LIG d   1      10.554   5.061  -4.354  0.00  0.00    -0.299 N 
ATOM      2  C   LIG d   1      10.952   3.978  -5.052  0.00  0.00     0.253 C 
ATOM      3  O   LIG d   1      11.995   3.427  -4.773  0.00  0.00    -0.272 OA
ENDROOT
BRANCH   1   4
ATOM      4  C   LIG d   1       9.294   5.728  -4.691  0.00  0.00     0.003 C 
ATOM      5  H   LIG d   1       9.049   6.453  -3.916  0.00  0.00     0.043 H 
ATOM      6  H   LIG d   1       9.399   6.240  -5.648  0.00  0.00     0.043 H 
ATOM      7  H   LIG d   1       8.499   4.986  -4.761  0.00  0.00     0.043 H 
ENDBRANCH   1   4
BRANCH   1   8
ATOM      8  C   LIG d   1      11.382   5.570  -3.257  0.00  0.00     0.043 C 
ATOM      9  H   LIG d   1      12.305   4.993  -3.201  0.00  0.00     0.049 H 
ATOM     10  H   LIG d   1      11.618   6.618  -3.436  0.00  0.00     0.049 H 
BRANCH   8  11
ATOM     11  C   LIG d   1      10.617   5.437  -1.938  0.00  0.00     0.099 C 
ATOM     12  H   LIG d   1       9.561   5.266  -2.146  0.00  0.00     0.064 H 
BRANCH  11  13
ATOM     13  C   LIG d   1      10.774   6.725  -1.127  0.00  0.00     0.111 C 
ATOM     14  H   LIG d   1      11.825   7.014  -1.103  0.00  0.00     0.065 H 
BRANCH  13  15
ATOM     15  C   LIG d   1       9.954   7.841  -1.779  0.00  0.00     0.111 C 
ATOM     16  H   LIG d   1       9.349   7.424  -2.585  0.00  0.00     0.065 H 
BRANCH  15  17
ATOM     17  C   LIG d   1       9.039   8.480  -0.733  0.00  0.00     0.106 C 
ATOM     18  H   LIG d   1       9.376   8.200   0.265  0.00  0.00     0.064 H 
BRANCH  17  19
ATOM     19  C   LIG d   1       9.083  10.002  -0.878  0.00  0.00     0.073 C 
ATOM     20  H   LIG d   1       8.906  10.465   0.092  0.00  0.00     0.058 H 
ATOM     21  H   LIG d   1      10.062  10.304  -1.252  0.00  0.00     0.058 H 
BRANCH  19  22
ATOM     22  O   LIG d   1       8.073  10.422  -1.798  0.00  0.00    -0.392 OA
ATOM     23  H   LIG d   1       7.752   9.717  -2.378  0.00  0.00     0.209 HD
ENDBRANCH  19  22
ENDBRANCH  17  19
BRANCH  17  24
ATOM     24  O   LIG d   1       7.700   8.021  -0.929  0.00  0.00    -0.387 OA
ATOM     25  H   LIG d   1       7.295   7.641  -0.138  0.00  0.00     0.210 HD
ENDBRANCH  17  24
ENDBRANCH  15  17
BRANCH  15  26
ATOM     26  O   LIG d   1      10.837   8.832  -2.309  0.00  0.00    -0.387 OA
ATOM     27  H   LIG d   1      11.229   9.408  -1.639  0.00  0.00     0.210 HD
ENDBRANCH  15  26
ENDBRANCH  13  15
BRANCH  13  28
ATOM     28  O   LIG d   1      10.308   6.509   0.206  0.00  0.00    -0.387 OA
ATOM     29  H   LIG d   1      10.759   7.047   0.872  0.00  0.00     0.210 HD
ENDBRANCH  13  28
ENDBRANCH  11  13
BRANCH  11  30
ATOM     30  O   LIG d   1      11.141   4.338  -1.192  0.00  0.00    -0.388 OA
ATOM     31  H   LIG d   1      10.481   3.671  -0.957  0.00  0.00     0.210 HD
ENDBRANCH  11  30
ENDBRANCH   8  11
ENDBRANCH   1   8
BRANCH   2  32
ATOM     32  C   LIG d   1      10.100   3.455  -6.180  0.00  0.00     0.165 C 
ATOM     33  H   LIG d   1       9.080   3.818  -6.064  0.00  0.00     0.080 H 
ATOM     34  H   LIG d   1      10.504   3.803  -7.131  0.00  0.00     0.080 H 
BRANCH  32  35
ATOM     35  O   LIG d   1      10.104   2.026  -6.156  0.00  0.00    -0.483 OA
BRANCH  35  36
ATOM     36  C   LIG d   1       9.073   1.418  -5.516  0.00  0.00     0.125 A 
ATOM     37  C   LIG d   1       8.592   0.206  -5.983  0.00  0.00     0.023 A 
ATOM     38  C   LIG d   1       7.543  -0.422  -5.330  0.00  0.00     0.143 A 
ATOM     39  H   LIG d   1       9.037  -0.252  -6.854  0.00  0.00     0.069 H 
ATOM     40  C   LIG d   1       6.973   0.183  -4.198  0.00  0.00     0.025 A 
ATOM     41  O   LIG d   1       7.066  -1.607  -5.787  0.00  0.00    -0.422 OA
ATOM     42  C   LIG d   1       7.458   1.407  -3.741  0.00  0.00    -0.047 A 
ATOM     43  C   LIG d   1       5.869  -0.508  -3.506  0.00  0.00    -0.000 A 
ATOM     44  C   LIG d   1       8.502   2.019  -4.398  0.00  0.00    -0.019 A 
ATOM     45  H   LIG d   1       7.016   1.874  -2.873  0.00  0.00     0.063 H 
ATOM     46  H   LIG d   1       8.879   2.968  -4.045  0.00  0.00     0.065 H 
ATOM     47  C   LIG d   1       5.620  -1.853  -3.863  0.00  0.00     0.067 A 
ATOM     48  C   LIG d   1       5.086   0.105  -2.539  0.00  0.00    -0.053 A 
ATOM     49  C   LIG d   1       4.596  -2.557  -3.242  0.00  0.00    -0.047 A 
ATOM     50  C   LIG d   1       6.482  -2.448  -4.900  0.00  0.00     0.345 C 
ATOM     51  C   LIG d   1       3.829  -1.931  -2.282  0.00  0.00    -0.061 A 
ATOM     52  H   LIG d   1       4.403  -3.587  -3.508  0.00  0.00     0.063 H 
ATOM     53  C   LIG d   1       4.071  -0.610  -1.933  0.00  0.00    -0.061 A 
ATOM     54  H   LIG d   1       3.031  -2.474  -1.796  0.00  0.00     0.062 H 
ATOM     55  H   LIG d   1       3.458  -0.136  -1.180  0.00  0.00     0.062 H 
ATOM     56  O   LIG d   1       6.661  -3.649  -4.959  0.00  0.00    -0.244 OA
ATOM     57  H   LIG d   1       5.268   1.133  -2.261  0.00  0.00     0.062 H 
ENDBRANCH  35  36
ENDBRANCH  32  35
ENDBRANCH   2  32
TORSDOF 15
ENDMDL
MODEL 4
REMARK VINA RESULT:      -6.9      8.313     13.549
REMARK  15 active torsions:
REMARK  status: ('A' for Active; 'I' for Inactive)
REMARK    1  A    between atoms: C_1  and  N_2 
REMARK    2  A    between atoms: N_2  and  C_3 
REMARK       I    between atoms: N_2  and  C_18 
REMARK    3  A    between atoms: C_3  and  C_4 
REMARK    4  A    between atoms: C_4  and  C_6 
REMARK    5  A    between atoms: C_4  and  O_17 
REMARK    6  A    between atoms: C_6  and  C_8 
REMARK    7  A    between atoms: C_6  and  O_16 
REMARK    8  A    between atoms: C_8  and  C_10 
REMARK    9  A    between atoms: C_8  and  O_15 
REMARK   10  A    between atoms: C_10  and  C_12 
REMARK   11  A    between atoms: C_10  and  O_14 
REMARK   12  A    between atoms: C_12  and  O_13 
REMARK   13  A    between atoms: C_18  and  C_20 
REMARK   14  A    between atoms: C_20  and  O_21 
REMARK   15  A    between atoms: O_21  and  C_22 
ROOT
ATOM      1  N   LIG d   1       1.024  -4.768 -10.504  0.00  0.00    -0.299 N 
ATOM      2  C   LIG d   1       1.563  -3.588 -10.138  0.00  0.00     0.253 C 
ATOM      3  O   LIG d   1       0.907  -2.571 -10.219  0.00  0.00    -0.272 OA
ENDROOT
BRANCH   1   4
ATOM      4  C   LIG d   1       1.817  -5.997 -10.407  0.00  0.00     0.003 C 
ATOM      5  H   LIG d   1       1.682  -6.588 -11.313  0.00  0.00     0.043 H 
ATOM      6  H   LIG d   1       2.870  -5.742 -10.293  0.00  0.00     0.043 H 
ATOM      7  H   LIG d   1       1.487  -6.574  -9.543  0.00  0.00     0.043 H 
ENDBRANCH   1   4
BRANCH   1   8
ATOM      8  C   LIG d   1      -0.354  -4.823 -10.998  0.00  0.00     0.043 C 
ATOM      9  H   LIG d   1      -0.850  -3.873 -10.796  0.00  0.00     0.049 H 
ATOM     10  H   LIG d   1      -0.347  -5.008 -12.073  0.00  0.00     0.049 H 
BRANCH   8  11
ATOM     11  C   LIG d   1      -1.105  -5.952 -10.290  0.00  0.00     0.099 C 
ATOM     12  H   LIG d   1      -0.655  -6.908 -10.553  0.00  0.00     0.064 H 
BRANCH  11  13
ATOM     13  C   LIG d   1      -2.571  -5.940 -10.728  0.00  0.00     0.111 C 
ATOM     14  H   LIG d   1      -3.022  -6.909 -10.513  0.00  0.00     0.065 H 
BRANCH  13  15
ATOM     15  C   LIG d   1      -3.322  -4.847  -9.963  0.00  0.00     0.111 C 
ATOM     16  H   LIG d   1      -2.614  -4.095  -9.615  0.00  0.00     0.065 H 
BRANCH  15  17
ATOM     17  C   LIG d   1      -4.349  -4.191 -10.889  0.00  0.00     0.106 C 
ATOM     18  H   LIG d   1      -4.809  -4.952 -11.520  0.00  0.00     0.064 H 
BRANCH  17  19
ATOM     19  C   LIG d   1      -5.427  -3.505 -10.049  0.00  0.00     0.073 C 
ATOM     20  H   LIG d   1      -5.033  -3.291  -9.056  0.00  0.00     0.058 H 
ATOM     21  H   LIG d   1      -5.725  -2.573 -10.530  0.00  0.00     0.058 H 
BRANCH  19  22
ATOM     22  O   LIG d   1      -6.562  -4.366  -9.935  0.00  0.00    -0.392 OA
ATOM     23  H   LIG d   1      -6.985  -4.346  -9.065  0.00  0.00     0.209 HD
ENDBRANCH  19  22
ENDBRANCH  17  19
BRANCH  17  24
ATOM     24  O   LIG d   1      -3.696  -3.222 -11.712  0.00  0.00    -0.387 OA
ATOM     25  H   LIG d   1      -4.302  -2.647 -12.199  0.00  0.00     0.210 HD
ENDBRANCH  17  24
ENDBRANCH  15  17
BRANCH  15  26
ATOM     26  O   LIG d   1      -3.993  -5.426  -8.842  0.00  0.00    -0.387 OA
ATOM     27  H   LIG d   1      -4.489  -6.229  -9.052  0.00  0.00     0.210 HD
ENDBRANCH  15  26
ENDBRANCH  13  15
BRANCH  13  28
ATOM     28  O   LIG d   1      -2.648  -5.679 -12.130  0.00  0.00    -0.387 OA
ATOM     29  H   LIG d   1      -1.828  -5.859 -12.609  0.00  0.00     0.210 HD
ENDBRANCH  13  28
ENDBRANCH  11  13
BRANCH  11  30
ATOM     30  O   LIG d   1      -1.028  -5.762  -8.877  0.00  0.00    -0.388 OA
ATOM     31  H   LIG d   1      -1.889  -5.702  -8.439  0.00  0.00     0.210 HD
ENDBRANCH  11  30
ENDBRANCH   8  11
ENDBRANCH   1   8
BRANCH   2  32
ATOM     32  C   LIG d   1       2.981  -3.532  -9.629  0.00  0.00     0.165 C 
ATOM     33  H   LIG d   1       3.034  -4.006  -8.650  0.00  0.00     0.080 H 
ATOM     34  H   LIG d   1       3.636  -4.059 -10.323  0.00  0.00     0.080 H 
BRANCH  32  35
ATOM     35  O   LIG d   1       3.395  -2.169  -9.523  0.00  0.00    -0.483 OA
BRANCH  35  36
ATOM     36  C   LIG d   1       3.543  -1.665  -8.270  0.00  0.00     0.125 A 
ATOM     37  C   LIG d   1       4.342  -2.327  -7.352  0.00  0.00     0.023 A 
ATOM     38  C   LIG d   1       4.500  -1.815  -6.074  0.00  0.00     0.143 A 
ATOM     39  H   LIG d   1       4.845  -3.241  -7.634  0.00  0.00     0.069 H 
ATOM     40  C   LIG d   1       3.842  -0.626  -5.721  0.00  0.00     0.025 A 
ATOM     41  O   LIG d   1       5.278  -2.463  -5.171  0.00  0.00    -0.422 OA
ATOM     42  C   LIG d   1       3.033   0.028  -6.648  0.00  0.00    -0.047 A 
ATOM     43  C   LIG d   1       4.036  -0.087  -4.361  0.00  0.00    -0.000 A 
ATOM     44  C   LIG d   1       2.886  -0.491  -7.915  0.00  0.00    -0.019 A 
ATOM     45  H   LIG d   1       2.523   0.939  -6.374  0.00  0.00     0.063 H 
ATOM     46  H   LIG d   1       2.260   0.015  -8.636  0.00  0.00     0.065 H 
ATOM     47  C   LIG d   1       5.070  -0.652  -3.581  0.00  0.00     0.067 A 
ATOM     48  C   LIG d   1       3.254   0.933  -3.837  0.00  0.00    -0.053 A 
ATOM     49  C   LIG d   1       5.304  -0.182  -2.295  0.00  0.00    -0.047 A 
ATOM     50  C   LIG d   1       5.862  -1.735  -4.190  0.00  0.00     0.345 C 
ATOM     51  C   LIG d   1       4.516   0.833  -1.791  0.00  0.00    -0.061 A 
ATOM     52  H   LIG d   1       6.095  -0.607  -1.694  0.00  0.00     0.063 H 
ATOM     53  C   LIG d   1       3.500   1.387  -2.556  0.00  0.00    -0.061 A 
ATOM     54  H   LIG d   1       4.694   1.202  -0.792  0.00  0.00     0.062 H 
ATOM     55  H   LIG d   1       2.893   2.180  -2.144  0.00  0.00     0.062 H 
ATOM     56  O   LIG d   1       6.999  -1.968  -3.824  0.00  0.00    -0.244 OA
ATOM     57  H   LIG d   1       2.461   1.369  -4.426  0.00  0.00     0.062 H 
ENDBRANCH  35  36
ENDBRANCH  32  35
ENDBRANCH   2  32
TORSDOF 15
ENDMDL
MODEL 5
REMARK VINA RESULT:      -6.7      8.393     13.481
REMARK  15 active torsions:
REMARK  status: ('A' for Active; 'I' for Inactive)
REMARK    1  A    between atoms: C_1  and  N_2 
REMARK    2  A    between atoms: N_2  and  C_3 
REMARK       I    between atoms: N_2  and  C_18 
REMARK    3  A    between atoms: C_3  and  C_4 
REMARK    4  A    between atoms: C_4  and  C_6 
REMARK    5  A    between atoms: C_4  and  O_17 
REMARK    6  A    between atoms: C_6  and  C_8 
REMARK    7  A    between atoms: C_6  and  O_16 
REMARK    8  A    between atoms: C_8  and  C_10 
REMARK    9  A    between atoms: C_8  and  O_15 
REMARK   10  A    between atoms: C_10  and  C_12 
REMARK   11  A    between atoms: C_10  and  O_14 
REMARK   12  A    between atoms: C_12  and  O_13 
REMARK   13  A    between atoms: C_18  and  C_20 
REMARK   14  A    between atoms: C_20  and  O_21 
REMARK   15  A    between atoms: O_21  and  C_22 
ROOT
ATOM      1  N   LIG d   1       0.619  -2.833 -11.936  0.00  0.00    -0.299 N 
ATOM      2  C   LIG d   1       1.302  -2.820 -10.774  0.00  0.00     0.253 C 
ATOM      3  O   LIG d   1       1.610  -3.864 -10.241  0.00  0.00    -0.272 OA
ENDROOT
BRANCH   1   4
ATOM      4  C   LIG d   1       0.246  -1.572 -12.582  0.00  0.00     0.003 C 
ATOM      5  H   LIG d   1      -0.730  -1.680 -13.054  0.00  0.00     0.043 H 
ATOM      6  H   LIG d   1       0.202  -0.780 -11.834  0.00  0.00     0.043 H 
ATOM      7  H   LIG d   1       0.989  -1.317 -13.337  0.00  0.00     0.043 H 
ENDBRANCH   1   4
BRANCH   1   8
ATOM      8  C   LIG d   1       0.250  -4.109 -12.555  0.00  0.00     0.043 C 
ATOM      9  H   LIG d   1       0.683  -4.168 -13.554  0.00  0.00     0.049 H 
ATOM     10  H   LIG d   1       0.627  -4.931 -11.946  0.00  0.00     0.049 H 
BRANCH   8  11
ATOM     11  C   LIG d   1      -1.274  -4.205 -12.654  0.00  0.00     0.099 C 
ATOM     12  H   LIG d   1      -1.722  -3.294 -12.258  0.00  0.00     0.064 H 
BRANCH  11  13
ATOM     13  C   LIG d   1      -1.762  -5.407 -11.843  0.00  0.00     0.111 C 
ATOM     14  H   LIG d   1      -0.927  -6.080 -11.652  0.00  0.00     0.065 H 
BRANCH  13  15
ATOM     15  C   LIG d   1      -2.341  -4.923 -10.511  0.00  0.00     0.111 C 
ATOM     16  H   LIG d   1      -3.015  -4.085 -10.692  0.00  0.00     0.065 H 
BRANCH  15  17
ATOM     17  C   LIG d   1      -3.114  -6.064  -9.845  0.00  0.00     0.106 C 
ATOM     18  H   LIG d   1      -3.777  -6.528 -10.575  0.00  0.00     0.064 H 
BRANCH  17  19
ATOM     19  C   LIG d   1      -2.127  -7.106  -9.316  0.00  0.00     0.073 C 
ATOM     20  H   LIG d   1      -2.644  -8.054  -9.169  0.00  0.00     0.058 H 
ATOM     21  H   LIG d   1      -1.319  -7.240 -10.035  0.00  0.00     0.058 H 
BRANCH  19  22
ATOM     22  O   LIG d   1      -1.587  -6.660  -8.070  0.00  0.00    -0.392 OA
ATOM     23  H   LIG d   1      -1.995  -5.850  -7.733  0.00  0.00     0.209 HD
ENDBRANCH  19  22
ENDBRANCH  17  19
BRANCH  17  24
ATOM     24  O   LIG d   1      -3.887  -5.545  -8.761  0.00  0.00    -0.387 OA
ATOM     25  H   LIG d   1      -3.383  -5.410  -7.948  0.00  0.00     0.210 HD
ENDBRANCH  17  24
ENDBRANCH  15  17
BRANCH  15  26
ATOM     26  O   LIG d   1      -1.278  -4.504  -9.654  0.00  0.00    -0.387 OA
ATOM     27  H   LIG d   1      -1.491  -4.550  -8.712  0.00  0.00     0.210 HD
ENDBRANCH  15  26
ENDBRANCH  13  15
BRANCH  13  28
ATOM     28  O   LIG d   1      -2.773  -6.100 -12.578  0.00  0.00    -0.387 OA
ATOM     29  H   LIG d   1      -2.956  -5.720 -13.448  0.00  0.00     0.210 HD
ENDBRANCH  13  28
ENDBRANCH  11  13
BRANCH  11  30
ATOM     30  O   LIG d   1      -1.654  -4.367 -14.021  0.00  0.00    -0.388 OA
ATOM     31  H   LIG d   1      -0.935  -4.661 -14.598  0.00  0.00     0.210 HD
ENDBRANCH  11  30
ENDBRANCH   8  11
ENDBRANCH   1   8
BRANCH   2  32
ATOM     32  C   LIG d   1       1.682  -1.507 -10.139  0.00  0.00     0.165 C 
ATOM     33  H   LIG d   1       1.595  -0.708 -10.875  0.00  0.00     0.080 H 
ATOM     34  H   LIG d   1       1.016  -1.303  -9.301  0.00  0.00     0.080 H 
BRANCH  32  35
ATOM     35  O   LIG d   1       3.030  -1.579  -9.669  0.00  0.00    -0.483 OA
BRANCH  35  36
ATOM     36  C   LIG d   1       3.256  -1.195  -8.386  0.00  0.00     0.125 A 
ATOM     37  C   LIG d   1       4.155  -1.903  -7.605  0.00  0.00     0.023 A 
ATOM     38  C   LIG d   1       4.394  -1.513  -6.296  0.00  0.00     0.143 A 
ATOM     39  H   LIG d   1       4.673  -2.757  -8.017  0.00  0.00     0.069 H 
ATOM     40  C   LIG d   1       3.715  -0.401  -5.773  0.00  0.00     0.025 A 
ATOM     41  O   LIG d   1       5.269  -2.207  -5.526  0.00  0.00    -0.422 OA
ATOM     42  C   LIG d   1       2.807   0.300  -6.564  0.00  0.00    -0.047 A 
ATOM     43  C   LIG d   1       3.995   0.010  -4.384  0.00  0.00    -0.000 A 
ATOM     44  C   LIG d   1       2.580  -0.098  -7.863  0.00  0.00    -0.019 A 
ATOM     45  H   LIG d   1       2.281   1.152  -6.159  0.00  0.00     0.063 H 
ATOM     46  H   LIG d   1       1.876   0.444  -8.478  0.00  0.00     0.065 H 
ATOM     47  C   LIG d   1       5.113  -0.576  -3.747  0.00  0.00     0.067 A 
ATOM     48  C   LIG d   1       3.215   0.931  -3.700  0.00  0.00    -0.053 A 
ATOM     49  C   LIG d   1       5.429  -0.224  -2.441  0.00  0.00    -0.047 A 
ATOM     50  C   LIG d   1       5.899  -1.551  -4.523  0.00  0.00     0.345 C 
ATOM     51  C   LIG d   1       4.641   0.694  -1.777  0.00  0.00    -0.061 A 
ATOM     52  H   LIG d   1       6.284  -0.666  -1.949  0.00  0.00     0.063 H 
ATOM     53  C   LIG d   1       3.543   1.267  -2.401  0.00  0.00    -0.061 A 
ATOM     54  H   LIG d   1       4.883   0.970  -0.761  0.00  0.00     0.062 H 
ATOM     55  H   LIG d   1       2.938   1.983  -1.865  0.00  0.00     0.062 H 
ATOM     56  O   LIG d   1       7.070  -1.760  -4.271  0.00  0.00    -0.244 OA
ATOM     57  H   LIG d   1       2.358   1.382  -4.179  0.00  0.00     0.062 H 
ENDBRANCH  35  36
ENDBRANCH  32  35
ENDBRANCH   2  32
TORSDOF 15
ENDMDL
MODEL 6
REMARK VINA RESULT:      -6.3      2.758      8.315
REMARK  15 active torsions:
REMARK  status: ('A' for Active; 'I' for Inactive)
REMARK    1  A    between atoms: C_1  and  N_2 
REMARK    2  A    between atoms: N_2  and  C_3 
REMARK       I    between atoms: N_2  and  C_18 
REMARK    3  A    between atoms: C_3  and  C_4 
REMARK    4  A    between atoms: C_4  and  C_6 
REMARK    5  A    between atoms: C_4  and  O_17 
REMARK    6  A    between atoms: C_6  and  C_8 
REMARK    7  A    between atoms: C_6  and  O_16 
REMARK    8  A    between atoms: C_8  and  C_10 
REMARK    9  A    between atoms: C_8  and  O_15 
REMARK   10  A    between atoms: C_10  and  C_12 
REMARK   11  A    between atoms: C_10  and  O_14 
REMARK   12  A    between atoms: C_12  and  O_13 
REMARK   13  A    between atoms: C_18  and  C_20 
REMARK   14  A    between atoms: C_20  and  O_21 
REMARK   15  A    between atoms: O_21  and  C_22 
ROOT
ATOM      1  N   LIG d   1       6.210  -0.205  -6.966  0.00  0.00    -0.299 N 
ATOM      2  C   LIG d   1       7.424  -0.005  -6.416  0.00  0.00     0.253 C 
ATOM      3  O   LIG d   1       7.785  -0.686  -5.480  0.00  0.00    -0.272 OA
ENDROOT
BRANCH   1   4
ATOM      4  C   LIG d   1       5.774   0.618  -8.097  0.00  0.00     0.003 C 
ATOM      5  H   LIG d   1       4.772   1.002  -7.901  0.00  0.00     0.043 H 
ATOM      6  H   LIG d   1       6.463   1.451  -8.227  0.00  0.00     0.043 H 
ATOM      7  H   LIG d   1       5.760   0.012  -9.003  0.00  0.00     0.043 H 
ENDBRANCH   1   4
BRANCH   1   8
ATOM      8  C   LIG d   1       5.327  -1.246  -6.434  0.00  0.00     0.043 C 
ATOM      9  H   LIG d   1       4.761  -1.694  -7.251  0.00  0.00     0.049 H 
ATOM     10  H   LIG d   1       5.924  -2.013  -5.941  0.00  0.00     0.049 H 
BRANCH   8  11
ATOM     11  C   LIG d   1       4.359  -0.624  -5.424  0.00  0.00     0.099 C 
ATOM     12  H   LIG d   1       4.762   0.325  -5.071  0.00  0.00     0.064 H 
BRANCH  11  13
ATOM     13  C   LIG d   1       4.183  -1.575  -4.238  0.00  0.00     0.111 C 
ATOM     14  H   LIG d   1       4.421  -2.592  -4.548  0.00  0.00     0.065 H 
BRANCH  13  15
ATOM     15  C   LIG d   1       5.122  -1.156  -3.104  0.00  0.00     0.111 C 
ATOM     16  H   LIG d   1       6.095  -1.628  -3.245  0.00  0.00     0.065 H 
BRANCH  15  17
ATOM     17  C   LIG d   1       5.288   0.365  -3.115  0.00  0.00     0.106 C 
ATOM     18  H   LIG d   1       4.814   0.776  -4.007  0.00  0.00     0.064 H 
BRANCH  17  19
ATOM     19  C   LIG d   1       4.631   0.959  -1.868  0.00  0.00     0.073 C 
ATOM     20  H   LIG d   1       4.819   0.308  -1.013  0.00  0.00     0.058 H 
ATOM     21  H   LIG d   1       5.048   1.947  -1.672  0.00  0.00     0.058 H 
BRANCH  19  22
ATOM     22  O   LIG d   1       3.221   1.070  -2.080  0.00  0.00    -0.392 OA
ATOM     23  H   LIG d   1       2.708   1.167  -1.265  0.00  0.00     0.209 HD
ENDBRANCH  19  22
ENDBRANCH  17  19
BRANCH  17  24
ATOM     24  O   LIG d   1       6.679   0.692  -3.122  0.00  0.00    -0.387 OA
ATOM     25  H   LIG d   1       6.925   1.378  -2.487  0.00  0.00     0.210 HD
ENDBRANCH  17  24
ENDBRANCH  15  17
BRANCH  15  26
ATOM     26  O   LIG d   1       4.569  -1.566  -1.852  0.00  0.00    -0.387 OA
ATOM     27  H   LIG d   1       5.049  -1.232  -1.082  0.00  0.00     0.210 HD
ENDBRANCH  15  26
ENDBRANCH  13  15
BRANCH  13  28
ATOM     28  O   LIG d   1       2.830  -1.521  -3.780  0.00  0.00    -0.387 OA
ATOM     29  H   LIG d   1       2.680  -0.876  -3.075  0.00  0.00     0.210 HD
ENDBRANCH  13  28
ENDBRANCH  11  13
BRANCH  11  30
ATOM     30  O   LIG d   1       3.095  -0.403  -6.049  0.00  0.00    -0.388 OA
ATOM     31  H   LIG d   1       2.962   0.502  -6.361  0.00  0.00     0.210 HD
ENDBRANCH  11  30
ENDBRANCH   8  11
ENDBRANCH   1   8
BRANCH   2  32
ATOM     32  C   LIG d   1       8.333   1.065  -6.965  0.00  0.00     0.165 C 
ATOM     33  H   LIG d   1       8.607   0.820  -7.990  0.00  0.00     0.080 H 
ATOM     34  H   LIG d   1       7.815   2.024  -6.947  0.00  0.00     0.080 H 
BRANCH  32  35
ATOM     35  O   LIG d   1       9.512   1.145  -6.162  0.00  0.00    -0.483 OA
BRANCH  35  36
ATOM     36  C   LIG d   1       9.642   2.237  -5.365  0.00  0.00     0.125 A 
ATOM     37  C   LIG d   1       9.744   3.496  -5.934  0.00  0.00     0.023 A 
ATOM     38  C   LIG d   1       9.871   4.615  -5.125  0.00  0.00     0.143 A 
ATOM     39  H   LIG d   1       9.720   3.607  -7.008  0.00  0.00     0.069 H 
ATOM     40  C   LIG d   1       9.899   4.458  -3.730  0.00  0.00     0.025 A 
ATOM     41  O   LIG d   1       9.976   5.849  -5.679  0.00  0.00    -0.422 OA
ATOM     42  C   LIG d   1       9.805   3.187  -3.167  0.00  0.00    -0.047 A 
ATOM     43  C   LIG d   1      10.017   5.661  -2.885  0.00  0.00    -0.000 A 
ATOM     44  C   LIG d   1       9.677   2.084  -3.982  0.00  0.00    -0.019 A 
ATOM     45  H   LIG d   1       9.831   3.066  -2.094  0.00  0.00     0.063 H 
ATOM     46  H   LIG d   1       9.604   1.098  -3.547  0.00  0.00     0.065 H 
ATOM     47  C   LIG d   1       9.836   6.915  -3.512  0.00  0.00     0.067 A 
ATOM     48  C   LIG d   1      10.294   5.603  -1.526  0.00  0.00    -0.053 A 
ATOM     49  C   LIG d   1       9.931   8.083  -2.766  0.00  0.00    -0.047 A 
ATOM     50  C   LIG d   1       9.550   6.913  -4.957  0.00  0.00     0.345 C 
ATOM     51  C   LIG d   1      10.206   8.005  -1.416  0.00  0.00    -0.061 A 
ATOM     52  H   LIG d   1       9.790   9.045  -3.238  0.00  0.00     0.063 H 
ATOM     53  C   LIG d   1      10.386   6.775  -0.801  0.00  0.00    -0.061 A 
ATOM     54  H   LIG d   1      10.281   8.910  -0.832  0.00  0.00     0.062 H 
ATOM     55  H   LIG d   1      10.602   6.733   0.257  0.00  0.00     0.062 H 
ATOM     56  O   LIG d   1       8.954   7.833  -5.484  0.00  0.00    -0.244 OA
ATOM     57  H   LIG d   1      10.436   4.649  -1.040  0.00  0.00     0.062 H 
ENDBRANCH  35  36
ENDBRANCH  32  35
ENDBRANCH   2  32
TORSDOF 15
ENDMDL
MODEL 7
REMARK VINA RESULT:      -6.2      2.259      9.197
REMARK  15 active torsions:
REMARK  status: ('A' for Active; 'I' for Inactive)
REMARK    1  A    between atoms: C_1  and  N_2 
REMARK    2  A    between atoms: N_2  and  C_3 
REMARK       I    between atoms: N_2  and  C_18 
REMARK    3  A    between atoms: C_3  and  C_4 
REMARK    4  A    between atoms: C_4  and  C_6 
REMARK    5  A    between atoms: C_4  and  O_17 
REMARK    6  A    between atoms: C_6  and  C_8 
REMARK    7  A    between atoms: C_6  and  O_16 
REMARK    8  A    between atoms: C_8  and  C_10 
REMARK    9  A    between atoms: C_8  and  O_15 
REMARK   10  A    between atoms: C_10  and  C_12 
REMARK   11  A    between atoms: C_10  and  O_14 
REMARK   12  A    between atoms: C_12  and  O_13 
REMARK   13  A    between atoms: C_18  and  C_20 
REMARK   14  A    between atoms: C_20  and  O_21 
REMARK   15  A    between atoms: O_21  and  C_22 
ROOT
ATOM      1  N   LIG d   1       8.635   0.129  -4.590  0.00  0.00    -0.299 N 
ATOM      2  C   LIG d   1       8.616   1.398  -4.135  0.00  0.00     0.253 C 
ATOM      3  O   LIG d   1       7.669   1.797  -3.490  0.00  0.00    -0.272 OA
ENDROOT
BRANCH   1   4
ATOM      4  C   LIG d   1       9.778  -0.353  -5.369  0.00  0.00     0.003 C 
ATOM      5  H   LIG d   1      10.094   0.423  -6.068  0.00  0.00     0.043 H 
ATOM      6  H   LIG d   1      10.601  -0.593  -4.696  0.00  0.00     0.043 H 
ATOM      7  H   LIG d   1       9.489  -1.245  -5.924  0.00  0.00     0.043 H 
ENDBRANCH   1   4
BRANCH   1   8
ATOM      8  C   LIG d   1       7.512  -0.768  -4.306  0.00  0.00     0.043 C 
ATOM      9  H   LIG d   1       7.834  -1.544  -3.611  0.00  0.00     0.049 H 
ATOM     10  H   LIG d   1       6.695  -0.199  -3.861  0.00  0.00     0.049 H 
BRANCH   8  11
ATOM     11  C   LIG d   1       7.034  -1.414  -5.608  0.00  0.00     0.099 C 
ATOM     12  H   LIG d   1       7.684  -1.107  -6.426  0.00  0.00     0.064 H 
BRANCH  11  13
ATOM     13  C   LIG d   1       5.600  -0.967  -5.901  0.00  0.00     0.111 C 
ATOM     14  H   LIG d   1       5.197  -1.555  -6.726  0.00  0.00     0.065 H 
BRANCH  13  15
ATOM     15  C   LIG d   1       4.736  -1.178  -4.656  0.00  0.00     0.111 C 
ATOM     16  H   LIG d   1       5.378  -1.375  -3.797  0.00  0.00     0.065 H 
BRANCH  15  17
ATOM     17  C   LIG d   1       3.905   0.080  -4.392  0.00  0.00     0.106 C 
ATOM     18  H   LIG d   1       3.651   0.553  -5.341  0.00  0.00     0.064 H 
BRANCH  17  19
ATOM     19  C   LIG d   1       2.623  -0.302  -3.651  0.00  0.00     0.073 C 
ATOM     20  H   LIG d   1       2.759  -1.266  -3.162  0.00  0.00     0.058 H 
ATOM     21  H   LIG d   1       2.395   0.457  -2.902  0.00  0.00     0.058 H 
BRANCH  19  22
ATOM     22  O   LIG d   1       1.543  -0.390  -4.584  0.00  0.00    -0.392 OA
ATOM     23  H   LIG d   1       1.824  -0.412  -5.509  0.00  0.00     0.209 HD
ENDBRANCH  19  22
ENDBRANCH  17  19
BRANCH  17  24
ATOM     24  O   LIG d   1       4.663   0.992  -3.594  0.00  0.00    -0.387 OA
ATOM     25  H   LIG d   1       4.130   1.514  -2.980  0.00  0.00     0.210 HD
ENDBRANCH  17  24
ENDBRANCH  15  17
BRANCH  15  26
ATOM     26  O   LIG d   1       3.863  -2.290  -4.864  0.00  0.00    -0.387 OA
ATOM     27  H   LIG d   1       4.317  -3.101  -5.130  0.00  0.00     0.210 HD
ENDBRANCH  15  26
ENDBRANCH  13  15
BRANCH  13  28
ATOM     28  O   LIG d   1       5.595   0.417  -6.256  0.00  0.00    -0.387 OA
ATOM     29  H   LIG d   1       4.964   0.642  -6.953  0.00  0.00     0.210 HD
ENDBRANCH  13  28
ENDBRANCH  11  13
BRANCH  11  30
ATOM     30  O   LIG d   1       7.072  -2.836  -5.476  0.00  0.00    -0.388 OA
ATOM     31  H   LIG d   1       7.927  -3.182  -5.184  0.00  0.00     0.210 HD
ENDBRANCH  11  30
ENDBRANCH   8  11
ENDBRANCH   1   8
BRANCH   2  32
ATOM     32  C   LIG d   1       9.772   2.320  -4.427  0.00  0.00     0.165 C 
ATOM     33  H   LIG d   1      10.359   2.466  -3.521  0.00  0.00     0.080 H 
ATOM     34  H   LIG d   1      10.400   1.880  -5.201  0.00  0.00     0.080 H 
BRANCH  32  35
ATOM     35  O   LIG d   1       9.272   3.581  -4.879  0.00  0.00    -0.483 OA
BRANCH  35  36
ATOM     36  C   LIG d   1       9.478   4.651  -4.070  0.00  0.00     0.125 A 
ATOM     37  C   LIG d   1       9.943   4.459  -2.779  0.00  0.00     0.023 A 
ATOM     38  C   LIG d   1      10.161   5.548  -1.950  0.00  0.00     0.143 A 
ATOM     39  H   LIG d   1      10.141   3.459  -2.420  0.00  0.00     0.069 H 
ATOM     40  C   LIG d   1       9.901   6.842  -2.430  0.00  0.00     0.025 A 
ATOM     41  O   LIG d   1      10.611   5.364  -0.684  0.00  0.00    -0.422 OA
ATOM     42  C   LIG d   1       9.425   7.026  -3.726  0.00  0.00    -0.047 A 
ATOM     43  C   LIG d   1      10.155   7.991  -1.539  0.00  0.00    -0.000 A 
ATOM     44  C   LIG d   1       9.215   5.935  -4.540  0.00  0.00    -0.019 A 
ATOM     45  H   LIG d   1       9.221   8.021  -4.093  0.00  0.00     0.063 H 
ATOM     46  H   LIG d   1       8.846   6.075  -5.546  0.00  0.00     0.065 H 
ATOM     47  C   LIG d   1      10.884   7.744  -0.353  0.00  0.00     0.067 A 
ATOM     48  C   LIG d   1       9.711   9.275  -1.822  0.00  0.00    -0.053 A 
ATOM     49  C   LIG d   1      11.158   8.788   0.521  0.00  0.00    -0.047 A 
ATOM     50  C   LIG d   1      11.324   6.360  -0.106  0.00  0.00     0.345 C 
ATOM     51  C   LIG d   1      10.708  10.058   0.223  0.00  0.00    -0.061 A 
ATOM     52  H   LIG d   1      11.718   8.607   1.428  0.00  0.00     0.063 H 
ATOM     53  C   LIG d   1       9.991  10.300  -0.939  0.00  0.00    -0.061 A 
ATOM     54  H   LIG d   1      10.919  10.872   0.900  0.00  0.00     0.062 H 
ATOM     55  H   LIG d   1       9.647  11.301  -1.155  0.00  0.00     0.062 H 
ATOM     56  O   LIG d   1      12.290   6.120   0.593  0.00  0.00    -0.244 OA
ATOM     57  H   LIG d   1       9.152   9.472  -2.725  0.00  0.00     0.062 H 
ENDBRANCH  35  36
ENDBRANCH  32  35
ENDBRANCH   2  32
TORSDOF 15
ENDMDL
MODEL 8
REMARK VINA RESULT:      -6.1      2.022      2.986
REMARK  15 active torsions:
REMARK  status: ('A' for Active; 'I' for Inactive)
REMARK    1  A    between atoms: C_1  and  N_2 
REMARK    2  A    between atoms: N_2  and  C_3 
REMARK       I    between atoms: N_2  and  C_18 
REMARK    3  A    between atoms: C_3  and  C_4 
REMARK    4  A    between atoms: C_4  and  C_6 
REMARK    5  A    between atoms: C_4  and  O_17 
REMARK    6  A    between atoms: C_6  and  C_8 
REMARK    7  A    between atoms: C_6  and  O_16 
REMARK    8  A    between atoms: C_8  and  C_10 
REMARK    9  A    between atoms: C_8  and  O_15 
REMARK   10  A    between atoms: C_10  and  C_12 
REMARK   11  A    between atoms: C_10  and  O_14 
REMARK   12  A    between atoms: C_12  and  O_13 
REMARK   13  A    between atoms: C_18  and  C_20 
REMARK   14  A    between atoms: C_20  and  O_21 
REMARK   15  A    between atoms: O_21  and  C_22 
ROOT
ATOM      1  N   LIG d   1       9.847   5.393  -4.014  0.00  0.00    -0.299 N 
ATOM      2  C   LIG d   1       9.909   4.860  -5.251  0.00  0.00     0.253 C 
ATOM      3  O   LIG d   1       9.592   5.524  -6.214  0.00  0.00    -0.272 OA
ENDROOT
BRANCH   1   4
ATOM      4  C   LIG d   1      10.230   4.590  -2.850  0.00  0.00     0.003 C 
ATOM      5  H   LIG d   1      10.030   3.538  -3.053  0.00  0.00     0.043 H 
ATOM      6  H   LIG d   1      11.292   4.726  -2.648  0.00  0.00     0.043 H 
ATOM      7  H   LIG d   1       9.651   4.910  -1.983  0.00  0.00     0.043 H 
ENDBRANCH   1   4
BRANCH   1   8
ATOM      8  C   LIG d   1       9.398   6.776  -3.834  0.00  0.00     0.043 C 
ATOM      9  H   LIG d   1       9.403   7.287  -4.798  0.00  0.00     0.049 H 
ATOM     10  H   LIG d   1       8.387   6.780  -3.426  0.00  0.00     0.049 H 
BRANCH   8  11
ATOM     11  C   LIG d   1      10.342   7.497  -2.870  0.00  0.00     0.099 C 
ATOM     12  H   LIG d   1      11.266   6.929  -2.774  0.00  0.00     0.064 H 
BRANCH  11  13
ATOM     13  C   LIG d   1       9.673   7.617  -1.499  0.00  0.00     0.111 C 
ATOM     14  H   LIG d   1       9.043   6.745  -1.323  0.00  0.00     0.065 H 
BRANCH  13  15
ATOM     15  C   LIG d   1      10.748   7.697  -0.412  0.00  0.00     0.111 C 
ATOM     16  H   LIG d   1      11.725   7.497  -0.852  0.00  0.00     0.065 H 
BRANCH  15  17
ATOM     17  C   LIG d   1      10.745   9.097   0.206  0.00  0.00     0.106 C 
ATOM     18  H   LIG d   1       9.719   9.402   0.412  0.00  0.00     0.064 H 
BRANCH  17  19
ATOM     19  C   LIG d   1      11.544   9.080   1.510  0.00  0.00     0.073 C 
ATOM     20  H   LIG d   1      11.680  10.101   1.867  0.00  0.00     0.058 H 
ATOM     21  H   LIG d   1      11.004   8.502   2.261  0.00  0.00     0.058 H 
BRANCH  19  22
ATOM     22  O   LIG d   1      12.821   8.481   1.278  0.00  0.00    -0.392 OA
ATOM     23  H   LIG d   1      13.316   8.883   0.550  0.00  0.00     0.209 HD
ENDBRANCH  19  22
ENDBRANCH  17  19
BRANCH  17  24
ATOM     24  O   LIG d   1      11.342  10.021  -0.706  0.00  0.00    -0.387 OA
ATOM     25  H   LIG d   1      12.277  10.194  -0.535  0.00  0.00     0.210 HD
ENDBRANCH  17  24
ENDBRANCH  15  17
BRANCH  15  26
ATOM     26  O   LIG d   1      10.473   6.728   0.602  0.00  0.00    -0.387 OA
ATOM     27  H   LIG d   1      11.026   6.816   1.390  0.00  0.00     0.210 HD
ENDBRANCH  15  26
ENDBRANCH  13  15
BRANCH  13  28
ATOM     28  O   LIG d   1       8.870   8.799  -1.462  0.00  0.00    -0.387 OA
ATOM     29  H   LIG d   1       8.804   9.256  -2.311  0.00  0.00     0.210 HD
ENDBRANCH  13  28
ENDBRANCH  11  13
BRANCH  11  30
ATOM     30  O   LIG d   1      10.633   8.801  -3.373  0.00  0.00    -0.388 OA
ATOM     31  H   LIG d   1      10.114   9.507  -2.964  0.00  0.00     0.210 HD
ENDBRANCH  11  30
ENDBRANCH   8  11
ENDBRANCH   1   8
BRANCH   2  32
ATOM     32  C   LIG d   1      10.371   3.437  -5.435  0.00  0.00     0.165 C 
ATOM     33  H   LIG d   1      11.349   3.431  -5.915  0.00  0.00     0.080 H 
ATOM     34  H   LIG d   1      10.442   2.950  -4.462  0.00  0.00     0.080 H 
BRANCH  32  35
ATOM     35  O   LIG d   1       9.434   2.734  -6.253  0.00  0.00    -0.483 OA
BRANCH  35  36
ATOM     36  C   LIG d   1       8.524   1.953  -5.615  0.00  0.00     0.125 A 
ATOM     37  C   LIG d   1       7.923   0.904  -6.292  0.00  0.00     0.023 A 
ATOM     38  C   LIG d   1       6.998   0.100  -5.645  0.00  0.00     0.143 A 
ATOM     39  H   LIG d   1       8.180   0.710  -7.324  0.00  0.00     0.069 H 
ATOM     40  C   LIG d   1       6.676   0.362  -4.304  0.00  0.00     0.025 A 
ATOM     41  O   LIG d   1       6.404  -0.925  -6.306  0.00  0.00    -0.422 OA
ATOM     42  C   LIG d   1       7.278   1.425  -3.634  0.00  0.00    -0.047 A 
ATOM     43  C   LIG d   1       5.701  -0.515  -3.626  0.00  0.00    -0.000 A 
ATOM     44  C   LIG d   1       8.197   2.214  -4.288  0.00  0.00    -0.019 A 
ATOM     45  H   LIG d   1       7.026   1.629  -2.604  0.00  0.00     0.063 H 
ATOM     46  H   LIG d   1       8.665   3.039  -3.771  0.00  0.00     0.065 H 
ATOM     47  C   LIG d   1       5.345  -1.717  -4.280  0.00  0.00     0.067 A 
ATOM     48  C   LIG d   1       5.138  -0.205  -2.397  0.00  0.00    -0.053 A 
ATOM     49  C   LIG d   1       4.437  -2.585  -3.688  0.00  0.00    -0.047 A 
ATOM     50  C   LIG d   1       5.974  -1.988  -5.585  0.00  0.00     0.345 C 
ATOM     51  C   LIG d   1       3.887  -2.260  -2.465  0.00  0.00    -0.061 A 
ATOM     52  H   LIG d   1       4.163  -3.507  -4.181  0.00  0.00     0.063 H 
ATOM     53  C   LIG d   1       4.235  -1.080  -1.824  0.00  0.00    -0.061 A 
ATOM     54  H   LIG d   1       3.180  -2.931  -2.001  0.00  0.00     0.062 H 
ATOM     55  H   LIG d   1       3.793  -0.842  -0.868  0.00  0.00     0.062 H 
ATOM     56  O   LIG d   1       6.099  -3.124  -6.001  0.00  0.00    -0.244 OA
ATOM     57  H   LIG d   1       5.403   0.712  -1.891  0.00  0.00     0.062 H 
ENDBRANCH  35  36
ENDBRANCH  32  35
ENDBRANCH   2  32
TORSDOF 15
ENDMDL
MODEL 9
REMARK VINA RESULT:      -6.1      6.962     10.663
REMARK  15 active torsions:
REMARK  status: ('A' for Active; 'I' for Inactive)
REMARK    1  A    between atoms: C_1  and  N_2 
REMARK    2  A    between atoms: N_2  and  C_3 
REMARK       I    between atoms: N_2  and  C_18 
REMARK    3  A    between atoms: C_3  and  C_4 
REMARK    4  A    between atoms: C_4  and  C_6 
REMARK    5  A    between atoms: C_4  and  O_17 
REMARK    6  A    between atoms: C_6  and  C_8 
REMARK    7  A    between atoms: C_6  and  O_16 
REMARK    8  A    between atoms: C_8  and  C_10 
REMARK    9  A    between atoms: C_8  and  O_15 
REMARK   10  A    between atoms: C_10  and  C_12 
REMARK   11  A    between atoms: C_10  and  O_14 
REMARK   12  A    between atoms: C_12  and  O_13 
REMARK   13  A    between atoms: C_18  and  C_20 
REMARK   14  A    between atoms: C_20  and  O_21 
REMARK   15  A    between atoms: O_21  and  C_22 
ROOT
ATOM      1  N   LIG d   1      10.940  -6.972  -4.348  0.00  0.00    -0.299 N 
ATOM      2  C   LIG d   1       9.674  -6.527  -4.484  0.00  0.00     0.253 C 
ATOM      3  O   LIG d   1       8.762  -7.124  -3.954  0.00  0.00    -0.272 OA
ENDROOT
BRANCH   1   4
ATOM      4  C   LIG d   1      12.043  -6.251  -4.988  0.00  0.00     0.003 C 
ATOM      5  H   LIG d   1      12.496  -5.568  -4.269  0.00  0.00     0.043 H 
ATOM      6  H   LIG d   1      12.791  -6.963  -5.334  0.00  0.00     0.043 H 
ATOM      7  H   LIG d   1      11.661  -5.683  -5.837  0.00  0.00     0.043 H 
ENDBRANCH   1   4
BRANCH   1   8
ATOM      8  C   LIG d   1      11.212  -8.177  -3.561  0.00  0.00     0.043 C 
ATOM      9  H   LIG d   1      10.356  -8.850  -3.619  0.00  0.00     0.049 H 
ATOM     10  H   LIG d   1      12.096  -8.678  -3.956  0.00  0.00     0.049 H 
BRANCH   8  11
ATOM     11  C   LIG d   1      11.456  -7.787  -2.101  0.00  0.00     0.099 C 
ATOM     12  H   LIG d   1      12.518  -7.875  -1.875  0.00  0.00     0.064 H 
BRANCH  11  13
ATOM     13  C   LIG d   1      10.660  -8.720  -1.186  0.00  0.00     0.111 C 
ATOM     14  H   LIG d   1      10.794  -9.751  -1.512  0.00  0.00     0.065 H 
BRANCH  13  15
ATOM     15  C   LIG d   1      11.160  -8.570   0.253  0.00  0.00     0.111 C 
ATOM     16  H   LIG d   1      10.660  -9.302   0.889  0.00  0.00     0.065 H 
BRANCH  15  17
ATOM     17  C   LIG d   1      12.671  -8.806   0.295  0.00  0.00     0.106 C 
ATOM     18  H   LIG d   1      13.162  -8.149  -0.422  0.00  0.00     0.064 H 
BRANCH  17  19
ATOM     19  C   LIG d   1      13.194  -8.510   1.702  0.00  0.00     0.073 C 
ATOM     20  H   LIG d   1      12.444  -8.800   2.437  0.00  0.00     0.058 H 
ATOM     21  H   LIG d   1      14.111  -9.073   1.875  0.00  0.00     0.058 H 
BRANCH  19  22
ATOM     22  O   LIG d   1      13.465  -7.111   1.823  0.00  0.00    -0.392 OA
ATOM     23  H   LIG d   1      14.332  -6.849   1.486  0.00  0.00     0.209 HD
ENDBRANCH  19  22
ENDBRANCH  17  19
BRANCH  17  24
ATOM     24  O   LIG d   1      12.950 -10.168  -0.040  0.00  0.00    -0.387 OA
ATOM     25  H   LIG d   1      12.377 -10.528  -0.729  0.00  0.00     0.210 HD
ENDBRANCH  17  24
ENDBRANCH  15  17
BRANCH  15  26
ATOM     26  O   LIG d   1      10.870  -7.253   0.723  0.00  0.00    -0.387 OA
ATOM     27  H   LIG d   1      11.581  -6.856   1.245  0.00  0.00     0.210 HD
ENDBRANCH  15  26
ENDBRANCH  13  15
BRANCH  13  28
ATOM     28  O   LIG d   1       9.274  -8.378  -1.246  0.00  0.00    -0.387 OA
ATOM     29  H   LIG d   1       8.765  -8.909  -1.873  0.00  0.00     0.210 HD
ENDBRANCH  13  28
ENDBRANCH  11  13
BRANCH  11  30
ATOM     30  O   LIG d   1      11.034  -6.439  -1.891  0.00  0.00    -0.388 OA
ATOM     31  H   LIG d   1      11.551  -5.783  -2.378  0.00  0.00     0.210 HD
ENDBRANCH  11  30
ENDBRANCH   8  11
ENDBRANCH   1   8
BRANCH   2  32
ATOM     32  C   LIG d   1       9.395  -5.287  -5.294  0.00  0.00     0.165 C 
ATOM     33  H   LIG d   1       9.632  -4.404  -4.702  0.00  0.00     0.080 H 
ATOM     34  H   LIG d   1      10.009  -5.296  -6.194  0.00  0.00     0.080 H 
BRANCH  32  35
ATOM     35  O   LIG d   1       8.014  -5.259  -5.660  0.00  0.00    -0.483 OA
BRANCH  35  36
ATOM     36  C   LIG d   1       7.254  -4.269  -5.123  0.00  0.00     0.125 A 
ATOM     37  C   LIG d   1       7.865  -3.151  -4.579  0.00  0.00     0.023 A 
ATOM     38  C   LIG d   1       7.095  -2.135  -4.035  0.00  0.00     0.143 A 
ATOM     39  H   LIG d   1       8.942  -3.069  -4.583  0.00  0.00     0.069 H 
ATOM     40  C   LIG d   1       5.696  -2.254  -4.038  0.00  0.00     0.025 A 
ATOM     41  O   LIG d   1       7.689  -1.041  -3.497  0.00  0.00    -0.422 OA
ATOM     42  C   LIG d   1       5.090  -3.386  -4.580  0.00  0.00    -0.047 A 
ATOM     43  C   LIG d   1       4.891  -1.155  -3.470  0.00  0.00    -0.000 A 
ATOM     44  C   LIG d   1       5.868  -4.386  -5.119  0.00  0.00    -0.019 A 
ATOM     45  H   LIG d   1       4.014  -3.478  -4.577  0.00  0.00     0.063 H 
ATOM     46  H   LIG d   1       5.400  -5.265  -5.540  0.00  0.00     0.065 H 
ATOM     47  C   LIG d   1       5.558   0.061  -3.193  0.00  0.00     0.067 A 
ATOM     48  C   LIG d   1       3.534  -1.274  -3.207  0.00  0.00    -0.053 A 
ATOM     49  C   LIG d   1       4.851   1.133  -2.662  0.00  0.00    -0.047 A 
ATOM     50  C   LIG d   1       7.000   0.124  -3.489  0.00  0.00     0.345 C 
ATOM     51  C   LIG d   1       3.503   0.996  -2.407  0.00  0.00    -0.061 A 
ATOM     52  H   LIG d   1       5.354   2.066  -2.451  0.00  0.00     0.063 H 
ATOM     53  C   LIG d   1       2.849  -0.198  -2.677  0.00  0.00    -0.061 A 
ATOM     54  H   LIG d   1       2.949   1.826  -1.994  0.00  0.00     0.062 H 
ATOM     55  H   LIG d   1       1.792  -0.286  -2.470  0.00  0.00     0.062 H 
ATOM     56  O   LIG d   1       7.551   1.184  -3.717  0.00  0.00    -0.244 OA
ATOM     57  H   LIG d   1       3.018  -2.199  -3.414  0.00  0.00     0.062 H 
ENDBRANCH  35  36
ENDBRANCH  32  35
ENDBRANCH   2  32
TORSDOF 15
ENDMDL
MODEL 10
REMARK VINA RESULT:      -6.0      1.864      2.491
REMARK  15 active torsions:
REMARK  status: ('A' for Active; 'I' for Inactive)
REMARK    1  A    between atoms: C_1  and  N_2 
REMARK    2  A    between atoms: N_2  and  C_3 
REMARK       I    between atoms: N_2  and  C_18 
REMARK    3  A    between atoms: C_3  and  C_4 
REMARK    4  A    between atoms: C_4  and  C_6 
REMARK    5  A    between atoms: C_4  and  O_17 
REMARK    6  A    between atoms: C_6  and  C_8 
REMARK    7  A    between atoms: C_6  and  O_16 
REMARK    8  A    between atoms: C_8  and  C_10 
REMARK    9  A    between atoms: C_8  and  O_15 
REMARK   10  A    between atoms: C_10  and  C_12 
REMARK   11  A    between atoms: C_10  and  O_14 
REMARK   12  A    between atoms: C_12  and  O_13 
REMARK   13  A    between atoms: C_18  and  C_20 
REMARK   14  A    between atoms: C_20  and  O_21 
REMARK   15  A    between atoms: O_21  and  C_22 
ROOT
ATOM      1  N   LIG d   1      11.103   6.167  -4.240  0.00  0.00    -0.299 N 
ATOM      2  C   LIG d   1       9.969   5.445  -4.345  0.00  0.00     0.253 C 
ATOM      3  O   LIG d   1       8.913   6.001  -4.550  0.00  0.00    -0.272 OA
ENDROOT
BRANCH   1   4
ATOM      4  C   LIG d   1      12.380   5.495  -3.992  0.00  0.00     0.003 C 
ATOM      5  H   LIG d   1      13.100   5.791  -4.755  0.00  0.00     0.043 H 
ATOM      6  H   LIG d   1      12.756   5.780  -3.009  0.00  0.00     0.043 H 
ATOM      7  H   LIG d   1      12.235   4.415  -4.027  0.00  0.00     0.043 H 
ENDBRANCH   1   4
BRANCH   1   8
ATOM      8  C   LIG d   1      11.056   7.626  -4.374  0.00  0.00     0.043 C 
ATOM      9  H   LIG d   1      11.637   7.928  -5.246  0.00  0.00     0.049 H 
ATOM     10  H   LIG d   1      10.022   7.947  -4.497  0.00  0.00     0.049 H 
BRANCH   8  11
ATOM     11  C   LIG d   1      11.646   8.272  -3.119  0.00  0.00     0.099 C 
ATOM     12  H   LIG d   1      11.965   7.494  -2.426  0.00  0.00     0.064 H 
BRANCH  11  13
ATOM     13  C   LIG d   1      10.583   9.146  -2.450  0.00  0.00     0.111 C 
ATOM     14  H   LIG d   1      10.796   9.226  -1.384  0.00  0.00     0.065 H 
BRANCH  13  15
ATOM     15  C   LIG d   1      10.599  10.541  -3.079  0.00  0.00     0.111 C 
ATOM     16  H   LIG d   1      10.871  10.460  -4.132  0.00  0.00     0.065 H 
BRANCH  15  17
ATOM     17  C   LIG d   1       9.210  11.172  -2.958  0.00  0.00     0.106 C 
ATOM     18  H   LIG d   1       8.695  10.752  -2.094  0.00  0.00     0.064 H 
BRANCH  17  19
ATOM     19  C   LIG d   1       9.352  12.685  -2.783  0.00  0.00     0.073 C 
ATOM     20  H   LIG d   1      10.255  13.026  -3.288  0.00  0.00     0.058 H 
ATOM     21  H   LIG d   1       8.484  13.184  -3.215  0.00  0.00     0.058 H 
BRANCH  19  22
ATOM     22  O   LIG d   1       9.437  12.997  -1.391  0.00  0.00    -0.392 OA
ATOM     23  H   LIG d   1       8.984  12.363  -0.818  0.00  0.00     0.209 HD
ENDBRANCH  19  22
ENDBRANCH  17  19
BRANCH  17  24
ATOM     24  O   LIG d   1       8.458  10.897  -4.142  0.00  0.00    -0.387 OA
ATOM     25  H   LIG d   1       7.739  10.264  -4.013  0.00  0.00     0.210 HD
ENDBRANCH  17  24
ENDBRANCH  15  17
BRANCH  15  26
ATOM     26  O   LIG d   1      11.555  11.358  -2.401  0.00  0.00    -0.387 OA
ATOM     27  H   LIG d   1      11.871  12.108  -2.922  0.00  0.00     0.210 HD
ENDBRANCH  15  26
ENDBRANCH  13  15
BRANCH  13  28
ATOM     28  O   LIG d   1       9.295   8.555  -2.634  0.00  0.00    -0.387 OA
ATOM     29  H   LIG d   1       8.558   9.147  -2.429  0.00  0.00     0.210 HD
ENDBRANCH  13  28
ENDBRANCH  11  13
BRANCH  11  30
ATOM     30  O   LIG d   1      12.767   9.079  -3.480  0.00  0.00    -0.388 OA
ATOM     31  H   LIG d   1      12.543   9.997  -3.685  0.00  0.00     0.210 HD
ENDBRANCH  11  30
ENDBRANCH   8  11
ENDBRANCH   1   8
BRANCH   2  32
ATOM     32  C   LIG d   1      10.018   3.944  -4.207  0.00  0.00     0.165 C 
ATOM     33  H   LIG d   1      11.053   3.608  -4.255  0.00  0.00     0.080 H 
ATOM     34  H   LIG d   1       9.586   3.654  -3.250  0.00  0.00     0.080 H 
BRANCH  32  35
ATOM     35  O   LIG d   1       9.271   3.345  -5.268  0.00  0.00    -0.483 OA
BRANCH  35  36
ATOM     36  C   LIG d   1       8.439   2.324  -4.936  0.00  0.00     0.125 A 
ATOM     37  C   LIG d   1       7.615   2.442  -3.829  0.00  0.00     0.023 A 
ATOM     38  C   LIG d   1       6.759   1.405  -3.488  0.00  0.00     0.143 A 
ATOM     39  H   LIG d   1       7.635   3.343  -3.234  0.00  0.00     0.069 H 
ATOM     40  C   LIG d   1       6.742   0.240  -4.271  0.00  0.00     0.025 A 
ATOM     41  O   LIG d   1       5.954   1.514  -2.402  0.00  0.00    -0.422 OA
ATOM     42  C   LIG d   1       7.581   0.127  -5.378  0.00  0.00    -0.047 A 
ATOM     43  C   LIG d   1       5.812  -0.846  -3.903  0.00  0.00    -0.000 A 
ATOM     44  C   LIG d   1       8.424   1.165  -5.706  0.00  0.00    -0.019 A 
ATOM     45  H   LIG d   1       7.570  -0.771  -5.977  0.00  0.00     0.063 H 
ATOM     46  H   LIG d   1       9.076   1.080  -6.564  0.00  0.00     0.065 H 
ATOM     47  C   LIG d   1       4.816  -0.550  -2.945  0.00  0.00     0.067 A 
ATOM     48  C   LIG d   1       5.884  -2.117  -4.455  0.00  0.00    -0.053 A 
ATOM     49  C   LIG d   1       3.909  -1.531  -2.563  0.00  0.00    -0.047 A 
ATOM     50  C   LIG d   1       4.794   0.816  -2.392  0.00  0.00     0.345 C 
ATOM     51  C   LIG d   1       3.996  -2.789  -3.123  0.00  0.00    -0.061 A 
ATOM     52  H   LIG d   1       3.143  -1.310  -1.834  0.00  0.00     0.063 H 
ATOM     53  C   LIG d   1       4.975  -3.080  -4.061  0.00  0.00    -0.061 A 
ATOM     54  H   LIG d   1       3.293  -3.555  -2.829  0.00  0.00     0.062 H 
ATOM     55  H   LIG d   1       5.028  -4.071  -4.488  0.00  0.00     0.062 H 
ATOM     56  O   LIG d   1       3.772   1.298  -1.942  0.00  0.00    -0.244 OA
ATOM     57  H   LIG d   1       6.644  -2.352  -5.186  0.00  0.00     0.062 H 
ENDBRANCH  35  36
ENDBRANCH  32  35
ENDBRANCH   2  32
TORSDOF 15
ENDMDL
