MODEL 1
REMARK VINA RESULT:      -5.9      0.000      0.000
REMARK  10 active torsions:
REMARK  status: ('A' for Active; 'I' for Inactive)
REMARK    1  A    between atoms: C_1  and  C_2 
REMARK    2  A    between atoms: C_2  and  O_3 
REMARK    3  A    between atoms: O_3  and  C_4 
REMARK    4  A    between atoms: C_12  and  C_13 
REMARK    5  A    between atoms: C_18  and  O_19 
REMARK    6  A    between atoms: O_19  and  C_20 
REMARK    7  A    between atoms: C_20  and  C_22 
REMARK    8  A    between atoms: C_20  and  C_23 
REMARK    9  A    between atoms: C_23  and  O_25 
REMARK   10  A    between atoms: O_25  and  C_26 
ROOT
ATOM      1  C   LIG d   1       3.099   0.673  -8.316  0.00  0.00     0.020 A 
ATOM      2  C   LIG d   1       3.593   1.932  -8.678  0.00  0.00    -0.051 A 
ATOM      3  C   LIG d   1       3.886   2.201  -9.998  0.00  0.00    -0.061 A 
ATOM      4  C   LIG d   1       3.683   1.234 -10.970  0.00  0.00    -0.058 A 
ATOM      5  C   LIG d   1       3.192  -0.011 -10.628  0.00  0.00    -0.019 A 
ATOM      6  C   LIG d   1       2.896  -0.303  -9.306  0.00  0.00     0.129 A 
ATOM      7  H   LIG d   1       3.749   2.690  -7.926  0.00  0.00     0.062 H 
ATOM      8  H   LIG d   1       4.270   3.170 -10.277  0.00  0.00     0.062 H 
ATOM      9  H   LIG d   1       3.911   1.456 -12.002  0.00  0.00     0.062 H 
ATOM     10  H   LIG d   1       3.037  -0.759 -11.393  0.00  0.00     0.065 H 
ENDROOT
BRANCH   1  11
ATOM     11  C   LIG d   1       2.792   0.377  -6.912  0.00  0.00    -0.005 C 
ATOM     12  C   LIG d   1       3.733  -0.195  -6.117  0.00  0.00     0.176 A 
ATOM     13  O   LIG d   1       4.969  -0.592  -6.499  0.00  0.00    -0.451 OA
ATOM     14  C   LIG d   1       3.593  -0.494  -4.685  0.00  0.00     0.232 A 
ATOM     15  C   LIG d   1       5.665  -1.124  -5.472  0.00  0.00     0.143 A 
ATOM     16  C   LIG d   1       4.882  -1.101  -4.307  0.00  0.00     0.068 A 
ATOM     17  C   LIG d   1       6.952  -1.646  -5.407  0.00  0.00     0.023 A 
ATOM     18  C   LIG d   1       5.387  -1.599  -3.105  0.00  0.00    -0.044 A 
ATOM     19  C   LIG d   1       6.651  -2.114  -3.058  0.00  0.00    -0.019 A 
ATOM     20  H   LIG d   1       4.778  -1.578  -2.213  0.00  0.00     0.063 H 
ATOM     21  C   LIG d   1       7.437  -2.142  -4.207  0.00  0.00     0.124 A 
ATOM     22  H   LIG d   1       7.042  -2.500  -2.128  0.00  0.00     0.065 H 
ATOM     23  H   LIG d   1       7.571  -1.669  -6.291  0.00  0.00     0.069 H 
ATOM     24  O   LIG d   1       2.628  -0.287  -3.970  0.00  0.00    -0.283 OA
ATOM     25  H   LIG d   1       1.817   0.613  -6.512  0.00  0.00     0.066 H 
BRANCH  21  26
ATOM     26  O   LIG d   1       8.693  -2.655  -4.152  0.00  0.00    -0.492 OA
BRANCH  26  27
ATOM     27  C   LIG d   1       8.814  -4.036  -3.805  0.00  0.00     0.087 C 
ATOM     28  H   LIG d   1       9.266  -4.581  -4.635  0.00  0.00     0.069 H 
ATOM     29  H   LIG d   1       7.826  -4.447  -3.596  0.00  0.00     0.069 H 
BRANCH  27  30
ATOM     30  C   LIG d   1       9.696  -4.175  -2.563  0.00  0.00    -0.031 C 
ATOM     31  H   LIG d   1       9.568  -3.300  -1.926  0.00  0.00     0.026 H 
ATOM     32  H   LIG d   1       9.410  -5.071  -2.012  0.00  0.00     0.026 H 
ATOM     33  H   LIG d   1      10.741  -4.254  -2.866  0.00  0.00     0.026 H 
ENDBRANCH  27  30
ENDBRANCH  26  27
ENDBRANCH  21  26
ENDBRANCH   1  11
BRANCH   6  34
ATOM     34  O   LIG d   1       2.415  -1.526  -8.969  0.00  0.00    -0.477 OA
BRANCH  34  35
ATOM     35  C   LIG d   1       3.160  -2.662  -9.412  0.00  0.00     0.193 C 
ATOM     36  H   LIG d   1       3.930  -2.340 -10.113  0.00  0.00     0.085 H 
BRANCH  35  37
ATOM     37  C   LIG d   1       3.819  -3.339  -8.207  0.00  0.00    -0.017 C 
ATOM     38  H   LIG d   1       4.897  -3.375  -8.356  0.00  0.00     0.027 H 
ATOM     39  H   LIG d   1       3.595  -2.772  -7.305  0.00  0.00     0.027 H 
ATOM     40  H   LIG d   1       3.431  -4.353  -8.105  0.00  0.00     0.027 H 
ENDBRANCH  35  37
BRANCH  35  41
ATOM     41  C   LIG d   1       2.235  -3.636 -10.093  0.00  0.00     0.348 C 
ATOM     42  O   LIG d   1       2.616  -4.756 -10.343  0.00  0.00    -0.247 OA
BRANCH  41  43
ATOM     43  O   LIG d   1       0.989  -3.263 -10.421  0.00  0.00    -0.465 OA
BRANCH  43  44
ATOM     44  C   LIG d   1       0.015  -4.320 -10.627  0.00  0.00     0.082 C 
ATOM     45  H   LIG d   1       0.016  -4.987  -9.765  0.00  0.00     0.066 H 
ATOM     46  H   LIG d   1      -0.976  -3.883 -10.748  0.00  0.00     0.066 H 
ATOM     47  H   LIG d   1       0.276  -4.884 -11.523  0.00  0.00     0.066 H 
ENDBRANCH  43  44
ENDBRANCH  41  43
ENDBRANCH  35  41
ENDBRANCH  34  35
ENDBRANCH   6  34
TORSDOF 10
ENDMDL
MODEL 2
REMARK VINA RESULT:      -5.8      2.742      5.729
REMARK  10 active torsions:
REMARK  status: ('A' for Active; 'I' for Inactive)
REMARK    1  A    between atoms: C_1  and  C_2 
REMARK    2  A    between atoms: C_2  and  O_3 
REMARK    3  A    between atoms: O_3  and  C_4 
REMARK    4  A    between atoms: C_12  and  C_13 
REMARK    5  A    between atoms: C_18  and  O_19 
REMARK    6  A    between atoms: O_19  and  C_20 
REMARK    7  A    between atoms: C_20  and  C_22 
REMARK    8  A    between atoms: C_20  and  C_23 
REMARK    9  A    between atoms: C_23  and  O_25 
REMARK   10  A    between atoms: O_25  and  C_26 
ROOT
ATOM      1  C   LIG d   1       3.349  -0.035  -4.129  0.00  0.00     0.020 A 
ATOM      2  C   LIG d   1       3.369   1.201  -3.472  0.00  0.00    -0.051 A 
ATOM      3  C   LIG d   1       3.927   1.301  -2.216  0.00  0.00    -0.061 A 
ATOM      4  C   LIG d   1       4.479   0.186  -1.605  0.00  0.00    -0.058 A 
ATOM      5  C   LIG d   1       4.471  -1.039  -2.244  0.00  0.00    -0.019 A 
ATOM      6  C   LIG d   1       3.910  -1.162  -3.505  0.00  0.00     0.129 A 
ATOM      7  H   LIG d   1       2.944   2.074  -3.945  0.00  0.00     0.062 H 
ATOM      8  H   LIG d   1       3.940   2.253  -1.707  0.00  0.00     0.062 H 
ATOM      9  H   LIG d   1       4.919   0.275  -0.623  0.00  0.00     0.062 H 
ATOM     10  H   LIG d   1       4.904  -1.903  -1.761  0.00  0.00     0.065 H 
ENDROOT
BRANCH   1  11
ATOM     11  C   LIG d   1       2.750  -0.151  -5.464  0.00  0.00    -0.005 C 
ATOM     12  C   LIG d   1       3.528  -0.025  -6.570  0.00  0.00     0.176 A 
ATOM     13  O   LIG d   1       4.850   0.263  -6.590  0.00  0.00    -0.451 OA
ATOM     14  C   LIG d   1       3.086  -0.175  -7.964  0.00  0.00     0.232 A 
ATOM     15  C   LIG d   1       5.333   0.319  -7.850  0.00  0.00     0.143 A 
ATOM     16  C   LIG d   1       4.301   0.059  -8.764  0.00  0.00     0.068 A 
ATOM     17  C   LIG d   1       6.612   0.573  -8.332  0.00  0.00     0.023 A 
ATOM     18  C   LIG d   1       4.554   0.060 -10.137  0.00  0.00    -0.044 A 
ATOM     19  C   LIG d   1       5.815   0.317 -10.596  0.00  0.00    -0.019 A 
ATOM     20  H   LIG d   1       3.755  -0.141 -10.834  0.00  0.00     0.063 H 
ATOM     21  C   LIG d   1       6.847   0.576  -9.698  0.00  0.00     0.124 A 
ATOM     22  H   LIG d   1       6.012   0.318 -11.658  0.00  0.00     0.065 H 
ATOM     23  H   LIG d   1       7.420   0.771  -7.644  0.00  0.00     0.069 H 
ATOM     24  O   LIG d   1       1.965  -0.435  -8.367  0.00  0.00    -0.283 OA
ATOM     25  H   LIG d   1       1.691  -0.337  -5.567  0.00  0.00     0.066 H 
BRANCH  21  26
ATOM     26  O   LIG d   1       8.097   0.829 -10.164  0.00  0.00    -0.492 OA
BRANCH  26  27
ATOM     27  C   LIG d   1       9.164   0.058  -9.608  0.00  0.00     0.087 C 
ATOM     28  H   LIG d   1       8.984  -0.099  -8.544  0.00  0.00     0.069 H 
ATOM     29  H   LIG d   1      10.106   0.589  -9.742  0.00  0.00     0.069 H 
BRANCH  27  30
ATOM     30  C   LIG d   1       9.238  -1.296 -10.318  0.00  0.00    -0.031 C 
ATOM     31  H   LIG d   1      10.279  -1.606 -10.402  0.00  0.00     0.026 H 
ATOM     32  H   LIG d   1       8.682  -2.038  -9.744  0.00  0.00     0.026 H 
ATOM     33  H   LIG d   1       8.803  -1.209 -11.314  0.00  0.00     0.026 H 
ENDBRANCH  27  30
ENDBRANCH  26  27
ENDBRANCH  21  26
ENDBRANCH   1  11
BRANCH   6  34
ATOM     34  O   LIG d   1       3.900  -2.364  -4.133  0.00  0.00    -0.477 OA
BRANCH  34  35
ATOM     35  C   LIG d   1       4.948  -2.615  -5.071  0.00  0.00     0.193 C 
ATOM     36  H   LIG d   1       5.217  -1.685  -5.573  0.00  0.00     0.085 H 
BRANCH  35  37
ATOM     37  C   LIG d   1       6.170  -3.168  -4.334  0.00  0.00    -0.017 C 
ATOM     38  H   LIG d   1       5.861  -3.566  -3.368  0.00  0.00     0.027 H 
ATOM     39  H   LIG d   1       6.622  -3.962  -4.926  0.00  0.00     0.027 H 
ATOM     40  H   LIG d   1       6.895  -2.369  -4.183  0.00  0.00     0.027 H 
ENDBRANCH  35  37
BRANCH  35  41
ATOM     41  C   LIG d   1       4.480  -3.619  -6.092  0.00  0.00     0.348 C 
ATOM     42  O   LIG d   1       4.614  -3.389  -7.271  0.00  0.00    -0.247 OA
BRANCH  41  43
ATOM     43  O   LIG d   1       3.915  -4.770  -5.693  0.00  0.00    -0.465 OA
BRANCH  43  44
ATOM     44  C   LIG d   1       4.537  -6.001  -6.143  0.00  0.00     0.082 C 
ATOM     45  H   LIG d   1       5.148  -5.799  -7.023  0.00  0.00     0.066 H 
ATOM     46  H   LIG d   1       5.166  -6.402  -5.348  0.00  0.00     0.066 H 
ATOM     47  H   LIG d   1       3.764  -6.727  -6.396  0.00  0.00     0.066 H 
ENDBRANCH  43  44
ENDBRANCH  41  43
ENDBRANCH  35  41
ENDBRANCH  34  35
ENDBRANCH   6  34
TORSDOF 10
ENDMDL
MODEL 3
REMARK VINA RESULT:      -5.8      2.147      7.675
REMARK  10 active torsions:
REMARK  status: ('A' for Active; 'I' for Inactive)
REMARK    1  A    between atoms: C_1  and  C_2 
REMARK    2  A    between atoms: C_2  and  O_3 
REMARK    3  A    between atoms: O_3  and  C_4 
REMARK    4  A    between atoms: C_12  and  C_13 
REMARK    5  A    between atoms: C_18  and  O_19 
REMARK    6  A    between atoms: O_19  and  C_20 
REMARK    7  A    between atoms: C_20  and  C_22 
REMARK    8  A    between atoms: C_20  and  C_23 
REMARK    9  A    between atoms: C_23  and  O_25 
REMARK   10  A    between atoms: O_25  and  C_26 
ROOT
ATOM      1  C   LIG d   1       3.797  -0.224  -4.457  0.00  0.00     0.020 A 
ATOM      2  C   LIG d   1       2.738  -0.589  -3.616  0.00  0.00    -0.051 A 
ATOM      3  C   LIG d   1       2.961  -1.459  -2.571  0.00  0.00    -0.061 A 
ATOM      4  C   LIG d   1       4.230  -1.966  -2.341  0.00  0.00    -0.058 A 
ATOM      5  C   LIG d   1       5.285  -1.611  -3.160  0.00  0.00    -0.019 A 
ATOM      6  C   LIG d   1       5.081  -0.742  -4.219  0.00  0.00     0.129 A 
ATOM      7  H   LIG d   1       1.749  -0.193  -3.787  0.00  0.00     0.062 H 
ATOM      8  H   LIG d   1       2.145  -1.743  -1.924  0.00  0.00     0.062 H 
ATOM      9  H   LIG d   1       4.396  -2.644  -1.517  0.00  0.00     0.062 H 
ATOM     10  H   LIG d   1       6.271  -2.012  -2.973  0.00  0.00     0.065 H 
ENDROOT
BRANCH   1  11
ATOM     11  C   LIG d   1       3.567   0.697  -5.576  0.00  0.00    -0.005 C 
ATOM     12  C   LIG d   1       3.319   0.207  -6.818  0.00  0.00     0.176 A 
ATOM     13  O   LIG d   1       3.312  -1.098  -7.176  0.00  0.00    -0.451 OA
ATOM     14  C   LIG d   1       3.013   0.998  -8.018  0.00  0.00     0.232 A 
ATOM     15  C   LIG d   1       3.032  -1.257  -8.488  0.00  0.00     0.143 A 
ATOM     16  C   LIG d   1       2.833  -0.003  -9.085  0.00  0.00     0.068 A 
ATOM     17  C   LIG d   1       2.915  -2.401  -9.270  0.00  0.00     0.023 A 
ATOM     18  C   LIG d   1       2.528   0.094 -10.443  0.00  0.00    -0.044 A 
ATOM     19  C   LIG d   1       2.423  -1.038 -11.200  0.00  0.00    -0.019 A 
ATOM     20  H   LIG d   1       2.376   1.063 -10.895  0.00  0.00     0.063 H 
ATOM     21  C   LIG d   1       2.618  -2.288 -10.619  0.00  0.00     0.124 A 
ATOM     22  H   LIG d   1       2.187  -0.964 -12.252  0.00  0.00     0.065 H 
ATOM     23  H   LIG d   1       3.061  -3.375  -8.828  0.00  0.00     0.069 H 
ATOM     24  O   LIG d   1       2.927   2.211  -8.111  0.00  0.00    -0.283 OA
ATOM     25  H   LIG d   1       3.594   1.764  -5.411  0.00  0.00     0.066 H 
BRANCH  21  26
ATOM     26  O   LIG d   1       2.510  -3.408 -11.378  0.00  0.00    -0.492 OA
BRANCH  26  27
ATOM     27  C   LIG d   1       1.768  -4.497 -10.826  0.00  0.00     0.087 C 
ATOM     28  H   LIG d   1       1.987  -4.584  -9.761  0.00  0.00     0.069 H 
ATOM     29  H   LIG d   1       2.048  -5.422 -11.330  0.00  0.00     0.069 H 
BRANCH  27  30
ATOM     30  C   LIG d   1       0.271  -4.244 -11.020  0.00  0.00    -0.031 C 
ATOM     31  H   LIG d   1      -0.295  -5.070 -10.590  0.00  0.00     0.026 H 
ATOM     32  H   LIG d   1      -0.007  -3.314 -10.523  0.00  0.00     0.026 H 
ATOM     33  H   LIG d   1       0.050  -4.166 -12.084  0.00  0.00     0.026 H 
ENDBRANCH  27  30
ENDBRANCH  26  27
ENDBRANCH  21  26
ENDBRANCH   1  11
BRANCH   6  34
ATOM     34  O   LIG d   1       6.116  -0.393  -5.025  0.00  0.00    -0.477 OA
BRANCH  34  35
ATOM     35  C   LIG d   1       7.371  -0.134  -4.393  0.00  0.00     0.193 C 
ATOM     36  H   LIG d   1       7.307  -0.396  -3.336  0.00  0.00     0.085 H 
BRANCH  35  37
ATOM     37  C   LIG d   1       8.461  -0.975  -5.061  0.00  0.00    -0.017 C 
ATOM     38  H   LIG d   1       8.192  -1.157  -6.101  0.00  0.00     0.027 H 
ATOM     39  H   LIG d   1       9.409  -0.440  -5.019  0.00  0.00     0.027 H 
ATOM     40  H   LIG d   1       8.557  -1.926  -4.538  0.00  0.00     0.027 H 
ENDBRANCH  35  37
BRANCH  35  41
ATOM     41  C   LIG d   1       7.710   1.327  -4.529  0.00  0.00     0.348 C 
ATOM     42  O   LIG d   1       7.636   1.867  -5.608  0.00  0.00    -0.247 OA
BRANCH  41  43
ATOM     43  O   LIG d   1       8.094   2.032  -3.452  0.00  0.00    -0.465 OA
BRANCH  43  44
ATOM     44  C   LIG d   1       9.430   2.599  -3.477  0.00  0.00     0.082 C 
ATOM     45  H   LIG d   1       9.654   2.956  -4.483  0.00  0.00     0.066 H 
ATOM     46  H   LIG d   1       9.484   3.433  -2.776  0.00  0.00     0.066 H 
ATOM     47  H   LIG d   1      10.154   1.837  -3.192  0.00  0.00     0.066 H 
ENDBRANCH  43  44
ENDBRANCH  41  43
ENDBRANCH  35  41
ENDBRANCH  34  35
ENDBRANCH   6  34
TORSDOF 10
ENDMDL
MODEL 4
REMARK VINA RESULT:      -5.8      2.675      5.111
REMARK  10 active torsions:
REMARK  status: ('A' for Active; 'I' for Inactive)
REMARK    1  A    between atoms: C_1  and  C_2 
REMARK    2  A    between atoms: C_2  and  O_3 
REMARK    3  A    between atoms: O_3  and  C_4 
REMARK    4  A    between atoms: C_12  and  C_13 
REMARK    5  A    between atoms: C_18  and  O_19 
REMARK    6  A    between atoms: O_19  and  C_20 
REMARK    7  A    between atoms: C_20  and  C_22 
REMARK    8  A    between atoms: C_20  and  C_23 
REMARK    9  A    between atoms: C_23  and  O_25 
REMARK   10  A    between atoms: O_25  and  C_26 
ROOT
ATOM      1  C   LIG d   1       3.978  -1.180  -3.401  0.00  0.00     0.020 A 
ATOM      2  C   LIG d   1       4.416  -0.957  -2.090  0.00  0.00    -0.051 A 
ATOM      3  C   LIG d   1       4.399   0.318  -1.568  0.00  0.00    -0.061 A 
ATOM      4  C   LIG d   1       3.939   1.380  -2.330  0.00  0.00    -0.058 A 
ATOM      5  C   LIG d   1       3.499   1.174  -3.624  0.00  0.00    -0.019 A 
ATOM      6  C   LIG d   1       3.513  -0.099  -4.169  0.00  0.00     0.129 A 
ATOM      7  H   LIG d   1       4.772  -1.781  -1.490  0.00  0.00     0.062 H 
ATOM      8  H   LIG d   1       4.740   0.490  -0.558  0.00  0.00     0.062 H 
ATOM      9  H   LIG d   1       3.924   2.375  -1.911  0.00  0.00     0.062 H 
ATOM     10  H   LIG d   1       3.142   2.008  -4.211  0.00  0.00     0.065 H 
ENDROOT
BRANCH   1  11
ATOM     11  C   LIG d   1       4.000  -2.533  -3.966  0.00  0.00    -0.005 C 
ATOM     12  C   LIG d   1       5.176  -3.083  -4.367  0.00  0.00     0.176 A 
ATOM     13  O   LIG d   1       6.387  -2.479  -4.354  0.00  0.00    -0.451 OA
ATOM     14  C   LIG d   1       5.364  -4.442  -4.894  0.00  0.00     0.232 A 
ATOM     15  C   LIG d   1       7.360  -3.293  -4.816  0.00  0.00     0.143 A 
ATOM     16  C   LIG d   1       6.808  -4.533  -5.174  0.00  0.00     0.068 A 
ATOM     17  C   LIG d   1       8.726  -3.095  -4.971  0.00  0.00     0.023 A 
ATOM     18  C   LIG d   1       7.619  -5.549  -5.681  0.00  0.00    -0.044 A 
ATOM     19  C   LIG d   1       8.961  -5.337  -5.833  0.00  0.00    -0.019 A 
ATOM     20  H   LIG d   1       7.188  -6.500  -5.954  0.00  0.00     0.063 H 
ATOM     21  C   LIG d   1       9.519  -4.111  -5.481  0.00  0.00     0.124 A 
ATOM     22  H   LIG d   1       9.589  -6.123  -6.226  0.00  0.00     0.065 H 
ATOM     23  H   LIG d   1       9.170  -2.149  -4.698  0.00  0.00     0.069 H 
ATOM     24  O   LIG d   1       4.516  -5.301  -5.061  0.00  0.00    -0.283 OA
ATOM     25  H   LIG d   1       3.081  -3.093  -4.064  0.00  0.00     0.066 H 
BRANCH  21  26
ATOM     26  O   LIG d   1      10.853  -3.910  -5.635  0.00  0.00    -0.492 OA
BRANCH  26  27
ATOM     27  C   LIG d   1      11.538  -3.263  -4.561  0.00  0.00     0.087 C 
ATOM     28  H   LIG d   1      10.886  -2.511  -4.114  0.00  0.00     0.069 H 
ATOM     29  H   LIG d   1      12.439  -2.781  -4.941  0.00  0.00     0.069 H 
BRANCH  27  30
ATOM     30  C   LIG d   1      11.922  -4.299  -3.503  0.00  0.00    -0.031 C 
ATOM     31  H   LIG d   1      12.581  -5.045  -3.947  0.00  0.00     0.026 H 
ATOM     32  H   LIG d   1      12.437  -3.803  -2.679  0.00  0.00     0.026 H 
ATOM     33  H   LIG d   1      11.022  -4.786  -3.127  0.00  0.00     0.026 H 
ENDBRANCH  27  30
ENDBRANCH  26  27
ENDBRANCH  21  26
ENDBRANCH   1  11
BRANCH   6  34
ATOM     34  O   LIG d   1       3.082  -0.302  -5.440  0.00  0.00    -0.477 OA
BRANCH  34  35
ATOM     35  C   LIG d   1       3.880   0.245  -6.491  0.00  0.00     0.193 C 
ATOM     36  H   LIG d   1       4.473   1.074  -6.104  0.00  0.00     0.085 H 
BRANCH  35  37
ATOM     37  C   LIG d   1       4.814  -0.838  -7.037  0.00  0.00    -0.017 C 
ATOM     38  H   LIG d   1       4.288  -1.791  -7.063  0.00  0.00     0.027 H 
ATOM     39  H   LIG d   1       5.130  -0.569  -8.044  0.00  0.00     0.027 H 
ATOM     40  H   LIG d   1       5.688  -0.922  -6.392  0.00  0.00     0.027 H 
ENDBRANCH  35  37
BRANCH  35  41
ATOM     41  C   LIG d   1       2.985   0.741  -7.596  0.00  0.00     0.348 C 
ATOM     42  O   LIG d   1       2.281  -0.036  -8.198  0.00  0.00    -0.247 OA
BRANCH  41  43
ATOM     43  O   LIG d   1       2.968   2.045  -7.914  0.00  0.00    -0.465 OA
BRANCH  43  44
ATOM     44  C   LIG d   1       3.716   2.447  -9.091  0.00  0.00     0.082 C 
ATOM     45  H   LIG d   1       3.590   1.699  -9.875  0.00  0.00     0.066 H 
ATOM     46  H   LIG d   1       3.346   3.409  -9.446  0.00  0.00     0.066 H 
ATOM     47  H   LIG d   1       4.772   2.535  -8.839  0.00  0.00     0.066 H 
ENDBRANCH  43  44
ENDBRANCH  41  43
ENDBRANCH  35  41
ENDBRANCH  34  35
ENDBRANCH   6  34
TORSDOF 10
ENDMDL
MODEL 5
REMARK VINA RESULT:      -5.7      3.327      5.802
REMARK  10 active torsions:
REMARK  status: ('A' for Active; 'I' for Inactive)
REMARK    1  A    between atoms: C_1  and  C_2 
REMARK    2  A    between atoms: C_2  and  O_3 
REMARK    3  A    between atoms: O_3  and  C_4 
REMARK    4  A    between atoms: C_12  and  C_13 
REMARK    5  A    between atoms: C_18  and  O_19 
REMARK    6  A    between atoms: O_19  and  C_20 
REMARK    7  A    between atoms: C_20  and  C_22 
REMARK    8  A    between atoms: C_20  and  C_23 
REMARK    9  A    between atoms: C_23  and  O_25 
REMARK   10  A    between atoms: O_25  and  C_26 
ROOT
ATOM      1  C   LIG d   1       5.347  -1.026  -3.937  0.00  0.00     0.020 A 
ATOM      2  C   LIG d   1       5.145  -1.234  -2.568  0.00  0.00    -0.051 A 
ATOM      3  C   LIG d   1       4.102  -0.603  -1.925  0.00  0.00    -0.061 A 
ATOM      4  C   LIG d   1       3.245   0.227  -2.630  0.00  0.00    -0.058 A 
ATOM      5  C   LIG d   1       3.430   0.438  -3.983  0.00  0.00    -0.019 A 
ATOM      6  C   LIG d   1       4.475  -0.183  -4.647  0.00  0.00     0.129 A 
ATOM      7  H   LIG d   1       5.807  -1.883  -2.015  0.00  0.00     0.062 H 
ATOM      8  H   LIG d   1       3.949  -0.761  -0.868  0.00  0.00     0.062 H 
ATOM      9  H   LIG d   1       2.428   0.713  -2.118  0.00  0.00     0.062 H 
ATOM     10  H   LIG d   1       2.757   1.087  -4.524  0.00  0.00     0.065 H 
ENDROOT
BRANCH   1  11
ATOM     11  C   LIG d   1       6.459  -1.688  -4.629  0.00  0.00    -0.005 C 
ATOM     12  C   LIG d   1       6.328  -2.973  -5.050  0.00  0.00     0.176 A 
ATOM     13  O   LIG d   1       5.256  -3.774  -4.850  0.00  0.00    -0.451 OA
ATOM     14  C   LIG d   1       7.326  -3.746  -5.803  0.00  0.00     0.232 A 
ATOM     15  C   LIG d   1       5.436  -4.998  -5.393  0.00  0.00     0.143 A 
ATOM     16  C   LIG d   1       6.697  -5.064  -6.005  0.00  0.00     0.068 A 
ATOM     17  C   LIG d   1       4.610  -6.115  -5.434  0.00  0.00     0.023 A 
ATOM     18  C   LIG d   1       7.117  -6.234  -6.639  0.00  0.00    -0.044 A 
ATOM     19  C   LIG d   1       6.296  -7.325  -6.666  0.00  0.00    -0.019 A 
ATOM     20  H   LIG d   1       8.089  -6.276  -7.107  0.00  0.00     0.063 H 
ATOM     21  C   LIG d   1       5.042  -7.272  -6.063  0.00  0.00     0.124 A 
ATOM     22  H   LIG d   1       6.619  -8.232  -7.157  0.00  0.00     0.065 H 
ATOM     23  H   LIG d   1       3.634  -6.083  -4.973  0.00  0.00     0.069 H 
ATOM     24  O   LIG d   1       8.426  -3.378  -6.178  0.00  0.00    -0.283 OA
ATOM     25  H   LIG d   1       7.382  -1.154  -4.803  0.00  0.00     0.066 H 
BRANCH  21  26
ATOM     26  O   LIG d   1       4.232  -8.361  -6.095  0.00  0.00    -0.492 OA
BRANCH  26  27
ATOM     27  C   LIG d   1       4.762  -9.578  -5.566  0.00  0.00     0.087 C 
ATOM     28  H   LIG d   1       5.850  -9.566  -5.646  0.00  0.00     0.069 H 
ATOM     29  H   LIG d   1       4.366 -10.423  -6.129  0.00  0.00     0.069 H 
BRANCH  27  30
ATOM     30  C   LIG d   1       4.361  -9.712  -4.096  0.00  0.00    -0.031 C 
ATOM     31  H   LIG d   1       4.609 -10.713  -3.741  0.00  0.00     0.026 H 
ATOM     32  H   LIG d   1       4.899  -8.972  -3.503  0.00  0.00     0.026 H 
ATOM     33  H   LIG d   1       3.288  -9.546  -3.995  0.00  0.00     0.026 H 
ENDBRANCH  27  30
ENDBRANCH  26  27
ENDBRANCH  21  26
ENDBRANCH   1  11
BRANCH   6  34
ATOM     34  O   LIG d   1       4.658   0.024  -5.975  0.00  0.00    -0.477 OA
BRANCH  34  35
ATOM     35  C   LIG d   1       3.650  -0.479  -6.855  0.00  0.00     0.193 C 
ATOM     36  H   LIG d   1       2.869  -0.967  -6.272  0.00  0.00     0.085 H 
BRANCH  35  37
ATOM     37  C   LIG d   1       3.043   0.681  -7.649  0.00  0.00    -0.017 C 
ATOM     38  H   LIG d   1       2.556   0.293  -8.543  0.00  0.00     0.027 H 
ATOM     39  H   LIG d   1       2.310   1.199  -7.032  0.00  0.00     0.027 H 
ATOM     40  H   LIG d   1       3.832   1.375  -7.937  0.00  0.00     0.027 H 
ENDBRANCH  35  37
BRANCH  35  41
ATOM     41  C   LIG d   1       4.263  -1.473  -7.806  0.00  0.00     0.348 C 
ATOM     42  O   LIG d   1       4.020  -2.651  -7.688  0.00  0.00    -0.247 OA
BRANCH  41  43
ATOM     43  O   LIG d   1       5.078  -1.051  -8.786  0.00  0.00    -0.465 OA
BRANCH  43  44
ATOM     44  C   LIG d   1       6.488  -1.372  -8.656  0.00  0.00     0.082 C 
ATOM     45  H   LIG d   1       6.682  -1.754  -7.653  0.00  0.00     0.066 H 
ATOM     46  H   LIG d   1       6.757  -2.130  -9.392  0.00  0.00     0.066 H 
ATOM     47  H   LIG d   1       7.082  -0.474  -8.824  0.00  0.00     0.066 H 
ENDBRANCH  43  44
ENDBRANCH  41  43
ENDBRANCH  35  41
ENDBRANCH  34  35
ENDBRANCH   6  34
TORSDOF 10
ENDMDL
MODEL 6
REMARK VINA RESULT:      -5.7      3.705      5.738
REMARK  10 active torsions:
REMARK  status: ('A' for Active; 'I' for Inactive)
REMARK    1  A    between atoms: C_1  and  C_2 
REMARK    2  A    between atoms: C_2  and  O_3 
REMARK    3  A    between atoms: O_3  and  C_4 
REMARK    4  A    between atoms: C_12  and  C_13 
REMARK    5  A    between atoms: C_18  and  O_19 
REMARK    6  A    between atoms: O_19  and  C_20 
REMARK    7  A    between atoms: C_20  and  C_22 
REMARK    8  A    between atoms: C_20  and  C_23 
REMARK    9  A    between atoms: C_23  and  O_25 
REMARK   10  A    between atoms: O_25  and  C_26 
ROOT
ATOM      1  C   LIG d   1       4.841  -0.973  -4.586  0.00  0.00     0.020 A 
ATOM      2  C   LIG d   1       4.621  -1.516  -3.314  0.00  0.00    -0.051 A 
ATOM      3  C   LIG d   1       3.412  -1.320  -2.684  0.00  0.00    -0.061 A 
ATOM      4  C   LIG d   1       2.408  -0.597  -3.308  0.00  0.00    -0.058 A 
ATOM      5  C   LIG d   1       2.608  -0.059  -4.565  0.00  0.00    -0.019 A 
ATOM      6  C   LIG d   1       3.819  -0.241  -5.214  0.00  0.00     0.129 A 
ATOM      7  H   LIG d   1       5.399  -2.084  -2.826  0.00  0.00     0.062 H 
ATOM      8  H   LIG d   1       3.244  -1.735  -1.702  0.00  0.00     0.062 H 
ATOM      9  H   LIG d   1       1.461  -0.452  -2.808  0.00  0.00     0.062 H 
ATOM     10  H   LIG d   1       1.819   0.503  -5.043  0.00  0.00     0.065 H 
ENDROOT
BRANCH   1  11
ATOM     11  C   LIG d   1       6.129  -1.172  -5.261  0.00  0.00    -0.005 C 
ATOM     12  C   LIG d   1       7.123  -0.260  -5.108  0.00  0.00     0.176 A 
ATOM     13  O   LIG d   1       7.046   0.899  -4.413  0.00  0.00    -0.451 OA
ATOM     14  C   LIG d   1       8.479  -0.351  -5.670  0.00  0.00     0.232 A 
ATOM     15  C   LIG d   1       8.208   1.586  -4.452  0.00  0.00     0.143 A 
ATOM     16  C   LIG d   1       9.151   0.879  -5.214  0.00  0.00     0.068 A 
ATOM     17  C   LIG d   1       8.576   2.800  -3.885  0.00  0.00     0.023 A 
ATOM     18  C   LIG d   1      10.436   1.389  -5.401  0.00  0.00    -0.044 A 
ATOM     19  C   LIG d   1      10.782   2.586  -4.841  0.00  0.00    -0.019 A 
ATOM     20  H   LIG d   1      11.156   0.839  -5.988  0.00  0.00     0.063 H 
ATOM     21  C   LIG d   1       9.855   3.297  -4.083  0.00  0.00     0.124 A 
ATOM     22  H   LIG d   1      11.777   2.982  -4.986  0.00  0.00     0.065 H 
ATOM     23  H   LIG d   1       7.866   3.358  -3.292  0.00  0.00     0.069 H 
ATOM     24  O   LIG d   1       8.943  -1.244  -6.358  0.00  0.00    -0.283 OA
ATOM     25  H   LIG d   1       6.285  -2.044  -5.880  0.00  0.00     0.066 H 
BRANCH  21  26
ATOM     26  O   LIG d   1      10.207   4.486  -3.530  0.00  0.00    -0.492 OA
BRANCH  26  27
ATOM     27  C   LIG d   1      10.738   4.451  -2.204  0.00  0.00     0.087 C 
ATOM     28  H   LIG d   1      11.819   4.313  -2.248  0.00  0.00     0.069 H 
ATOM     29  H   LIG d   1      10.289   3.625  -1.653  0.00  0.00     0.069 H 
BRANCH  27  30
ATOM     30  C   LIG d   1      10.421   5.769  -1.493  0.00  0.00    -0.031 C 
ATOM     31  H   LIG d   1      11.319   6.139  -0.999  0.00  0.00     0.026 H 
ATOM     32  H   LIG d   1      10.079   6.502  -2.223  0.00  0.00     0.026 H 
ATOM     33  H   LIG d   1       9.640   5.603  -0.751  0.00  0.00     0.026 H 
ENDBRANCH  27  30
ENDBRANCH  26  27
ENDBRANCH  21  26
ENDBRANCH   1  11
BRANCH   6  34
ATOM     34  O   LIG d   1       4.018   0.287  -6.447  0.00  0.00    -0.477 OA
BRANCH  34  35
ATOM     35  C   LIG d   1       2.903   0.286  -7.341  0.00  0.00     0.193 C 
ATOM     36  H   LIG d   1       1.980   0.175  -6.771  0.00  0.00     0.085 H 
BRANCH  35  37
ATOM     37  C   LIG d   1       2.869   1.606  -8.114  0.00  0.00    -0.017 C 
ATOM     38  H   LIG d   1       2.027   2.206  -7.771  0.00  0.00     0.027 H 
ATOM     39  H   LIG d   1       3.797   2.150  -7.944  0.00  0.00     0.027 H 
ATOM     40  H   LIG d   1       2.758   1.400  -9.179  0.00  0.00     0.027 H 
ENDBRANCH  35  37
BRANCH  35  41
ATOM     41  C   LIG d   1       3.035  -0.860  -8.309  0.00  0.00     0.348 C 
ATOM     42  O   LIG d   1       2.128  -1.122  -9.064  0.00  0.00    -0.247 OA
BRANCH  41  43
ATOM     43  O   LIG d   1       4.161  -1.591  -8.336  0.00  0.00    -0.465 OA
BRANCH  43  44
ATOM     44  C   LIG d   1       4.048  -2.991  -7.968  0.00  0.00     0.082 C 
ATOM     45  H   LIG d   1       4.993  -3.333  -7.546  0.00  0.00     0.066 H 
ATOM     46  H   LIG d   1       3.256  -3.110  -7.229  0.00  0.00     0.066 H 
ATOM     47  H   LIG d   1       3.810  -3.581  -8.853  0.00  0.00     0.066 H 
ENDBRANCH  43  44
ENDBRANCH  41  43
ENDBRANCH  35  41
ENDBRANCH  34  35
ENDBRANCH   6  34
TORSDOF 10
ENDMDL
MODEL 7
REMARK VINA RESULT:      -5.7      3.958      6.221
REMARK  10 active torsions:
REMARK  status: ('A' for Active; 'I' for Inactive)
REMARK    1  A    between atoms: C_1  and  C_2 
REMARK    2  A    between atoms: C_2  and  O_3 
REMARK    3  A    between atoms: O_3  and  C_4 
REMARK    4  A    between atoms: C_12  and  C_13 
REMARK    5  A    between atoms: C_18  and  O_19 
REMARK    6  A    between atoms: O_19  and  C_20 
REMARK    7  A    between atoms: C_20  and  C_22 
REMARK    8  A    between atoms: C_20  and  C_23 
REMARK    9  A    between atoms: C_23  and  O_25 
REMARK   10  A    between atoms: O_25  and  C_26 
ROOT
ATOM      1  C   LIG d   1       5.513  -0.017  -7.397  0.00  0.00     0.020 A 
ATOM      2  C   LIG d   1       5.165   0.852  -8.439  0.00  0.00    -0.051 A 
ATOM      3  C   LIG d   1       3.852   1.240  -8.599  0.00  0.00    -0.061 A 
ATOM      4  C   LIG d   1       2.877   0.784  -7.727  0.00  0.00    -0.058 A 
ATOM      5  C   LIG d   1       3.206  -0.070  -6.692  0.00  0.00    -0.019 A 
ATOM      6  C   LIG d   1       4.519  -0.476  -6.516  0.00  0.00     0.129 A 
ATOM      7  H   LIG d   1       5.922   1.214  -9.119  0.00  0.00     0.062 H 
ATOM      8  H   LIG d   1       3.584   1.907  -9.404  0.00  0.00     0.062 H 
ATOM      9  H   LIG d   1       1.851   1.098  -7.858  0.00  0.00     0.062 H 
ATOM     10  H   LIG d   1       2.439  -0.420  -6.017  0.00  0.00     0.065 H 
ENDROOT
BRANCH   1  11
ATOM     11  C   LIG d   1       6.907  -0.440  -7.224  0.00  0.00    -0.005 C 
ATOM     12  C   LIG d   1       7.727   0.251  -6.391  0.00  0.00     0.176 A 
ATOM     13  O   LIG d   1       7.410   1.374  -5.706  0.00  0.00    -0.451 OA
ATOM     14  C   LIG d   1       9.122  -0.086  -6.070  0.00  0.00     0.232 A 
ATOM     15  C   LIG d   1       8.447   1.819  -4.964  0.00  0.00     0.143 A 
ATOM     16  C   LIG d   1       9.550   0.969  -5.133  0.00  0.00     0.068 A 
ATOM     17  C   LIG d   1       8.566   2.914  -4.115  0.00  0.00     0.023 A 
ATOM     18  C   LIG d   1      10.749   1.222  -4.465  0.00  0.00    -0.044 A 
ATOM     19  C   LIG d   1      10.852   2.305  -3.638  0.00  0.00    -0.019 A 
ATOM     20  H   LIG d   1      11.593   0.563  -4.600  0.00  0.00     0.063 H 
ATOM     21  C   LIG d   1       9.764   3.155  -3.461  0.00  0.00     0.124 A 
ATOM     22  H   LIG d   1      11.780   2.501  -3.120  0.00  0.00     0.065 H 
ATOM     23  H   LIG d   1       7.727   3.578  -3.968  0.00  0.00     0.069 H 
ATOM     24  O   LIG d   1       9.777  -1.026  -6.486  0.00  0.00    -0.283 OA
ATOM     25  H   LIG d   1       7.280  -1.302  -7.758  0.00  0.00     0.066 H 
BRANCH  21  26
ATOM     26  O   LIG d   1       9.875   4.229  -2.638  0.00  0.00    -0.492 OA
BRANCH  26  27
ATOM     27  C   LIG d   1       9.949   5.514  -3.257  0.00  0.00     0.087 C 
ATOM     28  H   LIG d   1       9.259   5.553  -4.100  0.00  0.00     0.069 H 
ATOM     29  H   LIG d   1      10.965   5.691  -3.612  0.00  0.00     0.069 H 
BRANCH  27  30
ATOM     30  C   LIG d   1       9.572   6.593  -2.239  0.00  0.00    -0.031 C 
ATOM     31  H   LIG d   1      10.014   7.544  -2.536  0.00  0.00     0.026 H 
ATOM     32  H   LIG d   1       8.487   6.692  -2.201  0.00  0.00     0.026 H 
ATOM     33  H   LIG d   1       9.944   6.310  -1.254  0.00  0.00     0.026 H 
ENDBRANCH  27  30
ENDBRANCH  26  27
ENDBRANCH  21  26
ENDBRANCH   1  11
BRANCH   6  34
ATOM     34  O   LIG d   1       4.844  -1.315  -5.501  0.00  0.00    -0.477 OA
BRANCH  34  35
ATOM     35  C   LIG d   1       4.354  -0.979  -4.201  0.00  0.00     0.193 C 
ATOM     36  H   LIG d   1       3.384  -0.490  -4.292  0.00  0.00     0.085 H 
BRANCH  35  37
ATOM     37  C   LIG d   1       4.205  -2.255  -3.368  0.00  0.00    -0.017 C 
ATOM     38  H   LIG d   1       3.622  -2.039  -2.474  0.00  0.00     0.027 H 
ATOM     39  H   LIG d   1       3.696  -3.016  -3.958  0.00  0.00     0.027 H 
ATOM     40  H   LIG d   1       5.192  -2.618  -3.080  0.00  0.00     0.027 H 
ENDBRANCH  35  37
BRANCH  35  41
ATOM     41  C   LIG d   1       5.325  -0.048  -3.523  0.00  0.00     0.348 C 
ATOM     42  O   LIG d   1       6.386  -0.467  -3.124  0.00  0.00    -0.247 OA
BRANCH  41  43
ATOM     43  O   LIG d   1       5.013   1.248  -3.361  0.00  0.00    -0.465 OA
BRANCH  43  44
ATOM     44  C   LIG d   1       3.716   1.547  -2.783  0.00  0.00     0.082 C 
ATOM     45  H   LIG d   1       3.077   2.004  -3.539  0.00  0.00     0.066 H 
ATOM     46  H   LIG d   1       3.254   0.625  -2.428  0.00  0.00     0.066 H 
ATOM     47  H   LIG d   1       3.841   2.236  -1.948  0.00  0.00     0.066 H 
ENDBRANCH  43  44
ENDBRANCH  41  43
ENDBRANCH  35  41
ENDBRANCH  34  35
ENDBRANCH   6  34
TORSDOF 10
ENDMDL
MODEL 8
REMARK VINA RESULT:      -5.5      2.548      7.451
REMARK  10 active torsions:
REMARK  status: ('A' for Active; 'I' for Inactive)
REMARK    1  A    between atoms: C_1  and  C_2 
REMARK    2  A    between atoms: C_2  and  O_3 
REMARK    3  A    between atoms: O_3  and  C_4 
REMARK    4  A    between atoms: C_12  and  C_13 
REMARK    5  A    between atoms: C_18  and  O_19 
REMARK    6  A    between atoms: O_19  and  C_20 
REMARK    7  A    between atoms: C_20  and  C_22 
REMARK    8  A    between atoms: C_20  and  C_23 
REMARK    9  A    between atoms: C_23  and  O_25 
REMARK   10  A    between atoms: O_25  and  C_26 
ROOT
ATOM      1  C   LIG d   1       4.928  -0.961  -3.738  0.00  0.00     0.020 A 
ATOM      2  C   LIG d   1       3.596  -0.972  -3.306  0.00  0.00    -0.051 A 
ATOM      3  C   LIG d   1       3.143   0.013  -2.455  0.00  0.00    -0.061 A 
ATOM      4  C   LIG d   1       3.997   1.020  -2.033  0.00  0.00    -0.058 A 
ATOM      5  C   LIG d   1       5.312   1.046  -2.455  0.00  0.00    -0.019 A 
ATOM      6  C   LIG d   1       5.789   0.063  -3.307  0.00  0.00     0.129 A 
ATOM      7  H   LIG d   1       2.926  -1.752  -3.635  0.00  0.00     0.062 H 
ATOM      8  H   LIG d   1       2.117   0.003  -2.119  0.00  0.00     0.062 H 
ATOM      9  H   LIG d   1       3.631   1.790  -1.370  0.00  0.00     0.062 H 
ATOM     10  H   LIG d   1       5.970   1.835  -2.121  0.00  0.00     0.065 H 
ENDROOT
BRANCH   1  11
ATOM     11  C   LIG d   1       5.420  -2.009  -4.640  0.00  0.00    -0.005 C 
ATOM     12  C   LIG d   1       5.105  -1.971  -5.960  0.00  0.00     0.176 A 
ATOM     13  O   LIG d   1       4.306  -1.063  -6.567  0.00  0.00    -0.451 OA
ATOM     14  C   LIG d   1       5.570  -2.911  -6.991  0.00  0.00     0.232 A 
ATOM     15  C   LIG d   1       4.192  -1.300  -7.891  0.00  0.00     0.143 A 
ATOM     16  C   LIG d   1       4.946  -2.431  -8.237  0.00  0.00     0.068 A 
ATOM     17  C   LIG d   1       3.490  -0.629  -8.887  0.00  0.00     0.023 A 
ATOM     18  C   LIG d   1       4.988  -2.878  -9.558  0.00  0.00    -0.044 A 
ATOM     19  C   LIG d   1       4.289  -2.212 -10.525  0.00  0.00    -0.019 A 
ATOM     20  H   LIG d   1       5.571  -3.750  -9.816  0.00  0.00     0.063 H 
ATOM     21  C   LIG d   1       3.537  -1.088 -10.194  0.00  0.00     0.124 A 
ATOM     22  H   LIG d   1       4.320  -2.558 -11.548  0.00  0.00     0.065 H 
ATOM     23  H   LIG d   1       2.907   0.246  -8.642  0.00  0.00     0.069 H 
ATOM     24  O   LIG d   1       6.307  -3.872  -6.847  0.00  0.00    -0.283 OA
ATOM     25  H   LIG d   1       6.032  -2.811  -4.253  0.00  0.00     0.066 H 
BRANCH  21  26
ATOM     26  O   LIG d   1       2.845  -0.432 -11.161  0.00  0.00    -0.492 OA
BRANCH  26  27
ATOM     27  C   LIG d   1       2.343  -1.217 -12.243  0.00  0.00     0.087 C 
ATOM     28  H   LIG d   1       2.883  -2.164 -12.289  0.00  0.00     0.069 H 
ATOM     29  H   LIG d   1       2.479  -0.677 -13.180  0.00  0.00     0.069 H 
BRANCH  27  30
ATOM     30  C   LIG d   1       0.853  -1.491 -12.026  0.00  0.00    -0.031 C 
ATOM     31  H   LIG d   1       0.289  -0.570 -12.175  0.00  0.00     0.026 H 
ATOM     32  H   LIG d   1       0.514  -2.244 -12.738  0.00  0.00     0.026 H 
ATOM     33  H   LIG d   1       0.693  -1.854 -11.011  0.00  0.00     0.026 H 
ENDBRANCH  27  30
ENDBRANCH  26  27
ENDBRANCH  21  26
ENDBRANCH   1  11
BRANCH   6  34
ATOM     34  O   LIG d   1       7.080   0.087  -3.722  0.00  0.00    -0.477 OA
BRANCH  34  35
ATOM     35  C   LIG d   1       7.504   1.236  -4.457  0.00  0.00     0.193 C 
ATOM     36  H   LIG d   1       6.731   2.003  -4.410  0.00  0.00     0.085 H 
BRANCH  35  37
ATOM     37  C   LIG d   1       8.799   1.780  -3.848  0.00  0.00    -0.017 C 
ATOM     38  H   LIG d   1       8.562   2.565  -3.131  0.00  0.00     0.027 H 
ATOM     39  H   LIG d   1       9.329   0.974  -3.342  0.00  0.00     0.027 H 
ATOM     40  H   LIG d   1       9.429   2.188  -4.639  0.00  0.00     0.027 H 
ENDBRANCH  35  37
BRANCH  35  41
ATOM     41  C   LIG d   1       7.747   0.854  -5.893  0.00  0.00     0.348 C 
ATOM     42  O   LIG d   1       6.905   1.082  -6.730  0.00  0.00    -0.247 OA
BRANCH  41  43
ATOM     43  O   LIG d   1       8.898   0.260  -6.246  0.00  0.00    -0.465 OA
BRANCH  43  44
ATOM     44  C   LIG d   1       8.835  -1.148  -6.594  0.00  0.00     0.082 C 
ATOM     45  H   LIG d   1       8.477  -1.253  -7.618  0.00  0.00     0.066 H 
ATOM     46  H   LIG d   1       9.829  -1.588  -6.510  0.00  0.00     0.066 H 
ATOM     47  H   LIG d   1       8.153  -1.659  -5.916  0.00  0.00     0.066 H 
ENDBRANCH  43  44
ENDBRANCH  41  43
ENDBRANCH  35  41
ENDBRANCH  34  35
ENDBRANCH   6  34
TORSDOF 10
ENDMDL
MODEL 9
REMARK VINA RESULT:      -5.4      4.498      7.138
REMARK  10 active torsions:
REMARK  status: ('A' for Active; 'I' for Inactive)
REMARK    1  A    between atoms: C_1  and  C_2 
REMARK    2  A    between atoms: C_2  and  O_3 
REMARK    3  A    between atoms: O_3  and  C_4 
REMARK    4  A    between atoms: C_12  and  C_13 
REMARK    5  A    between atoms: C_18  and  O_19 
REMARK    6  A    between atoms: O_19  and  C_20 
REMARK    7  A    between atoms: C_20  and  C_22 
REMARK    8  A    between atoms: C_20  and  C_23 
REMARK    9  A    between atoms: C_23  and  O_25 
REMARK   10  A    between atoms: O_25  and  C_26 
ROOT
ATOM      1  C   LIG d   1       5.253  -1.117  -3.784  0.00  0.00     0.020 A 
ATOM      2  C   LIG d   1       4.437  -1.490  -2.709  0.00  0.00    -0.051 A 
ATOM      3  C   LIG d   1       4.165  -0.584  -1.707  0.00  0.00    -0.061 A 
ATOM      4  C   LIG d   1       4.686   0.699  -1.764  0.00  0.00    -0.058 A 
ATOM      5  C   LIG d   1       5.488   1.083  -2.821  0.00  0.00    -0.019 A 
ATOM      6  C   LIG d   1       5.779   0.186  -3.836  0.00  0.00     0.129 A 
ATOM      7  H   LIG d   1       4.026  -2.487  -2.662  0.00  0.00     0.062 H 
ATOM      8  H   LIG d   1       3.539  -0.874  -0.877  0.00  0.00     0.062 H 
ATOM      9  H   LIG d   1       4.462   1.403  -0.976  0.00  0.00     0.062 H 
ATOM     10  H   LIG d   1       5.890   2.085  -2.856  0.00  0.00     0.065 H 
ENDROOT
BRANCH   1  11
ATOM     11  C   LIG d   1       5.554  -2.077  -4.851  0.00  0.00    -0.005 C 
ATOM     12  C   LIG d   1       6.619  -2.912  -4.733  0.00  0.00     0.176 A 
ATOM     13  O   LIG d   1       7.514  -2.928  -3.719  0.00  0.00    -0.451 OA
ATOM     14  C   LIG d   1       7.009  -3.961  -5.686  0.00  0.00     0.232 A 
ATOM     15  C   LIG d   1       8.458  -3.878  -3.896  0.00  0.00     0.143 A 
ATOM     16  C   LIG d   1       8.217  -4.566  -5.096  0.00  0.00     0.068 A 
ATOM     17  C   LIG d   1       9.547  -4.247  -3.116  0.00  0.00     0.023 A 
ATOM     18  C   LIG d   1       9.061  -5.600  -5.500  0.00  0.00    -0.044 A 
ATOM     19  C   LIG d   1      10.132  -5.948  -4.726  0.00  0.00    -0.019 A 
ATOM     20  H   LIG d   1       8.870  -6.125  -6.424  0.00  0.00     0.063 H 
ATOM     21  C   LIG d   1      10.380  -5.273  -3.534  0.00  0.00     0.124 A 
ATOM     22  H   LIG d   1      10.786  -6.749  -5.038  0.00  0.00     0.065 H 
ATOM     23  H   LIG d   1       9.747  -3.733  -2.188  0.00  0.00     0.069 H 
ATOM     24  O   LIG d   1       6.457  -4.264  -6.730  0.00  0.00    -0.283 OA
ATOM     25  H   LIG d   1       4.928  -2.121  -5.731  0.00  0.00     0.066 H 
BRANCH  21  26
ATOM     26  O   LIG d   1      11.446  -5.625  -2.770  0.00  0.00    -0.492 OA
BRANCH  26  27
ATOM     27  C   LIG d   1      11.764  -7.017  -2.705  0.00  0.00     0.087 C 
ATOM     28  H   LIG d   1      12.847  -7.144  -2.732  0.00  0.00     0.069 H 
ATOM     29  H   LIG d   1      11.316  -7.534  -3.554  0.00  0.00     0.069 H 
BRANCH  27  30
ATOM     30  C   LIG d   1      11.215  -7.606  -1.403  0.00  0.00    -0.031 C 
ATOM     31  H   LIG d   1      10.172  -7.311  -1.282  0.00  0.00     0.026 H 
ATOM     32  H   LIG d   1      11.284  -8.693  -1.439  0.00  0.00     0.026 H 
ATOM     33  H   LIG d   1      11.798  -7.233  -0.561  0.00  0.00     0.026 H 
ENDBRANCH  27  30
ENDBRANCH  26  27
ENDBRANCH  21  26
ENDBRANCH   1  11
BRANCH   6  34
ATOM     34  O   LIG d   1       6.567   0.562  -4.873  0.00  0.00    -0.477 OA
BRANCH  34  35
ATOM     35  C   LIG d   1       7.979   0.558  -4.650  0.00  0.00     0.193 C 
ATOM     36  H   LIG d   1       8.212  -0.092  -3.807  0.00  0.00     0.085 H 
BRANCH  35  37
ATOM     37  C   LIG d   1       8.691   0.043  -5.903  0.00  0.00    -0.017 C 
ATOM     38  H   LIG d   1       8.308   0.566  -6.779  0.00  0.00     0.027 H 
ATOM     39  H   LIG d   1       9.761   0.224  -5.812  0.00  0.00     0.027 H 
ATOM     40  H   LIG d   1       8.511  -1.026  -6.009  0.00  0.00     0.027 H 
ENDBRANCH  35  37
BRANCH  35  41
ATOM     41  C   LIG d   1       8.443   1.959  -4.348  0.00  0.00     0.348 C 
ATOM     42  O   LIG d   1       8.066   2.881  -5.032  0.00  0.00    -0.247 OA
BRANCH  41  43
ATOM     43  O   LIG d   1       9.276   2.184  -3.320  0.00  0.00    -0.465 OA
BRANCH  43  44
ATOM     44  C   LIG d   1       9.893   3.496  -3.245  0.00  0.00     0.082 C 
ATOM     45  H   LIG d   1       9.133   4.264  -3.390  0.00  0.00     0.066 H 
ATOM     46  H   LIG d   1      10.357   3.625  -2.267  0.00  0.00     0.066 H 
ATOM     47  H   LIG d   1      10.652   3.585  -4.022  0.00  0.00     0.066 H 
ENDBRANCH  43  44
ENDBRANCH  41  43
ENDBRANCH  35  41
ENDBRANCH  34  35
ENDBRANCH   6  34
TORSDOF 10
ENDMDL
MODEL 10
REMARK VINA RESULT:      -5.4      4.825      6.965
REMARK  10 active torsions:
REMARK  status: ('A' for Active; 'I' for Inactive)
REMARK    1  A    between atoms: C_1  and  C_2 
REMARK    2  A    between atoms: C_2  and  O_3 
REMARK    3  A    between atoms: O_3  and  C_4 
REMARK    4  A    between atoms: C_12  and  C_13 
REMARK    5  A    between atoms: C_18  and  O_19 
REMARK    6  A    between atoms: O_19  and  C_20 
REMARK    7  A    between atoms: C_20  and  C_22 
REMARK    8  A    between atoms: C_20  and  C_23 
REMARK    9  A    between atoms: C_23  and  O_25 
REMARK   10  A    between atoms: O_25  and  C_26 
ROOT
ATOM      1  C   LIG d   1       7.004  -0.525  -5.208  0.00  0.00     0.020 A 
ATOM      2  C   LIG d   1       7.900  -1.447  -4.653  0.00  0.00    -0.051 A 
ATOM      3  C   LIG d   1       7.459  -2.350  -3.710  0.00  0.00    -0.061 A 
ATOM      4  C   LIG d   1       6.130  -2.357  -3.317  0.00  0.00    -0.058 A 
ATOM      5  C   LIG d   1       5.234  -1.457  -3.859  0.00  0.00    -0.019 A 
ATOM      6  C   LIG d   1       5.658  -0.537  -4.804  0.00  0.00     0.129 A 
ATOM      7  H   LIG d   1       8.935  -1.448  -4.960  0.00  0.00     0.062 H 
ATOM      8  H   LIG d   1       8.150  -3.059  -3.280  0.00  0.00     0.062 H 
ATOM      9  H   LIG d   1       5.793  -3.072  -2.580  0.00  0.00     0.062 H 
ATOM     10  H   LIG d   1       4.200  -1.470  -3.546  0.00  0.00     0.065 H 
ENDROOT
BRANCH   1  11
ATOM     11  C   LIG d   1       7.467   0.444  -6.207  0.00  0.00    -0.005 C 
ATOM     12  C   LIG d   1       8.177   1.535  -5.818  0.00  0.00     0.176 A 
ATOM     13  O   LIG d   1       8.479   1.880  -4.544  0.00  0.00    -0.451 OA
ATOM     14  C   LIG d   1       8.755   2.556  -6.703  0.00  0.00     0.232 A 
ATOM     15  C   LIG d   1       9.198   3.022  -4.490  0.00  0.00     0.143 A 
ATOM     16  C   LIG d   1       9.413   3.507  -5.789  0.00  0.00     0.068 A 
ATOM     17  C   LIG d   1       9.720   3.728  -3.413  0.00  0.00     0.023 A 
ATOM     18  C   LIG d   1      10.136   4.683  -5.995  0.00  0.00    -0.044 A 
ATOM     19  C   LIG d   1      10.638   5.369  -4.926  0.00  0.00    -0.019 A 
ATOM     20  H   LIG d   1      10.297   5.050  -6.997  0.00  0.00     0.063 H 
ATOM     21  C   LIG d   1      10.431   4.897  -3.632  0.00  0.00     0.124 A 
ATOM     22  H   LIG d   1      11.198   6.280  -5.084  0.00  0.00     0.065 H 
ATOM     23  H   LIG d   1       9.568   3.368  -2.406  0.00  0.00     0.069 H 
ATOM     24  O   LIG d   1       8.703   2.604  -7.920  0.00  0.00    -0.283 OA
ATOM     25  H   LIG d   1       7.243   0.290  -7.253  0.00  0.00     0.066 H 
BRANCH  21  26
ATOM     26  O   LIG d   1      10.935   5.585  -2.576  0.00  0.00    -0.492 OA
BRANCH  26  27
ATOM     27  C   LIG d   1      10.035   5.874  -1.504  0.00  0.00     0.087 C 
ATOM     28  H   LIG d   1      10.558   5.768  -0.552  0.00  0.00     0.069 H 
ATOM     29  H   LIG d   1       9.195   5.179  -1.535  0.00  0.00     0.069 H 
BRANCH  27  30
ATOM     30  C   LIG d   1       9.517   7.307  -1.644  0.00  0.00    -0.031 C 
ATOM     31  H   LIG d   1      10.041   7.953  -0.941  0.00  0.00     0.026 H 
ATOM     32  H   LIG d   1       9.692   7.658  -2.661  0.00  0.00     0.026 H 
ATOM     33  H   LIG d   1       8.448   7.329  -1.432  0.00  0.00     0.026 H 
ENDBRANCH  27  30
ENDBRANCH  26  27
ENDBRANCH  21  26
ENDBRANCH   1  11
BRANCH   6  34
ATOM     34  O   LIG d   1       4.779   0.349  -5.337  0.00  0.00    -0.477 OA
BRANCH  34  35
ATOM     35  C   LIG d   1       3.511  -0.165  -5.751  0.00  0.00     0.193 C 
ATOM     36  H   LIG d   1       3.479  -1.240  -5.574  0.00  0.00     0.085 H 
BRANCH  35  37
ATOM     37  C   LIG d   1       2.400   0.517  -4.949  0.00  0.00    -0.017 C 
ATOM     38  H   LIG d   1       1.911   1.266  -5.570  0.00  0.00     0.027 H 
ATOM     39  H   LIG d   1       1.670  -0.228  -4.635  0.00  0.00     0.027 H 
ATOM     40  H   LIG d   1       2.829   0.997  -4.070  0.00  0.00     0.027 H 
ENDBRANCH  35  37
BRANCH  35  41
ATOM     41  C   LIG d   1       3.312   0.110  -7.218  0.00  0.00     0.348 C 
ATOM     42  O   LIG d   1       2.663  -0.654  -7.893  0.00  0.00    -0.247 OA
BRANCH  41  43
ATOM     43  O   LIG d   1       3.854   1.203  -7.777  0.00  0.00    -0.465 OA
BRANCH  43  44
ATOM     44  C   LIG d   1       2.954   2.104  -8.474  0.00  0.00     0.082 C 
ATOM     45  H   LIG d   1       2.778   1.732  -9.484  0.00  0.00     0.066 H 
ATOM     46  H   LIG d   1       2.007   2.159  -7.938  0.00  0.00     0.066 H 
ATOM     47  H   LIG d   1       3.402   3.096  -8.526  0.00  0.00     0.066 H 
ENDBRANCH  43  44
ENDBRANCH  41  43
ENDBRANCH  35  41
ENDBRANCH  34  35
ENDBRANCH   6  34
TORSDOF 10
ENDMDL
