MODEL 1
REMARK VINA RESULT:      -6.5      0.000      0.000
REMARK  3 active torsions:
REMARK  status: ('A' for Active; 'I' for Inactive)
REMARK    1  A    between atoms: C_1  and  C_2 
REMARK    2  A    between atoms: C_3  and  O_19 
REMARK    3  A    between atoms: C_10  and  C_11 
ROOT
ATOM      1  C   LIG d   1       6.592   0.528  -8.252  0.00  0.00     0.034 A 
ATOM      2  C   LIG d   1       6.843   0.521  -9.614  0.00  0.00     0.123 A 
ATOM      3  C   LIG d   1       5.814   0.285 -10.522  0.00  0.00    -0.019 A 
ATOM      4  C   LIG d   1       4.543   0.059 -10.075  0.00  0.00    -0.044 A 
ATOM      5  C   LIG d   1       4.276   0.063  -8.705  0.00  0.00     0.068 A 
ATOM      6  C   LIG d   1       5.306   0.299  -7.780  0.00  0.00     0.146 A 
ATOM      7  O   LIG d   1       4.809   0.255  -6.524  0.00  0.00    -0.451 OA
ATOM      8  C   LIG d   1       3.480  -0.001  -6.517  0.00  0.00     0.176 A 
ATOM      9  C   LIG d   1       2.691  -0.107  -5.420  0.00  0.00    -0.008 C 
ATOM     10  C   LIG d   1       3.047  -0.140  -7.917  0.00  0.00     0.232 A 
ATOM     11  O   LIG d   1       1.925  -0.372  -8.331  0.00  0.00    -0.283 OA
ATOM     12  H   LIG d   1       6.021   0.282 -11.582  0.00  0.00     0.065 H 
ATOM     13  H   LIG d   1       3.746  -0.127 -10.780  0.00  0.00     0.063 H 
ATOM     14  H   LIG d   1       1.604  -0.232  -5.534  0.00  0.00     0.066 H 
ENDROOT
BRANCH   9  15
ATOM     15  C   LIG d   1       3.287  -0.056  -4.077  0.00  0.00    -0.021 A 
ATOM     16  C   LIG d   1       3.691  -1.237  -3.442  0.00  0.00    -0.054 A 
ATOM     17  C   LIG d   1       4.249  -1.180  -2.183  0.00  0.00    -0.061 A 
ATOM     18  H   LIG d   1       3.565  -2.188  -3.937  0.00  0.00     0.062 H 
ATOM     19  C   LIG d   1       4.412   0.038  -1.547  0.00  0.00    -0.062 A 
ATOM     20  H   LIG d   1       4.562  -2.090  -1.691  0.00  0.00     0.062 H 
ATOM     21  C   LIG d   1       4.014   1.210  -2.168  0.00  0.00    -0.061 A 
ATOM     22  H   LIG d   1       4.849   0.076  -0.560  0.00  0.00     0.062 H 
ATOM     23  C   LIG d   1       3.459   1.172  -3.430  0.00  0.00    -0.054 A 
ATOM     24  H   LIG d   1       4.143   2.157  -1.665  0.00  0.00     0.062 H 
ATOM     25  H   LIG d   1       3.155   2.087  -3.915  0.00  0.00     0.062 H 
ENDBRANCH   9  15
BRANCH   1  26
ATOM     26  C   LIG d   1       7.716   0.783  -7.280  0.00  0.00    -0.033 C 
ATOM     27  H   LIG d   1       7.338   0.693  -6.251  0.00  0.00     0.028 H 
ATOM     28  H   LIG d   1       8.115   1.795  -7.438  0.00  0.00     0.028 H 
ATOM     29  H   LIG d   1       8.515   0.044  -7.442  0.00  0.00     0.028 H 
ENDBRANCH   1  26
BRANCH   2  30
ATOM     30  O   LIG d   1       8.102   0.746 -10.068  0.00  0.00    -0.506 OA
ATOM     31  H   LIG d   1       8.520   0.113 -10.865  0.00  0.00     0.292 HD
ENDBRANCH   2  30
TORSDOF 3
ENDMDL
MODEL 2
REMARK VINA RESULT:      -6.4      2.284      5.632
REMARK  3 active torsions:
REMARK  status: ('A' for Active; 'I' for Inactive)
REMARK    1  A    between atoms: C_1  and  C_2 
REMARK    2  A    between atoms: C_3  and  O_19 
REMARK    3  A    between atoms: C_10  and  C_11 
ROOT
ATOM      1  C   LIG d   1       6.499  -1.163  -4.863  0.00  0.00     0.034 A 
ATOM      2  C   LIG d   1       6.862  -1.593  -3.597  0.00  0.00     0.123 A 
ATOM      3  C   LIG d   1       5.931  -1.613  -2.562  0.00  0.00    -0.019 A 
ATOM      4  C   LIG d   1       4.645  -1.209  -2.788  0.00  0.00    -0.044 A 
ATOM      5  C   LIG d   1       4.265  -0.774  -4.059  0.00  0.00     0.068 A 
ATOM      6  C   LIG d   1       5.196  -0.749  -5.110  0.00  0.00     0.146 A 
ATOM      7  O   LIG d   1       4.601  -0.295  -6.235  0.00  0.00    -0.451 OA
ATOM      8  C   LIG d   1       3.296   0.002  -6.029  0.00  0.00     0.176 A 
ATOM      9  C   LIG d   1       2.427   0.476  -6.956  0.00  0.00    -0.008 C 
ATOM     10  C   LIG d   1       2.992  -0.287  -4.619  0.00  0.00     0.232 A 
ATOM     11  O   LIG d   1       1.926  -0.153  -4.042  0.00  0.00    -0.283 OA
ATOM     12  H   LIG d   1       6.225  -1.949  -1.579  0.00  0.00     0.065 H 
ATOM     13  H   LIG d   1       3.925  -1.222  -1.983  0.00  0.00     0.063 H 
ATOM     14  H   LIG d   1       1.364   0.602  -6.700  0.00  0.00     0.066 H 
ENDROOT
BRANCH   9  15
ATOM     15  C   LIG d   1       2.905   0.825  -8.301  0.00  0.00    -0.021 A 
ATOM     16  C   LIG d   1       2.953  -0.150  -9.305  0.00  0.00    -0.054 A 
ATOM     17  C   LIG d   1       3.403   0.186 -10.564  0.00  0.00    -0.061 A 
ATOM     18  H   LIG d   1       2.639  -1.160  -9.094  0.00  0.00     0.062 H 
ATOM     19  C   LIG d   1       3.806   1.482 -10.837  0.00  0.00    -0.062 A 
ATOM     20  H   LIG d   1       3.441  -0.564 -11.341  0.00  0.00     0.062 H 
ATOM     21  C   LIG d   1       3.763   2.451  -9.849  0.00  0.00    -0.061 A 
ATOM     22  H   LIG d   1       4.159   1.738 -11.826  0.00  0.00     0.062 H 
ATOM     23  C   LIG d   1       3.310   2.134  -8.587  0.00  0.00    -0.054 A 
ATOM     24  H   LIG d   1       4.081   3.460 -10.070  0.00  0.00     0.062 H 
ATOM     25  H   LIG d   1       3.272   2.892  -7.819  0.00  0.00     0.062 H 
ENDBRANCH   9  15
BRANCH   1  26
ATOM     26  C   LIG d   1       7.518  -1.145  -5.974  0.00  0.00    -0.033 C 
ATOM     27  H   LIG d   1       8.491  -1.477  -5.584  0.00  0.00     0.028 H 
ATOM     28  H   LIG d   1       7.610  -0.123  -6.369  0.00  0.00     0.028 H 
ATOM     29  H   LIG d   1       7.196  -1.823  -6.778  0.00  0.00     0.028 H 
ENDBRANCH   1  26
BRANCH   2  30
ATOM     30  O   LIG d   1       8.136  -1.997  -3.363  0.00  0.00    -0.506 OA
ATOM     31  H   LIG d   1       8.466  -2.209  -2.335  0.00  0.00     0.292 HD
ENDBRANCH   2  30
TORSDOF 3
ENDMDL
MODEL 3
REMARK VINA RESULT:      -6.2      1.480      3.155
REMARK  3 active torsions:
REMARK  status: ('A' for Active; 'I' for Inactive)
REMARK    1  A    between atoms: C_1  and  C_2 
REMARK    2  A    between atoms: C_3  and  O_19 
REMARK    3  A    between atoms: C_10  and  C_11 
ROOT
ATOM      1  C   LIG d   1       3.861   0.084  -8.624  0.00  0.00     0.034 A 
ATOM      2  C   LIG d   1       3.961   0.271  -9.993  0.00  0.00     0.123 A 
ATOM      3  C   LIG d   1       5.198   0.503 -10.588  0.00  0.00    -0.019 A 
ATOM      4  C   LIG d   1       6.330   0.548  -9.823  0.00  0.00    -0.044 A 
ATOM      5  C   LIG d   1       6.244   0.361  -8.443  0.00  0.00     0.068 A 
ATOM      6  C   LIG d   1       5.001   0.127  -7.832  0.00  0.00     0.146 A 
ATOM      7  O   LIG d   1       5.170  -0.022  -6.499  0.00  0.00    -0.451 OA
ATOM      8  C   LIG d   1       6.469   0.096  -6.140  0.00  0.00     0.176 A 
ATOM      9  C   LIG d   1       6.965  -0.004  -4.881  0.00  0.00    -0.008 C 
ATOM     10  C   LIG d   1       7.248   0.348  -7.363  0.00  0.00     0.232 A 
ATOM     11  O   LIG d   1       8.452   0.511  -7.462  0.00  0.00    -0.283 OA
ATOM     12  H   LIG d   1       5.264   0.648 -11.656  0.00  0.00     0.065 H 
ATOM     13  H   LIG d   1       7.288   0.731 -10.286  0.00  0.00     0.063 H 
ATOM     14  H   LIG d   1       8.052   0.023  -4.714  0.00  0.00     0.066 H 
ENDROOT
BRANCH   9  15
ATOM     15  C   LIG d   1       6.049  -0.145  -3.740  0.00  0.00    -0.021 A 
ATOM     16  C   LIG d   1       5.590  -1.412  -3.360  0.00  0.00    -0.054 A 
ATOM     17  C   LIG d   1       4.731  -1.536  -2.289  0.00  0.00    -0.061 A 
ATOM     18  H   LIG d   1       5.908  -2.289  -3.903  0.00  0.00     0.062 H 
ATOM     19  C   LIG d   1       4.323  -0.413  -1.590  0.00  0.00    -0.062 A 
ATOM     20  H   LIG d   1       4.376  -2.512  -1.993  0.00  0.00     0.062 H 
ATOM     21  C   LIG d   1       4.771   0.844  -1.961  0.00  0.00    -0.061 A 
ATOM     22  H   LIG d   1       3.649  -0.517  -0.753  0.00  0.00     0.062 H 
ATOM     23  C   LIG d   1       5.634   0.985  -3.026  0.00  0.00    -0.054 A 
ATOM     24  H   LIG d   1       4.446   1.715  -1.412  0.00  0.00     0.062 H 
ATOM     25  H   LIG d   1       5.988   1.964  -3.311  0.00  0.00     0.062 H 
ENDBRANCH   9  15
BRANCH   1  26
ATOM     26  C   LIG d   1       2.515  -0.164  -7.993  0.00  0.00    -0.033 C 
ATOM     27  H   LIG d   1       2.155  -1.163  -8.280  0.00  0.00     0.028 H 
ATOM     28  H   LIG d   1       1.802   0.597  -8.341  0.00  0.00     0.028 H 
ATOM     29  H   LIG d   1       2.608  -0.108  -6.898  0.00  0.00     0.028 H 
ENDBRANCH   1  26
BRANCH   2  30
ATOM     30  O   LIG d   1       2.843   0.228 -10.762  0.00  0.00    -0.506 OA
ATOM     31  H   LIG d   1       2.498  -0.731 -11.177  0.00  0.00     0.292 HD
ENDBRANCH   2  30
TORSDOF 3
ENDMDL
MODEL 4
REMARK VINA RESULT:      -6.0      2.664      3.360
REMARK  3 active torsions:
REMARK  status: ('A' for Active; 'I' for Inactive)
REMARK    1  A    between atoms: C_1  and  C_2 
REMARK    2  A    between atoms: C_3  and  O_19 
REMARK    3  A    between atoms: C_10  and  C_11 
ROOT
ATOM      1  C   LIG d   1       3.064  -2.610  -9.589  0.00  0.00     0.034 A 
ATOM      2  C   LIG d   1       2.789  -2.515 -10.943  0.00  0.00     0.123 A 
ATOM      3  C   LIG d   1       2.509  -1.281 -11.524  0.00  0.00    -0.019 A 
ATOM      4  C   LIG d   1       2.505  -0.148 -10.759  0.00  0.00    -0.044 A 
ATOM      5  C   LIG d   1       2.781  -0.229  -9.394  0.00  0.00     0.068 A 
ATOM      6  C   LIG d   1       3.064  -1.468  -8.797  0.00  0.00     0.146 A 
ATOM      7  O   LIG d   1       3.297  -1.296  -7.477  0.00  0.00    -0.451 OA
ATOM      8  C   LIG d   1       3.193   0.004  -7.113  0.00  0.00     0.176 A 
ATOM      9  C   LIG d   1       3.370   0.502  -5.865  0.00  0.00    -0.008 C 
ATOM     10  C   LIG d   1       2.856   0.777  -8.319  0.00  0.00     0.232 A 
ATOM     11  O   LIG d   1       2.677   1.980  -8.409  0.00  0.00    -0.283 OA
ATOM     12  H   LIG d   1       2.295  -1.219 -12.581  0.00  0.00     0.065 H 
ATOM     13  H   LIG d   1       2.284   0.808 -11.211  0.00  0.00     0.063 H 
ATOM     14  H   LIG d   1       3.345   1.590  -5.698  0.00  0.00     0.066 H 
ENDROOT
BRANCH   9  15
ATOM     15  C   LIG d   1       3.592  -0.410  -4.734  0.00  0.00    -0.021 A 
ATOM     16  C   LIG d   1       4.689  -1.280  -4.737  0.00  0.00    -0.054 A 
ATOM     17  C   LIG d   1       4.889  -2.132  -3.673  0.00  0.00    -0.061 A 
ATOM     18  H   LIG d   1       5.374  -1.284  -5.571  0.00  0.00     0.062 H 
ATOM     19  C   LIG d   1       4.012  -2.129  -2.603  0.00  0.00    -0.062 A 
ATOM     20  H   LIG d   1       5.735  -2.805  -3.673  0.00  0.00     0.062 H 
ATOM     21  C   LIG d   1       2.924  -1.272  -2.592  0.00  0.00    -0.061 A 
ATOM     22  H   LIG d   1       4.174  -2.800  -1.772  0.00  0.00     0.062 H 
ATOM     23  C   LIG d   1       2.712  -0.409  -3.646  0.00  0.00    -0.054 A 
ATOM     24  H   LIG d   1       2.243  -1.277  -1.753  0.00  0.00     0.062 H 
ATOM     25  H   LIG d   1       1.867   0.263  -3.634  0.00  0.00     0.062 H 
ENDBRANCH   9  15
BRANCH   1  26
ATOM     26  C   LIG d   1       3.364  -3.953  -8.973  0.00  0.00    -0.033 C 
ATOM     27  H   LIG d   1       3.492  -3.837  -7.887  0.00  0.00     0.028 H 
ATOM     28  H   LIG d   1       4.287  -4.359  -9.410  0.00  0.00     0.028 H 
ATOM     29  H   LIG d   1       2.529  -4.641  -9.171  0.00  0.00     0.028 H 
ENDBRANCH   1  26
BRANCH   2  30
ATOM     30  O   LIG d   1       2.791  -3.634 -11.711  0.00  0.00    -0.506 OA
ATOM     31  H   LIG d   1       2.760  -3.549 -12.807  0.00  0.00     0.292 HD
ENDBRANCH   2  30
TORSDOF 3
ENDMDL
MODEL 5
REMARK VINA RESULT:      -5.9      2.093      2.706
REMARK  3 active torsions:
REMARK  status: ('A' for Active; 'I' for Inactive)
REMARK    1  A    between atoms: C_1  and  C_2 
REMARK    2  A    between atoms: C_3  and  O_19 
REMARK    3  A    between atoms: C_10  and  C_11 
ROOT
ATOM      1  C   LIG d   1       3.951   0.391  -9.095  0.00  0.00     0.034 A 
ATOM      2  C   LIG d   1       4.017   0.099 -10.448  0.00  0.00     0.123 A 
ATOM      3  C   LIG d   1       4.377  -1.174 -10.880  0.00  0.00    -0.019 A 
ATOM      4  C   LIG d   1       4.668  -2.152  -9.970  0.00  0.00    -0.044 A 
ATOM      5  C   LIG d   1       4.604  -1.871  -8.604  0.00  0.00     0.068 A 
ATOM      6  C   LIG d   1       4.243  -0.590  -8.156  0.00  0.00     0.146 A 
ATOM      7  O   LIG d   1       4.251  -0.561  -6.806  0.00  0.00    -0.451 OA
ATOM      8  C   LIG d   1       4.600  -1.757  -6.278  0.00  0.00     0.176 A 
ATOM      9  C   LIG d   1       4.700  -2.053  -4.958  0.00  0.00    -0.008 C 
ATOM     10  C   LIG d   1       4.850  -2.681  -7.397  0.00  0.00     0.232 A 
ATOM     11  O   LIG d   1       5.185  -3.851  -7.338  0.00  0.00    -0.283 OA
ATOM     12  H   LIG d   1       4.427  -1.391 -11.937  0.00  0.00     0.065 H 
ATOM     13  H   LIG d   1       4.950  -3.138 -10.307  0.00  0.00     0.063 H 
ATOM     14  H   LIG d   1       4.908  -3.085  -4.639  0.00  0.00     0.066 H 
ENDROOT
BRANCH   9  15
ATOM     15  C   LIG d   1       4.530  -0.993  -3.953  0.00  0.00    -0.021 A 
ATOM     16  C   LIG d   1       5.634  -0.244  -3.527  0.00  0.00    -0.054 A 
ATOM     17  C   LIG d   1       5.466   0.747  -2.585  0.00  0.00    -0.061 A 
ATOM     18  H   LIG d   1       6.613  -0.443  -3.936  0.00  0.00     0.062 H 
ATOM     19  C   LIG d   1       4.211   1.003  -2.059  0.00  0.00    -0.062 A 
ATOM     20  H   LIG d   1       6.316   1.326  -2.254  0.00  0.00     0.062 H 
ATOM     21  C   LIG d   1       3.115   0.266  -2.475  0.00  0.00    -0.061 A 
ATOM     22  H   LIG d   1       4.087   1.781  -1.320  0.00  0.00     0.062 H 
ATOM     23  C   LIG d   1       3.264  -0.725  -3.421  0.00  0.00    -0.054 A 
ATOM     24  H   LIG d   1       2.139   0.472  -2.058  0.00  0.00     0.062 H 
ATOM     25  H   LIG d   1       2.408  -1.294  -3.748  0.00  0.00     0.062 H 
ENDBRANCH   9  15
BRANCH   1  26
ATOM     26  C   LIG d   1       3.562   1.775  -8.641  0.00  0.00    -0.033 C 
ATOM     27  H   LIG d   1       2.480   1.805  -8.443  0.00  0.00     0.028 H 
ATOM     28  H   LIG d   1       3.811   2.502  -9.427  0.00  0.00     0.028 H 
ATOM     29  H   LIG d   1       4.109   2.026  -7.721  0.00  0.00     0.028 H 
ENDBRANCH   1  26
BRANCH   2  30
ATOM     30  O   LIG d   1       3.730   1.062 -11.359  0.00  0.00    -0.506 OA
ATOM     31  H   LIG d   1       2.803   1.001 -11.950  0.00  0.00     0.292 HD
ENDBRANCH   2  30
TORSDOF 3
ENDMDL
MODEL 6
REMARK VINA RESULT:      -5.8      4.017      4.660
REMARK  3 active torsions:
REMARK  status: ('A' for Active; 'I' for Inactive)
REMARK    1  A    between atoms: C_1  and  C_2 
REMARK    2  A    between atoms: C_3  and  O_19 
REMARK    3  A    between atoms: C_10  and  C_11 
ROOT
ATOM      1  C   LIG d   1       8.395  -3.205  -5.471  0.00  0.00     0.034 A 
ATOM      2  C   LIG d   1       9.102  -4.236  -6.067  0.00  0.00     0.123 A 
ATOM      3  C   LIG d   1       8.473  -5.437  -6.382  0.00  0.00    -0.019 A 
ATOM      4  C   LIG d   1       7.145  -5.609  -6.104  0.00  0.00    -0.044 A 
ATOM      5  C   LIG d   1       6.421  -4.579  -5.504  0.00  0.00     0.068 A 
ATOM      6  C   LIG d   1       7.046  -3.363  -5.182  0.00  0.00     0.146 A 
ATOM      7  O   LIG d   1       6.149  -2.526  -4.614  0.00  0.00    -0.451 OA
ATOM      8  C   LIG d   1       4.923  -3.091  -4.520  0.00  0.00     0.176 A 
ATOM      9  C   LIG d   1       3.812  -2.512  -4.001  0.00  0.00    -0.008 C 
ATOM     10  C   LIG d   1       5.013  -4.447  -5.086  0.00  0.00     0.232 A 
ATOM     11  O   LIG d   1       4.125  -5.275  -5.186  0.00  0.00    -0.283 OA
ATOM     12  H   LIG d   1       9.034  -6.235  -6.846  0.00  0.00     0.065 H 
ATOM     13  H   LIG d   1       6.659  -6.543  -6.346  0.00  0.00     0.063 H 
ATOM     14  H   LIG d   1       2.844  -3.033  -4.053  0.00  0.00     0.066 H 
ENDROOT
BRANCH   9  15
ATOM     15  C   LIG d   1       3.901  -1.189  -3.366  0.00  0.00    -0.021 A 
ATOM     16  C   LIG d   1       4.554  -1.041  -2.137  0.00  0.00    -0.054 A 
ATOM     17  C   LIG d   1       4.632   0.203  -1.549  0.00  0.00    -0.061 A 
ATOM     18  H   LIG d   1       4.994  -1.898  -1.651  0.00  0.00     0.062 H 
ATOM     19  C   LIG d   1       4.068   1.304  -2.170  0.00  0.00    -0.062 A 
ATOM     20  H   LIG d   1       5.135   0.320  -0.600  0.00  0.00     0.062 H 
ATOM     21  C   LIG d   1       3.420   1.165  -3.386  0.00  0.00    -0.061 A 
ATOM     22  H   LIG d   1       4.132   2.276  -1.704  0.00  0.00     0.062 H 
ATOM     23  C   LIG d   1       3.338  -0.071  -3.991  0.00  0.00    -0.054 A 
ATOM     24  H   LIG d   1       2.981   2.029  -3.864  0.00  0.00     0.062 H 
ATOM     25  H   LIG d   1       2.837  -0.176  -4.941  0.00  0.00     0.062 H 
ENDBRANCH   9  15
BRANCH   1  26
ATOM     26  C   LIG d   1       9.090  -1.910  -5.134  0.00  0.00    -0.033 C 
ATOM     27  H   LIG d   1      10.033  -1.843  -5.697  0.00  0.00     0.028 H 
ATOM     28  H   LIG d   1       9.304  -1.879  -4.056  0.00  0.00     0.028 H 
ATOM     29  H   LIG d   1       8.441  -1.065  -5.405  0.00  0.00     0.028 H 
ENDBRANCH   1  26
BRANCH   2  30
ATOM     30  O   LIG d   1      10.421  -4.074  -6.347  0.00  0.00    -0.506 OA
ATOM     31  H   LIG d   1      10.734  -3.360  -7.123  0.00  0.00     0.292 HD
ENDBRANCH   2  30
TORSDOF 3
ENDMDL
MODEL 7
REMARK VINA RESULT:      -5.6      4.584      6.915
REMARK  3 active torsions:
REMARK  status: ('A' for Active; 'I' for Inactive)
REMARK    1  A    between atoms: C_1  and  C_2 
REMARK    2  A    between atoms: C_3  and  O_19 
REMARK    3  A    between atoms: C_10  and  C_11 
ROOT
ATOM      1  C   LIG d   1       4.908  -1.216  -2.843  0.00  0.00     0.034 A 
ATOM      2  C   LIG d   1       4.948   0.107  -2.434  0.00  0.00     0.123 A 
ATOM      3  C   LIG d   1       5.964   0.953  -2.870  0.00  0.00    -0.019 A 
ATOM      4  C   LIG d   1       6.934   0.483  -3.710  0.00  0.00    -0.044 A 
ATOM      5  C   LIG d   1       6.906  -0.847  -4.131  0.00  0.00     0.068 A 
ATOM      6  C   LIG d   1       5.887  -1.710  -3.697  0.00  0.00     0.146 A 
ATOM      7  O   LIG d   1       6.069  -2.937  -4.232  0.00  0.00    -0.451 OA
ATOM      8  C   LIG d   1       7.168  -2.983  -5.022  0.00  0.00     0.176 A 
ATOM      9  C   LIG d   1       7.621  -4.065  -5.702  0.00  0.00    -0.008 C 
ATOM     10  C   LIG d   1       7.779  -1.644  -5.012  0.00  0.00     0.232 A 
ATOM     11  O   LIG d   1       8.782  -1.277  -5.599  0.00  0.00    -0.283 OA
ATOM     12  H   LIG d   1       5.986   1.982  -2.544  0.00  0.00     0.065 H 
ATOM     13  H   LIG d   1       7.724   1.140  -4.045  0.00  0.00     0.063 H 
ATOM     14  H   LIG d   1       8.478  -3.967  -6.385  0.00  0.00     0.066 H 
ENDROOT
BRANCH   9  15
ATOM     15  C   LIG d   1       6.967  -5.370  -5.525  0.00  0.00    -0.021 A 
ATOM     16  C   LIG d   1       7.715  -6.482  -5.119  0.00  0.00    -0.054 A 
ATOM     17  C   LIG d   1       7.095  -7.702  -4.956  0.00  0.00    -0.061 A 
ATOM     18  H   LIG d   1       8.774  -6.384  -4.934  0.00  0.00     0.062 H 
ATOM     19  C   LIG d   1       5.737  -7.830  -5.192  0.00  0.00    -0.062 A 
ATOM     20  H   LIG d   1       7.670  -8.561  -4.643  0.00  0.00     0.062 H 
ATOM     21  C   LIG d   1       4.991  -6.735  -5.595  0.00  0.00    -0.061 A 
ATOM     22  H   LIG d   1       5.257  -8.789  -5.063  0.00  0.00     0.062 H 
ATOM     23  C   LIG d   1       5.594  -5.507  -5.757  0.00  0.00    -0.054 A 
ATOM     24  H   LIG d   1       3.931  -6.844  -5.778  0.00  0.00     0.062 H 
ATOM     25  H   LIG d   1       5.010  -4.653  -6.066  0.00  0.00     0.062 H 
ENDBRANCH   9  15
BRANCH   1  26
ATOM     26  C   LIG d   1       3.803  -2.121  -2.362  0.00  0.00    -0.033 C 
ATOM     27  H   LIG d   1       3.048  -2.231  -3.154  0.00  0.00     0.028 H 
ATOM     28  H   LIG d   1       3.336  -1.684  -1.468  0.00  0.00     0.028 H 
ATOM     29  H   LIG d   1       4.220  -3.108  -2.114  0.00  0.00     0.028 H 
ENDBRANCH   1  26
BRANCH   2  30
ATOM     30  O   LIG d   1       3.988   0.583  -1.600  0.00  0.00    -0.506 OA
ATOM     31  H   LIG d   1       4.004   1.638  -1.291  0.00  0.00     0.292 HD
ENDBRANCH   2  30
TORSDOF 3
ENDMDL
MODEL 8
REMARK VINA RESULT:      -5.6      5.217      6.125
REMARK  3 active torsions:
REMARK  status: ('A' for Active; 'I' for Inactive)
REMARK    1  A    between atoms: C_1  and  C_2 
REMARK    2  A    between atoms: C_3  and  O_19 
REMARK    3  A    between atoms: C_10  and  C_11 
ROOT
ATOM      1  C   LIG d   1       9.362  -4.790  -3.396  0.00  0.00     0.034 A 
ATOM      2  C   LIG d   1      10.141  -5.837  -3.862  0.00  0.00     0.123 A 
ATOM      3  C   LIG d   1       9.910  -6.387  -5.119  0.00  0.00    -0.019 A 
ATOM      4  C   LIG d   1       8.908  -5.897  -5.909  0.00  0.00    -0.044 A 
ATOM      5  C   LIG d   1       8.116  -4.843  -5.454  0.00  0.00     0.068 A 
ATOM      6  C   LIG d   1       8.339  -4.280  -4.186  0.00  0.00     0.146 A 
ATOM      7  O   LIG d   1       7.454  -3.282  -3.968  0.00  0.00    -0.451 OA
ATOM      8  C   LIG d   1       6.617  -3.113  -5.019  0.00  0.00     0.176 A 
ATOM      9  C   LIG d   1       5.622  -2.197  -5.110  0.00  0.00    -0.008 C 
ATOM     10  C   LIG d   1       6.986  -4.103  -6.044  0.00  0.00     0.232 A 
ATOM     11  O   LIG d   1       6.472  -4.273  -7.136  0.00  0.00    -0.283 OA
ATOM     12  H   LIG d   1      10.523  -7.203  -5.472  0.00  0.00     0.065 H 
ATOM     13  H   LIG d   1       8.728  -6.327  -6.884  0.00  0.00     0.063 H 
ATOM     14  H   LIG d   1       5.057  -2.090  -6.048  0.00  0.00     0.066 H 
ENDROOT
BRANCH   9  15
ATOM     15  C   LIG d   1       5.297  -1.347  -3.956  0.00  0.00    -0.021 A 
ATOM     16  C   LIG d   1       4.553  -1.864  -2.888  0.00  0.00    -0.054 A 
ATOM     17  C   LIG d   1       4.253  -1.060  -1.810  0.00  0.00    -0.061 A 
ATOM     18  H   LIG d   1       4.216  -2.889  -2.910  0.00  0.00     0.062 H 
ATOM     19  C   LIG d   1       4.684   0.255  -1.780  0.00  0.00    -0.062 A 
ATOM     20  H   LIG d   1       3.679  -1.457  -0.985  0.00  0.00     0.062 H 
ATOM     21  C   LIG d   1       5.420   0.774  -2.832  0.00  0.00    -0.061 A 
ATOM     22  H   LIG d   1       4.444   0.880  -0.933  0.00  0.00     0.062 H 
ATOM     23  C   LIG d   1       5.734  -0.018  -3.916  0.00  0.00    -0.054 A 
ATOM     24  H   LIG d   1       5.751   1.802  -2.802  0.00  0.00     0.062 H 
ATOM     25  H   LIG d   1       6.312   0.387  -4.733  0.00  0.00     0.062 H 
ENDBRANCH   9  15
BRANCH   1  26
ATOM     26  C   LIG d   1       9.622  -4.205  -2.032  0.00  0.00    -0.033 C 
ATOM     27  H   LIG d   1       9.368  -4.947  -1.260  0.00  0.00     0.028 H 
ATOM     28  H   LIG d   1       9.004  -3.307  -1.894  0.00  0.00     0.028 H 
ATOM     29  H   LIG d   1      10.685  -3.937  -1.945  0.00  0.00     0.028 H 
ENDBRANCH   1  26
BRANCH   2  30
ATOM     30  O   LIG d   1      11.139  -6.330  -3.085  0.00  0.00    -0.506 OA
ATOM     31  H   LIG d   1      12.059  -5.746  -2.936  0.00  0.00     0.292 HD
ENDBRANCH   2  30
TORSDOF 3
ENDMDL
MODEL 9
REMARK VINA RESULT:      -5.5      2.322      3.567
REMARK  3 active torsions:
REMARK  status: ('A' for Active; 'I' for Inactive)
REMARK    1  A    between atoms: C_1  and  C_2 
REMARK    2  A    between atoms: C_3  and  O_19 
REMARK    3  A    between atoms: C_10  and  C_11 
ROOT
ATOM      1  C   LIG d   1       8.619   2.072  -5.308  0.00  0.00     0.034 A 
ATOM      2  C   LIG d   1       9.622   2.696  -6.032  0.00  0.00     0.123 A 
ATOM      3  C   LIG d   1       9.688   2.555  -7.416  0.00  0.00    -0.019 A 
ATOM      4  C   LIG d   1       8.760   1.798  -8.073  0.00  0.00    -0.044 A 
ATOM      5  C   LIG d   1       7.744   1.164  -7.356  0.00  0.00     0.068 A 
ATOM      6  C   LIG d   1       7.668   1.298  -5.960  0.00  0.00     0.146 A 
ATOM      7  O   LIG d   1       6.610   0.600  -5.493  0.00  0.00    -0.451 OA
ATOM      8  C   LIG d   1       5.936  -0.020  -6.489  0.00  0.00     0.176 A 
ATOM      9  C   LIG d   1       4.832  -0.795  -6.348  0.00  0.00    -0.008 C 
ATOM     10  C   LIG d   1       6.618   0.300  -7.753  0.00  0.00     0.232 A 
ATOM     11  O   LIG d   1       6.319  -0.066  -8.877  0.00  0.00    -0.283 OA
ATOM     12  H   LIG d   1      10.474   3.046  -7.970  0.00  0.00     0.065 H 
ATOM     13  H   LIG d   1       8.815   1.687  -9.147  0.00  0.00     0.063 H 
ATOM     14  H   LIG d   1       4.313  -1.181  -7.238  0.00  0.00     0.066 H 
ENDROOT
BRANCH   9  15
ATOM     15  C   LIG d   1       4.329  -1.120  -5.006  0.00  0.00    -0.021 A 
ATOM     16  C   LIG d   1       4.825  -2.234  -4.319  0.00  0.00    -0.054 A 
ATOM     17  C   LIG d   1       4.347  -2.531  -3.061  0.00  0.00    -0.061 A 
ATOM     18  H   LIG d   1       5.580  -2.858  -4.773  0.00  0.00     0.062 H 
ATOM     19  C   LIG d   1       3.380  -1.733  -2.476  0.00  0.00    -0.062 A 
ATOM     20  H   LIG d   1       4.729  -3.390  -2.529  0.00  0.00     0.062 H 
ATOM     21  C   LIG d   1       2.883  -0.629  -3.149  0.00  0.00    -0.061 A 
ATOM     22  H   LIG d   1       3.009  -1.972  -1.490  0.00  0.00     0.062 H 
ATOM     23  C   LIG d   1       3.354  -0.314  -4.406  0.00  0.00    -0.054 A 
ATOM     24  H   LIG d   1       2.127  -0.012  -2.687  0.00  0.00     0.062 H 
ATOM     25  H   LIG d   1       2.970   0.550  -4.927  0.00  0.00     0.062 H 
ENDBRANCH   9  15
BRANCH   1  26
ATOM     26  C   LIG d   1       8.561   2.232  -3.810  0.00  0.00    -0.033 C 
ATOM     27  H   LIG d   1       7.714   1.654  -3.412  0.00  0.00     0.028 H 
ATOM     28  H   LIG d   1       8.429   3.294  -3.559  0.00  0.00     0.028 H 
ATOM     29  H   LIG d   1       9.497   1.863  -3.365  0.00  0.00     0.028 H 
ENDBRANCH   1  26
BRANCH   2  30
ATOM     30  O   LIG d   1      10.548   3.451  -5.388  0.00  0.00    -0.506 OA
ATOM     31  H   LIG d   1      10.457   3.626  -4.305  0.00  0.00     0.292 HD
ENDBRANCH   2  30
TORSDOF 3
ENDMDL
