MODEL 1
REMARK VINA RESULT:      -7.3      0.000      0.000
REMARK  6 active torsions:
REMARK  status: ('A' for Active; 'I' for Inactive)
REMARK    1  A    between atoms: C_4  and  C_7 
REMARK    2  A    between atoms: C_7  and  C_8 
REMARK    3  A    between atoms: C_8  and  C_9 
REMARK    4  A    between atoms: C_9  and  N_58 
REMARK    5  A    between atoms: C_20  and  N_25 
REMARK       I    between atoms: N_25  and  C_26 
REMARK    6  A    between atoms: C_26  and  C_28 
ROOT
ATOM      1  C   LIG d   1       5.047   0.107  -8.631  0.00  0.00    -0.027 C 
ATOM      2  C   LIG d   1       6.481  -0.399  -8.685  0.00  0.00     0.018 C 
ATOM      3  H   LIG d   1       6.767  -0.508  -9.731  0.00  0.00     0.037 H 
ATOM      4  C   LIG d   1       6.600  -1.772  -8.020  0.00  0.00    -0.031 C 
ATOM      5  C   LIG d   1       6.082  -1.638  -6.583  0.00  0.00     0.040 C 
ATOM      6  H   LIG d   1       6.188  -2.577  -6.041  0.00  0.00     0.042 H 
ATOM      7  C   LIG d   1       4.605  -1.214  -6.649  0.00  0.00    -0.024 C 
ATOM      8  C   LIG d   1       6.840  -0.532  -5.883  0.00  0.00     0.030 A 
ATOM      9  C   LIG d   1       6.960  -0.616  -4.533  0.00  0.00    -0.040 A 
ATOM     10  C   LIG d   1       7.595   0.400  -3.808  0.00  0.00    -0.034 A 
ATOM     11  C   LIG d   1       8.074   1.490  -4.482  0.00  0.00     0.099 A 
ATOM     12  C   LIG d   1       7.931   1.546  -5.881  0.00  0.00     0.273 A 
ATOM     13  O   LIG d   1       8.303   2.537  -6.488  0.00  0.00    -0.266 OA
ATOM     14  N   LIG d   1       7.384   0.508  -6.562  0.00  0.00    -0.310 N 
ATOM     15  C   LIG d   1       7.448   0.569  -8.023  0.00  0.00     0.034 C 
ATOM     16  H   LIG d   1       5.008   1.116  -9.039  0.00  0.00     0.082 H 
ATOM     17  H   LIG d   1       4.416  -0.547  -9.233  0.00  0.00     0.082 H 
ATOM     18  H   LIG d   1       7.643  -2.089  -8.009  0.00  0.00     0.028 H 
ATOM     19  H   LIG d   1       5.998  -2.500  -8.564  0.00  0.00     0.028 H 
ATOM     20  H   LIG d   1       4.046  -1.921  -7.261  0.00  0.00     0.082 H 
ATOM     21  H   LIG d   1       4.186  -1.184  -5.643  0.00  0.00     0.082 H 
ATOM     22  H   LIG d   1       6.560  -1.474  -4.013  0.00  0.00     0.064 H 
ATOM     23  H   LIG d   1       7.704   0.324  -2.737  0.00  0.00     0.064 H 
ATOM     24  H   LIG d   1       7.210   1.582  -8.345  0.00  0.00     0.050 H 
ATOM     25  H   LIG d   1       8.462   0.325  -8.342  0.00  0.00     0.050 H 
ATOM     26  N   LIG d   1       4.560   0.144  -7.237  0.00  0.00     0.236 N 
ATOM     27  H   LIG d   1       5.166   0.765  -6.688  0.00  0.00     0.203 HD
ENDROOT
BRANCH  26  28
ATOM     28  C   LIG d   1       3.177   0.665  -7.197  0.00  0.00    -0.032 C 
ATOM     29  H   LIG d   1       3.209   1.748  -7.074  0.00  0.00     0.081 H 
ATOM     30  H   LIG d   1       2.650   0.420  -8.119  0.00  0.00     0.081 H 
BRANCH  28  31
ATOM     31  C   LIG d   1       2.449   0.037  -6.008  0.00  0.00    -0.009 C 
ATOM     32  H   LIG d   1       1.428  -0.214  -6.299  0.00  0.00     0.032 H 
ATOM     33  H   LIG d   1       2.971  -0.868  -5.698  0.00  0.00     0.032 H 
BRANCH  31  34
ATOM     34  C   LIG d   1       2.418   1.032  -4.846  0.00  0.00    -0.023 C 
ATOM     35  H   LIG d   1       2.859   1.976  -5.165  0.00  0.00     0.032 H 
ATOM     36  H   LIG d   1       1.386   1.198  -4.537  0.00  0.00     0.032 H 
BRANCH  34  37
ATOM     37  C   LIG d   1       3.205   0.475  -3.688  0.00  0.00    -0.047 A 
ATOM     38  C   LIG d   1       3.938   1.324  -2.878  0.00  0.00    -0.059 A 
ATOM     39  C   LIG d   1       4.660   0.814  -1.816  0.00  0.00    -0.061 A 
ATOM     40  H   LIG d   1       3.945   2.386  -3.077  0.00  0.00     0.062 H 
ATOM     41  C   LIG d   1       4.650  -0.545  -1.562  0.00  0.00    -0.062 A 
ATOM     42  H   LIG d   1       5.232   1.477  -1.184  0.00  0.00     0.062 H 
ATOM     43  C   LIG d   1       3.916  -1.393  -2.370  0.00  0.00    -0.061 A 
ATOM     44  H   LIG d   1       5.214  -0.943  -0.732  0.00  0.00     0.062 H 
ATOM     45  C   LIG d   1       3.191  -0.883  -3.430  0.00  0.00    -0.059 A 
ATOM     46  H   LIG d   1       3.908  -2.455  -2.171  0.00  0.00     0.062 H 
ATOM     47  H   LIG d   1       2.615  -1.545  -4.059  0.00  0.00     0.062 H 
ENDBRANCH  34  37
ENDBRANCH  31  34
ENDBRANCH  28  31
ENDBRANCH  26  28
BRANCH  11  48
ATOM     48  N   LIG d   1       8.698   2.537  -3.789  0.00  0.00    -0.281 N 
ATOM     49  C   LIG d   1      10.018   2.476  -3.523  0.00  0.00     0.220 C 
ATOM     50  O   LIG d   1      10.683   1.560  -3.959  0.00  0.00    -0.275 OA
ATOM     51  H   LIG d   1       8.179   3.304  -3.500  0.00  0.00     0.155 HD
BRANCH  49  52
ATOM     52  C   LIG d   1      10.668   3.549  -2.688  0.00  0.00     0.036 A 
ATOM     53  C   LIG d   1      11.293   4.735  -3.426  0.00  0.00    -0.041 A 
ATOM     54  C   LIG d   1       9.990   4.920  -2.646  0.00  0.00    -0.041 A 
ATOM     55  H   LIG d   1      12.199   5.171  -3.003  0.00  0.00     0.027 H 
ATOM     56  H   LIG d   1      11.233   4.741  -4.514  0.00  0.00     0.027 H 
ATOM     57  H   LIG d   1       9.073   5.045  -3.221  0.00  0.00     0.027 H 
ATOM     58  H   LIG d   1      10.037   5.476  -1.710  0.00  0.00     0.027 H 
ATOM     59  H   LIG d   1      11.162   3.203  -1.781  0.00  0.00     0.039 H 
ENDBRANCH  49  52
ENDBRANCH  11  48
TORSDOF 6
ENDMDL
MODEL 2
REMARK VINA RESULT:      -6.8      2.277      7.001
REMARK  6 active torsions:
REMARK  status: ('A' for Active; 'I' for Inactive)
REMARK    1  A    between atoms: C_4  and  C_7 
REMARK    2  A    between atoms: C_7  and  C_8 
REMARK    3  A    between atoms: C_8  and  C_9 
REMARK    4  A    between atoms: C_9  and  N_58 
REMARK    5  A    between atoms: C_20  and  N_25 
REMARK       I    between atoms: N_25  and  C_26 
REMARK    6  A    between atoms: C_26  and  C_28 
ROOT
ATOM      1  C   LIG d   1       5.134   1.007  -2.496  0.00  0.00    -0.027 C 
ATOM      2  C   LIG d   1       3.817   0.248  -2.544  0.00  0.00     0.018 C 
ATOM      3  H   LIG d   1       3.169   0.635  -1.757  0.00  0.00     0.037 H 
ATOM      4  C   LIG d   1       4.037  -1.243  -2.278  0.00  0.00    -0.031 C 
ATOM      5  C   LIG d   1       5.044  -1.754  -3.316  0.00  0.00     0.040 C 
ATOM      6  H   LIG d   1       5.204  -2.827  -3.209  0.00  0.00     0.042 H 
ATOM      7  C   LIG d   1       6.361  -0.987  -3.117  0.00  0.00    -0.024 C 
ATOM      8  C   LIG d   1       4.536  -1.430  -4.703  0.00  0.00     0.030 A 
ATOM      9  C   LIG d   1       4.933  -2.241  -5.718  0.00  0.00    -0.040 A 
ATOM     10  C   LIG d   1       4.554  -1.970  -7.038  0.00  0.00    -0.034 A 
ATOM     11  C   LIG d   1       3.794  -0.860  -7.291  0.00  0.00     0.099 A 
ATOM     12  C   LIG d   1       3.401  -0.041  -6.217  0.00  0.00     0.273 A 
ATOM     13  O   LIG d   1       2.772   0.981  -6.434  0.00  0.00    -0.266 OA
ATOM     14  N   LIG d   1       3.717  -0.376  -4.941  0.00  0.00    -0.310 N 
ATOM     15  C   LIG d   1       3.110   0.425  -3.877  0.00  0.00     0.034 C 
ATOM     16  H   LIG d   1       4.958   2.048  -2.765  0.00  0.00     0.082 H 
ATOM     17  H   LIG d   1       5.534   0.963  -1.482  0.00  0.00     0.082 H 
ATOM     18  H   LIG d   1       3.094  -1.781  -2.382  0.00  0.00     0.028 H 
ATOM     19  H   LIG d   1       4.436  -1.386  -1.274  0.00  0.00     0.028 H 
ATOM     20  H   LIG d   1       6.694  -1.088  -2.084  0.00  0.00     0.082 H 
ATOM     21  H   LIG d   1       7.123  -1.382  -3.790  0.00  0.00     0.082 H 
ATOM     22  H   LIG d   1       5.548  -3.102  -5.505  0.00  0.00     0.064 H 
ATOM     23  H   LIG d   1       4.856  -2.624  -7.841  0.00  0.00     0.064 H 
ATOM     24  H   LIG d   1       3.149   1.476  -4.161  0.00  0.00     0.050 H 
ATOM     25  H   LIG d   1       2.067   0.129  -3.764  0.00  0.00     0.050 H 
ATOM     26  N   LIG d   1       6.103   0.431  -3.451  0.00  0.00     0.236 N 
ATOM     27  H   LIG d   1       5.709   0.484  -4.397  0.00  0.00     0.203 HD
ENDROOT
BRANCH  26  28
ATOM     28  C   LIG d   1       7.366   1.197  -3.415  0.00  0.00    -0.032 C 
ATOM     29  H   LIG d   1       7.166   2.195  -3.022  0.00  0.00     0.081 H 
ATOM     30  H   LIG d   1       8.098   0.698  -2.780  0.00  0.00     0.081 H 
BRANCH  28  31
ATOM     31  C   LIG d   1       7.915   1.309  -4.838  0.00  0.00    -0.009 C 
ATOM     32  H   LIG d   1       7.782   0.358  -5.354  0.00  0.00     0.032 H 
ATOM     33  H   LIG d   1       7.379   2.092  -5.374  0.00  0.00     0.032 H 
BRANCH  31  34
ATOM     34  C   LIG d   1       9.405   1.655  -4.784  0.00  0.00    -0.023 C 
ATOM     35  H   LIG d   1       9.918   0.952  -4.128  0.00  0.00     0.032 H 
ATOM     36  H   LIG d   1       9.829   1.593  -5.786  0.00  0.00     0.032 H 
BRANCH  34  37
ATOM     37  C   LIG d   1       9.576   3.055  -4.252  0.00  0.00    -0.047 A 
ATOM     38  C   LIG d   1      10.099   3.255  -2.988  0.00  0.00    -0.059 A 
ATOM     39  C   LIG d   1      10.255   4.538  -2.499  0.00  0.00    -0.061 A 
ATOM     40  H   LIG d   1      10.385   2.407  -2.382  0.00  0.00     0.062 H 
ATOM     41  C   LIG d   1       9.889   5.622  -3.275  0.00  0.00    -0.062 A 
ATOM     42  H   LIG d   1      10.664   4.693  -1.511  0.00  0.00     0.062 H 
ATOM     43  C   LIG d   1       9.368   5.423  -4.539  0.00  0.00    -0.061 A 
ATOM     44  H   LIG d   1      10.011   6.625  -2.893  0.00  0.00     0.062 H 
ATOM     45  C   LIG d   1       9.215   4.139  -5.029  0.00  0.00    -0.059 A 
ATOM     46  H   LIG d   1       9.082   6.270  -5.145  0.00  0.00     0.062 H 
ATOM     47  H   LIG d   1       8.810   3.984  -6.018  0.00  0.00     0.062 H 
ENDBRANCH  34  37
ENDBRANCH  31  34
ENDBRANCH  28  31
ENDBRANCH  26  28
BRANCH  11  48
ATOM     48  N   LIG d   1       3.411  -0.545  -8.603  0.00  0.00    -0.281 N 
ATOM     49  C   LIG d   1       4.174   0.278  -9.348  0.00  0.00     0.220 C 
ATOM     50  O   LIG d   1       5.235   0.679  -8.916  0.00  0.00    -0.275 OA
ATOM     51  H   LIG d   1       2.597  -0.920  -8.973  0.00  0.00     0.155 HD
BRANCH  49  52
ATOM     52  C   LIG d   1       3.711   0.700 -10.719  0.00  0.00     0.036 A 
ATOM     53  C   LIG d   1       4.330  -0.013 -11.922  0.00  0.00    -0.041 A 
ATOM     54  C   LIG d   1       2.882  -0.303 -11.524  0.00  0.00    -0.041 A 
ATOM     55  H   LIG d   1       4.495   0.575 -12.826  0.00  0.00     0.027 H 
ATOM     56  H   LIG d   1       5.071  -0.788 -11.724  0.00  0.00     0.027 H 
ATOM     57  H   LIG d   1       2.670  -1.266 -11.062  0.00  0.00     0.027 H 
ATOM     58  H   LIG d   1       2.094   0.095 -12.163  0.00  0.00     0.027 H 
ATOM     59  H   LIG d   1       3.470   1.757 -10.829  0.00  0.00     0.039 H 
ENDBRANCH  49  52
ENDBRANCH  11  48
TORSDOF 6
ENDMDL
MODEL 3
REMARK VINA RESULT:      -6.8      4.218      6.630
REMARK  6 active torsions:
REMARK  status: ('A' for Active; 'I' for Inactive)
REMARK    1  A    between atoms: C_4  and  C_7 
REMARK    2  A    between atoms: C_7  and  C_8 
REMARK    3  A    between atoms: C_8  and  C_9 
REMARK    4  A    between atoms: C_9  and  N_58 
REMARK    5  A    between atoms: C_20  and  N_25 
REMARK       I    between atoms: N_25  and  C_26 
REMARK    6  A    between atoms: C_26  and  C_28 
ROOT
ATOM      1  C   LIG d   1       4.556   1.151  -9.032  0.00  0.00    -0.027 C 
ATOM      2  C   LIG d   1       5.065   0.507 -10.313  0.00  0.00     0.018 C 
ATOM      3  H   LIG d   1       5.863   1.130 -10.718  0.00  0.00     0.037 H 
ATOM      4  C   LIG d   1       3.954   0.428 -11.362  0.00  0.00    -0.031 C 
ATOM      5  C   LIG d   1       2.786  -0.349 -10.742  0.00  0.00     0.040 C 
ATOM      6  H   LIG d   1       1.979  -0.482 -11.463  0.00  0.00     0.042 H 
ATOM      7  C   LIG d   1       2.293   0.436  -9.515  0.00  0.00    -0.024 C 
ATOM      8  C   LIG d   1       3.286  -1.689 -10.252  0.00  0.00     0.030 A 
ATOM      9  C   LIG d   1       2.390  -2.710 -10.204  0.00  0.00    -0.040 A 
ATOM     10  C   LIG d   1       2.762  -3.963  -9.705  0.00  0.00    -0.034 A 
ATOM     11  C   LIG d   1       4.038  -4.137  -9.244  0.00  0.00     0.099 A 
ATOM     12  C   LIG d   1       4.940  -3.059  -9.305  0.00  0.00     0.273 A 
ATOM     13  O   LIG d   1       6.064  -3.183  -8.846  0.00  0.00    -0.266 OA
ATOM     14  N   LIG d   1       4.572  -1.882  -9.870  0.00  0.00    -0.310 N 
ATOM     15  C   LIG d   1       5.625  -0.884 -10.064  0.00  0.00     0.034 C 
ATOM     16  H   LIG d   1       5.344   1.123  -8.280  0.00  0.00     0.082 H 
ATOM     17  H   LIG d   1       4.294   2.190  -9.236  0.00  0.00     0.082 H 
ATOM     18  H   LIG d   1       4.317  -0.095 -12.247  0.00  0.00     0.028 H 
ATOM     19  H   LIG d   1       3.628   1.432 -11.634  0.00  0.00     0.028 H 
ATOM     20  H   LIG d   1       2.046   1.457  -9.806  0.00  0.00     0.082 H 
ATOM     21  H   LIG d   1       1.412  -0.051  -9.096  0.00  0.00     0.082 H 
ATOM     22  H   LIG d   1       1.381  -2.551 -10.554  0.00  0.00     0.064 H 
ATOM     23  H   LIG d   1       2.054  -4.777  -9.684  0.00  0.00     0.064 H 
ATOM     24  H   LIG d   1       6.254  -0.857  -9.174  0.00  0.00     0.050 H 
ATOM     25  H   LIG d   1       6.235  -1.175 -10.919  0.00  0.00     0.050 H 
ATOM     26  N   LIG d   1       3.382   0.421  -8.513  0.00  0.00     0.236 N 
ATOM     27  H   LIG d   1       3.650  -0.551  -8.327  0.00  0.00     0.203 HD
ENDROOT
BRANCH  26  28
ATOM     28  C   LIG d   1       2.917   1.041  -7.254  0.00  0.00    -0.032 C 
ATOM     29  H   LIG d   1       3.598   1.849  -6.983  0.00  0.00     0.081 H 
ATOM     30  H   LIG d   1       1.910   1.439  -7.372  0.00  0.00     0.081 H 
BRANCH  28  31
ATOM     31  C   LIG d   1       2.922  -0.022  -6.152  0.00  0.00    -0.009 C 
ATOM     32  H   LIG d   1       2.311  -0.869  -6.463  0.00  0.00     0.032 H 
ATOM     33  H   LIG d   1       3.944  -0.356  -5.974  0.00  0.00     0.032 H 
BRANCH  31  34
ATOM     34  C   LIG d   1       2.349   0.577  -4.866  0.00  0.00    -0.023 C 
ATOM     35  H   LIG d   1       2.421   1.663  -4.906  0.00  0.00     0.032 H 
ATOM     36  H   LIG d   1       1.303   0.286  -4.765  0.00  0.00     0.032 H 
BRANCH  34  37
ATOM     37  C   LIG d   1       3.129   0.064  -3.683  0.00  0.00    -0.047 A 
ATOM     38  C   LIG d   1       3.787   0.952  -2.852  0.00  0.00    -0.059 A 
ATOM     39  C   LIG d   1       4.503   0.483  -1.767  0.00  0.00    -0.061 A 
ATOM     40  H   LIG d   1       3.741   2.013  -3.051  0.00  0.00     0.062 H 
ATOM     41  C   LIG d   1       4.561  -0.875  -1.512  0.00  0.00    -0.062 A 
ATOM     42  H   LIG d   1       5.017   1.177  -1.118  0.00  0.00     0.062 H 
ATOM     43  C   LIG d   1       3.902  -1.763  -2.342  0.00  0.00    -0.061 A 
ATOM     44  H   LIG d   1       5.121  -1.242  -0.665  0.00  0.00     0.062 H 
ATOM     45  C   LIG d   1       3.183  -1.293  -3.425  0.00  0.00    -0.059 A 
ATOM     46  H   LIG d   1       3.948  -2.823  -2.143  0.00  0.00     0.062 H 
ATOM     47  H   LIG d   1       2.665  -1.986  -4.071  0.00  0.00     0.062 H 
ENDBRANCH  34  37
ENDBRANCH  31  34
ENDBRANCH  28  31
ENDBRANCH  26  28
BRANCH  11  48
ATOM     48  N   LIG d   1       4.442  -5.373  -8.718  0.00  0.00    -0.281 N 
ATOM     49  C   LIG d   1       4.138  -5.695  -7.445  0.00  0.00     0.220 C 
ATOM     50  O   LIG d   1       3.443  -4.954  -6.781  0.00  0.00    -0.275 OA
ATOM     51  H   LIG d   1       4.939  -5.995  -9.271  0.00  0.00     0.155 HD
BRANCH  49  52
ATOM     52  C   LIG d   1       4.660  -6.976  -6.847  0.00  0.00     0.036 A 
ATOM     53  C   LIG d   1       6.076  -6.958  -6.267  0.00  0.00    -0.041 A 
ATOM     54  C   LIG d   1       4.867  -7.016  -5.332  0.00  0.00    -0.041 A 
ATOM     55  H   LIG d   1       6.675  -7.863  -6.372  0.00  0.00     0.027 H 
ATOM     56  H   LIG d   1       6.629  -6.020  -6.316  0.00  0.00     0.027 H 
ATOM     57  H   LIG d   1       4.624  -6.116  -4.767  0.00  0.00     0.027 H 
ATOM     58  H   LIG d   1       4.669  -7.958  -4.822  0.00  0.00     0.027 H 
ATOM     59  H   LIG d   1       4.328  -7.892  -7.335  0.00  0.00     0.039 H 
ENDBRANCH  49  52
ENDBRANCH  11  48
TORSDOF 6
ENDMDL
MODEL 4
REMARK VINA RESULT:      -6.8      2.413      5.652
REMARK  6 active torsions:
REMARK  status: ('A' for Active; 'I' for Inactive)
REMARK    1  A    between atoms: C_4  and  C_7 
REMARK    2  A    between atoms: C_7  and  C_8 
REMARK    3  A    between atoms: C_8  and  C_9 
REMARK    4  A    between atoms: C_9  and  N_58 
REMARK    5  A    between atoms: C_20  and  N_25 
REMARK       I    between atoms: N_25  and  C_26 
REMARK    6  A    between atoms: C_26  and  C_28 
ROOT
ATOM      1  C   LIG d   1       3.036  -0.920  -3.542  0.00  0.00    -0.027 C 
ATOM      2  C   LIG d   1       4.070  -1.423  -2.547  0.00  0.00     0.018 C 
ATOM      3  H   LIG d   1       3.642  -2.265  -2.003  0.00  0.00     0.037 H 
ATOM      4  C   LIG d   1       4.421  -0.336  -1.528  0.00  0.00    -0.031 C 
ATOM      5  C   LIG d   1       4.910   0.889  -2.309  0.00  0.00     0.040 C 
ATOM      6  H   LIG d   1       5.224   1.684  -1.631  0.00  0.00     0.042 H 
ATOM      7  C   LIG d   1       3.760   1.368  -3.210  0.00  0.00    -0.024 C 
ATOM      8  C   LIG d   1       6.053   0.481  -3.211  0.00  0.00     0.030 A 
ATOM      9  C   LIG d   1       6.965   1.434  -3.535  0.00  0.00    -0.040 A 
ATOM     10  C   LIG d   1       8.016   1.148  -4.413  0.00  0.00    -0.034 A 
ATOM     11  C   LIG d   1       8.096  -0.105  -4.959  0.00  0.00     0.099 A 
ATOM     12  C   LIG d   1       7.134  -1.068  -4.604  0.00  0.00     0.273 A 
ATOM     13  O   LIG d   1       7.162  -2.171  -5.126  0.00  0.00    -0.266 OA
ATOM     14  N   LIG d   1       6.176  -0.783  -3.687  0.00  0.00    -0.310 N 
ATOM     15  C   LIG d   1       5.339  -1.896  -3.238  0.00  0.00     0.034 C 
ATOM     16  H   LIG d   1       2.865  -1.685  -4.298  0.00  0.00     0.082 H 
ATOM     17  H   LIG d   1       2.102  -0.723  -3.016  0.00  0.00     0.082 H 
ATOM     18  H   LIG d   1       5.211  -0.691  -0.865  0.00  0.00     0.028 H 
ATOM     19  H   LIG d   1       3.538  -0.076  -0.945  0.00  0.00     0.028 H 
ATOM     20  H   LIG d   1       2.870   1.548  -2.607  0.00  0.00     0.082 H 
ATOM     21  H   LIG d   1       4.051   2.286  -3.721  0.00  0.00     0.082 H 
ATOM     22  H   LIG d   1       6.876   2.423  -3.111  0.00  0.00     0.064 H 
ATOM     23  H   LIG d   1       8.749   1.902  -4.656  0.00  0.00     0.064 H 
ATOM     24  H   LIG d   1       5.065  -2.502  -4.101  0.00  0.00     0.050 H 
ATOM     25  H   LIG d   1       5.911  -2.510  -2.542  0.00  0.00     0.050 H 
ATOM     26  N   LIG d   1       3.512   0.308  -4.212  0.00  0.00     0.236 N 
ATOM     27  H   LIG d   1       4.390   0.101  -4.702  0.00  0.00     0.203 HD
ENDROOT
BRANCH  26  28
ATOM     28  C   LIG d   1       2.510   0.768  -5.196  0.00  0.00    -0.032 C 
ATOM     29  H   LIG d   1       1.535   0.360  -4.928  0.00  0.00     0.081 H 
ATOM     30  H   LIG d   1       2.457   1.856  -5.208  0.00  0.00     0.081 H 
BRANCH  28  31
ATOM     31  C   LIG d   1       2.913   0.259  -6.582  0.00  0.00    -0.009 C 
ATOM     32  H   LIG d   1       3.941  -0.102  -6.551  0.00  0.00     0.032 H 
ATOM     33  H   LIG d   1       2.249  -0.553  -6.878  0.00  0.00     0.032 H 
BRANCH  31  34
ATOM     34  C   LIG d   1       2.804   1.401  -7.595  0.00  0.00    -0.023 C 
ATOM     35  H   LIG d   1       1.838   1.895  -7.483  0.00  0.00     0.032 H 
ATOM     36  H   LIG d   1       3.603   2.121  -7.418  0.00  0.00     0.032 H 
BRANCH  34  37
ATOM     37  C   LIG d   1       2.927   0.847  -8.991  0.00  0.00    -0.047 A 
ATOM     38  C   LIG d   1       3.819   1.413  -9.883  0.00  0.00    -0.059 A 
ATOM     39  C   LIG d   1       3.932   0.906 -11.163  0.00  0.00    -0.061 A 
ATOM     40  H   LIG d   1       4.428   2.252  -9.578  0.00  0.00     0.062 H 
ATOM     41  C   LIG d   1       3.153  -0.168 -11.553  0.00  0.00    -0.062 A 
ATOM     42  H   LIG d   1       4.629   1.348 -11.860  0.00  0.00     0.062 H 
ATOM     43  C   LIG d   1       2.262  -0.734 -10.661  0.00  0.00    -0.061 A 
ATOM     44  H   LIG d   1       3.241  -0.564 -12.554  0.00  0.00     0.062 H 
ATOM     45  C   LIG d   1       2.151  -0.229  -9.379  0.00  0.00    -0.059 A 
ATOM     46  H   LIG d   1       1.653  -1.572 -10.966  0.00  0.00     0.062 H 
ATOM     47  H   LIG d   1       1.458  -0.674  -8.681  0.00  0.00     0.062 H 
ENDBRANCH  34  37
ENDBRANCH  31  34
ENDBRANCH  28  31
ENDBRANCH  26  28
BRANCH  11  48
ATOM     48  N   LIG d   1       9.124  -0.423  -5.858  0.00  0.00    -0.281 N 
ATOM     49  C   LIG d   1       8.972  -0.166  -7.173  0.00  0.00     0.220 C 
ATOM     50  O   LIG d   1       7.985   0.418  -7.567  0.00  0.00    -0.275 OA
ATOM     51  H   LIG d   1       9.943  -0.828  -5.534  0.00  0.00     0.155 HD
BRANCH  49  52
ATOM     52  C   LIG d   1      10.031  -0.602  -8.152  0.00  0.00     0.036 A 
ATOM     53  C   LIG d   1       9.845  -1.959  -8.834  0.00  0.00    -0.041 A 
ATOM     54  C   LIG d   1       9.642  -0.669  -9.630  0.00  0.00    -0.041 A 
ATOM     55  H   LIG d   1      10.741  -2.545  -9.044  0.00  0.00     0.027 H 
ATOM     56  H   LIG d   1       8.957  -2.536  -8.576  0.00  0.00     0.027 H 
ATOM     57  H   LIG d   1       8.621  -0.396  -9.894  0.00  0.00     0.027 H 
ATOM     58  H   LIG d   1      10.403  -0.405 -10.363  0.00  0.00     0.027 H 
ATOM     59  H   LIG d   1      11.049  -0.295  -7.912  0.00  0.00     0.039 H 
ENDBRANCH  49  52
ENDBRANCH  11  48
TORSDOF 6
ENDMDL
MODEL 5
REMARK VINA RESULT:      -6.7      4.888      8.487
REMARK  6 active torsions:
REMARK  status: ('A' for Active; 'I' for Inactive)
REMARK    1  A    between atoms: C_4  and  C_7 
REMARK    2  A    between atoms: C_7  and  C_8 
REMARK    3  A    between atoms: C_8  and  C_9 
REMARK    4  A    between atoms: C_9  and  N_58 
REMARK    5  A    between atoms: C_20  and  N_25 
REMARK       I    between atoms: N_25  and  C_26 
REMARK    6  A    between atoms: C_26  and  C_28 
ROOT
ATOM      1  C   LIG d   1       4.895   0.095  -8.373  0.00  0.00    -0.027 C 
ATOM      2  C   LIG d   1       5.401  -0.695  -9.570  0.00  0.00     0.018 C 
ATOM      3  H   LIG d   1       6.478  -0.827  -9.464  0.00  0.00     0.037 H 
ATOM      4  C   LIG d   1       5.147   0.066 -10.873  0.00  0.00    -0.031 C 
ATOM      5  C   LIG d   1       3.643   0.353 -10.956  0.00  0.00     0.040 C 
ATOM      6  H   LIG d   1       3.391   0.853 -11.891  0.00  0.00     0.042 H 
ATOM      7  C   LIG d   1       3.260   1.231  -9.752  0.00  0.00    -0.024 C 
ATOM      8  C   LIG d   1       2.881  -0.947 -10.828  0.00  0.00     0.030 A 
ATOM      9  C   LIG d   1       1.659  -1.016 -11.417  0.00  0.00    -0.040 A 
ATOM     10  C   LIG d   1       0.869  -2.164 -11.292  0.00  0.00    -0.034 A 
ATOM     11  C   LIG d   1       1.340  -3.210 -10.545  0.00  0.00     0.099 A 
ATOM     12  C   LIG d   1       2.609  -3.105  -9.946  0.00  0.00     0.273 A 
ATOM     13  O   LIG d   1       3.017  -4.007  -9.233  0.00  0.00    -0.266 OA
ATOM     14  N   LIG d   1       3.384  -2.012 -10.155  0.00  0.00    -0.310 N 
ATOM     15  C   LIG d   1       4.757  -2.070  -9.654  0.00  0.00     0.034 C 
ATOM     16  H   LIG d   1       5.018  -0.504  -7.471  0.00  0.00     0.082 H 
ATOM     17  H   LIG d   1       5.480   1.009  -8.276  0.00  0.00     0.082 H 
ATOM     18  H   LIG d   1       5.454  -0.542 -11.723  0.00  0.00     0.028 H 
ATOM     19  H   LIG d   1       5.703   1.004 -10.868  0.00  0.00     0.028 H 
ATOM     20  H   LIG d   1       3.885   2.124  -9.735  0.00  0.00     0.082 H 
ATOM     21  H   LIG d   1       2.210   1.517  -9.824  0.00  0.00     0.082 H 
ATOM     22  H   LIG d   1       1.293  -0.174 -11.987  0.00  0.00     0.064 H 
ATOM     23  H   LIG d   1      -0.094  -2.223 -11.774  0.00  0.00     0.064 H 
ATOM     24  H   LIG d   1       4.753  -2.519  -8.661  0.00  0.00     0.050 H 
ATOM     25  H   LIG d   1       5.351  -2.695 -10.322  0.00  0.00     0.050 H 
ATOM     26  N   LIG d   1       3.463   0.420  -8.531  0.00  0.00     0.236 N 
ATOM     27  H   LIG d   1       2.930  -0.452  -8.618  0.00  0.00     0.203 HD
ENDROOT
BRANCH  26  28
ATOM     28  C   LIG d   1       2.979   1.162  -7.347  0.00  0.00    -0.032 C 
ATOM     29  H   LIG d   1       3.711   1.926  -7.082  0.00  0.00     0.081 H 
ATOM     30  H   LIG d   1       2.020   1.636  -7.558  0.00  0.00     0.081 H 
BRANCH  28  31
ATOM     31  C   LIG d   1       2.821   0.181  -6.183  0.00  0.00    -0.009 C 
ATOM     32  H   LIG d   1       2.056  -0.555  -6.431  0.00  0.00     0.032 H 
ATOM     33  H   LIG d   1       3.769  -0.325  -6.003  0.00  0.00     0.032 H 
BRANCH  31  34
ATOM     34  C   LIG d   1       2.404   0.947  -4.926  0.00  0.00    -0.023 C 
ATOM     35  H   LIG d   1       2.644   2.003  -5.047  0.00  0.00     0.032 H 
ATOM     36  H   LIG d   1       1.331   0.834  -4.771  0.00  0.00     0.032 H 
BRANCH  34  37
ATOM     37  C   LIG d   1       3.144   0.396  -3.734  0.00  0.00    -0.047 A 
ATOM     38  C   LIG d   1       3.802   1.254  -2.872  0.00  0.00    -0.059 A 
ATOM     39  C   LIG d   1       4.481   0.749  -1.779  0.00  0.00    -0.061 A 
ATOM     40  H   LIG d   1       3.784   2.319  -3.053  0.00  0.00     0.062 H 
ATOM     41  C   LIG d   1       4.503  -0.614  -1.548  0.00  0.00    -0.062 A 
ATOM     42  H   LIG d   1       4.995   1.420  -1.106  0.00  0.00     0.062 H 
ATOM     43  C   LIG d   1       3.845  -1.471  -2.409  0.00  0.00    -0.061 A 
ATOM     44  H   LIG d   1       5.034  -1.008  -0.695  0.00  0.00     0.062 H 
ATOM     45  C   LIG d   1       3.162  -0.966  -3.500  0.00  0.00    -0.059 A 
ATOM     46  H   LIG d   1       3.862  -2.535  -2.229  0.00  0.00     0.062 H 
ATOM     47  H   LIG d   1       2.645  -1.636  -4.171  0.00  0.00     0.062 H 
ENDBRANCH  34  37
ENDBRANCH  31  34
ENDBRANCH  28  31
ENDBRANCH  26  28
BRANCH  11  48
ATOM     48  N   LIG d   1       0.568  -4.368 -10.380  0.00  0.00    -0.281 N 
ATOM     49  C   LIG d   1       0.599  -5.338 -11.316  0.00  0.00     0.220 C 
ATOM     50  O   LIG d   1       1.358  -5.247 -12.258  0.00  0.00    -0.275 OA
ATOM     51  H   LIG d   1       0.012  -4.472  -9.592  0.00  0.00     0.155 HD
BRANCH  49  52
ATOM     52  C   LIG d   1      -0.308  -6.535 -11.191  0.00  0.00     0.036 A 
ATOM     53  C   LIG d   1       0.155  -7.679 -10.287  0.00  0.00    -0.041 A 
ATOM     54  C   LIG d   1      -0.988  -6.768  -9.840  0.00  0.00    -0.041 A 
ATOM     55  H   LIG d   1      -0.099  -8.695 -10.590  0.00  0.00     0.027 H 
ATOM     56  H   LIG d   1       1.115  -7.566  -9.782  0.00  0.00     0.027 H 
ATOM     57  H   LIG d   1      -0.781  -6.055  -9.043  0.00  0.00     0.027 H 
ATOM     58  H   LIG d   1      -1.996  -7.182  -9.850  0.00  0.00     0.027 H 
ATOM     59  H   LIG d   1      -0.867  -6.797 -12.089  0.00  0.00     0.039 H 
ENDBRANCH  49  52
ENDBRANCH  11  48
TORSDOF 6
ENDMDL
MODEL 6
REMARK VINA RESULT:      -6.6      2.804      7.267
REMARK  6 active torsions:
REMARK  status: ('A' for Active; 'I' for Inactive)
REMARK    1  A    between atoms: C_4  and  C_7 
REMARK    2  A    between atoms: C_7  and  C_8 
REMARK    3  A    between atoms: C_8  and  C_9 
REMARK    4  A    between atoms: C_9  and  N_58 
REMARK    5  A    between atoms: C_20  and  N_25 
REMARK       I    between atoms: N_25  and  C_26 
REMARK    6  A    between atoms: C_26  and  C_28 
ROOT
ATOM      1  C   LIG d   1       4.800   0.395  -2.439  0.00  0.00    -0.027 C 
ATOM      2  C   LIG d   1       3.451  -0.235  -2.753  0.00  0.00     0.018 C 
ATOM      3  H   LIG d   1       2.728   0.117  -2.017  0.00  0.00     0.037 H 
ATOM      4  C   LIG d   1       3.524  -1.760  -2.649  0.00  0.00    -0.031 C 
ATOM      5  C   LIG d   1       4.627  -2.237  -3.601  0.00  0.00     0.040 C 
ATOM      6  H   LIG d   1       4.693  -3.325  -3.608  0.00  0.00     0.042 H 
ATOM      7  C   LIG d   1       5.955  -1.617  -3.138  0.00  0.00    -0.024 C 
ATOM      8  C   LIG d   1       4.343  -1.715  -4.992  0.00  0.00     0.030 A 
ATOM      9  C   LIG d   1       4.819  -2.437  -6.039  0.00  0.00    -0.040 A 
ATOM     10  C   LIG d   1       4.650  -1.986  -7.353  0.00  0.00    -0.034 A 
ATOM     11  C   LIG d   1       4.015  -0.792  -7.563  0.00  0.00     0.099 A 
ATOM     12  C   LIG d   1       3.536  -0.068  -6.456  0.00  0.00     0.273 A 
ATOM     13  O   LIG d   1       3.018   1.024  -6.626  0.00  0.00    -0.266 OA
ATOM     14  N   LIG d   1       3.644  -0.572  -5.202  0.00  0.00    -0.310 N 
ATOM     15  C   LIG d   1       2.953   0.154  -4.136  0.00  0.00     0.034 C 
ATOM     16  H   LIG d   1       4.738   1.471  -2.598  0.00  0.00     0.082 H 
ATOM     17  H   LIG d   1       5.049   0.201  -1.396  0.00  0.00     0.082 H 
ATOM     18  H   LIG d   1       2.569  -2.197  -2.941  0.00  0.00     0.028 H 
ATOM     19  H   LIG d   1       3.766  -2.050  -1.626  0.00  0.00     0.028 H 
ATOM     20  H   LIG d   1       6.131  -1.863  -2.091  0.00  0.00     0.082 H 
ATOM     21  H   LIG d   1       6.773  -1.999  -3.749  0.00  0.00     0.082 H 
ATOM     22  H   LIG d   1       5.335  -3.368  -5.855  0.00  0.00     0.064 H 
ATOM     23  H   LIG d   1       5.014  -2.569  -8.185  0.00  0.00     0.064 H 
ATOM     24  H   LIG d   1       3.107   1.223  -4.279  0.00  0.00     0.050 H 
ATOM     25  H   LIG d   1       1.885  -0.060  -4.197  0.00  0.00     0.050 H 
ATOM     26  N   LIG d   1       5.849  -0.152  -3.324  0.00  0.00     0.236 N 
ATOM     27  H   LIG d   1       5.596   0.042  -4.300  0.00  0.00     0.203 HD
ENDROOT
BRANCH  26  28
ATOM     28  C   LIG d   1       7.147   0.490  -3.028  0.00  0.00    -0.032 C 
ATOM     29  H   LIG d   1       7.032   1.139  -2.159  0.00  0.00     0.081 H 
ATOM     30  H   LIG d   1       7.907  -0.263  -2.820  0.00  0.00     0.081 H 
BRANCH  28  31
ATOM     31  C   LIG d   1       7.570   1.325  -4.238  0.00  0.00    -0.009 C 
ATOM     32  H   LIG d   1       6.949   2.220  -4.295  0.00  0.00     0.032 H 
ATOM     33  H   LIG d   1       8.616   1.614  -4.133  0.00  0.00     0.032 H 
BRANCH  31  34
ATOM     34  C   LIG d   1       7.393   0.499  -5.513  0.00  0.00    -0.023 C 
ATOM     35  H   LIG d   1       8.037  -0.379  -5.470  0.00  0.00     0.032 H 
ATOM     36  H   LIG d   1       6.354   0.184  -5.601  0.00  0.00     0.032 H 
BRANCH  34  37
ATOM     37  C   LIG d   1       7.767   1.337  -6.709  0.00  0.00    -0.047 A 
ATOM     38  C   LIG d   1       8.807   2.244  -6.621  0.00  0.00    -0.059 A 
ATOM     39  C   LIG d   1       9.149   3.012  -7.717  0.00  0.00    -0.061 A 
ATOM     40  H   LIG d   1       9.352   2.351  -5.694  0.00  0.00     0.062 H 
ATOM     41  C   LIG d   1       8.451   2.875  -8.903  0.00  0.00    -0.062 A 
ATOM     42  H   LIG d   1       9.962   3.721  -7.648  0.00  0.00     0.062 H 
ATOM     43  C   LIG d   1       7.413   1.967  -8.992  0.00  0.00    -0.061 A 
ATOM     44  H   LIG d   1       8.719   3.475  -9.759  0.00  0.00     0.062 H 
ATOM     45  C   LIG d   1       7.073   1.196  -7.897  0.00  0.00    -0.059 A 
ATOM     46  H   LIG d   1       6.868   1.860  -9.918  0.00  0.00     0.062 H 
ATOM     47  H   LIG d   1       6.263   0.485  -7.967  0.00  0.00     0.062 H 
ENDBRANCH  34  37
ENDBRANCH  31  34
ENDBRANCH  28  31
ENDBRANCH  26  28
BRANCH  11  48
ATOM     48  N   LIG d   1       3.844  -0.298  -8.864  0.00  0.00    -0.281 N 
ATOM     49  C   LIG d   1       2.843  -0.766  -9.637  0.00  0.00     0.220 C 
ATOM     50  O   LIG d   1       2.039  -1.550  -9.179  0.00  0.00    -0.275 OA
ATOM     51  H   LIG d   1       4.446   0.381  -9.208  0.00  0.00     0.155 HD
BRANCH  49  52
ATOM     52  C   LIG d   1       2.723  -0.312 -11.069  0.00  0.00     0.036 A 
ATOM     53  C   LIG d   1       3.401  -1.169 -12.140  0.00  0.00    -0.041 A 
ATOM     54  C   LIG d   1       1.877  -1.170 -12.013  0.00  0.00    -0.041 A 
ATOM     55  H   LIG d   1       3.835  -0.654 -12.997  0.00  0.00     0.027 H 
ATOM     56  H   LIG d   1       3.934  -2.061 -11.809  0.00  0.00     0.027 H 
ATOM     57  H   LIG d   1       1.407  -2.061 -11.598  0.00  0.00     0.027 H 
ATOM     58  H   LIG d   1       1.307  -0.655 -12.785  0.00  0.00     0.027 H 
ATOM     59  H   LIG d   1       2.710   0.766 -11.221  0.00  0.00     0.039 H 
ENDBRANCH  49  52
ENDBRANCH  11  48
TORSDOF 6
ENDMDL
MODEL 7
REMARK VINA RESULT:      -6.6      2.626      6.846
REMARK  6 active torsions:
REMARK  status: ('A' for Active; 'I' for Inactive)
REMARK    1  A    between atoms: C_4  and  C_7 
REMARK    2  A    between atoms: C_7  and  C_8 
REMARK    3  A    between atoms: C_8  and  C_9 
REMARK    4  A    between atoms: C_9  and  N_58 
REMARK    5  A    between atoms: C_20  and  N_25 
REMARK       I    between atoms: N_25  and  C_26 
REMARK    6  A    between atoms: C_26  and  C_28 
ROOT
ATOM      1  C   LIG d   1       5.319   1.039  -2.467  0.00  0.00    -0.027 C 
ATOM      2  C   LIG d   1       4.002   0.280  -2.441  0.00  0.00     0.018 C 
ATOM      3  H   LIG d   1       3.391   0.679  -1.632  0.00  0.00     0.037 H 
ATOM      4  C   LIG d   1       4.234  -1.207  -2.164  0.00  0.00    -0.031 C 
ATOM      5  C   LIG d   1       5.191  -1.735  -3.240  0.00  0.00     0.040 C 
ATOM      6  H   LIG d   1       5.357  -2.806  -3.124  0.00  0.00     0.042 H 
ATOM      7  C   LIG d   1       6.516  -0.965  -3.115  0.00  0.00    -0.024 C 
ATOM      8  C   LIG d   1       4.618  -1.431  -4.606  0.00  0.00     0.030 A 
ATOM      9  C   LIG d   1       4.967  -2.258  -5.627  0.00  0.00    -0.040 A 
ATOM     10  C   LIG d   1       4.526  -2.007  -6.931  0.00  0.00    -0.034 A 
ATOM     11  C   LIG d   1       3.755  -0.901  -7.165  0.00  0.00     0.099 A 
ATOM     12  C   LIG d   1       3.413  -0.065  -6.086  0.00  0.00     0.273 A 
ATOM     13  O   LIG d   1       2.773   0.954  -6.289  0.00  0.00    -0.266 OA
ATOM     14  N   LIG d   1       3.789  -0.381  -4.821  0.00  0.00    -0.310 N 
ATOM     15  C   LIG d   1       3.232   0.437  -3.743  0.00  0.00     0.034 C 
ATOM     16  H   LIG d   1       5.130   2.076  -2.744  0.00  0.00     0.082 H 
ATOM     17  H   LIG d   1       5.766   1.010  -1.473  0.00  0.00     0.082 H 
ATOM     18  H   LIG d   1       3.288  -1.746  -2.215  0.00  0.00     0.028 H 
ATOM     19  H   LIG d   1       4.680  -1.335  -1.178  0.00  0.00     0.028 H 
ATOM     20  H   LIG d   1       6.897  -1.050  -2.097  0.00  0.00     0.082 H 
ATOM     21  H   LIG d   1       7.245  -1.370  -3.817  0.00  0.00     0.082 H 
ATOM     22  H   LIG d   1       5.593  -3.115  -5.429  0.00  0.00     0.064 H 
ATOM     23  H   LIG d   1       4.791  -2.673  -7.738  0.00  0.00     0.064 H 
ATOM     24  H   LIG d   1       3.258   1.484  -4.044  0.00  0.00     0.050 H 
ATOM     25  H   LIG d   1       2.195   0.143  -3.576  0.00  0.00     0.050 H 
ATOM     26  N   LIG d   1       6.242   0.448  -3.459  0.00  0.00     0.236 N 
ATOM     27  H   LIG d   1       5.804   0.487  -4.385  0.00  0.00     0.203 HD
ENDROOT
BRANCH  26  28
ATOM     28  C   LIG d   1       7.505   1.214  -3.493  0.00  0.00    -0.032 C 
ATOM     29  H   LIG d   1       7.344   2.188  -3.030  0.00  0.00     0.081 H 
ATOM     30  H   LIG d   1       8.290   0.683  -2.955  0.00  0.00     0.081 H 
BRANCH  28  31
ATOM     31  C   LIG d   1       7.925   1.406  -4.952  0.00  0.00    -0.009 C 
ATOM     32  H   LIG d   1       7.112   1.091  -5.607  0.00  0.00     0.032 H 
ATOM     33  H   LIG d   1       8.150   2.457  -5.131  0.00  0.00     0.032 H 
BRANCH  31  34
ATOM     34  C   LIG d   1       9.168   0.562  -5.239  0.00  0.00    -0.023 C 
ATOM     35  H   LIG d   1       9.914   1.175  -5.745  0.00  0.00     0.032 H 
ATOM     36  H   LIG d   1       9.579   0.189  -4.301  0.00  0.00     0.032 H 
BRANCH  34  37
ATOM     37  C   LIG d   1       8.792  -0.602  -6.120  0.00  0.00    -0.047 A 
ATOM     38  C   LIG d   1       8.942  -1.896  -5.658  0.00  0.00    -0.059 A 
ATOM     39  C   LIG d   1       8.598  -2.963  -6.465  0.00  0.00    -0.061 A 
ATOM     40  H   LIG d   1       9.329  -2.072  -4.664  0.00  0.00     0.062 H 
ATOM     41  C   LIG d   1       8.104  -2.737  -7.737  0.00  0.00    -0.062 A 
ATOM     42  H   LIG d   1       8.716  -3.974  -6.103  0.00  0.00     0.062 H 
ATOM     43  C   LIG d   1       7.952  -1.443  -8.199  0.00  0.00    -0.061 A 
ATOM     44  H   LIG d   1       7.835  -3.571  -8.368  0.00  0.00     0.062 H 
ATOM     45  C   LIG d   1       8.293  -0.376  -7.390  0.00  0.00    -0.059 A 
ATOM     46  H   LIG d   1       7.566  -1.267  -9.191  0.00  0.00     0.062 H 
ATOM     47  H   LIG d   1       8.171   0.635  -7.749  0.00  0.00     0.062 H 
ENDBRANCH  34  37
ENDBRANCH  31  34
ENDBRANCH  28  31
ENDBRANCH  26  28
BRANCH  11  48
ATOM     48  N   LIG d   1       3.311  -0.606  -8.462  0.00  0.00    -0.281 N 
ATOM     49  C   LIG d   1       4.034   0.212  -9.252  0.00  0.00     0.220 C 
ATOM     50  O   LIG d   1       5.111   0.624  -8.874  0.00  0.00    -0.275 OA
ATOM     51  H   LIG d   1       2.483  -0.990  -8.790  0.00  0.00     0.155 HD
BRANCH  49  52
ATOM     52  C   LIG d   1       3.506   0.612 -10.606  0.00  0.00     0.036 A 
ATOM     53  C   LIG d   1       4.114  -0.073 -11.831  0.00  0.00    -0.041 A 
ATOM     54  C   LIG d   1       2.695  -0.427 -11.383  0.00  0.00    -0.041 A 
ATOM     55  H   LIG d   1       4.223   0.522 -12.739  0.00  0.00     0.027 H 
ATOM     56  H   LIG d   1       4.896  -0.813 -11.658  0.00  0.00     0.027 H 
ATOM     57  H   LIG d   1       2.543  -1.398 -10.916  0.00  0.00     0.027 H 
ATOM     58  H   LIG d   1       1.870  -0.065 -11.995  0.00  0.00     0.027 H 
ATOM     59  H   LIG d   1       3.214   1.657 -10.706  0.00  0.00     0.039 H 
ENDBRANCH  49  52
ENDBRANCH  11  48
TORSDOF 6
ENDMDL
MODEL 8
REMARK VINA RESULT:      -6.5      3.720      6.677
REMARK  6 active torsions:
REMARK  status: ('A' for Active; 'I' for Inactive)
REMARK    1  A    between atoms: C_4  and  C_7 
REMARK    2  A    between atoms: C_7  and  C_8 
REMARK    3  A    between atoms: C_8  and  C_9 
REMARK    4  A    between atoms: C_9  and  N_58 
REMARK    5  A    between atoms: C_20  and  N_25 
REMARK       I    between atoms: N_25  and  C_26 
REMARK    6  A    between atoms: C_26  and  C_28 
ROOT
ATOM      1  C   LIG d   1      10.958   3.267  -5.372  0.00  0.00    -0.027 C 
ATOM      2  C   LIG d   1      12.187   4.013  -4.875  0.00  0.00     0.018 C 
ATOM      3  H   LIG d   1      13.018   3.791  -5.545  0.00  0.00     0.037 H 
ATOM      4  C   LIG d   1      12.578   3.546  -3.471  0.00  0.00    -0.031 C 
ATOM      5  C   LIG d   1      11.362   3.752  -2.559  0.00  0.00     0.040 C 
ATOM      6  H   LIG d   1      11.596   3.482  -1.529  0.00  0.00     0.042 H 
ATOM      7  C   LIG d   1      10.212   2.884  -3.099  0.00  0.00    -0.024 C 
ATOM      8  C   LIG d   1      10.918   5.195  -2.641  0.00  0.00     0.030 A 
ATOM      9  C   LIG d   1      10.280   5.714  -1.560  0.00  0.00    -0.040 A 
ATOM     10  C   LIG d   1       9.786   7.023  -1.583  0.00  0.00    -0.034 A 
ATOM     11  C   LIG d   1       9.935   7.764  -2.724  0.00  0.00     0.099 A 
ATOM     12  C   LIG d   1      10.599   7.195  -3.826  0.00  0.00     0.273 A 
ATOM     13  O   LIG d   1      10.690   7.825  -4.868  0.00  0.00    -0.266 OA
ATOM     14  N   LIG d   1      11.138   5.954  -3.743  0.00  0.00    -0.310 N 
ATOM     15  C   LIG d   1      11.971   5.518  -4.865  0.00  0.00     0.034 C 
ATOM     16  H   LIG d   1      10.657   3.675  -6.336  0.00  0.00     0.082 H 
ATOM     17  H   LIG d   1      11.205   2.212  -5.490  0.00  0.00     0.082 H 
ATOM     18  H   LIG d   1      13.418   4.136  -3.105  0.00  0.00     0.028 H 
ATOM     19  H   LIG d   1      12.849   2.491  -3.494  0.00  0.00     0.028 H 
ATOM     20  H   LIG d   1      10.540   1.848  -3.180  0.00  0.00     0.082 H 
ATOM     21  H   LIG d   1       9.356   2.949  -2.427  0.00  0.00     0.082 H 
ATOM     22  H   LIG d   1      10.153   5.110  -0.674  0.00  0.00     0.064 H 
ATOM     23  H   LIG d   1       9.294   7.439  -0.717  0.00  0.00     0.064 H 
ATOM     24  H   LIG d   1      11.489   5.811  -5.797  0.00  0.00     0.050 H 
ATOM     25  H   LIG d   1      12.940   6.011  -4.798  0.00  0.00     0.050 H 
ATOM     26  N   LIG d   1       9.835   3.424  -4.424  0.00  0.00     0.236 N 
ATOM     27  H   LIG d   1       9.617   4.422  -4.328  0.00  0.00     0.203 HD
ENDROOT
BRANCH  26  28
ATOM     28  C   LIG d   1       8.640   2.719  -4.934  0.00  0.00    -0.032 C 
ATOM     29  H   LIG d   1       7.944   3.450  -5.346  0.00  0.00     0.081 H 
ATOM     30  H   LIG d   1       8.919   2.006  -5.711  0.00  0.00     0.081 H 
BRANCH  28  31
ATOM     31  C   LIG d   1       7.974   1.977  -3.774  0.00  0.00    -0.009 C 
ATOM     32  H   LIG d   1       8.697   1.837  -2.970  0.00  0.00     0.032 H 
ATOM     33  H   LIG d   1       7.129   2.560  -3.407  0.00  0.00     0.032 H 
BRANCH  31  34
ATOM     34  C   LIG d   1       7.480   0.612  -4.258  0.00  0.00    -0.023 C 
ATOM     35  H   LIG d   1       7.150   0.692  -5.295  0.00  0.00     0.032 H 
ATOM     36  H   LIG d   1       8.290  -0.113  -4.189  0.00  0.00     0.032 H 
BRANCH  34  37
ATOM     37  C   LIG d   1       6.328   0.161  -3.398  0.00  0.00    -0.047 A 
ATOM     38  C   LIG d   1       6.034  -1.186  -3.286  0.00  0.00    -0.059 A 
ATOM     39  C   LIG d   1       4.978  -1.600  -2.498  0.00  0.00    -0.061 A 
ATOM     40  H   LIG d   1       6.632  -1.914  -3.816  0.00  0.00     0.062 H 
ATOM     41  C   LIG d   1       4.214  -0.667  -1.820  0.00  0.00    -0.062 A 
ATOM     42  H   LIG d   1       4.749  -2.652  -2.411  0.00  0.00     0.062 H 
ATOM     43  C   LIG d   1       4.508   0.678  -1.930  0.00  0.00    -0.061 A 
ATOM     44  H   LIG d   1       3.388  -0.991  -1.204  0.00  0.00     0.062 H 
ATOM     45  C   LIG d   1       5.567   1.093  -2.716  0.00  0.00    -0.059 A 
ATOM     46  H   LIG d   1       3.911   1.406  -1.402  0.00  0.00     0.062 H 
ATOM     47  H   LIG d   1       5.798   2.144  -2.800  0.00  0.00     0.062 H 
ENDBRANCH  34  37
ENDBRANCH  31  34
ENDBRANCH  28  31
ENDBRANCH  26  28
BRANCH  11  48
ATOM     48  N   LIG d   1       9.436   9.072  -2.791  0.00  0.00    -0.281 N 
ATOM     49  C   LIG d   1      10.171  10.100  -2.323  0.00  0.00     0.220 C 
ATOM     50  O   LIG d   1      11.300   9.905  -1.922  0.00  0.00    -0.275 OA
ATOM     51  H   LIG d   1       8.560   9.237  -3.175  0.00  0.00     0.155 HD
BRANCH  49  52
ATOM     52  C   LIG d   1       9.593  11.491  -2.300  0.00  0.00     0.036 A 
ATOM     53  C   LIG d   1       9.834  12.376  -3.525  0.00  0.00    -0.041 A 
ATOM     54  C   LIG d   1       8.444  11.795  -3.264  0.00  0.00    -0.041 A 
ATOM     55  H   LIG d   1       9.974  13.444  -3.356  0.00  0.00     0.027 H 
ATOM     56  H   LIG d   1      10.410  11.952  -4.348  0.00  0.00     0.027 H 
ATOM     57  H   LIG d   1       8.105  10.988  -3.913  0.00  0.00     0.027 H 
ATOM     58  H   LIG d   1       7.668  12.479  -2.921  0.00  0.00     0.027 H 
ATOM     59  H   LIG d   1       9.575  11.976  -1.325  0.00  0.00     0.039 H 
ENDBRANCH  49  52
ENDBRANCH  11  48
TORSDOF 6
ENDMDL
MODEL 9
REMARK VINA RESULT:      -6.5      3.072      5.403
REMARK  6 active torsions:
REMARK  status: ('A' for Active; 'I' for Inactive)
REMARK    1  A    between atoms: C_4  and  C_7 
REMARK    2  A    between atoms: C_7  and  C_8 
REMARK    3  A    between atoms: C_8  and  C_9 
REMARK    4  A    between atoms: C_9  and  N_58 
REMARK    5  A    between atoms: C_20  and  N_25 
REMARK       I    between atoms: N_25  and  C_26 
REMARK    6  A    between atoms: C_26  and  C_28 
ROOT
ATOM      1  C   LIG d   1       9.288   2.649  -6.641  0.00  0.00    -0.027 C 
ATOM      2  C   LIG d   1      10.478   3.592  -6.729  0.00  0.00     0.018 C 
ATOM      3  H   LIG d   1      10.741   3.716  -7.779  0.00  0.00     0.037 H 
ATOM      4  C   LIG d   1      11.693   3.005  -6.007  0.00  0.00    -0.031 C 
ATOM      5  C   LIG d   1      11.279   2.720  -4.558  0.00  0.00     0.040 C 
ATOM      6  H   LIG d   1      12.121   2.345  -3.978  0.00  0.00     0.042 H 
ATOM      7  C   LIG d   1      10.137   1.690  -4.585  0.00  0.00    -0.024 C 
ATOM      8  C   LIG d   1      10.732   3.987  -3.940  0.00  0.00     0.030 A 
ATOM      9  C   LIG d   1      10.842   4.123  -2.593  0.00  0.00    -0.040 A 
ATOM     10  C   LIG d   1      10.305   5.239  -1.941  0.00  0.00    -0.034 A 
ATOM     11  C   LIG d   1       9.647   6.182  -2.683  0.00  0.00     0.099 A 
ATOM     12  C   LIG d   1       9.549   6.010  -4.076  0.00  0.00     0.273 A 
ATOM     13  O   LIG d   1       8.917   6.814  -4.742  0.00  0.00    -0.266 OA
ATOM     14  N   LIG d   1      10.151   4.959  -4.687  0.00  0.00    -0.310 N 
ATOM     15  C   LIG d   1      10.160   4.961  -6.150  0.00  0.00     0.034 C 
ATOM     16  H   LIG d   1       8.419   3.126  -7.093  0.00  0.00     0.082 H 
ATOM     17  H   LIG d   1       9.518   1.734  -7.187  0.00  0.00     0.082 H 
ATOM     18  H   LIG d   1      12.515   3.721  -6.023  0.00  0.00     0.028 H 
ATOM     19  H   LIG d   1      12.001   2.078  -6.493  0.00  0.00     0.028 H 
ATOM     20  H   LIG d   1      10.451   0.807  -5.141  0.00  0.00     0.082 H 
ATOM     21  H   LIG d   1       9.872   1.409  -3.566  0.00  0.00     0.082 H 
ATOM     22  H   LIG d   1      11.347   3.360  -2.019  0.00  0.00     0.064 H 
ATOM     23  H   LIG d   1      10.408   5.353  -0.873  0.00  0.00     0.064 H 
ATOM     24  H   LIG d   1       9.180   5.276  -6.509  0.00  0.00     0.050 H 
ATOM     25  H   LIG d   1      10.909   5.672  -6.498  0.00  0.00     0.050 H 
ATOM     26  N   LIG d   1       8.973   2.336  -5.232  0.00  0.00     0.236 N 
ATOM     27  H   LIG d   1       8.759   3.209  -4.737  0.00  0.00     0.203 HD
ENDROOT
BRANCH  26  28
ATOM     28  C   LIG d   1       7.797   1.443  -5.162  0.00  0.00    -0.032 C 
ATOM     29  H   LIG d   1       7.001   1.855  -5.783  0.00  0.00     0.081 H 
ATOM     30  H   LIG d   1       8.054   0.445  -5.515  0.00  0.00     0.081 H 
BRANCH  28  31
ATOM     31  C   LIG d   1       7.324   1.367  -3.709  0.00  0.00    -0.009 C 
ATOM     32  H   LIG d   1       8.094   1.776  -3.055  0.00  0.00     0.032 H 
ATOM     33  H   LIG d   1       6.405   1.942  -3.595  0.00  0.00     0.032 H 
BRANCH  31  34
ATOM     34  C   LIG d   1       7.061  -0.094  -3.336  0.00  0.00    -0.023 C 
ATOM     35  H   LIG d   1       7.367  -0.740  -4.158  0.00  0.00     0.032 H 
ATOM     36  H   LIG d   1       7.630  -0.348  -2.442  0.00  0.00     0.032 H 
BRANCH  34  37
ATOM     37  C   LIG d   1       5.591  -0.286  -3.066  0.00  0.00    -0.047 A 
ATOM     38  C   LIG d   1       5.052  -1.560  -3.045  0.00  0.00    -0.059 A 
ATOM     39  C   LIG d   1       3.705  -1.736  -2.798  0.00  0.00    -0.061 A 
ATOM     40  H   LIG d   1       5.686  -2.416  -3.222  0.00  0.00     0.062 H 
ATOM     41  C   LIG d   1       2.893  -0.640  -2.572  0.00  0.00    -0.062 A 
ATOM     42  H   LIG d   1       3.284  -2.732  -2.783  0.00  0.00     0.062 H 
ATOM     43  C   LIG d   1       3.431   0.633  -2.591  0.00  0.00    -0.061 A 
ATOM     44  H   LIG d   1       1.840  -0.778  -2.380  0.00  0.00     0.062 H 
ATOM     45  C   LIG d   1       4.780   0.810  -2.835  0.00  0.00    -0.059 A 
ATOM     46  H   LIG d   1       2.798   1.489  -2.415  0.00  0.00     0.062 H 
ATOM     47  H   LIG d   1       5.201   1.804  -2.847  0.00  0.00     0.062 H 
ENDBRANCH  34  37
ENDBRANCH  31  34
ENDBRANCH  28  31
ENDBRANCH  26  28
BRANCH  11  48
ATOM     48  N   LIG d   1       9.079   7.304  -2.063  0.00  0.00    -0.281 N 
ATOM     49  C   LIG d   1       9.825   8.407  -1.851  0.00  0.00     0.220 C 
ATOM     50  O   LIG d   1      10.961   8.461  -2.273  0.00  0.00    -0.275 OA
ATOM     51  H   LIG d   1       8.150   7.287  -1.787  0.00  0.00     0.155 HD
BRANCH  49  52
ATOM     52  C   LIG d   1       9.246   9.573  -1.093  0.00  0.00     0.036 A 
ATOM     53  C   LIG d   1       9.988  10.036   0.163  0.00  0.00    -0.041 A 
ATOM     54  C   LIG d   1      10.031  10.886  -1.108  0.00  0.00    -0.041 A 
ATOM     55  H   LIG d   1       9.388  10.405   0.995  0.00  0.00     0.027 H 
ATOM     56  H   LIG d   1      10.895   9.498   0.439  0.00  0.00     0.027 H 
ATOM     57  H   LIG d   1      10.965  10.906  -1.668  0.00  0.00     0.027 H 
ATOM     58  H   LIG d   1       9.460  11.813  -1.113  0.00  0.00     0.027 H 
ATOM     59  H   LIG d   1       8.158   9.636  -1.087  0.00  0.00     0.039 H 
ENDBRANCH  49  52
ENDBRANCH  11  48
TORSDOF 6
ENDMDL
MODEL 10
REMARK VINA RESULT:      -6.4      3.628      5.707
REMARK  6 active torsions:
REMARK  status: ('A' for Active; 'I' for Inactive)
REMARK    1  A    between atoms: C_4  and  C_7 
REMARK    2  A    between atoms: C_7  and  C_8 
REMARK    3  A    between atoms: C_8  and  C_9 
REMARK    4  A    between atoms: C_9  and  N_58 
REMARK    5  A    between atoms: C_20  and  N_25 
REMARK       I    between atoms: N_25  and  C_26 
REMARK    6  A    between atoms: C_26  and  C_28 
ROOT
ATOM      1  C   LIG d   1       5.322  -2.689 -10.600  0.00  0.00    -0.027 C 
ATOM      2  C   LIG d   1       6.616  -2.516  -9.819  0.00  0.00     0.018 C 
ATOM      3  H   LIG d   1       7.348  -2.036 -10.470  0.00  0.00     0.037 H 
ATOM      4  C   LIG d   1       7.183  -3.873  -9.395  0.00  0.00    -0.031 C 
ATOM      5  C   LIG d   1       6.101  -4.592  -8.581  0.00  0.00     0.040 C 
ATOM      6  H   LIG d   1       6.466  -5.549  -8.207  0.00  0.00     0.042 H 
ATOM      7  C   LIG d   1       4.879  -4.796  -9.491  0.00  0.00    -0.024 C 
ATOM      8  C   LIG d   1       5.669  -3.704  -7.435  0.00  0.00     0.030 A 
ATOM      9  C   LIG d   1       5.187  -4.314  -6.321  0.00  0.00    -0.040 A 
ATOM     10  C   LIG d   1       4.711  -3.559  -5.243  0.00  0.00    -0.034 A 
ATOM     11  C   LIG d   1       4.719  -2.193  -5.340  0.00  0.00     0.099 A 
ATOM     12  C   LIG d   1       5.223  -1.594  -6.509  0.00  0.00     0.273 A 
ATOM     13  O   LIG d   1       5.184  -0.381  -6.632  0.00  0.00    -0.266 OA
ATOM     14  N   LIG d   1       5.752  -2.353  -7.502  0.00  0.00    -0.310 N 
ATOM     15  C   LIG d   1       6.423  -1.642  -8.591  0.00  0.00     0.034 C 
ATOM     16  H   LIG d   1       4.903  -1.708 -10.820  0.00  0.00     0.082 H 
ATOM     17  H   LIG d   1       5.538  -3.203 -11.537  0.00  0.00     0.082 H 
ATOM     18  H   LIG d   1       8.072  -3.727  -8.781  0.00  0.00     0.028 H 
ATOM     19  H   LIG d   1       7.435  -4.461 -10.277  0.00  0.00     0.028 H 
ATOM     20  H   LIG d   1       5.179  -5.322 -10.398  0.00  0.00     0.082 H 
ATOM     21  H   LIG d   1       4.120  -5.375  -8.964  0.00  0.00     0.082 H 
ATOM     22  H   LIG d   1       5.170  -5.392  -6.267  0.00  0.00     0.064 H 
ATOM     23  H   LIG d   1       4.345  -4.044  -4.352  0.00  0.00     0.064 H 
ATOM     24  H   LIG d   1       5.826  -0.773  -8.866  0.00  0.00     0.050 H 
ATOM     25  H   LIG d   1       7.400  -1.304  -8.243  0.00  0.00     0.050 H 
ATOM     26  N   LIG d   1       4.337  -3.457  -9.812  0.00  0.00     0.236 N 
ATOM     27  H   LIG d   1       4.147  -2.956  -8.937  0.00  0.00     0.203 HD
ENDROOT
BRANCH  26  28
ATOM     28  C   LIG d   1       3.076  -3.592 -10.572  0.00  0.00    -0.032 C 
ATOM     29  H   LIG d   1       3.250  -3.293 -11.606  0.00  0.00     0.081 H 
ATOM     30  H   LIG d   1       2.722  -4.622 -10.546  0.00  0.00     0.081 H 
BRANCH  28  31
ATOM     31  C   LIG d   1       2.024  -2.674  -9.945  0.00  0.00    -0.009 C 
ATOM     32  H   LIG d   1       1.100  -3.233  -9.792  0.00  0.00     0.032 H 
ATOM     33  H   LIG d   1       2.389  -2.304  -8.987  0.00  0.00     0.032 H 
BRANCH  31  34
ATOM     34  C   LIG d   1       1.758  -1.493 -10.880  0.00  0.00    -0.023 C 
ATOM     35  H   LIG d   1       2.131  -1.727 -11.877  0.00  0.00     0.032 H 
ATOM     36  H   LIG d   1       0.686  -1.302 -10.929  0.00  0.00     0.032 H 
BRANCH  34  37
ATOM     37  C   LIG d   1       2.461  -0.268 -10.355  0.00  0.00    -0.047 A 
ATOM     38  C   LIG d   1       2.147   0.226  -9.102  0.00  0.00    -0.059 A 
ATOM     39  C   LIG d   1       2.792   1.349  -8.621  0.00  0.00    -0.061 A 
ATOM     40  H   LIG d   1       1.397  -0.266  -8.501  0.00  0.00     0.062 H 
ATOM     41  C   LIG d   1       3.752   1.980  -9.391  0.00  0.00    -0.062 A 
ATOM     42  H   LIG d   1       2.545   1.736  -7.642  0.00  0.00     0.062 H 
ATOM     43  C   LIG d   1       4.068   1.485 -10.642  0.00  0.00    -0.061 A 
ATOM     44  H   LIG d   1       4.255   2.857  -9.015  0.00  0.00     0.062 H 
ATOM     45  C   LIG d   1       3.425   0.359 -11.123  0.00  0.00    -0.059 A 
ATOM     46  H   LIG d   1       4.817   1.977 -11.244  0.00  0.00     0.062 H 
ATOM     47  H   LIG d   1       3.674  -0.030 -12.099  0.00  0.00     0.062 H 
ENDBRANCH  34  37
ENDBRANCH  31  34
ENDBRANCH  28  31
ENDBRANCH  26  28
BRANCH  11  48
ATOM     48  N   LIG d   1       4.232  -1.404  -4.289  0.00  0.00    -0.281 N 
ATOM     49  C   LIG d   1       4.948  -1.276  -3.154  0.00  0.00     0.220 C 
ATOM     50  O   LIG d   1       6.052  -1.774  -3.074  0.00  0.00    -0.275 OA
ATOM     51  H   LIG d   1       3.380  -0.949  -4.379  0.00  0.00     0.155 HD
BRANCH  49  52
ATOM     52  C   LIG d   1       4.378  -0.514  -1.986  0.00  0.00     0.036 A 
ATOM     53  C   LIG d   1       4.788   0.952  -1.833  0.00  0.00    -0.041 A 
ATOM     54  C   LIG d   1       3.372   0.598  -2.291  0.00  0.00    -0.041 A 
ATOM     55  H   LIG d   1       4.908   1.339  -0.821  0.00  0.00     0.027 H 
ATOM     56  H   LIG d   1       5.469   1.366  -2.578  0.00  0.00     0.027 H 
ATOM     57  H   LIG d   1       3.122   0.777  -3.335  0.00  0.00     0.027 H 
ATOM     58  H   LIG d   1       2.561   0.750  -1.580  0.00  0.00     0.027 H 
ATOM     59  H   LIG d   1       4.229  -1.093  -1.075  0.00  0.00     0.039 H 
ENDBRANCH  49  52
ENDBRANCH  11  48
TORSDOF 6
ENDMDL
