MODEL 1
REMARK VINA RESULT:      -5.0      0.000      0.000
REMARK  6 active torsions:
REMARK  status: ('A' for Active; 'I' for Inactive)
REMARK    1  A    between atoms: C_3  and  O_14 
REMARK    2  A    between atoms: C_6  and  C_7 
REMARK    3  A    between atoms: C_7  and  C_8 
REMARK    4  A    between atoms: C_8  and  C_10 
REMARK    5  A    between atoms: C_8  and  N_27 
REMARK       I    between atoms: C_10  and  N_12 
REMARK    6  A    between atoms: N_12  and  N_13 
ROOT
ATOM      1  C   LIG d   1       6.040  -2.320  -5.304  0.00  0.00     0.024 C 
ATOM      2  H   LIG d   1       6.986  -2.021  -5.755  0.00  0.00     0.037 H 
ATOM      3  H   LIG d   1       5.257  -2.305  -6.063  0.00  0.00     0.037 H 
ENDROOT
BRANCH   1   4
ATOM      4  C   LIG d   1       5.686  -1.362  -4.197  0.00  0.00    -0.041 A 
ATOM      5  C   LIG d   1       6.209  -0.082  -4.199  0.00  0.00    -0.055 A 
ATOM      6  C   LIG d   1       5.881   0.800  -3.187  0.00  0.00    -0.020 A 
ATOM      7  H   LIG d   1       6.870   0.230  -4.994  0.00  0.00     0.062 H 
ATOM      8  C   LIG d   1       5.037   0.397  -2.163  0.00  0.00     0.117 A 
ATOM      9  H   LIG d   1       6.286   1.802  -3.192  0.00  0.00     0.065 H 
ATOM     10  C   LIG d   1       4.519  -0.889  -2.160  0.00  0.00    -0.020 A 
ATOM     11  C   LIG d   1       4.844  -1.766  -3.177  0.00  0.00    -0.055 A 
ATOM     12  H   LIG d   1       3.862  -1.205  -1.365  0.00  0.00     0.065 H 
ATOM     13  H   LIG d   1       4.442  -2.768  -3.175  0.00  0.00     0.062 H 
BRANCH   8  14
ATOM     14  O   LIG d   1       4.718   1.262  -1.164  0.00  0.00    -0.507 OA
ATOM     15  H   LIG d   1       4.968   0.954  -0.282  0.00  0.00     0.292 HD
ENDBRANCH   8  14
ENDBRANCH   1   4
BRANCH   1  16
ATOM     16  C   LIG d   1       6.171  -3.733  -4.734  0.00  0.00     0.058 C 
ATOM     17  H   LIG d   1       5.876  -3.731  -3.685  0.00  0.00     0.095 H 
BRANCH  16  18
ATOM     18  C   LIG d   1       5.278  -4.672  -5.504  0.00  0.00     0.275 C 
ATOM     19  O   LIG d   1       5.705  -5.744  -5.878  0.00  0.00    -0.268 OA
ATOM     20  N   LIG d   1       4.007  -4.320  -5.778  0.00  0.00    -0.249 N 
ATOM     21  H   LIG d   1       3.666  -3.462  -5.478  0.00  0.00     0.169 HD
BRANCH  20  22
ATOM     22  N   LIG d   1       3.199  -5.168  -6.481  0.00  0.00    -0.254 NA
ATOM     23  H   LIG d   1       2.846  -5.905  -5.888  0.00  0.00     0.141 HD
ATOM     24  H   LIG d   1       2.444  -4.666  -6.922  0.00  0.00     0.141 HD
ENDBRANCH  20  22
ENDBRANCH  16  18
BRANCH  16  25
ATOM     25  N   LIG d   1       7.578  -4.162  -4.836  0.00  0.00     0.228 N 
ATOM     26  H   LIG d   1       8.154  -3.626  -4.190  0.00  0.00     0.200 HD
ATOM     27  H   LIG d   1       7.657  -5.154  -4.619  0.00  0.00     0.200 HD
ATOM     28  H   LIG d   1       7.911  -4.002  -5.794  0.00  0.00     0.200 HD
ENDBRANCH  16  25
ENDBRANCH   1  16
TORSDOF 6
ENDMDL
MODEL 2
REMARK VINA RESULT:      -5.0      2.984      5.069
REMARK  6 active torsions:
REMARK  status: ('A' for Active; 'I' for Inactive)
REMARK    1  A    between atoms: C_3  and  O_14 
REMARK    2  A    between atoms: C_6  and  C_7 
REMARK    3  A    between atoms: C_7  and  C_8 
REMARK    4  A    between atoms: C_8  and  C_10 
REMARK    5  A    between atoms: C_8  and  N_27 
REMARK       I    between atoms: C_10  and  N_12 
REMARK    6  A    between atoms: N_12  and  N_13 
ROOT
ATOM      1  C   LIG d   1       4.478  -1.371  -2.424  0.00  0.00     0.024 C 
ATOM      2  H   LIG d   1       4.763  -1.505  -1.381  0.00  0.00     0.037 H 
ATOM      3  H   LIG d   1       3.460  -1.731  -2.571  0.00  0.00     0.037 H 
ENDROOT
BRANCH   1   4
ATOM      4  C   LIG d   1       5.420  -2.150  -3.306  0.00  0.00    -0.041 A 
ATOM      5  C   LIG d   1       6.780  -1.901  -3.251  0.00  0.00    -0.055 A 
ATOM      6  C   LIG d   1       7.645  -2.618  -4.055  0.00  0.00    -0.020 A 
ATOM      7  H   LIG d   1       7.165  -1.151  -2.578  0.00  0.00     0.062 H 
ATOM      8  C   LIG d   1       7.149  -3.578  -4.924  0.00  0.00     0.117 A 
ATOM      9  H   LIG d   1       8.708  -2.427  -4.009  0.00  0.00     0.065 H 
ATOM     10  C   LIG d   1       5.785  -3.820  -4.982  0.00  0.00    -0.020 A 
ATOM     11  C   LIG d   1       4.923  -3.106  -4.171  0.00  0.00    -0.055 A 
ATOM     12  H   LIG d   1       5.396  -4.567  -5.656  0.00  0.00     0.065 H 
ATOM     13  H   LIG d   1       3.861  -3.294  -4.215  0.00  0.00     0.062 H 
BRANCH   8  14
ATOM     14  O   LIG d   1       7.999  -4.280  -5.719  0.00  0.00    -0.507 OA
ATOM     15  H   LIG d   1       8.223  -5.157  -5.379  0.00  0.00     0.292 HD
ENDBRANCH   8  14
ENDBRANCH   1   4
BRANCH   1  16
ATOM     16  C   LIG d   1       4.552   0.114  -2.784  0.00  0.00     0.058 C 
ATOM     17  H   LIG d   1       5.482   0.312  -3.317  0.00  0.00     0.095 H 
BRANCH  16  18
ATOM     18  C   LIG d   1       3.383   0.477  -3.664  0.00  0.00     0.275 C 
ATOM     19  O   LIG d   1       3.230   1.625  -4.025  0.00  0.00    -0.268 OA
ATOM     20  N   LIG d   1       2.508  -0.473  -4.048  0.00  0.00    -0.249 N 
ATOM     21  H   LIG d   1       2.630  -1.391  -3.759  0.00  0.00     0.169 HD
BRANCH  20  22
ATOM     22  N   LIG d   1       1.445  -0.143  -4.840  0.00  0.00    -0.254 NA
ATOM     23  H   LIG d   1       0.871  -0.951  -5.030  0.00  0.00     0.141 HD
ATOM     24  H   LIG d   1       0.902   0.599  -4.426  0.00  0.00     0.141 HD
ENDBRANCH  20  22
ENDBRANCH  16  18
BRANCH  16  25
ATOM     25  N   LIG d   1       4.530   0.910  -1.545  0.00  0.00     0.228 N 
ATOM     26  H   LIG d   1       3.899   0.485  -0.867  0.00  0.00     0.200 HD
ATOM     27  H   LIG d   1       5.466   0.965  -1.148  0.00  0.00     0.200 HD
ATOM     28  H   LIG d   1       4.201   1.859  -1.759  0.00  0.00     0.200 HD
ENDBRANCH  16  25
ENDBRANCH   1  16
TORSDOF 6
ENDMDL
MODEL 3
REMARK VINA RESULT:      -4.9     11.237     13.280
REMARK  6 active torsions:
REMARK  status: ('A' for Active; 'I' for Inactive)
REMARK    1  A    between atoms: C_3  and  O_14 
REMARK    2  A    between atoms: C_6  and  C_7 
REMARK    3  A    between atoms: C_7  and  C_8 
REMARK    4  A    between atoms: C_8  and  C_10 
REMARK    5  A    between atoms: C_8  and  N_27 
REMARK       I    between atoms: C_10  and  N_12 
REMARK    6  A    between atoms: N_12  and  N_13 
ROOT
ATOM      1  C   LIG d   1       9.668   9.410  -0.332  0.00  0.00     0.024 C 
ATOM      2  H   LIG d   1       9.775   9.643   0.727  0.00  0.00     0.037 H 
ATOM      3  H   LIG d   1       8.628   9.543  -0.629  0.00  0.00     0.037 H 
ENDROOT
BRANCH   1   4
ATOM      4  C   LIG d   1      10.082   7.982  -0.575  0.00  0.00    -0.041 A 
ATOM      5  C   LIG d   1      10.877   7.328   0.348  0.00  0.00    -0.055 A 
ATOM      6  C   LIG d   1      11.254   6.016   0.130  0.00  0.00    -0.020 A 
ATOM      7  H   LIG d   1      11.201   7.840   1.242  0.00  0.00     0.062 H 
ATOM      8  C   LIG d   1      10.843   5.360  -1.021  0.00  0.00     0.117 A 
ATOM      9  H   LIG d   1      11.871   5.504   0.853  0.00  0.00     0.065 H 
ATOM     10  C   LIG d   1      10.051   6.020  -1.949  0.00  0.00    -0.020 A 
ATOM     11  C   LIG d   1       9.672   7.330  -1.723  0.00  0.00    -0.055 A 
ATOM     12  H   LIG d   1       9.730   5.512  -2.845  0.00  0.00     0.065 H 
ATOM     13  H   LIG d   1       9.055   7.845  -2.445  0.00  0.00     0.062 H 
BRANCH   8  14
ATOM     14  O   LIG d   1      11.217   4.072  -1.240  0.00  0.00    -0.507 OA
ATOM     15  H   LIG d   1      10.509   3.509  -1.583  0.00  0.00     0.292 HD
ENDBRANCH   8  14
ENDBRANCH   1   4
BRANCH   1  16
ATOM     16  C   LIG d   1      10.557  10.346  -1.152  0.00  0.00     0.058 C 
ATOM     17  H   LIG d   1      11.245   9.755  -1.758  0.00  0.00     0.095 H 
BRANCH  16  18
ATOM     18  C   LIG d   1       9.698  11.196  -2.053  0.00  0.00     0.275 C 
ATOM     19  O   LIG d   1      10.172  12.170  -2.599  0.00  0.00    -0.268 OA
ATOM     20  N   LIG d   1       8.404  10.874  -2.250  0.00  0.00    -0.249 N 
ATOM     21  H   LIG d   1       8.026  10.095  -1.813  0.00  0.00     0.169 HD
BRANCH  20  22
ATOM     22  N   LIG d   1       7.624  11.648  -3.062  0.00  0.00    -0.254 NA
ATOM     23  H   LIG d   1       7.973  12.594  -3.103  0.00  0.00     0.141 HD
ATOM     24  H   LIG d   1       7.554  11.247  -3.985  0.00  0.00     0.141 HD
ENDBRANCH  20  22
ENDBRANCH  16  18
BRANCH  16  25
ATOM     25  N   LIG d   1      11.336  11.195  -0.233  0.00  0.00     0.228 N 
ATOM     26  H   LIG d   1      10.989  12.152  -0.262  0.00  0.00     0.200 HD
ATOM     27  H   LIG d   1      11.265  10.837   0.718  0.00  0.00     0.200 HD
ATOM     28  H   LIG d   1      12.322  11.187  -0.521  0.00  0.00     0.200 HD
ENDBRANCH  16  25
ENDBRANCH   1  16
TORSDOF 6
ENDMDL
MODEL 4
REMARK VINA RESULT:      -4.9      3.325      4.644
REMARK  6 active torsions:
REMARK  status: ('A' for Active; 'I' for Inactive)
REMARK    1  A    between atoms: C_3  and  O_14 
REMARK    2  A    between atoms: C_6  and  C_7 
REMARK    3  A    between atoms: C_7  and  C_8 
REMARK    4  A    between atoms: C_8  and  C_10 
REMARK    5  A    between atoms: C_8  and  N_27 
REMARK       I    between atoms: C_10  and  N_12 
REMARK    6  A    between atoms: N_12  and  N_13 
ROOT
ATOM      1  C   LIG d   1       3.882   0.114  -2.235  0.00  0.00     0.024 C 
ATOM      2  H   LIG d   1       3.664   1.150  -1.977  0.00  0.00     0.037 H 
ATOM      3  H   LIG d   1       3.849  -0.499  -1.334  0.00  0.00     0.037 H 
ENDROOT
BRANCH   1   4
ATOM      4  C   LIG d   1       5.254   0.028  -2.852  0.00  0.00    -0.041 A 
ATOM      5  C   LIG d   1       5.826  -1.208  -3.091  0.00  0.00    -0.055 A 
ATOM      6  C   LIG d   1       7.082  -1.290  -3.662  0.00  0.00    -0.020 A 
ATOM      7  H   LIG d   1       5.290  -2.110  -2.835  0.00  0.00     0.062 H 
ATOM      8  C   LIG d   1       7.772  -0.131  -3.985  0.00  0.00     0.117 A 
ATOM      9  H   LIG d   1       7.526  -2.256  -3.853  0.00  0.00     0.065 H 
ATOM     10  C   LIG d   1       7.199   1.107  -3.739  0.00  0.00    -0.020 A 
ATOM     11  C   LIG d   1       5.941   1.184  -3.174  0.00  0.00    -0.055 A 
ATOM     12  H   LIG d   1       7.734   2.010  -3.990  0.00  0.00     0.065 H 
ATOM     13  H   LIG d   1       5.493   2.148  -2.982  0.00  0.00     0.062 H 
BRANCH   8  14
ATOM     14  O   LIG d   1       9.009  -0.209  -4.542  0.00  0.00    -0.507 OA
ATOM     15  H   LIG d   1       9.656   0.394  -4.152  0.00  0.00     0.292 HD
ENDBRANCH   8  14
ENDBRANCH   1   4
BRANCH   1  16
ATOM     16  C   LIG d   1       2.840  -0.392  -3.234  0.00  0.00     0.058 C 
ATOM     17  H   LIG d   1       1.848  -0.330  -2.786  0.00  0.00     0.095 H 
BRANCH  16  18
ATOM     18  C   LIG d   1       2.882   0.457  -4.479  0.00  0.00     0.275 C 
ATOM     19  O   LIG d   1       2.767   1.661  -4.396  0.00  0.00    -0.268 OA
ATOM     20  N   LIG d   1       3.045  -0.124  -5.684  0.00  0.00    -0.249 N 
ATOM     21  H   LIG d   1       3.137  -1.087  -5.750  0.00  0.00     0.169 HD
BRANCH  20  22
ATOM     22  N   LIG d   1       3.078   0.645  -6.814  0.00  0.00    -0.254 NA
ATOM     23  H   LIG d   1       2.950   1.620  -6.590  0.00  0.00     0.141 HD
ATOM     24  H   LIG d   1       3.934   0.499  -7.325  0.00  0.00     0.141 HD
ENDBRANCH  20  22
ENDBRANCH  16  18
BRANCH  16  25
ATOM     25  N   LIG d   1       3.132  -1.799  -3.559  0.00  0.00     0.228 N 
ATOM     26  H   LIG d   1       2.606  -2.417  -2.944  0.00  0.00     0.200 HD
ATOM     27  H   LIG d   1       2.883  -1.992  -4.528  0.00  0.00     0.200 HD
ATOM     28  H   LIG d   1       4.136  -1.974  -3.431  0.00  0.00     0.200 HD
ENDBRANCH  16  25
ENDBRANCH   1  16
TORSDOF 6
ENDMDL
MODEL 5
REMARK VINA RESULT:      -4.8      4.961      6.491
REMARK  6 active torsions:
REMARK  status: ('A' for Active; 'I' for Inactive)
REMARK    1  A    between atoms: C_3  and  O_14 
REMARK    2  A    between atoms: C_6  and  C_7 
REMARK    3  A    between atoms: C_7  and  C_8 
REMARK    4  A    between atoms: C_8  and  C_10 
REMARK    5  A    between atoms: C_8  and  N_27 
REMARK       I    between atoms: C_10  and  N_12 
REMARK    6  A    between atoms: N_12  and  N_13 
ROOT
ATOM      1  C   LIG d   1       2.539   0.232  -5.729  0.00  0.00     0.024 C 
ATOM      2  H   LIG d   1       1.661  -0.411  -5.665  0.00  0.00     0.037 H 
ATOM      3  H   LIG d   1       2.324   1.188  -5.251  0.00  0.00     0.037 H 
ENDROOT
BRANCH   1   4
ATOM      4  C   LIG d   1       2.888   0.460  -7.177  0.00  0.00    -0.041 A 
ATOM      5  C   LIG d   1       3.268  -0.607  -7.971  0.00  0.00    -0.055 A 
ATOM      6  C   LIG d   1       3.583  -0.401  -9.301  0.00  0.00    -0.020 A 
ATOM      7  H   LIG d   1       3.313  -1.602  -7.554  0.00  0.00     0.062 H 
ATOM      8  C   LIG d   1       3.531   0.878  -9.835  0.00  0.00     0.117 A 
ATOM      9  H   LIG d   1       3.875  -1.235  -9.922  0.00  0.00     0.065 H 
ATOM     10  C   LIG d   1       3.157   1.947  -9.034  0.00  0.00    -0.020 A 
ATOM     11  C   LIG d   1       2.836   1.736  -7.707  0.00  0.00    -0.055 A 
ATOM     12  H   LIG d   1       3.115   2.943  -9.448  0.00  0.00     0.065 H 
ATOM     13  H   LIG d   1       2.544   2.568  -7.084  0.00  0.00     0.062 H 
BRANCH   8  14
ATOM     14  O   LIG d   1       3.847   1.084 -11.140  0.00  0.00    -0.507 OA
ATOM     15  H   LIG d   1       4.072   2.000 -11.352  0.00  0.00     0.292 HD
ENDBRANCH   8  14
ENDBRANCH   1   4
BRANCH   1  16
ATOM     16  C   LIG d   1       3.716  -0.440  -5.020  0.00  0.00     0.058 C 
ATOM     17  H   LIG d   1       4.423  -0.812  -5.762  0.00  0.00     0.095 H 
BRANCH  16  18
ATOM     18  C   LIG d   1       4.405   0.562  -4.129  0.00  0.00     0.275 C 
ATOM     19  O   LIG d   1       3.749   1.368  -3.503  0.00  0.00    -0.268 OA
ATOM     20  N   LIG d   1       5.749   0.562  -4.029  0.00  0.00    -0.249 N 
ATOM     21  H   LIG d   1       6.272  -0.083  -4.530  0.00  0.00     0.169 HD
BRANCH  20  22
ATOM     22  N   LIG d   1       6.374   1.474  -3.226  0.00  0.00    -0.254 NA
ATOM     23  H   LIG d   1       7.363   1.508  -3.421  0.00  0.00     0.141 HD
ATOM     24  H   LIG d   1       5.954   2.386  -3.321  0.00  0.00     0.141 HD
ENDBRANCH  20  22
ENDBRANCH  16  18
BRANCH  16  25
ATOM     25  N   LIG d   1       3.212  -1.575  -4.226  0.00  0.00     0.228 N 
ATOM     26  H   LIG d   1       3.567  -1.519  -3.273  0.00  0.00     0.200 HD
ATOM     27  H   LIG d   1       2.194  -1.566  -4.211  0.00  0.00     0.200 HD
ATOM     28  H   LIG d   1       3.533  -2.453  -4.651  0.00  0.00     0.200 HD
ENDBRANCH  16  25
ENDBRANCH   1  16
TORSDOF 6
ENDMDL
MODEL 6
REMARK VINA RESULT:      -4.6      6.660      7.040
REMARK  6 active torsions:
REMARK  status: ('A' for Active; 'I' for Inactive)
REMARK    1  A    between atoms: C_3  and  O_14 
REMARK    2  A    between atoms: C_6  and  C_7 
REMARK    3  A    between atoms: C_7  and  C_8 
REMARK    4  A    between atoms: C_8  and  C_10 
REMARK    5  A    between atoms: C_8  and  N_27 
REMARK       I    between atoms: C_10  and  N_12 
REMARK    6  A    between atoms: N_12  and  N_13 
ROOT
ATOM      1  C   LIG d   1       1.508  -0.571  -9.531  0.00  0.00     0.024 C 
ATOM      2  H   LIG d   1       0.617   0.051  -9.615  0.00  0.00     0.037 H 
ATOM      3  H   LIG d   1       1.447  -1.171  -8.623  0.00  0.00     0.037 H 
ENDROOT
BRANCH   1   4
ATOM      4  C   LIG d   1       2.731   0.307  -9.475  0.00  0.00    -0.041 A 
ATOM      5  C   LIG d   1       2.618   1.620  -9.055  0.00  0.00    -0.055 A 
ATOM      6  C   LIG d   1       3.740   2.425  -8.998  0.00  0.00    -0.020 A 
ATOM      7  H   LIG d   1       1.655   2.014  -8.768  0.00  0.00     0.062 H 
ATOM      8  C   LIG d   1       4.975   1.920  -9.373  0.00  0.00     0.117 A 
ATOM      9  H   LIG d   1       3.652   3.449  -8.665  0.00  0.00     0.065 H 
ATOM     10  C   LIG d   1       5.084   0.605  -9.800  0.00  0.00    -0.020 A 
ATOM     11  C   LIG d   1       3.962  -0.199  -9.850  0.00  0.00    -0.055 A 
ATOM     12  H   LIG d   1       6.045   0.209 -10.091  0.00  0.00     0.065 H 
ATOM     13  H   LIG d   1       4.046  -1.223 -10.182  0.00  0.00     0.062 H 
BRANCH   8  14
ATOM     14  O   LIG d   1       6.078   2.712  -9.322  0.00  0.00    -0.507 OA
ATOM     15  H   LIG d   1       5.882   3.657  -9.271  0.00  0.00     0.292 HD
ENDBRANCH   8  14
ENDBRANCH   1   4
BRANCH   1  16
ATOM     16  C   LIG d   1       1.598  -1.496 -10.747  0.00  0.00     0.058 C 
ATOM     17  H   LIG d   1       2.575  -1.381 -11.219  0.00  0.00     0.095 H 
BRANCH  16  18
ATOM     18  C   LIG d   1       1.420  -2.926 -10.306  0.00  0.00     0.275 C 
ATOM     19  O   LIG d   1       2.378  -3.568  -9.930  0.00  0.00    -0.268 OA
ATOM     20  N   LIG d   1       0.197  -3.491 -10.332  0.00  0.00    -0.249 N 
ATOM     21  H   LIG d   1      -0.569  -2.977 -10.633  0.00  0.00     0.169 HD
BRANCH  20  22
ATOM     22  N   LIG d   1       0.036  -4.790  -9.938  0.00  0.00    -0.254 NA
ATOM     23  H   LIG d   1       0.675  -5.398 -10.428  0.00  0.00     0.141 HD
ATOM     24  H   LIG d   1       0.143  -4.881  -8.940  0.00  0.00     0.141 HD
ENDBRANCH  20  22
ENDBRANCH  16  18
BRANCH  16  25
ATOM     25  N   LIG d   1       0.551  -1.121 -11.714  0.00  0.00     0.228 N 
ATOM     26  H   LIG d   1       0.221  -1.947 -12.209  0.00  0.00     0.200 HD
ATOM     27  H   LIG d   1      -0.229  -0.681 -11.230  0.00  0.00     0.200 HD
ATOM     28  H   LIG d   1       0.941  -0.456 -12.393  0.00  0.00     0.200 HD
ENDBRANCH  16  25
ENDBRANCH   1  16
TORSDOF 6
ENDMDL
MODEL 7
REMARK VINA RESULT:      -4.6      4.341      4.802
REMARK  6 active torsions:
REMARK  status: ('A' for Active; 'I' for Inactive)
REMARK    1  A    between atoms: C_3  and  O_14 
REMARK    2  A    between atoms: C_6  and  C_7 
REMARK    3  A    between atoms: C_7  and  C_8 
REMARK    4  A    between atoms: C_8  and  C_10 
REMARK    5  A    between atoms: C_8  and  N_27 
REMARK       I    between atoms: C_10  and  N_12 
REMARK    6  A    between atoms: N_12  and  N_13 
ROOT
ATOM      1  C   LIG d   1       2.985   0.653  -6.888  0.00  0.00     0.024 C 
ATOM      2  H   LIG d   1       3.155   1.713  -6.701  0.00  0.00     0.037 H 
ATOM      3  H   LIG d   1       1.959   0.504  -7.226  0.00  0.00     0.037 H 
ENDROOT
BRANCH   1   4
ATOM      4  C   LIG d   1       3.213  -0.124  -5.617  0.00  0.00    -0.041 A 
ATOM      5  C   LIG d   1       2.426   0.124  -4.507  0.00  0.00    -0.055 A 
ATOM      6  C   LIG d   1       2.630  -0.591  -3.342  0.00  0.00    -0.020 A 
ATOM      7  H   LIG d   1       1.649   0.872  -4.552  0.00  0.00     0.062 H 
ATOM      8  C   LIG d   1       3.632  -1.548  -3.283  0.00  0.00     0.117 A 
ATOM      9  H   LIG d   1       2.011  -0.401  -2.477  0.00  0.00     0.065 H 
ATOM     10  C   LIG d   1       4.425  -1.789  -4.395  0.00  0.00    -0.020 A 
ATOM     11  C   LIG d   1       4.213  -1.077  -5.560  0.00  0.00    -0.055 A 
ATOM     12  H   LIG d   1       5.205  -2.533  -4.352  0.00  0.00     0.065 H 
ATOM     13  H   LIG d   1       4.830  -1.264  -6.426  0.00  0.00     0.062 H 
BRANCH   8  14
ATOM     14  O   LIG d   1       3.837  -2.248  -2.136  0.00  0.00    -0.507 OA
ATOM     15  H   LIG d   1       4.011  -3.189  -2.275  0.00  0.00     0.292 HD
ENDBRANCH   8  14
ENDBRANCH   1   4
BRANCH   1  16
ATOM     16  C   LIG d   1       3.953   0.164  -7.966  0.00  0.00     0.058 C 
ATOM     17  H   LIG d   1       4.552  -0.658  -7.571  0.00  0.00     0.095 H 
BRANCH  16  18
ATOM     18  C   LIG d   1       3.174  -0.314  -9.164  0.00  0.00     0.275 C 
ATOM     19  O   LIG d   1       3.740  -0.501 -10.220  0.00  0.00    -0.268 OA
ATOM     20  N   LIG d   1       1.848  -0.531  -9.062  0.00  0.00    -0.249 N 
ATOM     21  H   LIG d   1       1.395  -0.382  -8.217  0.00  0.00     0.169 HD
BRANCH  20  22
ATOM     22  N   LIG d   1       1.140  -0.959 -10.150  0.00  0.00    -0.254 NA
ATOM     23  H   LIG d   1       0.323  -1.480  -9.867  0.00  0.00     0.141 HD
ATOM     24  H   LIG d   1       0.888  -0.184 -10.744  0.00  0.00     0.141 HD
ENDBRANCH  20  22
ENDBRANCH  16  18
BRANCH  16  25
ATOM     25  N   LIG d   1       4.850   1.271  -8.343  0.00  0.00     0.228 N 
ATOM     26  H   LIG d   1       4.616   1.608  -9.275  0.00  0.00     0.200 HD
ATOM     27  H   LIG d   1       4.763   2.034  -7.674  0.00  0.00     0.200 HD
ATOM     28  H   LIG d   1       5.820   0.934  -8.343  0.00  0.00     0.200 HD
ENDBRANCH  16  25
ENDBRANCH   1  16
TORSDOF 6
ENDMDL
MODEL 8
REMARK VINA RESULT:      -4.6     10.532     12.012
REMARK  6 active torsions:
REMARK  status: ('A' for Active; 'I' for Inactive)
REMARK    1  A    between atoms: C_3  and  O_14 
REMARK    2  A    between atoms: C_6  and  C_7 
REMARK    3  A    between atoms: C_7  and  C_8 
REMARK    4  A    between atoms: C_8  and  C_10 
REMARK    5  A    between atoms: C_8  and  N_27 
REMARK       I    between atoms: C_10  and  N_12 
REMARK    6  A    between atoms: N_12  and  N_13 
ROOT
ATOM      1  C   LIG d   1       9.881   6.108  -1.559  0.00  0.00     0.024 C 
ATOM      2  H   LIG d   1       9.649   5.700  -2.543  0.00  0.00     0.037 H 
ATOM      3  H   LIG d   1       9.174   5.716  -0.828  0.00  0.00     0.037 H 
ENDROOT
BRANCH   1   4
ATOM      4  C   LIG d   1       9.779   7.611  -1.602  0.00  0.00    -0.041 A 
ATOM      5  C   LIG d   1      10.614   8.335  -2.434  0.00  0.00    -0.055 A 
ATOM      6  C   LIG d   1      10.519   9.713  -2.479  0.00  0.00    -0.020 A 
ATOM      7  H   LIG d   1      11.338   7.824  -3.051  0.00  0.00     0.062 H 
ATOM      8  C   LIG d   1       9.594  10.369  -1.681  0.00  0.00     0.117 A 
ATOM      9  H   LIG d   1      11.168  10.277  -3.132  0.00  0.00     0.065 H 
ATOM     10  C   LIG d   1       8.762   9.642  -0.843  0.00  0.00    -0.020 A 
ATOM     11  C   LIG d   1       8.857   8.264  -0.806  0.00  0.00    -0.055 A 
ATOM     12  H   LIG d   1       8.041  10.150  -0.223  0.00  0.00     0.065 H 
ATOM     13  H   LIG d   1       8.210   7.696  -0.154  0.00  0.00     0.062 H 
BRANCH   8  14
ATOM     14  O   LIG d   1       9.502  11.725  -1.721  0.00  0.00    -0.507 OA
ATOM     15  H   LIG d   1       8.727  12.081  -1.266  0.00  0.00     0.292 HD
ENDBRANCH   8  14
ENDBRANCH   1   4
BRANCH   1  16
ATOM     16  C   LIG d   1      11.302   5.704  -1.163  0.00  0.00     0.058 C 
ATOM     17  H   LIG d   1      12.019   6.231  -1.793  0.00  0.00     0.095 H 
BRANCH  16  18
ATOM     18  C   LIG d   1      11.544   6.065   0.281  0.00  0.00     0.275 C 
ATOM     19  O   LIG d   1      12.406   6.870   0.568  0.00  0.00    -0.268 OA
ATOM     20  N   LIG d   1      10.806   5.493   1.251  0.00  0.00    -0.249 N 
ATOM     21  H   LIG d   1      10.117   4.850   1.021  0.00  0.00     0.169 HD
BRANCH  20  22
ATOM     22  N   LIG d   1      11.029   5.816   2.560  0.00  0.00    -0.254 NA
ATOM     23  H   LIG d   1      11.111   4.986   3.128  0.00  0.00     0.141 HD
ATOM     24  H   LIG d   1      11.845   6.401   2.654  0.00  0.00     0.141 HD
ENDBRANCH  20  22
ENDBRANCH  16  18
BRANCH  16  25
ATOM     25  N   LIG d   1      11.462   4.253  -1.364  0.00  0.00     0.228 N 
ATOM     26  H   LIG d   1      12.313   3.928  -0.908  0.00  0.00     0.200 HD
ATOM     27  H   LIG d   1      10.660   3.757  -0.979  0.00  0.00     0.200 HD
ATOM     28  H   LIG d   1      11.526   4.057  -2.370  0.00  0.00     0.200 HD
ENDBRANCH  16  25
ENDBRANCH   1  16
TORSDOF 6
ENDMDL
MODEL 9
REMARK VINA RESULT:      -4.4     10.298     10.902
REMARK  6 active torsions:
REMARK  status: ('A' for Active; 'I' for Inactive)
REMARK    1  A    between atoms: C_3  and  O_14 
REMARK    2  A    between atoms: C_6  and  C_7 
REMARK    3  A    between atoms: C_7  and  C_8 
REMARK    4  A    between atoms: C_8  and  C_10 
REMARK    5  A    between atoms: C_8  and  N_27 
REMARK       I    between atoms: C_10  and  N_12 
REMARK    6  A    between atoms: N_12  and  N_13 
ROOT
ATOM      1  C   LIG d   1       8.835   6.766  -4.715  0.00  0.00     0.024 C 
ATOM      2  H   LIG d   1       7.890   7.195  -4.383  0.00  0.00     0.037 H 
ATOM      3  H   LIG d   1       8.640   5.979  -5.443  0.00  0.00     0.037 H 
ENDROOT
BRANCH   1   4
ATOM      4  C   LIG d   1       9.568   6.188  -3.532  0.00  0.00    -0.041 A 
ATOM      5  C   LIG d   1       9.497   6.818  -2.302  0.00  0.00    -0.055 A 
ATOM      6  C   LIG d   1      10.163   6.286  -1.215  0.00  0.00    -0.020 A 
ATOM      7  H   LIG d   1       8.917   7.721  -2.191  0.00  0.00     0.062 H 
ATOM      8  C   LIG d   1      10.913   5.128  -1.360  0.00  0.00     0.117 A 
ATOM      9  H   LIG d   1      10.104   6.776  -0.253  0.00  0.00     0.065 H 
ATOM     10  C   LIG d   1      10.988   4.503  -2.596  0.00  0.00    -0.020 A 
ATOM     11  C   LIG d   1      10.315   5.034  -3.679  0.00  0.00    -0.055 A 
ATOM     12  H   LIG d   1      11.570   3.602  -2.711  0.00  0.00     0.065 H 
ATOM     13  H   LIG d   1      10.372   4.548  -4.641  0.00  0.00     0.062 H 
BRANCH   8  14
ATOM     14  O   LIG d   1      11.574   4.607  -0.293  0.00  0.00    -0.507 OA
ATOM     15  H   LIG d   1      12.248   3.955  -0.527  0.00  0.00     0.292 HD
ENDBRANCH   8  14
ENDBRANCH   1   4
BRANCH   1  16
ATOM     16  C   LIG d   1       9.690   7.858  -5.361  0.00  0.00     0.058 C 
ATOM     17  H   LIG d   1      10.744   7.656  -5.167  0.00  0.00     0.095 H 
BRANCH  16  18
ATOM     18  C   LIG d   1       9.447   7.875  -6.848  0.00  0.00     0.275 C 
ATOM     19  O   LIG d   1       9.739   6.908  -7.520  0.00  0.00    -0.268 OA
ATOM     20  N   LIG d   1       8.908   8.964  -7.431  0.00  0.00    -0.249 N 
ATOM     21  H   LIG d   1       8.675   9.736  -6.893  0.00  0.00     0.169 HD
BRANCH  20  22
ATOM     22  N   LIG d   1       8.693   8.981  -8.780  0.00  0.00    -0.254 NA
ATOM     23  H   LIG d   1       8.495   8.054  -9.126  0.00  0.00     0.141 HD
ATOM     24  H   LIG d   1       7.954   9.623  -9.020  0.00  0.00     0.141 HD
ENDBRANCH  20  22
ENDBRANCH  16  18
BRANCH  16  25
ATOM     25  N   LIG d   1       9.334   9.159  -4.767  0.00  0.00     0.228 N 
ATOM     26  H   LIG d   1       9.271   9.870  -5.493  0.00  0.00     0.200 HD
ATOM     27  H   LIG d   1       8.441   9.090  -4.282  0.00  0.00     0.200 HD
ATOM     28  H   LIG d   1      10.060   9.433  -4.094  0.00  0.00     0.200 HD
ENDBRANCH  16  25
ENDBRANCH   1  16
TORSDOF 6
ENDMDL
MODEL 10
REMARK VINA RESULT:      -4.4     10.238     12.369
REMARK  6 active torsions:
REMARK  status: ('A' for Active; 'I' for Inactive)
REMARK    1  A    between atoms: C_3  and  O_14 
REMARK    2  A    between atoms: C_6  and  C_7 
REMARK    3  A    between atoms: C_7  and  C_8 
REMARK    4  A    between atoms: C_8  and  C_10 
REMARK    5  A    between atoms: C_8  and  N_27 
REMARK       I    between atoms: C_10  and  N_12 
REMARK    6  A    between atoms: N_12  and  N_13 
ROOT
ATOM      1  C   LIG d   1      11.824   7.341  -0.053  0.00  0.00     0.024 C 
ATOM      2  H   LIG d   1      12.639   7.122   0.636  0.00  0.00     0.037 H 
ATOM      3  H   LIG d   1      12.195   7.302  -1.077  0.00  0.00     0.037 H 
ENDROOT
BRANCH   1   4
ATOM      4  C   LIG d   1      11.280   8.717   0.234  0.00  0.00    -0.041 A 
ATOM      5  C   LIG d   1      11.966   9.565   1.084  0.00  0.00    -0.055 A 
ATOM      6  C   LIG d   1      11.472  10.829   1.344  0.00  0.00    -0.020 A 
ATOM      7  H   LIG d   1      12.889   9.242   1.541  0.00  0.00     0.062 H 
ATOM      8  C   LIG d   1      10.283  11.242   0.761  0.00  0.00     0.117 A 
ATOM      9  H   LIG d   1      12.010  11.494   2.004  0.00  0.00     0.065 H 
ATOM     10  C   LIG d   1       9.594  10.386  -0.085  0.00  0.00    -0.020 A 
ATOM     11  C   LIG d   1      10.095   9.126  -0.348  0.00  0.00    -0.055 A 
ATOM     12  H   LIG d   1       8.669  10.705  -0.540  0.00  0.00     0.065 H 
ATOM     13  H   LIG d   1       9.559   8.459  -1.007  0.00  0.00     0.062 H 
BRANCH   8  14
ATOM     14  O   LIG d   1       9.793  12.483   1.020  0.00  0.00    -0.507 OA
ATOM     15  H   LIG d   1      10.454  13.186   0.967  0.00  0.00     0.292 HD
ENDBRANCH   8  14
ENDBRANCH   1   4
BRANCH   1  16
ATOM     16  C   LIG d   1      10.713   6.305   0.126  0.00  0.00     0.058 C 
ATOM     17  H   LIG d   1       9.758   6.816   0.253  0.00  0.00     0.095 H 
BRANCH  16  18
ATOM     18  C   LIG d   1      10.650   5.418  -1.090  0.00  0.00     0.275 C 
ATOM     19  O   LIG d   1      10.089   5.806  -2.094  0.00  0.00    -0.268 OA
ATOM     20  N   LIG d   1      11.214   4.195  -1.062  0.00  0.00    -0.249 N 
ATOM     21  H   LIG d   1      11.661   3.885  -0.259  0.00  0.00     0.169 HD
BRANCH  20  22
ATOM     22  N   LIG d   1      11.151   3.388  -2.163  0.00  0.00    -0.254 NA
ATOM     23  H   LIG d   1      11.216   3.930  -3.012  0.00  0.00     0.141 HD
ATOM     24  H   LIG d   1      11.865   2.677  -2.132  0.00  0.00     0.141 HD
ENDBRANCH  20  22
ENDBRANCH  16  18
BRANCH  16  25
ATOM     25  N   LIG d   1      10.993   5.506   1.332  0.00  0.00     0.228 N 
ATOM     26  H   LIG d   1      11.469   4.642   1.077  0.00  0.00     0.200 HD
ATOM     27  H   LIG d   1      11.576   6.037   1.976  0.00  0.00     0.200 HD
ATOM     28  H   LIG d   1      10.107   5.274   1.797  0.00  0.00     0.200 HD
ENDBRANCH  16  25
ENDBRANCH   1  16
TORSDOF 6
ENDMDL
