MODEL 1
REMARK VINA RESULT:      -6.1      0.000      0.000
REMARK  10 active torsions:
REMARK  status: ('A' for Active; 'I' for Inactive)
REMARK    1  A    between atoms: C_1  and  C_2 
REMARK    2  A    between atoms: C_3  and  C_24 
REMARK    3  A    between atoms: C_6  and  O_12 
REMARK    4  A    between atoms: O_12  and  C_13 
REMARK    5  A    between atoms: C_13  and  C_15 
REMARK    6  A    between atoms: C_18  and  N_21 
REMARK    7  A    between atoms: C_24  and  O_26 
REMARK    8  A    between atoms: O_26  and  C_27 
REMARK    9  A    between atoms: C_27  and  C_28 
REMARK   10  A    between atoms: C_27  and  C_29 
ROOT
ATOM      1  C   LIG d   1       2.870  -4.242 -10.704  0.00  0.00     0.117 A 
ATOM      2  C   LIG d   1       2.908  -3.435  -9.608  0.00  0.00     0.107 A 
ATOM      3  C   LIG d   1       3.457  -4.267  -8.518  0.00  0.00     0.038 A 
ATOM      4  C   LIG d   1       3.737  -4.043  -7.174  0.00  0.00    -0.007 A 
ATOM      5  C   LIG d   1       4.267  -5.064  -6.407  0.00  0.00     0.147 A 
ATOM      6  C   LIG d   1       4.505  -6.313  -6.977  0.00  0.00     0.064 A 
ATOM      7  C   LIG d   1       4.225  -6.542  -8.306  0.00  0.00    -0.001 A 
ATOM      8  C   LIG d   1       3.697  -5.523  -9.092  0.00  0.00     0.137 A 
ATOM      9  O   LIG d   1       3.333  -5.457 -10.389  0.00  0.00    -0.459 OA
ATOM     10 BR   LIG d   1       5.222  -7.704  -5.916  0.00  0.00    -0.046 Br
ATOM     11  H   LIG d   1       3.548  -3.075  -6.734  0.00  0.00     0.066 H 
ATOM     12  H   LIG d   1       4.413  -7.513  -8.738  0.00  0.00     0.067 H 
ENDROOT
BRANCH   5  13
ATOM     13  O   LIG d   1       4.548  -4.853  -5.094  0.00  0.00    -0.421 OA
BRANCH  13  14
ATOM     14  C   LIG d   1       5.569  -4.021  -4.814  0.00  0.00     0.344 C 
ATOM     15  O   LIG d   1       6.711  -4.355  -5.063  0.00  0.00    -0.244 OA
BRANCH  14  16
ATOM     16  C   LIG d   1       5.303  -2.702  -4.204  0.00  0.00     0.060 A 
ATOM     17  C   LIG d   1       4.236  -2.542  -3.317  0.00  0.00    -0.041 A 
ATOM     18  C   LIG d   1       3.997  -1.310  -2.747  0.00  0.00     0.016 A 
ATOM     19  H   LIG d   1       3.600  -3.382  -3.079  0.00  0.00     0.063 H 
ATOM     20  C   LIG d   1       4.811  -0.233  -3.050  0.00  0.00     0.273 A 
ATOM     21  H   LIG d   1       3.172  -1.185  -2.060  0.00  0.00     0.069 H 
ATOM     22  C   LIG d   1       5.870  -0.384  -3.928  0.00  0.00     0.016 A 
ATOM     23  C   LIG d   1       6.120  -1.612  -4.507  0.00  0.00    -0.041 A 
ATOM     24  H   LIG d   1       6.501   0.460  -4.161  0.00  0.00     0.069 H 
ATOM     25  H   LIG d   1       6.946  -1.728  -5.192  0.00  0.00     0.063 H 
BRANCH  20  26
ATOM     26  N   LIG d   1       4.548   1.087  -2.434  0.00  0.00     0.080 N 
ATOM     27  O   LIG d   1       4.773   1.262  -1.250  0.00  0.00     0.041 OA
ATOM     28  O   LIG d   1       4.107   1.999  -3.111  0.00  0.00    -0.576 OA
ENDBRANCH  20  26
ENDBRANCH  14  16
ENDBRANCH  13  14
ENDBRANCH   5  13
BRANCH   2  29
ATOM     29  C   LIG d   1       2.491  -2.029  -9.526  0.00  0.00     0.343 C 
ATOM     30  O   LIG d   1       1.395  -1.695  -9.935  0.00  0.00    -0.245 OA
BRANCH  29  31
ATOM     31  O   LIG d   1       3.321  -1.109  -8.997  0.00  0.00    -0.458 OA
BRANCH  31  32
ATOM     32  C   LIG d   1       2.732  -0.121  -8.109  0.00  0.00     0.098 C 
ATOM     33  H   LIG d   1       1.669  -0.328  -7.991  0.00  0.00     0.073 H 
BRANCH  32  34
ATOM     34  C   LIG d   1       3.421  -0.185  -6.746  0.00  0.00    -0.028 C 
ATOM     35  H   LIG d   1       3.706   0.820  -6.434  0.00  0.00     0.026 H 
ATOM     36  H   LIG d   1       2.738  -0.614  -6.012  0.00  0.00     0.026 H 
ATOM     37  H   LIG d   1       4.313  -0.808  -6.819  0.00  0.00     0.026 H 
ENDBRANCH  32  34
BRANCH  32  38
ATOM     38  C   LIG d   1       2.916   1.275  -8.708  0.00  0.00    -0.028 C 
ATOM     39  H   LIG d   1       2.013   1.864  -8.540  0.00  0.00     0.026 H 
ATOM     40  H   LIG d   1       3.764   1.766  -8.231  0.00  0.00     0.026 H 
ATOM     41  H   LIG d   1       3.101   1.191  -9.778  0.00  0.00     0.026 H 
ENDBRANCH  32  38
ENDBRANCH  31  32
ENDBRANCH  29  31
ENDBRANCH   2  29
BRANCH   1  42
ATOM     42  C   LIG d   1       2.379  -3.828 -12.067  0.00  0.00    -0.005 C 
ATOM     43  H   LIG d   1       1.365  -4.201 -12.217  0.00  0.00     0.031 H 
ATOM     44  H   LIG d   1       2.379  -2.740 -12.139  0.00  0.00     0.031 H 
ATOM     45  H   LIG d   1       3.035  -4.242 -12.833  0.00  0.00     0.031 H 
ENDBRANCH   1  42
TORSDOF 10
ENDMDL
MODEL 2
REMARK VINA RESULT:      -5.9      4.092      7.773
REMARK  10 active torsions:
REMARK  status: ('A' for Active; 'I' for Inactive)
REMARK    1  A    between atoms: C_1  and  C_2 
REMARK    2  A    between atoms: C_3  and  C_24 
REMARK    3  A    between atoms: C_6  and  O_12 
REMARK    4  A    between atoms: O_12  and  C_13 
REMARK    5  A    between atoms: C_13  and  C_15 
REMARK    6  A    between atoms: C_18  and  N_21 
REMARK    7  A    between atoms: C_24  and  O_26 
REMARK    8  A    between atoms: O_26  and  C_27 
REMARK    9  A    between atoms: C_27  and  C_28 
REMARK   10  A    between atoms: C_27  and  C_29 
ROOT
ATOM      1  C   LIG d   1       7.409  -1.860  -5.195  0.00  0.00     0.117 A 
ATOM      2  C   LIG d   1       6.775  -0.672  -5.400  0.00  0.00     0.107 A 
ATOM      3  C   LIG d   1       6.784  -0.462  -6.863  0.00  0.00     0.038 A 
ATOM      4  C   LIG d   1       6.311   0.542  -7.701  0.00  0.00    -0.007 A 
ATOM      5  C   LIG d   1       6.483   0.427  -9.068  0.00  0.00     0.147 A 
ATOM      6  C   LIG d   1       7.137  -0.682  -9.598  0.00  0.00     0.064 A 
ATOM      7  C   LIG d   1       7.613  -1.677  -8.772  0.00  0.00    -0.001 A 
ATOM      8  C   LIG d   1       7.443  -1.579  -7.396  0.00  0.00     0.137 A 
ATOM      9  O   LIG d   1       7.793  -2.378  -6.366  0.00  0.00    -0.459 OA
ATOM     10 BR   LIG d   1       7.374  -0.824 -11.469  0.00  0.00    -0.046 Br
ATOM     11  H   LIG d   1       5.808   1.403  -7.287  0.00  0.00     0.066 H 
ATOM     12  H   LIG d   1       8.119  -2.533  -9.193  0.00  0.00     0.067 H 
ENDROOT
BRANCH   5  13
ATOM     13  O   LIG d   1       6.020   1.401  -9.895  0.00  0.00    -0.421 OA
BRANCH  13  14
ATOM     14  C   LIG d   1       4.709   1.701  -9.813  0.00  0.00     0.344 C 
ATOM     15  O   LIG d   1       4.357   2.757  -9.325  0.00  0.00    -0.244 OA
BRANCH  14  16
ATOM     16  C   LIG d   1       3.700   0.746 -10.313  0.00  0.00     0.060 A 
ATOM     17  C   LIG d   1       3.843   0.172 -11.578  0.00  0.00    -0.041 A 
ATOM     18  C   LIG d   1       2.899  -0.723 -12.036  0.00  0.00     0.016 A 
ATOM     19  H   LIG d   1       4.691   0.428 -12.195  0.00  0.00     0.063 H 
ATOM     20  C   LIG d   1       1.812  -1.053 -11.246  0.00  0.00     0.273 A 
ATOM     21  H   LIG d   1       3.009  -1.168 -13.013  0.00  0.00     0.069 H 
ATOM     22  C   LIG d   1       1.663  -0.487  -9.991  0.00  0.00     0.016 A 
ATOM     23  C   LIG d   1       2.600   0.410  -9.521  0.00  0.00    -0.041 A 
ATOM     24  H   LIG d   1       0.812  -0.748  -9.380  0.00  0.00     0.069 H 
ATOM     25  H   LIG d   1       2.483   0.851  -8.542  0.00  0.00     0.063 H 
BRANCH  20  26
ATOM     26  N   LIG d   1       0.803  -2.014 -11.744  0.00  0.00     0.080 N 
ATOM     27  O   LIG d   1       0.709  -3.117 -11.236  0.00  0.00     0.041 OA
ATOM     28  O   LIG d   1       0.065  -1.702 -12.662  0.00  0.00    -0.576 OA
ENDBRANCH  20  26
ENDBRANCH  14  16
ENDBRANCH  13  14
ENDBRANCH   5  13
BRANCH   2  29
ATOM     29  C   LIG d   1       6.201   0.216  -4.381  0.00  0.00     0.343 C 
ATOM     30  O   LIG d   1       6.814   1.202  -4.018  0.00  0.00    -0.245 OA
BRANCH  29  31
ATOM     31  O   LIG d   1       4.994  -0.060  -3.849  0.00  0.00    -0.458 OA
BRANCH  31  32
ATOM     32  C   LIG d   1       4.905  -0.103  -2.399  0.00  0.00     0.098 C 
ATOM     33  H   LIG d   1       5.898   0.033  -1.972  0.00  0.00     0.073 H 
BRANCH  32  34
ATOM     34  C   LIG d   1       3.980   1.013  -1.912  0.00  0.00    -0.028 C 
ATOM     35  H   LIG d   1       4.116   1.896  -2.536  0.00  0.00     0.026 H 
ATOM     36  H   LIG d   1       2.944   0.680  -1.973  0.00  0.00     0.026 H 
ATOM     37  H   LIG d   1       4.223   1.259  -0.878  0.00  0.00     0.026 H 
ENDBRANCH  32  34
BRANCH  32  38
ATOM     38  C   LIG d   1       4.344  -1.458  -1.963  0.00  0.00    -0.028 C 
ATOM     39  H   LIG d   1       5.160  -2.098  -1.626  0.00  0.00     0.026 H 
ATOM     40  H   LIG d   1       3.636  -1.313  -1.147  0.00  0.00     0.026 H 
ATOM     41  H   LIG d   1       3.837  -1.930  -2.804  0.00  0.00     0.026 H 
ENDBRANCH  32  38
ENDBRANCH  31  32
ENDBRANCH  29  31
ENDBRANCH   2  29
BRANCH   1  42
ATOM     42  C   LIG d   1       7.642  -2.494  -3.848  0.00  0.00    -0.005 C 
ATOM     43  H   LIG d   1       8.667  -2.863  -3.793  0.00  0.00     0.031 H 
ATOM     44  H   LIG d   1       7.482  -1.754  -3.064  0.00  0.00     0.031 H 
ATOM     45  H   LIG d   1       6.950  -3.324  -3.711  0.00  0.00     0.031 H 
ENDBRANCH   1  42
TORSDOF 10
ENDMDL
MODEL 3
REMARK VINA RESULT:      -5.8      6.829     10.949
REMARK  10 active torsions:
REMARK  status: ('A' for Active; 'I' for Inactive)
REMARK    1  A    between atoms: C_1  and  C_2 
REMARK    2  A    between atoms: C_3  and  C_24 
REMARK    3  A    between atoms: C_6  and  O_12 
REMARK    4  A    between atoms: O_12  and  C_13 
REMARK    5  A    between atoms: C_13  and  C_15 
REMARK    6  A    between atoms: C_18  and  N_21 
REMARK    7  A    between atoms: C_24  and  O_26 
REMARK    8  A    between atoms: O_26  and  C_27 
REMARK    9  A    between atoms: C_27  and  C_28 
REMARK   10  A    between atoms: C_27  and  C_29 
ROOT
ATOM      1  C   LIG d   1      12.077   6.730  -2.960  0.00  0.00     0.117 A 
ATOM      2  C   LIG d   1      10.908   6.232  -2.469  0.00  0.00     0.107 A 
ATOM      3  C   LIG d   1      10.796   4.864  -3.015  0.00  0.00     0.038 A 
ATOM      4  C   LIG d   1       9.852   3.848  -2.900  0.00  0.00    -0.007 A 
ATOM      5  C   LIG d   1      10.057   2.648  -3.556  0.00  0.00     0.147 A 
ATOM      6  C   LIG d   1      11.196   2.465  -4.336  0.00  0.00     0.064 A 
ATOM      7  C   LIG d   1      12.132   3.470  -4.457  0.00  0.00    -0.001 A 
ATOM      8  C   LIG d   1      11.943   4.680  -3.800  0.00  0.00     0.137 A 
ATOM      9  O   LIG d   1      12.670   5.815  -3.734  0.00  0.00    -0.459 OA
ATOM     10 BR   LIG d   1      11.461   0.823  -5.235  0.00  0.00    -0.046 Br
ATOM     11  H   LIG d   1       8.968   3.994  -2.298  0.00  0.00     0.066 H 
ATOM     12  H   LIG d   1      13.012   3.317  -5.065  0.00  0.00     0.067 H 
ENDROOT
BRANCH   5  13
ATOM     13  O   LIG d   1       9.142   1.649  -3.446  0.00  0.00    -0.421 OA
BRANCH  13  14
ATOM     14  C   LIG d   1       8.009   1.776  -4.164  0.00  0.00     0.344 C 
ATOM     15  O   LIG d   1       7.961   2.561  -5.090  0.00  0.00    -0.244 OA
BRANCH  14  16
ATOM     16  C   LIG d   1       6.825   0.961  -3.825  0.00  0.00     0.060 A 
ATOM     17  C   LIG d   1       6.626  -0.278  -4.439  0.00  0.00    -0.041 A 
ATOM     18  C   LIG d   1       5.521  -1.035  -4.113  0.00  0.00     0.016 A 
ATOM     19  H   LIG d   1       7.336  -0.641  -5.167  0.00  0.00     0.063 H 
ATOM     20  C   LIG d   1       4.610  -0.572  -3.181  0.00  0.00     0.273 A 
ATOM     21  H   LIG d   1       5.366  -1.993  -4.587  0.00  0.00     0.069 H 
ATOM     22  C   LIG d   1       4.800   0.655  -2.569  0.00  0.00     0.016 A 
ATOM     23  C   LIG d   1       5.901   1.424  -2.886  0.00  0.00    -0.041 A 
ATOM     24  H   LIG d   1       4.085   1.011  -1.843  0.00  0.00     0.069 H 
ATOM     25  H   LIG d   1       6.049   2.381  -2.408  0.00  0.00     0.063 H 
BRANCH  20  26
ATOM     26  N   LIG d   1       3.425  -1.390  -2.837  0.00  0.00     0.080 N 
ATOM     27  O   LIG d   1       3.570  -2.480  -2.312  0.00  0.00     0.041 OA
ATOM     28  O   LIG d   1       2.306  -0.974  -3.078  0.00  0.00    -0.576 OA
ENDBRANCH  20  26
ENDBRANCH  14  16
ENDBRANCH  13  14
ENDBRANCH   5  13
BRANCH   2  29
ATOM     29  C   LIG d   1       9.957   6.913  -1.581  0.00  0.00     0.343 C 
ATOM     30  O   LIG d   1       9.220   7.773  -2.024  0.00  0.00    -0.245 OA
BRANCH  29  31
ATOM     31  O   LIG d   1       9.899   6.583  -0.276  0.00  0.00    -0.458 OA
BRANCH  31  32
ATOM     32  C   LIG d   1      11.151   6.579   0.461  0.00  0.00     0.098 C 
ATOM     33  H   LIG d   1      11.942   6.180  -0.173  0.00  0.00     0.073 H 
BRANCH  32  34
ATOM     34  C   LIG d   1      11.501   8.008   0.879  0.00  0.00    -0.028 C 
ATOM     35  H   LIG d   1      11.636   8.624  -0.011  0.00  0.00     0.026 H 
ATOM     36  H   LIG d   1      10.695   8.418   1.486  0.00  0.00     0.026 H 
ATOM     37  H   LIG d   1      12.425   8.000   1.458  0.00  0.00     0.026 H 
ENDBRANCH  32  34
BRANCH  32  38
ATOM     38  C   LIG d   1      11.006   5.704   1.707  0.00  0.00    -0.028 C 
ATOM     39  H   LIG d   1      11.520   4.755   1.547  0.00  0.00     0.026 H 
ATOM     40  H   LIG d   1      11.446   6.215   2.563  0.00  0.00     0.026 H 
ATOM     41  H   LIG d   1       9.950   5.517   1.900  0.00  0.00     0.026 H 
ENDBRANCH  32  38
ENDBRANCH  31  32
ENDBRANCH  29  31
ENDBRANCH   2  29
BRANCH   1  42
ATOM     42  C   LIG d   1      12.619   8.106  -2.674  0.00  0.00    -0.005 C 
ATOM     43  H   LIG d   1      13.290   8.061  -1.816  0.00  0.00     0.031 H 
ATOM     44  H   LIG d   1      13.166   8.470  -3.544  0.00  0.00     0.031 H 
ATOM     45  H   LIG d   1      11.794   8.784  -2.455  0.00  0.00     0.031 H 
ENDBRANCH   1  42
TORSDOF 10
ENDMDL
MODEL 4
REMARK VINA RESULT:      -5.8      3.705      6.608
REMARK  10 active torsions:
REMARK  status: ('A' for Active; 'I' for Inactive)
REMARK    1  A    between atoms: C_1  and  C_2 
REMARK    2  A    between atoms: C_3  and  C_24 
REMARK    3  A    between atoms: C_6  and  O_12 
REMARK    4  A    between atoms: O_12  and  C_13 
REMARK    5  A    between atoms: C_13  and  C_15 
REMARK    6  A    between atoms: C_18  and  N_21 
REMARK    7  A    between atoms: C_24  and  O_26 
REMARK    8  A    between atoms: O_26  and  C_27 
REMARK    9  A    between atoms: C_27  and  C_28 
REMARK   10  A    between atoms: C_27  and  C_29 
ROOT
ATOM      1  C   LIG d   1       4.427 -10.758  -6.152  0.00  0.00     0.117 A 
ATOM      2  C   LIG d   1       4.400  -9.883  -5.109  0.00  0.00     0.107 A 
ATOM      3  C   LIG d   1       4.888  -8.599  -5.653  0.00  0.00     0.038 A 
ATOM      4  C   LIG d   1       5.100  -7.335  -5.111  0.00  0.00    -0.007 A 
ATOM      5  C   LIG d   1       5.575  -6.318  -5.918  0.00  0.00     0.147 A 
ATOM      6  C   LIG d   1       5.851  -6.563  -7.261  0.00  0.00     0.064 A 
ATOM      7  C   LIG d   1       5.647  -7.815  -7.801  0.00  0.00    -0.001 A 
ATOM      8  C   LIG d   1       5.165  -8.846  -7.004  0.00  0.00     0.137 A 
ATOM      9  O   LIG d   1       4.875 -10.141  -7.251  0.00  0.00    -0.459 OA
ATOM     10 BR   LIG d   1       6.508  -5.166  -8.353  0.00  0.00    -0.046 Br
ATOM     11  H   LIG d   1       4.889  -7.148  -4.069  0.00  0.00     0.066 H 
ATOM     12  H   LIG d   1       5.864  -7.994  -8.844  0.00  0.00     0.067 H 
ENDROOT
BRANCH   5  13
ATOM     13  O   LIG d   1       5.781  -5.078  -5.399  0.00  0.00    -0.421 OA
BRANCH  13  14
ATOM     14  C   LIG d   1       4.725  -4.243  -5.373  0.00  0.00     0.344 C 
ATOM     15  O   LIG d   1       3.710  -4.529  -5.977  0.00  0.00    -0.244 OA
BRANCH  14  16
ATOM     16  C   LIG d   1       4.800  -2.979  -4.612  0.00  0.00     0.060 A 
ATOM     17  C   LIG d   1       5.376  -1.846  -5.190  0.00  0.00    -0.041 A 
ATOM     18  C   LIG d   1       5.437  -0.668  -4.476  0.00  0.00     0.016 A 
ATOM     19  H   LIG d   1       5.772  -1.892  -6.193  0.00  0.00     0.063 H 
ATOM     20  C   LIG d   1       4.929  -0.606  -3.191  0.00  0.00     0.273 A 
ATOM     21  H   LIG d   1       5.882   0.210  -4.921  0.00  0.00     0.069 H 
ATOM     22  C   LIG d   1       4.358  -1.726  -2.611  0.00  0.00     0.016 A 
ATOM     23  C   LIG d   1       4.290  -2.911  -3.315  0.00  0.00    -0.041 A 
ATOM     24  H   LIG d   1       3.964  -1.671  -1.607  0.00  0.00     0.069 H 
ATOM     25  H   LIG d   1       3.844  -3.784  -2.862  0.00  0.00     0.063 H 
BRANCH  20  26
ATOM     26  N   LIG d   1       5.000   0.661  -2.430  0.00  0.00     0.080 N 
ATOM     27  O   LIG d   1       4.138   0.928  -1.611  0.00  0.00     0.041 OA
ATOM     28  O   LIG d   1       5.919   1.437  -2.621  0.00  0.00    -0.576 OA
ENDBRANCH  20  26
ENDBRANCH  14  16
ENDBRANCH  13  14
ENDBRANCH   5  13
BRANCH   2  29
ATOM     29  C   LIG d   1       3.975 -10.158  -3.731  0.00  0.00     0.343 C 
ATOM     30  O   LIG d   1       2.991  -9.605  -3.276  0.00  0.00    -0.245 OA
BRANCH  29  31
ATOM     31  O   LIG d   1       4.672 -11.024  -2.970  0.00  0.00    -0.458 OA
BRANCH  31  32
ATOM     32  C   LIG d   1       6.083 -10.742  -2.772  0.00  0.00     0.098 C 
ATOM     33  H   LIG d   1       6.342  -9.815  -3.283  0.00  0.00     0.073 H 
BRANCH  32  34
ATOM     34  C   LIG d   1       6.370 -10.599  -1.277  0.00  0.00    -0.028 C 
ATOM     35  H   LIG d   1       7.403 -10.884  -1.076  0.00  0.00     0.026 H 
ATOM     36  H   LIG d   1       6.213  -9.564  -0.973  0.00  0.00     0.026 H 
ATOM     37  H   LIG d   1       5.699 -11.248  -0.715  0.00  0.00     0.026 H 
ENDBRANCH  32  34
BRANCH  32  38
ATOM     38  C   LIG d   1       6.918 -11.890  -3.344  0.00  0.00    -0.028 C 
ATOM     39  H   LIG d   1       6.864 -12.748  -2.673  0.00  0.00     0.026 H 
ATOM     40  H   LIG d   1       6.528 -12.169  -4.323  0.00  0.00     0.026 H 
ATOM     41  H   LIG d   1       7.955 -11.571  -3.444  0.00  0.00     0.026 H 
ENDBRANCH  32  38
ENDBRANCH  31  32
ENDBRANCH  29  31
ENDBRANCH   2  29
BRANCH   1  42
ATOM     42  C   LIG d   1       4.015 -12.205  -6.078  0.00  0.00    -0.005 C 
ATOM     43  H   LIG d   1       4.743 -12.818  -6.612  0.00  0.00     0.031 H 
ATOM     44  H   LIG d   1       3.973 -12.519  -5.035  0.00  0.00     0.031 H 
ATOM     45  H   LIG d   1       3.033 -12.329  -6.535  0.00  0.00     0.031 H 
ENDBRANCH   1  42
TORSDOF 10
ENDMDL
MODEL 5
REMARK VINA RESULT:      -5.7      1.919      2.522
REMARK  10 active torsions:
REMARK  status: ('A' for Active; 'I' for Inactive)
REMARK    1  A    between atoms: C_1  and  C_2 
REMARK    2  A    between atoms: C_3  and  C_24 
REMARK    3  A    between atoms: C_6  and  O_12 
REMARK    4  A    between atoms: O_12  and  C_13 
REMARK    5  A    between atoms: C_13  and  C_15 
REMARK    6  A    between atoms: C_18  and  N_21 
REMARK    7  A    between atoms: C_24  and  O_26 
REMARK    8  A    between atoms: O_26  and  C_27 
REMARK    9  A    between atoms: C_27  and  C_28 
REMARK   10  A    between atoms: C_27  and  C_29 
ROOT
ATOM      1  C   LIG d   1       4.582  -1.154 -10.876  0.00  0.00     0.117 A 
ATOM      2  C   LIG d   1       5.128  -0.913  -9.652  0.00  0.00     0.107 A 
ATOM      3  C   LIG d   1       5.172  -2.224  -8.970  0.00  0.00     0.038 A 
ATOM      4  C   LIG d   1       5.603  -2.651  -7.719  0.00  0.00    -0.007 A 
ATOM      5  C   LIG d   1       5.507  -3.990  -7.384  0.00  0.00     0.147 A 
ATOM      6  C   LIG d   1       4.969  -4.899  -8.291  0.00  0.00     0.064 A 
ATOM      7  C   LIG d   1       4.535  -4.479  -9.531  0.00  0.00    -0.001 A 
ATOM      8  C   LIG d   1       4.631  -3.138  -9.884  0.00  0.00     0.137 A 
ATOM      9  O   LIG d   1       4.297  -2.455 -10.998  0.00  0.00    -0.459 OA
ATOM     10 BR   LIG d   1       4.835  -6.725  -7.819  0.00  0.00    -0.046 Br
ATOM     11  H   LIG d   1       6.017  -1.944  -7.015  0.00  0.00     0.066 H 
ATOM     12  H   LIG d   1       4.120  -5.192 -10.227  0.00  0.00     0.067 H 
ENDROOT
BRANCH   5  13
ATOM     13  O   LIG d   1       5.930  -4.417  -6.165  0.00  0.00    -0.421 OA
BRANCH  13  14
ATOM     14  C   LIG d   1       5.119  -4.177  -5.117  0.00  0.00     0.344 C 
ATOM     15  O   LIG d   1       4.335  -5.028  -4.747  0.00  0.00    -0.244 OA
BRANCH  14  16
ATOM     16  C   LIG d   1       5.180  -2.877  -4.418  0.00  0.00     0.060 A 
ATOM     17  C   LIG d   1       6.408  -2.365  -3.994  0.00  0.00    -0.041 A 
ATOM     18  C   LIG d   1       6.458  -1.148  -3.347  0.00  0.00     0.016 A 
ATOM     19  H   LIG d   1       7.316  -2.921  -4.172  0.00  0.00     0.063 H 
ATOM     20  C   LIG d   1       5.295  -0.434  -3.118  0.00  0.00     0.273 A 
ATOM     21  H   LIG d   1       7.407  -0.751  -3.019  0.00  0.00     0.069 H 
ATOM     22  C   LIG d   1       4.074  -0.936  -3.535  0.00  0.00     0.016 A 
ATOM     23  C   LIG d   1       4.010  -2.152  -4.183  0.00  0.00    -0.041 A 
ATOM     24  H   LIG d   1       3.171  -0.374  -3.352  0.00  0.00     0.069 H 
ATOM     25  H   LIG d   1       3.057  -2.542  -4.508  0.00  0.00     0.063 H 
BRANCH  20  26
ATOM     26  N   LIG d   1       5.356   0.871  -2.422  0.00  0.00     0.080 N 
ATOM     27  O   LIG d   1       4.845   0.999  -1.324  0.00  0.00     0.041 OA
ATOM     28  O   LIG d   1       5.918   1.816  -2.946  0.00  0.00    -0.576 OA
ENDBRANCH  20  26
ENDBRANCH  14  16
ENDBRANCH  13  14
ENDBRANCH   5  13
BRANCH   2  29
ATOM     29  C   LIG d   1       5.580   0.378  -9.119  0.00  0.00     0.343 C 
ATOM     30  O   LIG d   1       6.588   0.898  -9.559  0.00  0.00    -0.245 OA
BRANCH  29  31
ATOM     31  O   LIG d   1       4.878   0.989  -8.145  0.00  0.00    -0.458 OA
BRANCH  31  32
ATOM     32  C   LIG d   1       3.432   0.858  -8.191  0.00  0.00     0.098 C 
ATOM     33  H   LIG d   1       3.156   0.167  -8.988  0.00  0.00     0.073 H 
BRANCH  32  34
ATOM     34  C   LIG d   1       2.925   0.323  -6.851  0.00  0.00    -0.028 C 
ATOM     35  H   LIG d   1       3.514  -0.549  -6.562  0.00  0.00     0.026 H 
ATOM     36  H   LIG d   1       3.022   1.096  -6.090  0.00  0.00     0.026 H 
ATOM     37  H   LIG d   1       1.878   0.036  -6.948  0.00  0.00     0.026 H 
ENDBRANCH  32  34
BRANCH  32  38
ATOM     38  C   LIG d   1       2.805   2.227  -8.464  0.00  0.00    -0.028 C 
ATOM     39  H   LIG d   1       2.514   2.291  -9.513  0.00  0.00     0.026 H 
ATOM     40  H   LIG d   1       1.924   2.354  -7.835  0.00  0.00     0.026 H 
ATOM     41  H   LIG d   1       3.528   3.010  -8.238  0.00  0.00     0.026 H 
ENDBRANCH  32  38
ENDBRANCH  31  32
ENDBRANCH  29  31
ENDBRANCH   2  29
BRANCH   1  42
ATOM     42  C   LIG d   1       4.335  -0.109 -11.933  0.00  0.00    -0.005 C 
ATOM     43  H   LIG d   1       3.352  -0.267 -12.378  0.00  0.00     0.031 H 
ATOM     44  H   LIG d   1       4.372   0.882 -11.481  0.00  0.00     0.031 H 
ATOM     45  H   LIG d   1       5.100  -0.184 -12.706  0.00  0.00     0.031 H 
ENDBRANCH   1  42
TORSDOF 10
ENDMDL
MODEL 6
REMARK VINA RESULT:      -5.7      6.829      9.323
REMARK  10 active torsions:
REMARK  status: ('A' for Active; 'I' for Inactive)
REMARK    1  A    between atoms: C_1  and  C_2 
REMARK    2  A    between atoms: C_3  and  C_24 
REMARK    3  A    between atoms: C_6  and  O_12 
REMARK    4  A    between atoms: O_12  and  C_13 
REMARK    5  A    between atoms: C_13  and  C_15 
REMARK    6  A    between atoms: C_18  and  N_21 
REMARK    7  A    between atoms: C_24  and  O_26 
REMARK    8  A    between atoms: O_26  and  C_27 
REMARK    9  A    between atoms: C_27  and  C_28 
REMARK   10  A    between atoms: C_27  and  C_29 
ROOT
ATOM      1  C   LIG d   1       7.593  -0.348  -6.265  0.00  0.00     0.117 A 
ATOM      2  C   LIG d   1       7.334   0.270  -5.080  0.00  0.00     0.107 A 
ATOM      3  C   LIG d   1       8.159   1.495  -5.080  0.00  0.00     0.038 A 
ATOM      4  C   LIG d   1       8.351   2.535  -4.176  0.00  0.00    -0.007 A 
ATOM      5  C   LIG d   1       9.217   3.565  -4.494  0.00  0.00     0.147 A 
ATOM      6  C   LIG d   1       9.901   3.553  -5.707  0.00  0.00     0.064 A 
ATOM      7  C   LIG d   1       9.718   2.522  -6.604  0.00  0.00    -0.001 A 
ATOM      8  C   LIG d   1       8.847   1.482  -6.301  0.00  0.00     0.137 A 
ATOM      9  O   LIG d   1       8.477   0.369  -6.968  0.00  0.00    -0.459 OA
ATOM     10 BR   LIG d   1      11.088   4.963  -6.127  0.00  0.00    -0.046 Br
ATOM     11  H   LIG d   1       7.822   2.541  -3.234  0.00  0.00     0.066 H 
ATOM     12  H   LIG d   1      10.253   2.522  -7.541  0.00  0.00     0.067 H 
ENDROOT
BRANCH   5  13
ATOM     13  O   LIG d   1       9.406   4.588  -3.618  0.00  0.00    -0.421 OA
BRANCH  13  14
ATOM     14  C   LIG d   1      10.241   4.361  -2.586  0.00  0.00     0.344 C 
ATOM     15  O   LIG d   1      10.781   3.279  -2.466  0.00  0.00    -0.244 OA
BRANCH  14  16
ATOM     16  C   LIG d   1      10.501   5.428  -1.597  0.00  0.00     0.060 A 
ATOM     17  C   LIG d   1       9.896   6.678  -1.739  0.00  0.00    -0.041 A 
ATOM     18  C   LIG d   1      10.139   7.667  -0.809  0.00  0.00     0.016 A 
ATOM     19  H   LIG d   1       9.239   6.870  -2.575  0.00  0.00     0.063 H 
ATOM     20  C   LIG d   1      10.979   7.424   0.262  0.00  0.00     0.273 A 
ATOM     21  H   LIG d   1       9.671   8.635  -0.917  0.00  0.00     0.069 H 
ATOM     22  C   LIG d   1      11.584   6.187   0.408  0.00  0.00     0.016 A 
ATOM     23  C   LIG d   1      11.349   5.189  -0.515  0.00  0.00    -0.041 A 
ATOM     24  H   LIG d   1      12.239   6.003   1.246  0.00  0.00     0.069 H 
ATOM     25  H   LIG d   1      11.821   4.224  -0.400  0.00  0.00     0.063 H 
BRANCH  20  26
ATOM     26  N   LIG d   1      11.236   8.490   1.256  0.00  0.00     0.080 N 
ATOM     27  O   LIG d   1      11.765   8.217   2.319  0.00  0.00     0.041 OA
ATOM     28  O   LIG d   1      10.920   9.641   1.011  0.00  0.00    -0.576 OA
ENDBRANCH  20  26
ENDBRANCH  14  16
ENDBRANCH  13  14
ENDBRANCH   5  13
BRANCH   2  29
ATOM     29  C   LIG d   1       6.424  -0.186  -4.021  0.00  0.00     0.343 C 
ATOM     30  O   LIG d   1       6.784  -1.042  -3.235  0.00  0.00    -0.245 OA
BRANCH  29  31
ATOM     31  O   LIG d   1       5.189   0.345  -3.919  0.00  0.00    -0.458 OA
BRANCH  31  32
ATOM     32  C   LIG d   1       4.397  -0.043  -2.765  0.00  0.00     0.098 C 
ATOM     33  H   LIG d   1       4.859  -0.904  -2.281  0.00  0.00     0.073 H 
BRANCH  32  34
ATOM     34  C   LIG d   1       4.332   1.123  -1.777  0.00  0.00    -0.028 C 
ATOM     35  H   LIG d   1       3.723   0.838  -0.918  0.00  0.00     0.026 H 
ATOM     36  H   LIG d   1       5.338   1.375  -1.443  0.00  0.00     0.026 H 
ATOM     37  H   LIG d   1       3.884   1.989  -2.267  0.00  0.00     0.026 H 
ENDBRANCH  32  34
BRANCH  32  38
ATOM     38  C   LIG d   1       2.982  -0.409  -3.217  0.00  0.00    -0.028 C 
ATOM     39  H   LIG d   1       2.881  -0.217  -4.285  0.00  0.00     0.026 H 
ATOM     40  H   LIG d   1       2.799  -1.465  -3.018  0.00  0.00     0.026 H 
ATOM     41  H   LIG d   1       2.258   0.194  -2.669  0.00  0.00     0.026 H 
ENDBRANCH  32  38
ENDBRANCH  31  32
ENDBRANCH  29  31
ENDBRANCH   2  29
BRANCH   1  42
ATOM     42  C   LIG d   1       6.977  -1.647  -6.716  0.00  0.00    -0.005 C 
ATOM     43  H   LIG d   1       6.061  -1.829  -6.153  0.00  0.00     0.031 H 
ATOM     44  H   LIG d   1       6.743  -1.589  -7.780  0.00  0.00     0.031 H 
ATOM     45  H   LIG d   1       7.678  -2.463  -6.543  0.00  0.00     0.031 H 
ENDBRANCH   1  42
TORSDOF 10
ENDMDL
MODEL 7
REMARK VINA RESULT:      -5.7      3.105      6.901
REMARK  10 active torsions:
REMARK  status: ('A' for Active; 'I' for Inactive)
REMARK    1  A    between atoms: C_1  and  C_2 
REMARK    2  A    between atoms: C_3  and  C_24 
REMARK    3  A    between atoms: C_6  and  O_12 
REMARK    4  A    between atoms: O_12  and  C_13 
REMARK    5  A    between atoms: C_13  and  C_15 
REMARK    6  A    between atoms: C_18  and  N_21 
REMARK    7  A    between atoms: C_24  and  O_26 
REMARK    8  A    between atoms: O_26  and  C_27 
REMARK    9  A    between atoms: C_27  and  C_28 
REMARK   10  A    between atoms: C_27  and  C_29 
ROOT
ATOM      1  C   LIG d   1       3.597   0.733  -3.708  0.00  0.00     0.117 A 
ATOM      2  C   LIG d   1       4.411  -0.295  -4.077  0.00  0.00     0.107 A 
ATOM      3  C   LIG d   1       4.071  -0.588  -5.485  0.00  0.00     0.038 A 
ATOM      4  C   LIG d   1       4.527  -1.510  -6.421  0.00  0.00    -0.007 A 
ATOM      5  C   LIG d   1       3.985  -1.517  -7.693  0.00  0.00     0.147 A 
ATOM      6  C   LIG d   1       2.979  -0.614  -8.028  0.00  0.00     0.064 A 
ATOM      7  C   LIG d   1       2.519   0.298  -7.102  0.00  0.00    -0.001 A 
ATOM      8  C   LIG d   1       3.058   0.322  -5.821  0.00  0.00     0.137 A 
ATOM      9  O   LIG d   1       2.813   1.082  -4.734  0.00  0.00    -0.459 OA
ATOM     10 BR   LIG d   1       2.240  -0.639  -9.768  0.00  0.00    -0.046 Br
ATOM     11  H   LIG d   1       5.305  -2.212  -6.158  0.00  0.00     0.066 H 
ATOM     12  H   LIG d   1       1.739   0.994  -7.372  0.00  0.00     0.067 H 
ENDROOT
BRANCH   5  13
ATOM     13  O   LIG d   1       4.429  -2.411  -8.615  0.00  0.00    -0.421 OA
BRANCH  13  14
ATOM     14  C   LIG d   1       3.972  -3.674  -8.512  0.00  0.00     0.344 C 
ATOM     15  O   LIG d   1       2.982  -4.015  -9.129  0.00  0.00    -0.244 OA
BRANCH  14  16
ATOM     16  C   LIG d   1       4.673  -4.645  -7.647  0.00  0.00     0.060 A 
ATOM     17  C   LIG d   1       4.018  -5.206  -6.548  0.00  0.00    -0.041 A 
ATOM     18  C   LIG d   1       4.677  -6.116  -5.749  0.00  0.00     0.016 A 
ATOM     19  H   LIG d   1       2.999  -4.928  -6.325  0.00  0.00     0.063 H 
ATOM     20  C   LIG d   1       5.982  -6.475  -6.033  0.00  0.00     0.273 A 
ATOM     21  H   LIG d   1       4.172  -6.551  -4.899  0.00  0.00     0.069 H 
ATOM     22  C   LIG d   1       6.638  -5.922  -7.120  0.00  0.00     0.016 A 
ATOM     23  C   LIG d   1       5.990  -5.010  -7.928  0.00  0.00    -0.041 A 
ATOM     24  H   LIG d   1       7.657  -6.206  -7.335  0.00  0.00     0.069 H 
ATOM     25  H   LIG d   1       6.502  -4.580  -8.775  0.00  0.00     0.063 H 
BRANCH  20  26
ATOM     26  N   LIG d   1       6.683  -7.452  -5.170  0.00  0.00     0.080 N 
ATOM     27  O   LIG d   1       6.084  -8.419  -4.735  0.00  0.00     0.041 OA
ATOM     28  O   LIG d   1       7.859  -7.290  -4.896  0.00  0.00    -0.576 OA
ENDBRANCH  20  26
ENDBRANCH  14  16
ENDBRANCH  13  14
ENDBRANCH   5  13
BRANCH   2  29
ATOM     29  C   LIG d   1       5.417  -0.972  -3.249  0.00  0.00     0.343 C 
ATOM     30  O   LIG d   1       5.136  -2.005  -2.672  0.00  0.00    -0.245 OA
BRANCH  29  31
ATOM     31  O   LIG d   1       6.654  -0.450  -3.130  0.00  0.00    -0.458 OA
BRANCH  31  32
ATOM     32  C   LIG d   1       7.179   0.272  -4.276  0.00  0.00     0.098 C 
ATOM     33  H   LIG d   1       6.382   0.428  -5.002  0.00  0.00     0.073 H 
BRANCH  32  34
ATOM     34  C   LIG d   1       7.726   1.625  -3.819  0.00  0.00    -0.028 C 
ATOM     35  H   LIG d   1       6.904   2.336  -3.723  0.00  0.00     0.026 H 
ATOM     36  H   LIG d   1       8.222   1.511  -2.855  0.00  0.00     0.026 H 
ATOM     37  H   LIG d   1       8.441   1.995  -4.554  0.00  0.00     0.026 H 
ENDBRANCH  32  34
BRANCH  32  38
ATOM     38  C   LIG d   1       8.304  -0.541  -4.919  0.00  0.00    -0.028 C 
ATOM     39  H   LIG d   1       9.268  -0.174  -4.564  0.00  0.00     0.026 H 
ATOM     40  H   LIG d   1       8.194  -1.591  -4.647  0.00  0.00     0.026 H 
ATOM     41  H   LIG d   1       8.253  -0.440  -6.002  0.00  0.00     0.026 H 
ENDBRANCH  32  38
ENDBRANCH  31  32
ENDBRANCH  29  31
ENDBRANCH   2  29
BRANCH   1  42
ATOM     42  C   LIG d   1       3.581   1.377  -2.346  0.00  0.00    -0.005 C 
ATOM     43  H   LIG d   1       3.374   0.621  -1.588  0.00  0.00     0.031 H 
ATOM     44  H   LIG d   1       4.552   1.833  -2.148  0.00  0.00     0.031 H 
ATOM     45  H   LIG d   1       2.807   2.144  -2.314  0.00  0.00     0.031 H 
ENDBRANCH   1  42
TORSDOF 10
ENDMDL
MODEL 8
REMARK VINA RESULT:      -5.6      4.236      7.888
REMARK  10 active torsions:
REMARK  status: ('A' for Active; 'I' for Inactive)
REMARK    1  A    between atoms: C_1  and  C_2 
REMARK    2  A    between atoms: C_3  and  C_24 
REMARK    3  A    between atoms: C_6  and  O_12 
REMARK    4  A    between atoms: O_12  and  C_13 
REMARK    5  A    between atoms: C_13  and  C_15 
REMARK    6  A    between atoms: C_18  and  N_21 
REMARK    7  A    between atoms: C_24  and  O_26 
REMARK    8  A    between atoms: O_26  and  C_27 
REMARK    9  A    between atoms: C_27  and  C_28 
REMARK   10  A    between atoms: C_27  and  C_29 
ROOT
ATOM      1  C   LIG d   1       5.470  -0.016  -2.856  0.00  0.00     0.117 A 
ATOM      2  C   LIG d   1       5.624  -0.471  -4.130  0.00  0.00     0.107 A 
ATOM      3  C   LIG d   1       6.661   0.388  -4.738  0.00  0.00     0.038 A 
ATOM      4  C   LIG d   1       7.259   0.447  -5.993  0.00  0.00    -0.007 A 
ATOM      5  C   LIG d   1       8.230   1.399  -6.242  0.00  0.00     0.147 A 
ATOM      6  C   LIG d   1       8.596   2.301  -5.246  0.00  0.00     0.064 A 
ATOM      7  C   LIG d   1       8.003   2.251  -4.003  0.00  0.00    -0.001 A 
ATOM      8  C   LIG d   1       7.029   1.296  -3.734  0.00  0.00     0.137 A 
ATOM      9  O   LIG d   1       6.294   1.014  -2.638  0.00  0.00    -0.459 OA
ATOM     10 BR   LIG d   1       9.919   3.604  -5.602  0.00  0.00    -0.046 Br
ATOM     11  H   LIG d   1       6.971  -0.251  -6.765  0.00  0.00     0.066 H 
ATOM     12  H   LIG d   1       8.293   2.955  -3.238  0.00  0.00     0.067 H 
ENDROOT
BRANCH   5  13
ATOM     13  O   LIG d   1       8.823   1.460  -7.464  0.00  0.00    -0.421 OA
BRANCH  13  14
ATOM     14  C   LIG d   1       8.200   2.188  -8.410  0.00  0.00     0.344 C 
ATOM     15  O   LIG d   1       8.590   3.309  -8.670  0.00  0.00    -0.244 OA
BRANCH  14  16
ATOM     16  C   LIG d   1       7.040   1.626  -9.131  0.00  0.00     0.060 A 
ATOM     17  C   LIG d   1       7.176   0.449  -9.871  0.00  0.00    -0.041 A 
ATOM     18  C   LIG d   1       6.088  -0.073 -10.537  0.00  0.00     0.016 A 
ATOM     19  H   LIG d   1       8.133  -0.050  -9.921  0.00  0.00     0.063 H 
ATOM     20  C   LIG d   1       4.862   0.565 -10.473  0.00  0.00     0.273 A 
ATOM     21  H   LIG d   1       6.192  -0.983 -11.109  0.00  0.00     0.069 H 
ATOM     22  C   LIG d   1       4.719   1.732  -9.742  0.00  0.00     0.016 A 
ATOM     23  C   LIG d   1       5.801   2.265  -9.072  0.00  0.00    -0.041 A 
ATOM     24  H   LIG d   1       3.760   2.225  -9.698  0.00  0.00     0.069 H 
ATOM     25  H   LIG d   1       5.688   3.176  -8.502  0.00  0.00     0.063 H 
BRANCH  20  26
ATOM     26  N   LIG d   1       3.698  -0.001 -11.191  0.00  0.00     0.080 N 
ATOM     27  O   LIG d   1       2.617  -0.076 -10.634  0.00  0.00     0.041 OA
ATOM     28  O   LIG d   1       3.819  -0.391 -12.338  0.00  0.00    -0.576 OA
ENDBRANCH  20  26
ENDBRANCH  14  16
ENDBRANCH  13  14
ENDBRANCH   5  13
BRANCH   2  29
ATOM     29  C   LIG d   1       4.911  -1.585  -4.768  0.00  0.00     0.343 C 
ATOM     30  O   LIG d   1       5.318  -2.724  -4.636  0.00  0.00    -0.245 OA
BRANCH  29  31
ATOM     31  O   LIG d   1       3.804  -1.346  -5.499  0.00  0.00    -0.458 OA
BRANCH  31  32
ATOM     32  C   LIG d   1       3.995  -0.757  -6.813  0.00  0.00     0.098 C 
ATOM     33  H   LIG d   1       4.930  -0.197  -6.827  0.00  0.00     0.073 H 
BRANCH  32  34
ATOM     34  C   LIG d   1       4.047  -1.865  -7.866  0.00  0.00    -0.028 C 
ATOM     35  H   LIG d   1       4.221  -2.824  -7.376  0.00  0.00     0.026 H 
ATOM     36  H   LIG d   1       3.101  -1.899  -8.406  0.00  0.00     0.026 H 
ATOM     37  H   LIG d   1       4.859  -1.663  -8.565  0.00  0.00     0.026 H 
ENDBRANCH  32  34
BRANCH  32  38
ATOM     38  C   LIG d   1       2.830   0.186  -7.123  0.00  0.00    -0.028 C 
ATOM     39  H   LIG d   1       2.092   0.127  -6.323  0.00  0.00     0.026 H 
ATOM     40  H   LIG d   1       3.201   1.208  -7.199  0.00  0.00     0.026 H 
ATOM     41  H   LIG d   1       2.369  -0.103  -8.066  0.00  0.00     0.026 H 
ENDBRANCH  32  38
ENDBRANCH  31  32
ENDBRANCH  29  31
ENDBRANCH   2  29
BRANCH   1  42
ATOM     42  C   LIG d   1       4.511  -0.588  -1.844  0.00  0.00    -0.005 C 
ATOM     43  H   LIG d   1       3.860   0.204  -1.472  0.00  0.00     0.031 H 
ATOM     44  H   LIG d   1       3.906  -1.364  -2.313  0.00  0.00     0.031 H 
ATOM     45  H   LIG d   1       5.071  -1.017  -1.013  0.00  0.00     0.031 H 
ENDBRANCH   1  42
TORSDOF 10
ENDMDL
MODEL 9
REMARK VINA RESULT:      -5.5     10.872     15.119
REMARK  10 active torsions:
REMARK  status: ('A' for Active; 'I' for Inactive)
REMARK    1  A    between atoms: C_1  and  C_2 
REMARK    2  A    between atoms: C_3  and  C_24 
REMARK    3  A    between atoms: C_6  and  O_12 
REMARK    4  A    between atoms: O_12  and  C_13 
REMARK    5  A    between atoms: C_13  and  C_15 
REMARK    6  A    between atoms: C_18  and  N_21 
REMARK    7  A    between atoms: C_24  and  O_26 
REMARK    8  A    between atoms: O_26  and  C_27 
REMARK    9  A    between atoms: C_27  and  C_28 
REMARK   10  A    between atoms: C_27  and  C_29 
ROOT
ATOM      1  C   LIG d   1      10.967   6.970   0.555  0.00  0.00     0.117 A 
ATOM      2  C   LIG d   1      10.975   6.983  -0.807  0.00  0.00     0.107 A 
ATOM      3  C   LIG d   1      10.851   8.404  -1.193  0.00  0.00     0.038 A 
ATOM      4  C   LIG d   1      10.794   9.076  -2.410  0.00  0.00    -0.007 A 
ATOM      5  C   LIG d   1      10.677  10.454  -2.424  0.00  0.00     0.147 A 
ATOM      6  C   LIG d   1      10.605  11.160  -1.226  0.00  0.00     0.064 A 
ATOM      7  C   LIG d   1      10.656  10.498  -0.018  0.00  0.00    -0.001 A 
ATOM      8  C   LIG d   1      10.778   9.114   0.013  0.00  0.00     0.137 A 
ATOM      9  O   LIG d   1      10.852   8.219   1.020  0.00  0.00    -0.459 OA
ATOM     10 BR   LIG d   1      10.437  13.043  -1.257  0.00  0.00    -0.046 Br
ATOM     11  H   LIG d   1      10.846   8.526  -3.337  0.00  0.00     0.066 H 
ATOM     12  H   LIG d   1      10.599  11.055   0.906  0.00  0.00     0.067 H 
ENDROOT
BRANCH   5  13
ATOM     13  O   LIG d   1      10.625  11.119  -3.608  0.00  0.00    -0.421 OA
BRANCH  13  14
ATOM     14  C   LIG d   1       9.530  10.929  -4.368  0.00  0.00     0.344 C 
ATOM     15  O   LIG d   1       8.448  11.327  -3.985  0.00  0.00    -0.244 OA
BRANCH  14  16
ATOM     16  C   LIG d   1       9.643  10.236  -5.668  0.00  0.00     0.060 A 
ATOM     17  C   LIG d   1       9.186   8.923  -5.805  0.00  0.00    -0.041 A 
ATOM     18  C   LIG d   1       9.290   8.284  -7.022  0.00  0.00     0.016 A 
ATOM     19  H   LIG d   1       8.754   8.410  -4.959  0.00  0.00     0.063 H 
ATOM     20  C   LIG d   1       9.844   8.941  -8.107  0.00  0.00     0.273 A 
ATOM     21  H   LIG d   1       8.938   7.269  -7.130  0.00  0.00     0.069 H 
ATOM     22  C   LIG d   1      10.299  10.241  -7.979  0.00  0.00     0.016 A 
ATOM     23  C   LIG d   1      10.202  10.892  -6.765  0.00  0.00    -0.041 A 
ATOM     24  H   LIG d   1      10.731  10.747  -8.829  0.00  0.00     0.069 H 
ATOM     25  H   LIG d   1      10.557  11.907  -6.666  0.00  0.00     0.063 H 
BRANCH  20  26
ATOM     26  N   LIG d   1       9.953   8.248  -9.411  0.00  0.00     0.080 N 
ATOM     27  O   LIG d   1      10.251   8.878 -10.411  0.00  0.00     0.041 OA
ATOM     28  O   LIG d   1       9.746   7.050  -9.484  0.00  0.00    -0.576 OA
ENDBRANCH  20  26
ENDBRANCH  14  16
ENDBRANCH  13  14
ENDBRANCH   5  13
BRANCH   2  29
ATOM     29  C   LIG d   1      11.085   5.827  -1.705  0.00  0.00     0.343 C 
ATOM     30  O   LIG d   1      12.181   5.392  -2.005  0.00  0.00    -0.245 OA
BRANCH  29  31
ATOM     31  O   LIG d   1       9.973   5.245  -2.195  0.00  0.00    -0.458 OA
BRANCH  31  32
ATOM     32  C   LIG d   1      10.086   4.586  -3.485  0.00  0.00     0.098 C 
ATOM     33  H   LIG d   1      11.139   4.490  -3.751  0.00  0.00     0.073 H 
BRANCH  32  34
ATOM     34  C   LIG d   1       9.450   3.198  -3.406  0.00  0.00    -0.028 C 
ATOM     35  H   LIG d   1       8.660   3.117  -4.153  0.00  0.00     0.026 H 
ATOM     36  H   LIG d   1      10.208   2.438  -3.594  0.00  0.00     0.026 H 
ATOM     37  H   LIG d   1       9.025   3.050  -2.412  0.00  0.00     0.026 H 
ENDBRANCH  32  34
BRANCH  32  38
ATOM     38  C   LIG d   1       9.365   5.418  -4.548  0.00  0.00    -0.028 C 
ATOM     39  H   LIG d   1       9.599   6.474  -4.403  0.00  0.00     0.026 H 
ATOM     40  H   LIG d   1       9.695   5.106  -5.539  0.00  0.00     0.026 H 
ATOM     41  H   LIG d   1       8.290   5.268  -4.459  0.00  0.00     0.026 H 
ENDBRANCH  32  38
ENDBRANCH  31  32
ENDBRANCH  29  31
ENDBRANCH   2  29
BRANCH   1  42
ATOM     42  C   LIG d   1      11.071   5.733   1.409  0.00  0.00    -0.005 C 
ATOM     43  H   LIG d   1      12.121   5.527   1.623  0.00  0.00     0.031 H 
ATOM     44  H   LIG d   1      10.535   5.891   2.345  0.00  0.00     0.031 H 
ATOM     45  H   LIG d   1      10.636   4.887   0.879  0.00  0.00     0.031 H 
ENDBRANCH   1  42
TORSDOF 10
ENDMDL
MODEL 10
REMARK VINA RESULT:      -5.5      3.475      7.888
REMARK  10 active torsions:
REMARK  status: ('A' for Active; 'I' for Inactive)
REMARK    1  A    between atoms: C_1  and  C_2 
REMARK    2  A    between atoms: C_3  and  C_24 
REMARK    3  A    between atoms: C_6  and  O_12 
REMARK    4  A    between atoms: O_12  and  C_13 
REMARK    5  A    between atoms: C_13  and  C_15 
REMARK    6  A    between atoms: C_18  and  N_21 
REMARK    7  A    between atoms: C_24  and  O_26 
REMARK    8  A    between atoms: O_26  and  C_27 
REMARK    9  A    between atoms: C_27  and  C_28 
REMARK   10  A    between atoms: C_27  and  C_29 
ROOT
ATOM      1  C   LIG d   1       3.711  -1.431  -3.779  0.00  0.00     0.117 A 
ATOM      2  C   LIG d   1       4.424  -2.071  -4.746  0.00  0.00     0.107 A 
ATOM      3  C   LIG d   1       4.240  -1.271  -5.975  0.00  0.00     0.038 A 
ATOM      4  C   LIG d   1       4.692  -1.388  -7.285  0.00  0.00    -0.007 A 
ATOM      5  C   LIG d   1       4.329  -0.436  -8.220  0.00  0.00     0.147 A 
ATOM      6  C   LIG d   1       3.504   0.624  -7.852  0.00  0.00     0.064 A 
ATOM      7  C   LIG d   1       3.049   0.741  -6.557  0.00  0.00    -0.001 A 
ATOM      8  C   LIG d   1       3.410  -0.204  -5.604  0.00  0.00     0.137 A 
ATOM      9  O   LIG d   1       3.125  -0.344  -4.292  0.00  0.00    -0.459 OA
ATOM     10 BR   LIG d   1       3.007   1.914  -9.142  0.00  0.00    -0.046 Br
ATOM     11  H   LIG d   1       5.329  -2.213  -7.568  0.00  0.00     0.066 H 
ATOM     12  H   LIG d   1       2.410   1.567  -6.282  0.00  0.00     0.067 H 
ENDROOT
BRANCH   5  13
ATOM     13  O   LIG d   1       4.770  -0.540  -9.501  0.00  0.00    -0.421 OA
BRANCH  13  14
ATOM     14  C   LIG d   1       4.581  -1.722 -10.119  0.00  0.00     0.344 C 
ATOM     15  O   LIG d   1       5.486  -2.530 -10.176  0.00  0.00    -0.244 OA
BRANCH  14  16
ATOM     16  C   LIG d   1       3.273  -2.035 -10.730  0.00  0.00     0.060 A 
ATOM     17  C   LIG d   1       2.410  -2.944 -10.113  0.00  0.00    -0.041 A 
ATOM     18  C   LIG d   1       1.188  -3.227 -10.687  0.00  0.00     0.016 A 
ATOM     19  H   LIG d   1       2.699  -3.423  -9.190  0.00  0.00     0.063 H 
ATOM     20  C   LIG d   1       0.816  -2.614 -11.869  0.00  0.00     0.273 A 
ATOM     21  H   LIG d   1       0.520  -3.929 -10.211  0.00  0.00     0.069 H 
ATOM     22  C   LIG d   1       1.666  -1.714 -12.487  0.00  0.00     0.016 A 
ATOM     23  C   LIG d   1       2.892  -1.421 -11.924  0.00  0.00    -0.041 A 
ATOM     24  H   LIG d   1       1.370  -1.239 -13.411  0.00  0.00     0.069 H 
ATOM     25  H   LIG d   1       3.554  -0.718 -12.407  0.00  0.00     0.063 H 
BRANCH  20  26
ATOM     26  N   LIG d   1      -0.497  -2.924 -12.479  0.00  0.00     0.080 N 
ATOM     27  O   LIG d   1      -1.077  -3.954 -12.184  0.00  0.00     0.041 OA
ATOM     28  O   LIG d   1      -0.998  -2.150 -13.275  0.00  0.00    -0.576 OA
ENDBRANCH  20  26
ENDBRANCH  14  16
ENDBRANCH  13  14
ENDBRANCH   5  13
BRANCH   2  29
ATOM     29  C   LIG d   1       5.214  -3.301  -4.600  0.00  0.00     0.343 C 
ATOM     30  O   LIG d   1       6.407  -3.234  -4.374  0.00  0.00    -0.245 OA
BRANCH  29  31
ATOM     31  O   LIG d   1       4.616  -4.503  -4.714  0.00  0.00    -0.458 OA
BRANCH  31  32
ATOM     32  C   LIG d   1       4.901  -5.271  -5.913  0.00  0.00     0.098 C 
ATOM     33  H   LIG d   1       5.863  -4.962  -6.322  0.00  0.00     0.073 H 
BRANCH  32  34
ATOM     34  C   LIG d   1       4.949  -6.760  -5.566  0.00  0.00    -0.028 C 
ATOM     35  H   LIG d   1       4.286  -6.959  -4.724  0.00  0.00     0.026 H 
ATOM     36  H   LIG d   1       4.628  -7.346  -6.427  0.00  0.00     0.026 H 
ATOM     37  H   LIG d   1       5.969  -7.038  -5.298  0.00  0.00     0.026 H 
ENDBRANCH  32  34
BRANCH  32  38
ATOM     38  C   LIG d   1       3.803  -5.024  -6.950  0.00  0.00    -0.028 C 
ATOM     39  H   LIG d   1       3.122  -4.256  -6.582  0.00  0.00     0.026 H 
ATOM     40  H   LIG d   1       4.254  -4.692  -7.885  0.00  0.00     0.026 H 
ATOM     41  H   LIG d   1       3.251  -5.948  -7.121  0.00  0.00     0.026 H 
ENDBRANCH  32  38
ENDBRANCH  31  32
ENDBRANCH  29  31
ENDBRANCH   2  29
BRANCH   1  42
ATOM     42  C   LIG d   1       3.599  -1.881  -2.346  0.00  0.00    -0.005 C 
ATOM     43  H   LIG d   1       2.628  -1.585  -1.947  0.00  0.00     0.031 H 
ATOM     44  H   LIG d   1       3.695  -2.966  -2.296  0.00  0.00     0.031 H 
ATOM     45  H   LIG d   1       4.390  -1.419  -1.755  0.00  0.00     0.031 H 
ENDBRANCH   1  42
TORSDOF 10
ENDMDL
