MODEL 1
REMARK VINA RESULT:      -5.6      0.000      0.000
REMARK  7 active torsions:
REMARK  status: ('A' for Active; 'I' for Inactive)
REMARK    1  A    between atoms: C_1  and  C_2 
REMARK    2  A    between atoms: C_2  and  C_4 
REMARK    3  A    between atoms: C_2  and  O_19 
REMARK    4  A    between atoms: C_4  and  C_5 
REMARK    5  A    between atoms: C_9  and  O_17 
REMARK    6  A    between atoms: C_11  and  O_16 
REMARK    7  A    between atoms: O_17  and  C_18 
ROOT
ATOM      1  C   LIG d   1       5.462  -3.533  -5.091  0.00  0.00     0.112 A 
ATOM      2  C   LIG d   1       6.248  -2.481  -5.349  0.00  0.00    -0.015 A 
ATOM      3  C   LIG d   1       6.138  -1.282  -4.512  0.00  0.00    -0.001 A 
ATOM      4  C   LIG d   1       6.922  -0.154  -4.730  0.00  0.00    -0.012 A 
ATOM      5  C   LIG d   1       6.778   0.950  -3.904  0.00  0.00     0.124 A 
ATOM      6  C   LIG d   1       5.851   0.945  -2.865  0.00  0.00     0.022 A 
ATOM      7  C   LIG d   1       5.059  -0.165  -2.634  0.00  0.00     0.135 A 
ATOM      8  C   LIG d   1       5.195  -1.291  -3.456  0.00  0.00     0.108 A 
ATOM      9  C   LIG d   1       4.387  -2.496  -3.266  0.00  0.00     0.348 A 
ATOM     10  O   LIG d   1       3.562  -2.550  -2.372  0.00  0.00    -0.244 OA
ATOM     11  O   LIG d   1       4.566  -3.543  -4.091  0.00  0.00    -0.427 OA
ATOM     12  H   LIG d   1       6.956  -2.516  -6.164  0.00  0.00     0.066 H 
ATOM     13  H   LIG d   1       7.640  -0.139  -5.536  0.00  0.00     0.066 H 
ATOM     14  H   LIG d   1       5.750   1.815  -2.234  0.00  0.00     0.069 H 
ENDROOT
BRANCH   1  15
ATOM     15  C   LIG d   1       5.585  -4.758  -5.961  0.00  0.00     0.031 C 
ATOM     16  H   LIG d   1       5.552  -4.464  -7.010  0.00  0.00     0.037 H 
ATOM     17  H   LIG d   1       6.530  -5.258  -5.753  0.00  0.00     0.037 H 
BRANCH  15  18
ATOM     18  C   LIG d   1       4.426  -5.712  -5.663  0.00  0.00     0.059 C 
ATOM     19  H   LIG d   1       4.337  -5.850  -4.585  0.00  0.00     0.059 H 
BRANCH  18  20
ATOM     20  C   LIG d   1       4.695  -7.064  -6.329  0.00  0.00    -0.038 C 
ATOM     21  H   LIG d   1       4.047  -7.176  -7.198  0.00  0.00     0.025 H 
ATOM     22  H   LIG d   1       5.737  -7.114  -6.642  0.00  0.00     0.025 H 
ATOM     23  H   LIG d   1       4.490  -7.865  -5.619  0.00  0.00     0.025 H 
ENDBRANCH  18  20
BRANCH  18  24
ATOM     24  O   LIG d   1       3.212  -5.162  -6.176  0.00  0.00    -0.392 OA
ATOM     25  H   LIG d   1       3.026  -4.265  -5.869  0.00  0.00     0.210 HD
ENDBRANCH  18  24
ENDBRANCH  15  18
ENDBRANCH   1  15
BRANCH   7  26
ATOM     26  O   LIG d   1       4.158  -0.164  -1.620  0.00  0.00    -0.506 OA
ATOM     27  H   LIG d   1       3.855  -1.045  -1.362  0.00  0.00     0.292 HD
ENDBRANCH   7  26
BRANCH   5  28
ATOM     28  O   LIG d   1       7.546   2.049  -4.113  0.00  0.00    -0.495 OA
BRANCH  28  29
ATOM     29  C   LIG d   1       8.960   1.887  -3.979  0.00  0.00     0.079 C 
ATOM     30  H   LIG d   1       9.304   2.419  -3.092  0.00  0.00     0.066 H 
ATOM     31  H   LIG d   1       9.457   2.292  -4.861  0.00  0.00     0.066 H 
ATOM     32  H   LIG d   1       9.196   0.828  -3.883  0.00  0.00     0.066 H 
ENDBRANCH  28  29
ENDBRANCH   5  28
TORSDOF 7
ENDMDL
MODEL 2
REMARK VINA RESULT:      -5.2      3.186      5.517
REMARK  7 active torsions:
REMARK  status: ('A' for Active; 'I' for Inactive)
REMARK    1  A    between atoms: C_1  and  C_2 
REMARK    2  A    between atoms: C_2  and  C_4 
REMARK    3  A    between atoms: C_2  and  O_19 
REMARK    4  A    between atoms: C_4  and  C_5 
REMARK    5  A    between atoms: C_9  and  O_17 
REMARK    6  A    between atoms: C_11  and  O_16 
REMARK    7  A    between atoms: O_17  and  C_18 
ROOT
ATOM      1  C   LIG d   1       5.651   0.340  -2.750  0.00  0.00     0.112 A 
ATOM      2  C   LIG d   1       6.065  -0.927  -2.871  0.00  0.00    -0.015 A 
ATOM      3  C   LIG d   1       7.192  -1.231  -3.759  0.00  0.00    -0.001 A 
ATOM      4  C   LIG d   1       7.667  -2.526  -3.934  0.00  0.00    -0.012 A 
ATOM      5  C   LIG d   1       8.739  -2.753  -4.784  0.00  0.00     0.124 A 
ATOM      6  C   LIG d   1       9.339  -1.701  -5.470  0.00  0.00     0.022 A 
ATOM      7  C   LIG d   1       8.878  -0.406  -5.313  0.00  0.00     0.135 A 
ATOM      8  C   LIG d   1       7.800  -0.158  -4.456  0.00  0.00     0.108 A 
ATOM      9  C   LIG d   1       7.264   1.187  -4.247  0.00  0.00     0.348 A 
ATOM     10  O   LIG d   1       7.753   2.141  -4.824  0.00  0.00    -0.244 OA
ATOM     11  O   LIG d   1       6.225   1.358  -3.410  0.00  0.00    -0.427 OA
ATOM     12  H   LIG d   1       5.574  -1.717  -2.322  0.00  0.00     0.066 H 
ATOM     13  H   LIG d   1       7.206  -3.349  -3.410  0.00  0.00     0.066 H 
ATOM     14  H   LIG d   1      10.171  -1.897  -6.129  0.00  0.00     0.069 H 
ENDROOT
BRANCH   1  15
ATOM     15  C   LIG d   1       4.490   0.636  -1.835  0.00  0.00     0.031 C 
ATOM     16  H   LIG d   1       4.376  -0.176  -1.118  0.00  0.00     0.037 H 
ATOM     17  H   LIG d   1       4.676   1.568  -1.302  0.00  0.00     0.037 H 
BRANCH  15  18
ATOM     18  C   LIG d   1       3.210   0.768  -2.664  0.00  0.00     0.059 C 
ATOM     19  H   LIG d   1       2.466   1.329  -2.097  0.00  0.00     0.059 H 
BRANCH  18  20
ATOM     20  C   LIG d   1       2.664  -0.624  -2.984  0.00  0.00    -0.038 C 
ATOM     21  H   LIG d   1       3.105  -1.353  -2.304  0.00  0.00     0.025 H 
ATOM     22  H   LIG d   1       1.581  -0.626  -2.867  0.00  0.00     0.025 H 
ATOM     23  H   LIG d   1       2.919  -0.887  -4.011  0.00  0.00     0.025 H 
ENDBRANCH  18  20
BRANCH  18  24
ATOM     24  O   LIG d   1       3.501   1.457  -3.881  0.00  0.00    -0.392 OA
ATOM     25  H   LIG d   1       4.425   1.726  -3.971  0.00  0.00     0.210 HD
ENDBRANCH  18  24
ENDBRANCH  15  18
ENDBRANCH   1  15
BRANCH   7  26
ATOM     26  O   LIG d   1       9.467   0.615  -5.985  0.00  0.00    -0.506 OA
ATOM     27  H   LIG d   1       9.583   1.417  -5.457  0.00  0.00     0.292 HD
ENDBRANCH   7  26
BRANCH   5  28
ATOM     28  O   LIG d   1       9.207  -4.017  -4.951  0.00  0.00    -0.495 OA
BRANCH  28  29
ATOM     29  C   LIG d   1       9.241  -4.854  -3.792  0.00  0.00     0.079 C 
ATOM     30  H   LIG d   1       9.991  -4.480  -3.096  0.00  0.00     0.066 H 
ATOM     31  H   LIG d   1       9.494  -5.872  -4.087  0.00  0.00     0.066 H 
ATOM     32  H   LIG d   1       8.263  -4.848  -3.311  0.00  0.00     0.066 H 
ENDBRANCH  28  29
ENDBRANCH   5  28
TORSDOF 7
ENDMDL
MODEL 3
REMARK VINA RESULT:      -5.0      4.477      6.342
REMARK  7 active torsions:
REMARK  status: ('A' for Active; 'I' for Inactive)
REMARK    1  A    between atoms: C_1  and  C_2 
REMARK    2  A    between atoms: C_2  and  C_4 
REMARK    3  A    between atoms: C_2  and  O_19 
REMARK    4  A    between atoms: C_4  and  C_5 
REMARK    5  A    between atoms: C_9  and  O_17 
REMARK    6  A    between atoms: C_11  and  O_16 
REMARK    7  A    between atoms: O_17  and  C_18 
ROOT
ATOM      1  C   LIG d   1       3.535   0.044  -5.214  0.00  0.00     0.112 A 
ATOM      2  C   LIG d   1       2.720   0.085  -6.275  0.00  0.00    -0.015 A 
ATOM      3  C   LIG d   1       3.284  -0.083  -7.618  0.00  0.00    -0.001 A 
ATOM      4  C   LIG d   1       2.494  -0.045  -8.762  0.00  0.00    -0.012 A 
ATOM      5  C   LIG d   1       3.082  -0.214 -10.006  0.00  0.00     0.124 A 
ATOM      6  C   LIG d   1       4.454  -0.413 -10.123  0.00  0.00     0.022 A 
ATOM      7  C   LIG d   1       5.259  -0.449  -8.999  0.00  0.00     0.135 A 
ATOM      8  C   LIG d   1       4.681  -0.284  -7.734  0.00  0.00     0.108 A 
ATOM      9  C   LIG d   1       5.475  -0.312  -6.506  0.00  0.00     0.348 A 
ATOM     10  O   LIG d   1       6.680  -0.481  -6.554  0.00  0.00    -0.244 OA
ATOM     11  O   LIG d   1       4.858  -0.146  -5.321  0.00  0.00    -0.427 OA
ATOM     12  H   LIG d   1       1.659   0.241  -6.143  0.00  0.00     0.066 H 
ATOM     13  H   LIG d   1       1.429   0.113  -8.681  0.00  0.00     0.066 H 
ATOM     14  H   LIG d   1       4.895  -0.540 -11.101  0.00  0.00     0.069 H 
ENDROOT
BRANCH   1  15
ATOM     15  C   LIG d   1       2.940   0.220  -3.840  0.00  0.00     0.031 C 
ATOM     16  H   LIG d   1       3.457   1.027  -3.320  0.00  0.00     0.037 H 
ATOM     17  H   LIG d   1       1.883   0.466  -3.930  0.00  0.00     0.037 H 
BRANCH  15  18
ATOM     18  C   LIG d   1       3.097  -1.079  -3.047  0.00  0.00     0.059 C 
ATOM     19  H   LIG d   1       2.155  -1.319  -2.553  0.00  0.00     0.059 H 
BRANCH  18  20
ATOM     20  C   LIG d   1       4.195  -0.906  -1.995  0.00  0.00    -0.038 C 
ATOM     21  H   LIG d   1       3.930  -0.089  -1.324  0.00  0.00     0.025 H 
ATOM     22  H   LIG d   1       4.299  -1.828  -1.424  0.00  0.00     0.025 H 
ATOM     23  H   LIG d   1       5.138  -0.677  -2.490  0.00  0.00     0.025 H 
ENDBRANCH  18  20
BRANCH  18  24
ATOM     24  O   LIG d   1       3.452  -2.139  -3.936  0.00  0.00    -0.392 OA
ATOM     25  H   LIG d   1       4.327  -2.514  -3.772  0.00  0.00     0.210 HD
ENDBRANCH  18  24
ENDBRANCH  15  18
ENDBRANCH   1  15
BRANCH   7  26
ATOM     26  O   LIG d   1       6.596  -0.642  -9.120  0.00  0.00    -0.506 OA
ATOM     27  H   LIG d   1       6.839  -1.288  -9.797  0.00  0.00     0.292 HD
ENDBRANCH   7  26
BRANCH   5  28
ATOM     28  O   LIG d   1       2.310  -0.182 -11.122  0.00  0.00    -0.495 OA
BRANCH  28  29
ATOM     29  C   LIG d   1       1.335  -1.218 -11.266  0.00  0.00     0.079 C 
ATOM     30  H   LIG d   1       0.521  -1.051 -10.562  0.00  0.00     0.066 H 
ATOM     31  H   LIG d   1       1.798  -2.184 -11.064  0.00  0.00     0.066 H 
ATOM     32  H   LIG d   1       0.943  -1.209 -12.283  0.00  0.00     0.066 H 
ENDBRANCH  28  29
ENDBRANCH   5  28
TORSDOF 7
ENDMDL
MODEL 4
REMARK VINA RESULT:      -4.9      8.515     12.956
REMARK  7 active torsions:
REMARK  status: ('A' for Active; 'I' for Inactive)
REMARK    1  A    between atoms: C_1  and  C_2 
REMARK    2  A    between atoms: C_2  and  C_4 
REMARK    3  A    between atoms: C_2  and  O_19 
REMARK    4  A    between atoms: C_4  and  C_5 
REMARK    5  A    between atoms: C_9  and  O_17 
REMARK    6  A    between atoms: C_11  and  O_16 
REMARK    7  A    between atoms: O_17  and  C_18 
ROOT
ATOM      1  C   LIG d   1      10.075  10.413  -1.471  0.00  0.00     0.112 A 
ATOM      2  C   LIG d   1       9.898   9.276  -2.154  0.00  0.00    -0.015 A 
ATOM      3  C   LIG d   1      10.234   7.998  -1.517  0.00  0.00    -0.001 A 
ATOM      4  C   LIG d   1      10.080   6.782  -2.172  0.00  0.00    -0.012 A 
ATOM      5  C   LIG d   1      10.410   5.604  -1.519  0.00  0.00     0.124 A 
ATOM      6  C   LIG d   1      10.903   5.628  -0.217  0.00  0.00     0.022 A 
ATOM      7  C   LIG d   1      11.069   6.827   0.451  0.00  0.00     0.135 A 
ATOM      8  C   LIG d   1      10.736   8.025  -0.193  0.00  0.00     0.108 A 
ATOM      9  C   LIG d   1      10.888   9.327   0.458  0.00  0.00     0.348 A 
ATOM     10  O   LIG d   1      11.316   9.401   1.595  0.00  0.00    -0.244 OA
ATOM     11  O   LIG d   1      10.550  10.441  -0.217  0.00  0.00    -0.427 OA
ATOM     12  H   LIG d   1       9.513   9.298  -3.162  0.00  0.00     0.066 H 
ATOM     13  H   LIG d   1       9.702   6.754  -3.184  0.00  0.00     0.066 H 
ATOM     14  H   LIG d   1      11.158   4.701   0.275  0.00  0.00     0.069 H 
ENDROOT
BRANCH   1  15
ATOM     15  C   LIG d   1       9.726  11.718  -2.140  0.00  0.00     0.031 C 
ATOM     16  H   LIG d   1       9.159  12.342  -1.449  0.00  0.00     0.037 H 
ATOM     17  H   LIG d   1      10.641  12.235  -2.428  0.00  0.00     0.037 H 
BRANCH  15  18
ATOM     18  C   LIG d   1       8.883  11.442  -3.387  0.00  0.00     0.059 C 
ATOM     19  H   LIG d   1       9.016  10.404  -3.693  0.00  0.00     0.059 H 
BRANCH  18  20
ATOM     20  C   LIG d   1       9.329  12.368  -4.520  0.00  0.00    -0.038 C 
ATOM     21  H   LIG d   1       9.704  11.771  -5.351  0.00  0.00     0.025 H 
ATOM     22  H   LIG d   1       8.483  12.968  -4.854  0.00  0.00     0.025 H 
ATOM     23  H   LIG d   1      10.121  13.026  -4.161  0.00  0.00     0.025 H 
ENDBRANCH  18  20
BRANCH  18  24
ATOM     24  O   LIG d   1       7.505  11.680  -3.092  0.00  0.00    -0.392 OA
ATOM     25  H   LIG d   1       6.944  11.759  -3.874  0.00  0.00     0.210 HD
ENDBRANCH  18  24
ENDBRANCH  15  18
ENDBRANCH   1  15
BRANCH   7  26
ATOM     26  O   LIG d   1      11.550   6.843   1.719  0.00  0.00    -0.506 OA
ATOM     27  H   LIG d   1      10.979   7.302   2.350  0.00  0.00     0.292 HD
ENDBRANCH   7  26
BRANCH   5  28
ATOM     28  O   LIG d   1      10.254   4.416  -2.157  0.00  0.00    -0.495 OA
BRANCH  28  29
ATOM     29  C   LIG d   1       9.843   4.465  -3.525  0.00  0.00     0.079 C 
ATOM     30  H   LIG d   1      10.254   3.607  -4.058  0.00  0.00     0.066 H 
ATOM     31  H   LIG d   1      10.208   5.385  -3.982  0.00  0.00     0.066 H 
ATOM     32  H   LIG d   1       8.755   4.439  -3.579  0.00  0.00     0.066 H 
ENDBRANCH  28  29
ENDBRANCH   5  28
TORSDOF 7
ENDMDL
MODEL 5
REMARK VINA RESULT:      -4.9      1.315      5.662
REMARK  7 active torsions:
REMARK  status: ('A' for Active; 'I' for Inactive)
REMARK    1  A    between atoms: C_1  and  C_2 
REMARK    2  A    between atoms: C_2  and  C_4 
REMARK    3  A    between atoms: C_2  and  O_19 
REMARK    4  A    between atoms: C_4  and  C_5 
REMARK    5  A    between atoms: C_9  and  O_17 
REMARK    6  A    between atoms: C_11  and  O_16 
REMARK    7  A    between atoms: O_17  and  C_18 
ROOT
ATOM      1  C   LIG d   1       7.480   0.980  -5.013  0.00  0.00     0.112 A 
ATOM      2  C   LIG d   1       7.167  -0.250  -5.438  0.00  0.00    -0.015 A 
ATOM      3  C   LIG d   1       6.180  -1.037  -4.690  0.00  0.00    -0.001 A 
ATOM      4  C   LIG d   1       5.815  -2.322  -5.074  0.00  0.00    -0.012 A 
ATOM      5  C   LIG d   1       4.873  -3.018  -4.332  0.00  0.00     0.124 A 
ATOM      6  C   LIG d   1       4.296  -2.447  -3.201  0.00  0.00     0.022 A 
ATOM      7  C   LIG d   1       4.649  -1.171  -2.799  0.00  0.00     0.135 A 
ATOM      8  C   LIG d   1       5.595  -0.453  -3.541  0.00  0.00     0.108 A 
ATOM      9  C   LIG d   1       6.012   0.899  -3.169  0.00  0.00     0.348 A 
ATOM     10  O   LIG d   1       5.538   1.443  -2.188  0.00  0.00    -0.244 OA
ATOM     11  O   LIG d   1       6.927   1.535  -3.924  0.00  0.00    -0.427 OA
ATOM     12  H   LIG d   1       7.636  -0.659  -6.320  0.00  0.00     0.066 H 
ATOM     13  H   LIG d   1       6.261  -2.776  -5.948  0.00  0.00     0.066 H 
ATOM     14  H   LIG d   1       3.566  -3.004  -2.633  0.00  0.00     0.069 H 
ENDROOT
BRANCH   1  15
ATOM     15  C   LIG d   1       8.497   1.776  -5.791  0.00  0.00     0.031 C 
ATOM     16  H   LIG d   1       8.614   1.344  -6.785  0.00  0.00     0.037 H 
ATOM     17  H   LIG d   1       8.160   2.808  -5.880  0.00  0.00     0.037 H 
BRANCH  15  18
ATOM     18  C   LIG d   1       9.840   1.739  -5.057  0.00  0.00     0.059 C 
ATOM     19  H   LIG d   1      10.357   2.688  -5.198  0.00  0.00     0.059 H 
BRANCH  18  20
ATOM     20  C   LIG d   1      10.697   0.603  -5.620  0.00  0.00    -0.038 C 
ATOM     21  H   LIG d   1      10.210  -0.352  -5.423  0.00  0.00     0.025 H 
ATOM     22  H   LIG d   1      10.818   0.736  -6.694  0.00  0.00     0.025 H 
ATOM     23  H   LIG d   1      11.676   0.616  -5.140  0.00  0.00     0.025 H 
ENDBRANCH  18  20
BRANCH  18  24
ATOM     24  O   LIG d   1       9.615   1.521  -3.663  0.00  0.00    -0.392 OA
ATOM     25  H   LIG d   1       8.693   1.625  -3.392  0.00  0.00     0.210 HD
ENDBRANCH  18  24
ENDBRANCH  15  18
ENDBRANCH   1  15
BRANCH   7  26
ATOM     26  O   LIG d   1       4.083  -0.620  -1.696  0.00  0.00    -0.506 OA
ATOM     27  H   LIG d   1       4.614   0.077  -1.289  0.00  0.00     0.292 HD
ENDBRANCH   7  26
BRANCH   5  28
ATOM     28  O   LIG d   1       4.513  -4.271  -4.710  0.00  0.00    -0.495 OA
BRANCH  28  29
ATOM     29  C   LIG d   1       4.453  -4.532  -6.114  0.00  0.00     0.079 C 
ATOM     30  H   LIG d   1       3.526  -5.058  -6.346  0.00  0.00     0.066 H 
ATOM     31  H   LIG d   1       5.303  -5.149  -6.406  0.00  0.00     0.066 H 
ATOM     32  H   LIG d   1       4.483  -3.590  -6.660  0.00  0.00     0.066 H 
ENDBRANCH  28  29
ENDBRANCH   5  28
TORSDOF 7
ENDMDL
MODEL 6
REMARK VINA RESULT:      -4.9      2.592      5.274
REMARK  7 active torsions:
REMARK  status: ('A' for Active; 'I' for Inactive)
REMARK    1  A    between atoms: C_1  and  C_2 
REMARK    2  A    between atoms: C_2  and  C_4 
REMARK    3  A    between atoms: C_2  and  O_19 
REMARK    4  A    between atoms: C_4  and  C_5 
REMARK    5  A    between atoms: C_9  and  O_17 
REMARK    6  A    between atoms: C_11  and  O_16 
REMARK    7  A    between atoms: O_17  and  C_18 
ROOT
ATOM      1  C   LIG d   1       4.611  -2.004  -3.574  0.00  0.00     0.112 A 
ATOM      2  C   LIG d   1       5.934  -1.873  -3.421  0.00  0.00    -0.015 A 
ATOM      3  C   LIG d   1       6.829  -2.839  -4.069  0.00  0.00    -0.001 A 
ATOM      4  C   LIG d   1       8.212  -2.763  -3.946  0.00  0.00    -0.012 A 
ATOM      5  C   LIG d   1       9.009  -3.701  -4.585  0.00  0.00     0.124 A 
ATOM      6  C   LIG d   1       8.439  -4.723  -5.338  0.00  0.00     0.022 A 
ATOM      7  C   LIG d   1       7.065  -4.820  -5.469  0.00  0.00     0.135 A 
ATOM      8  C   LIG d   1       6.246  -3.877  -4.835  0.00  0.00     0.108 A 
ATOM      9  C   LIG d   1       4.787  -3.923  -4.933  0.00  0.00     0.348 A 
ATOM     10  O   LIG d   1       4.240  -4.798  -5.579  0.00  0.00    -0.244 OA
ATOM     11  O   LIG d   1       4.057  -2.988  -4.299  0.00  0.00    -0.427 OA
ATOM     12  H   LIG d   1       6.339  -1.066  -2.829  0.00  0.00     0.066 H 
ATOM     13  H   LIG d   1       8.663  -1.976  -3.360  0.00  0.00     0.066 H 
ATOM     14  H   LIG d   1       9.075  -5.447  -5.826  0.00  0.00     0.069 H 
ENDROOT
BRANCH   1  15
ATOM     15  C   LIG d   1       3.705  -1.005  -2.900  0.00  0.00     0.031 C 
ATOM     16  H   LIG d   1       2.719  -1.037  -3.365  0.00  0.00     0.037 H 
ATOM     17  H   LIG d   1       3.616  -1.250  -1.843  0.00  0.00     0.037 H 
BRANCH  15  18
ATOM     18  C   LIG d   1       4.294   0.399  -3.052  0.00  0.00     0.059 C 
ATOM     19  H   LIG d   1       5.258   0.336  -3.556  0.00  0.00     0.059 H 
BRANCH  18  20
ATOM     20  C   LIG d   1       4.482   1.025  -1.668  0.00  0.00    -0.038 C 
ATOM     21  H   LIG d   1       5.235   1.811  -1.724  0.00  0.00     0.025 H 
ATOM     22  H   LIG d   1       3.537   1.449  -1.329  0.00  0.00     0.025 H 
ATOM     23  H   LIG d   1       4.809   0.259  -0.965  0.00  0.00     0.025 H 
ENDBRANCH  18  20
BRANCH  18  24
ATOM     24  O   LIG d   1       3.404   1.208  -3.823  0.00  0.00    -0.392 OA
ATOM     25  H   LIG d   1       3.410   1.008  -4.769  0.00  0.00     0.210 HD
ENDBRANCH  18  24
ENDBRANCH  15  18
ENDBRANCH   1  15
BRANCH   7  26
ATOM     26  O   LIG d   1       6.516  -5.818  -6.205  0.00  0.00    -0.506 OA
ATOM     27  H   LIG d   1       7.139  -6.519  -6.441  0.00  0.00     0.292 HD
ENDBRANCH   7  26
BRANCH   5  28
ATOM     28  O   LIG d   1      10.359  -3.624  -4.469  0.00  0.00    -0.495 OA
BRANCH  28  29
ATOM     29  C   LIG d   1      10.923  -3.979  -3.205  0.00  0.00     0.079 C 
ATOM     30  H   LIG d   1      11.074  -3.079  -2.608  0.00  0.00     0.066 H 
ATOM     31  H   LIG d   1      11.880  -4.477  -3.360  0.00  0.00     0.066 H 
ATOM     32  H   LIG d   1      10.245  -4.653  -2.681  0.00  0.00     0.066 H 
ENDBRANCH  28  29
ENDBRANCH   5  28
TORSDOF 7
ENDMDL
MODEL 7
REMARK VINA RESULT:      -4.8      3.862      5.387
REMARK  7 active torsions:
REMARK  status: ('A' for Active; 'I' for Inactive)
REMARK    1  A    between atoms: C_1  and  C_2 
REMARK    2  A    between atoms: C_2  and  C_4 
REMARK    3  A    between atoms: C_2  and  O_19 
REMARK    4  A    between atoms: C_4  and  C_5 
REMARK    5  A    between atoms: C_9  and  O_17 
REMARK    6  A    between atoms: C_11  and  O_16 
REMARK    7  A    between atoms: O_17  and  C_18 
ROOT
ATOM      1  C   LIG d   1       3.363  -0.308  -7.975  0.00  0.00     0.112 A 
ATOM      2  C   LIG d   1       3.196   0.191  -6.744  0.00  0.00    -0.015 A 
ATOM      3  C   LIG d   1       3.715  -0.555  -5.592  0.00  0.00    -0.001 A 
ATOM      4  C   LIG d   1       3.570  -0.095  -4.288  0.00  0.00    -0.012 A 
ATOM      5  C   LIG d   1       4.085  -0.841  -3.238  0.00  0.00     0.124 A 
ATOM      6  C   LIG d   1       4.736  -2.048  -3.475  0.00  0.00     0.022 A 
ATOM      7  C   LIG d   1       4.886  -2.525  -4.764  0.00  0.00     0.135 A 
ATOM      8  C   LIG d   1       4.377  -1.782  -5.837  0.00  0.00     0.108 A 
ATOM      9  C   LIG d   1       4.502  -2.231  -7.223  0.00  0.00     0.348 A 
ATOM     10  O   LIG d   1       5.062  -3.280  -7.483  0.00  0.00    -0.244 OA
ATOM     11  O   LIG d   1       3.990  -1.471  -8.208  0.00  0.00    -0.427 OA
ATOM     12  H   LIG d   1       2.685   1.131  -6.600  0.00  0.00     0.066 H 
ATOM     13  H   LIG d   1       3.063   0.838  -4.094  0.00  0.00     0.066 H 
ATOM     14  H   LIG d   1       5.128  -2.616  -2.645  0.00  0.00     0.069 H 
ENDROOT
BRANCH   1  15
ATOM     15  C   LIG d   1       2.823   0.469  -9.148  0.00  0.00     0.031 C 
ATOM     16  H   LIG d   1       2.386  -0.220  -9.871  0.00  0.00     0.037 H 
ATOM     17  H   LIG d   1       2.059   1.165  -8.802  0.00  0.00     0.037 H 
BRANCH  15  18
ATOM     18  C   LIG d   1       3.961   1.248  -9.810  0.00  0.00     0.059 C 
ATOM     19  H   LIG d   1       4.917   0.810  -9.522  0.00  0.00     0.059 H 
BRANCH  18  20
ATOM     20  C   LIG d   1       3.912   2.708  -9.355  0.00  0.00    -0.038 C 
ATOM     21  H   LIG d   1       3.128   2.830  -8.607  0.00  0.00     0.025 H 
ATOM     22  H   LIG d   1       4.873   2.987  -8.923  0.00  0.00     0.025 H 
ATOM     23  H   LIG d   1       3.699   3.348 -10.211  0.00  0.00     0.025 H 
ENDBRANCH  18  20
BRANCH  18  24
ATOM     24  O   LIG d   1       3.817   1.187 -11.230  0.00  0.00    -0.392 OA
ATOM     25  H   LIG d   1       2.973   1.527 -11.555  0.00  0.00     0.210 HD
ENDBRANCH  18  24
ENDBRANCH  15  18
ENDBRANCH   1  15
BRANCH   7  26
ATOM     26  O   LIG d   1       5.522  -3.702  -4.988  0.00  0.00    -0.506 OA
ATOM     27  H   LIG d   1       4.926  -4.455  -5.102  0.00  0.00     0.292 HD
ENDBRANCH   7  26
BRANCH   5  28
ATOM     28  O   LIG d   1       3.948  -0.390  -1.965  0.00  0.00    -0.495 OA
BRANCH  28  29
ATOM     29  C   LIG d   1       4.575   0.855  -1.647  0.00  0.00     0.079 C 
ATOM     30  H   LIG d   1       4.104   1.655  -2.218  0.00  0.00     0.066 H 
ATOM     31  H   LIG d   1       5.635   0.804  -1.900  0.00  0.00     0.066 H 
ATOM     32  H   LIG d   1       4.466   1.055  -0.582  0.00  0.00     0.066 H 
ENDBRANCH  28  29
ENDBRANCH   5  28
TORSDOF 7
ENDMDL
MODEL 8
REMARK VINA RESULT:      -4.8      3.379      4.876
REMARK  7 active torsions:
REMARK  status: ('A' for Active; 'I' for Inactive)
REMARK    1  A    between atoms: C_1  and  C_2 
REMARK    2  A    between atoms: C_2  and  C_4 
REMARK    3  A    between atoms: C_2  and  O_19 
REMARK    4  A    between atoms: C_4  and  C_5 
REMARK    5  A    between atoms: C_9  and  O_17 
REMARK    6  A    between atoms: C_11  and  O_16 
REMARK    7  A    between atoms: O_17  and  C_18 
ROOT
ATOM      1  C   LIG d   1       3.333  -0.167  -6.918  0.00  0.00     0.112 A 
ATOM      2  C   LIG d   1       4.263  -1.129  -6.881  0.00  0.00    -0.015 A 
ATOM      3  C   LIG d   1       4.987  -1.377  -5.630  0.00  0.00    -0.001 A 
ATOM      4  C   LIG d   1       5.968  -2.357  -5.525  0.00  0.00    -0.012 A 
ATOM      5  C   LIG d   1       6.617  -2.549  -4.315  0.00  0.00     0.124 A 
ATOM      6  C   LIG d   1       6.305  -1.767  -3.208  0.00  0.00     0.022 A 
ATOM      7  C   LIG d   1       5.336  -0.783  -3.292  0.00  0.00     0.135 A 
ATOM      8  C   LIG d   1       4.666  -0.579  -4.505  0.00  0.00     0.108 A 
ATOM      9  C   LIG d   1       3.633   0.444  -4.660  0.00  0.00     0.348 A 
ATOM     10  O   LIG d   1       3.323   1.156  -3.722  0.00  0.00    -0.244 OA
ATOM     11  O   LIG d   1       3.028   0.591  -5.853  0.00  0.00    -0.427 OA
ATOM     12  H   LIG d   1       4.477  -1.716  -7.761  0.00  0.00     0.066 H 
ATOM     13  H   LIG d   1       6.221  -2.966  -6.380  0.00  0.00     0.066 H 
ATOM     14  H   LIG d   1       6.823  -1.929  -2.274  0.00  0.00     0.069 H 
ENDROOT
BRANCH   1  15
ATOM     15  C   LIG d   1       2.598   0.077  -8.211  0.00  0.00     0.031 C 
ATOM     16  H   LIG d   1       2.869  -0.691  -8.935  0.00  0.00     0.037 H 
ATOM     17  H   LIG d   1       1.524   0.044  -8.031  0.00  0.00     0.037 H 
BRANCH  15  18
ATOM     18  C   LIG d   1       2.980   1.453  -8.762  0.00  0.00     0.059 C 
ATOM     19  H   LIG d   1       2.403   1.657  -9.664  0.00  0.00     0.059 H 
BRANCH  18  20
ATOM     20  C   LIG d   1       4.473   1.471  -9.097  0.00  0.00    -0.038 C 
ATOM     21  H   LIG d   1       4.883   0.468  -8.985  0.00  0.00     0.025 H 
ATOM     22  H   LIG d   1       4.611   1.809 -10.124  0.00  0.00     0.025 H 
ATOM     23  H   LIG d   1       4.989   2.151  -8.419  0.00  0.00     0.025 H 
ENDBRANCH  18  20
BRANCH  18  24
ATOM     24  O   LIG d   1       2.701   2.453  -7.781  0.00  0.00    -0.392 OA
ATOM     25  H   LIG d   1       3.458   3.011  -7.560  0.00  0.00     0.210 HD
ENDBRANCH  18  24
ENDBRANCH  15  18
ENDBRANCH   1  15
BRANCH   7  26
ATOM     26  O   LIG d   1       5.036  -0.024  -2.209  0.00  0.00    -0.506 OA
ATOM     27  H   LIG d   1       4.134   0.324  -2.211  0.00  0.00     0.292 HD
ENDBRANCH   7  26
BRANCH   5  28
ATOM     28  O   LIG d   1       7.571  -3.509  -4.212  0.00  0.00    -0.495 OA
BRANCH  28  29
ATOM     29  C   LIG d   1       7.486  -4.609  -5.121  0.00  0.00     0.079 C 
ATOM     30  H   LIG d   1       8.197  -4.465  -5.934  0.00  0.00     0.066 H 
ATOM     31  H   LIG d   1       6.476  -4.667  -5.528  0.00  0.00     0.066 H 
ATOM     32  H   LIG d   1       7.718  -5.535  -4.594  0.00  0.00     0.066 H 
ENDBRANCH  28  29
ENDBRANCH   5  28
TORSDOF 7
ENDMDL
MODEL 9
REMARK VINA RESULT:      -4.7      9.769     11.584
REMARK  7 active torsions:
REMARK  status: ('A' for Active; 'I' for Inactive)
REMARK    1  A    between atoms: C_1  and  C_2 
REMARK    2  A    between atoms: C_2  and  C_4 
REMARK    3  A    between atoms: C_2  and  O_19 
REMARK    4  A    between atoms: C_4  and  C_5 
REMARK    5  A    between atoms: C_9  and  O_17 
REMARK    6  A    between atoms: C_11  and  O_16 
REMARK    7  A    between atoms: O_17  and  C_18 
ROOT
ATOM      1  C   LIG d   1       9.800   6.966  -3.956  0.00  0.00     0.112 A 
ATOM      2  C   LIG d   1       9.839   6.118  -4.991  0.00  0.00    -0.015 A 
ATOM      3  C   LIG d   1       9.687   6.643  -6.353  0.00  0.00    -0.001 A 
ATOM      4  C   LIG d   1       9.712   5.816  -7.470  0.00  0.00    -0.012 A 
ATOM      5  C   LIG d   1       9.567   6.368  -8.734  0.00  0.00     0.124 A 
ATOM      6  C   LIG d   1       9.387   7.739  -8.895  0.00  0.00     0.022 A 
ATOM      7  C   LIG d   1       9.354   8.578  -7.796  0.00  0.00     0.135 A 
ATOM      8  C   LIG d   1       9.504   8.038  -6.513  0.00  0.00     0.108 A 
ATOM      9  C   LIG d   1       9.478   8.870  -5.310  0.00  0.00     0.348 A 
ATOM     10  O   LIG d   1       9.322  10.074  -5.397  0.00  0.00    -0.244 OA
ATOM     11  O   LIG d   1       9.627   8.288  -4.106  0.00  0.00    -0.427 OA
ATOM     12  H   LIG d   1       9.981   5.061  -4.826  0.00  0.00     0.066 H 
ATOM     13  H   LIG d   1       9.846   4.751  -7.355  0.00  0.00     0.066 H 
ATOM     14  H   LIG d   1       9.273   8.151  -9.887  0.00  0.00     0.069 H 
ENDROOT
BRANCH   1  15
ATOM     15  C   LIG d   1       9.957   6.412  -2.563  0.00  0.00     0.031 C 
ATOM     16  H   LIG d   1       9.210   5.636  -2.394  0.00  0.00     0.037 H 
ATOM     17  H   LIG d   1      10.953   5.987  -2.451  0.00  0.00     0.037 H 
BRANCH  15  18
ATOM     18  C   LIG d   1       9.763   7.537  -1.544  0.00  0.00     0.059 C 
ATOM     19  H   LIG d   1      10.176   8.464  -1.942  0.00  0.00     0.059 H 
BRANCH  18  20
ATOM     20  C   LIG d   1      10.485   7.176  -0.243  0.00  0.00    -0.038 C 
ATOM     21  H   LIG d   1      11.441   7.698  -0.201  0.00  0.00     0.025 H 
ATOM     22  H   LIG d   1       9.871   7.471   0.607  0.00  0.00     0.025 H 
ATOM     23  H   LIG d   1      10.657   6.100  -0.211  0.00  0.00     0.025 H 
ENDBRANCH  18  20
BRANCH  18  24
ATOM     24  O   LIG d   1       8.369   7.709  -1.283  0.00  0.00    -0.392 OA
ATOM     25  H   LIG d   1       7.979   8.478  -1.719  0.00  0.00     0.210 HD
ENDBRANCH  18  24
ENDBRANCH  15  18
ENDBRANCH   1  15
BRANCH   7  26
ATOM     26  O   LIG d   1       9.178   9.913  -7.960  0.00  0.00    -0.506 OA
ATOM     27  H   LIG d   1       9.344  10.432  -7.161  0.00  0.00     0.292 HD
ENDBRANCH   7  26
BRANCH   5  28
ATOM     28  O   LIG d   1       9.597   5.562  -9.826  0.00  0.00    -0.495 OA
BRANCH  28  29
ATOM     29  C   LIG d   1       9.082   6.102 -11.045  0.00  0.00     0.079 C 
ATOM     30  H   LIG d   1       9.909   6.411 -11.684  0.00  0.00     0.066 H 
ATOM     31  H   LIG d   1       8.453   6.964 -10.823  0.00  0.00     0.066 H 
ATOM     32  H   LIG d   1       8.491   5.343 -11.557  0.00  0.00     0.066 H 
ENDBRANCH  28  29
ENDBRANCH   5  28
TORSDOF 7
ENDMDL
