MODEL 1
REMARK VINA RESULT:      -7.1      0.000      0.000
REMARK  6 active torsions:
REMARK  status: ('A' for Active; 'I' for Inactive)
REMARK    1  A    between atoms: C_1  and  C_2 
REMARK       I    between atoms: C_2  and  N_4 
REMARK    2  A    between atoms: N_7  and  C_10 
REMARK    3  A    between atoms: C_12  and  O_31 
REMARK    4  A    between atoms: C_14  and  N_23 
REMARK    5  A    between atoms: N_23  and  C_24 
REMARK    6  A    between atoms: C_24  and  C_25 
ROOT
ATOM      1  C   LIG d   1       5.033  -0.482  -8.261  0.00  0.00     0.093 C 
ATOM      2  H   LIG d   1       6.030  -0.242  -8.659  0.00  0.00     0.054 H 
ATOM      3  C   LIG d   1       4.283   0.791  -7.854  0.00  0.00     0.120 C 
ATOM      4  H   LIG d   1       4.808   1.323  -7.047  0.00  0.00     0.067 H 
ATOM      5  C   LIG d   1       2.851   0.427  -7.446  0.00  0.00     0.035 C 
ATOM      6  H   LIG d   1       2.257   1.330  -7.239  0.00  0.00     0.090 H 
ATOM      7  C   LIG d   1       2.220  -0.409  -8.571  0.00  0.00     0.130 C 
ATOM      8  H   LIG d   1       1.150  -0.585  -8.385  0.00  0.00     0.068 H 
ATOM      9  C   LIG d   1       2.560   0.276  -9.916  0.00  0.00     0.082 C 
ATOM     10  O   LIG d   1       3.804  -0.317 -10.330  0.00  0.00    -0.347 OA
ATOM     11  C   LIG d   1       4.191  -1.243  -9.298  0.00  0.00     0.178 C 
ATOM     12  H   LIG d   1       4.712  -2.107  -9.739  0.00  0.00     0.093 H 
ATOM     13  O   LIG d   1       2.965  -1.650  -8.651  0.00  0.00    -0.339 OA
ATOM     14  H   LIG d   1       1.756   0.081 -10.640  0.00  0.00     0.059 H 
ATOM     15  H   LIG d   1       2.659   1.361  -9.759  0.00  0.00     0.059 H 
ENDROOT
BRANCH   1  16
ATOM     16  N   LIG d   1       5.241  -1.331  -7.080  0.00  0.00    -0.290 N 
ATOM     17  C   LIG d   1       5.456  -2.731  -7.468  0.00  0.00     0.015 C 
ATOM     18  C   LIG d   1       5.488  -3.607  -6.210  0.00  0.00     0.028 C 
ATOM     19  H   LIG d   1       6.414  -2.821  -8.002  0.00  0.00     0.044 H 
ATOM     20  H   LIG d   1       4.637  -3.061  -8.124  0.00  0.00     0.044 H 
ATOM     21  N   LIG d   1       6.488  -3.058  -5.283  0.00  0.00    -0.299 N 
ATOM     22  H   LIG d   1       5.763  -4.638  -6.478  0.00  0.00     0.048 H 
ATOM     23  H   LIG d   1       4.500  -3.605  -5.728  0.00  0.00     0.048 H 
ATOM     24  C   LIG d   1       7.443  -3.845  -4.749  0.00  0.00     0.212 C 
ATOM     25  C   LIG d   1       6.419  -1.626  -4.953  0.00  0.00     0.028 C 
ATOM     26  O   LIG d   1       7.484  -5.024  -5.032  0.00  0.00    -0.276 OA
ATOM     27  C   LIG d   1       6.351  -0.828  -6.259  0.00  0.00     0.015 C 
ATOM     28  H   LIG d   1       5.521  -1.432  -4.349  0.00  0.00     0.048 H 
ATOM     29  H   LIG d   1       7.314  -1.337  -4.383  0.00  0.00     0.048 H 
ATOM     30  H   LIG d   1       7.296  -0.944  -6.811  0.00  0.00     0.044 H 
ATOM     31  H   LIG d   1       6.186   0.236  -6.033  0.00  0.00     0.044 H 
BRANCH  24  32
ATOM     32  C   LIG d   1       8.459  -3.261  -3.802  0.00  0.00     0.012 C 
ATOM     33  H   LIG d   1       8.693  -3.996  -3.017  0.00  0.00     0.032 H 
ATOM     34  H   LIG d   1       8.050  -2.350  -3.342  0.00  0.00     0.032 H 
ATOM     35  H   LIG d   1       9.376  -3.013  -4.357  0.00  0.00     0.032 H 
ENDBRANCH  24  32
ENDBRANCH   1  16
BRANCH   3  36
ATOM     36  O   LIG d   1       4.250   1.698  -8.957  0.00  0.00    -0.384 OA
ATOM     37  H   LIG d   1       4.282   2.783  -8.779  0.00  0.00     0.210 HD
ENDBRANCH   3  36
BRANCH   5  38
ATOM     38  N   LIG d   1       2.875  -0.351  -6.201  0.00  0.00     0.236 N 
ATOM     39  H   LIG d   1       2.178  -1.199  -6.285  0.00  0.00     0.202 HD
ATOM     40  H   LIG d   1       3.892  -0.729  -6.023  0.00  0.00     0.202 HD
BRANCH  38  41
ATOM     41  C   LIG d   1       2.472   0.476  -5.055  0.00  0.00    -0.007 C 
ATOM     42  H   LIG d   1       2.726   1.528  -5.256  0.00  0.00     0.087 H 
ATOM     43  H   LIG d   1       1.387   0.384  -4.899  0.00  0.00     0.087 H 
BRANCH  41  44
ATOM     44  C   LIG d   1       3.199   0.011  -3.820  0.00  0.00    -0.003 A 
ATOM     45  C   LIG d   1       3.880   0.922  -3.034  0.00  0.00    -0.053 A 
ATOM     46  C   LIG d   1       4.547   0.494  -1.900  0.00  0.00    -0.061 A 
ATOM     47  H   LIG d   1       3.892   1.967  -3.305  0.00  0.00     0.062 H 
ATOM     48  C   LIG d   1       4.532  -0.843  -1.553  0.00  0.00    -0.062 A 
ATOM     49  H   LIG d   1       5.078   1.206  -1.287  0.00  0.00     0.062 H 
ATOM     50  C   LIG d   1       3.850  -1.754  -2.339  0.00  0.00    -0.061 A 
ATOM     51  H   LIG d   1       5.052  -1.177  -0.667  0.00  0.00     0.062 H 
ATOM     52  C   LIG d   1       3.181  -1.326  -3.469  0.00  0.00    -0.053 A 
ATOM     53  H   LIG d   1       3.839  -2.799  -2.067  0.00  0.00     0.062 H 
ATOM     54  H   LIG d   1       2.645  -2.037  -4.082  0.00  0.00     0.062 H 
ENDBRANCH  41  44
ENDBRANCH  38  41
ENDBRANCH   5  38
TORSDOF 6
ENDMDL
MODEL 2
REMARK VINA RESULT:      -6.9      1.894      2.201
REMARK  6 active torsions:
REMARK  status: ('A' for Active; 'I' for Inactive)
REMARK    1  A    between atoms: C_1  and  C_2 
REMARK       I    between atoms: C_2  and  N_4 
REMARK    2  A    between atoms: N_7  and  C_10 
REMARK    3  A    between atoms: C_12  and  O_31 
REMARK    4  A    between atoms: C_14  and  N_23 
REMARK    5  A    between atoms: N_23  and  C_24 
REMARK    6  A    between atoms: C_24  and  C_25 
ROOT
ATOM      1  C   LIG d   1       4.919  -1.010  -8.514  0.00  0.00     0.093 C 
ATOM      2  H   LIG d   1       5.907  -1.305  -8.898  0.00  0.00     0.054 H 
ATOM      3  C   LIG d   1       5.045   0.123  -7.491  0.00  0.00     0.120 C 
ATOM      4  H   LIG d   1       5.625  -0.194  -6.611  0.00  0.00     0.067 H 
ATOM      5  C   LIG d   1       3.645   0.605  -7.093  0.00  0.00     0.035 C 
ATOM      6  H   LIG d   1       3.701   1.482  -6.431  0.00  0.00     0.090 H 
ATOM      7  C   LIG d   1       2.856   0.923  -8.373  0.00  0.00     0.130 C 
ATOM      8  H   LIG d   1       1.890   1.396  -8.140  0.00  0.00     0.068 H 
ATOM      9  C   LIG d   1       3.784   1.729  -9.312  0.00  0.00     0.082 C 
ATOM     10  O   LIG d   1       4.456   0.738 -10.110  0.00  0.00    -0.347 OA
ATOM     11  C   LIG d   1       3.998  -0.548  -9.654  0.00  0.00     0.178 C 
ATOM     12  H   LIG d   1       3.953  -1.255 -10.497  0.00  0.00     0.093 H 
ATOM     13  O   LIG d   1       2.686  -0.325  -9.092  0.00  0.00    -0.339 OA
ATOM     14  H   LIG d   1       3.180   2.408  -9.931  0.00  0.00     0.059 H 
ATOM     15  H   LIG d   1       4.494   2.316  -8.709  0.00  0.00     0.059 H 
ENDROOT
BRANCH   1  16
ATOM     16  N   LIG d   1       4.344  -2.197  -7.868  0.00  0.00    -0.290 N 
ATOM     17  C   LIG d   1       4.062  -3.249  -8.854  0.00  0.00     0.015 C 
ATOM     18  C   LIG d   1       3.300  -4.392  -8.172  0.00  0.00     0.028 C 
ATOM     19  H   LIG d   1       5.009  -3.632  -9.262  0.00  0.00     0.044 H 
ATOM     20  H   LIG d   1       3.450  -2.836  -9.669  0.00  0.00     0.044 H 
ATOM     21  N   LIG d   1       4.068  -4.829  -6.996  0.00  0.00    -0.299 N 
ATOM     22  H   LIG d   1       3.185  -5.234  -8.869  0.00  0.00     0.048 H 
ATOM     23  H   LIG d   1       2.308  -4.042  -7.853  0.00  0.00     0.048 H 
ATOM     24  C   LIG d   1       4.362  -6.131  -6.808  0.00  0.00     0.212 C 
ATOM     25  C   LIG d   1       4.505  -3.809  -6.031  0.00  0.00     0.028 C 
ATOM     26  O   LIG d   1       3.993  -6.959  -7.614  0.00  0.00    -0.276 OA
ATOM     27  C   LIG d   1       5.219  -2.690  -6.797  0.00  0.00     0.015 C 
ATOM     28  H   LIG d   1       3.629  -3.403  -5.505  0.00  0.00     0.048 H 
ATOM     29  H   LIG d   1       5.193  -4.264  -5.303  0.00  0.00     0.048 H 
ATOM     30  H   LIG d   1       6.150  -3.080  -7.235  0.00  0.00     0.044 H 
ATOM     31  H   LIG d   1       5.455  -1.865  -6.108  0.00  0.00     0.044 H 
BRANCH  24  32
ATOM     32  C   LIG d   1       5.151  -6.557  -5.596  0.00  0.00     0.012 C 
ATOM     33  H   LIG d   1       4.643  -7.402  -5.107  0.00  0.00     0.032 H 
ATOM     34  H   LIG d   1       5.226  -5.716  -4.892  0.00  0.00     0.032 H 
ATOM     35  H   LIG d   1       6.160  -6.867  -5.907  0.00  0.00     0.032 H 
ENDBRANCH  24  32
ENDBRANCH   1  16
BRANCH   3  36
ATOM     36  O   LIG d   1       5.777   1.208  -8.066  0.00  0.00    -0.384 OA
ATOM     37  H   LIG d   1       6.419   1.836  -7.432  0.00  0.00     0.210 HD
ENDBRANCH   3  36
BRANCH   5  38
ATOM     38  N   LIG d   1       2.958  -0.448  -6.333  0.00  0.00     0.236 N 
ATOM     39  H   LIG d   1       2.250  -0.972  -6.993  0.00  0.00     0.202 HD
ATOM     40  H   LIG d   1       3.698  -1.164  -5.947  0.00  0.00     0.202 HD
BRANCH  38  41
ATOM     41  C   LIG d   1       2.214   0.120  -5.201  0.00  0.00    -0.007 C 
ATOM     42  H   LIG d   1       2.042   1.192  -5.377  0.00  0.00     0.087 H 
ATOM     43  H   LIG d   1       1.248  -0.396  -5.101  0.00  0.00     0.087 H 
BRANCH  41  44
ATOM     44  C   LIG d   1       3.013  -0.059  -3.935  0.00  0.00    -0.003 A 
ATOM     45  C   LIG d   1       3.476   1.046  -3.248  0.00  0.00    -0.053 A 
ATOM     46  C   LIG d   1       4.209   0.881  -2.087  0.00  0.00    -0.061 A 
ATOM     47  H   LIG d   1       3.267   2.039  -3.617  0.00  0.00     0.062 H 
ATOM     48  C   LIG d   1       4.477  -0.389  -1.614  0.00  0.00    -0.062 A 
ATOM     49  H   LIG d   1       4.571   1.746  -1.550  0.00  0.00     0.062 H 
ATOM     50  C   LIG d   1       4.013  -1.495  -2.301  0.00  0.00    -0.061 A 
ATOM     51  H   LIG d   1       5.049  -0.518  -0.706  0.00  0.00     0.062 H 
ATOM     52  C   LIG d   1       3.277  -1.330  -3.459  0.00  0.00    -0.053 A 
ATOM     53  H   LIG d   1       4.223  -2.487  -1.931  0.00  0.00     0.062 H 
ATOM     54  H   LIG d   1       2.912  -2.194  -3.995  0.00  0.00     0.062 H 
ENDBRANCH  41  44
ENDBRANCH  38  41
ENDBRANCH   5  38
TORSDOF 6
ENDMDL
MODEL 3
REMARK VINA RESULT:      -6.9      1.936      5.036
REMARK  6 active torsions:
REMARK  status: ('A' for Active; 'I' for Inactive)
REMARK    1  A    between atoms: C_1  and  C_2 
REMARK       I    between atoms: C_2  and  N_4 
REMARK    2  A    between atoms: N_7  and  C_10 
REMARK    3  A    between atoms: C_12  and  O_31 
REMARK    4  A    between atoms: C_14  and  N_23 
REMARK    5  A    between atoms: N_23  and  C_24 
REMARK    6  A    between atoms: C_24  and  C_25 
ROOT
ATOM      1  C   LIG d   1       4.930  -3.706  -7.860  0.00  0.00     0.093 C 
ATOM      2  H   LIG d   1       4.654  -3.887  -8.909  0.00  0.00     0.054 H 
ATOM      3  C   LIG d   1       3.952  -4.403  -6.908  0.00  0.00     0.120 C 
ATOM      4  H   LIG d   1       2.932  -4.009  -7.022  0.00  0.00     0.067 H 
ATOM      5  C   LIG d   1       4.453  -4.252  -5.467  0.00  0.00     0.035 C 
ATOM      6  H   LIG d   1       3.825  -4.823  -4.767  0.00  0.00     0.090 H 
ATOM      7  C   LIG d   1       5.917  -4.717  -5.407  0.00  0.00     0.130 C 
ATOM      8  H   LIG d   1       6.283  -4.752  -4.370  0.00  0.00     0.068 H 
ATOM      9  C   LIG d   1       6.023  -6.044  -6.197  0.00  0.00     0.082 C 
ATOM     10  O   LIG d   1       6.325  -5.648  -7.547  0.00  0.00    -0.347 OA
ATOM     11  C   LIG d   1       6.352  -4.209  -7.566  0.00  0.00     0.178 C 
ATOM     12  H   LIG d   1       7.102  -3.853  -8.289  0.00  0.00     0.093 H 
ATOM     13  O   LIG d   1       6.690  -3.802  -6.222  0.00  0.00    -0.339 OA
ATOM     14  H   LIG d   1       6.824  -6.663  -5.767  0.00  0.00     0.059 H 
ATOM     15  H   LIG d   1       5.067  -6.584  -6.135  0.00  0.00     0.059 H 
ENDROOT
BRANCH   1  16
ATOM     16  N   LIG d   1       4.869  -2.253  -7.650  0.00  0.00    -0.290 N 
ATOM     17  C   LIG d   1       6.043  -1.588  -8.233  0.00  0.00     0.015 C 
ATOM     18  C   LIG d   1       6.034  -0.106  -7.837  0.00  0.00     0.028 C 
ATOM     19  H   LIG d   1       6.008  -1.675  -9.328  0.00  0.00     0.044 H 
ATOM     20  H   LIG d   1       6.961  -2.062  -7.855  0.00  0.00     0.044 H 
ATOM     21  N   LIG d   1       4.737   0.472  -8.219  0.00  0.00    -0.299 N 
ATOM     22  H   LIG d   1       6.842   0.426  -8.361  0.00  0.00     0.048 H 
ATOM     23  H   LIG d   1       6.174  -0.008  -6.751  0.00  0.00     0.048 H 
ATOM     24  C   LIG d   1       4.672   1.605  -8.947  0.00  0.00     0.212 C 
ATOM     25  C   LIG d   1       3.512  -0.219  -7.786  0.00  0.00     0.028 C 
ATOM     26  O   LIG d   1       5.692   2.161  -9.294  0.00  0.00    -0.276 OA
ATOM     27  C   LIG d   1       3.620  -1.695  -8.184  0.00  0.00     0.015 C 
ATOM     28  H   LIG d   1       3.409  -0.131  -6.696  0.00  0.00     0.048 H 
ATOM     29  H   LIG d   1       2.641   0.239  -8.277  0.00  0.00     0.048 H 
ATOM     30  H   LIG d   1       3.620  -1.782  -9.280  0.00  0.00     0.044 H 
ATOM     31  H   LIG d   1       2.765  -2.250  -7.771  0.00  0.00     0.044 H 
BRANCH  24  32
ATOM     32  C   LIG d   1       3.332   2.179  -9.328  0.00  0.00     0.012 C 
ATOM     33  H   LIG d   1       2.534   1.611  -8.828  0.00  0.00     0.032 H 
ATOM     34  H   LIG d   1       3.202   2.115 -10.418  0.00  0.00     0.032 H 
ATOM     35  H   LIG d   1       3.283   3.233  -9.014  0.00  0.00     0.032 H 
ENDBRANCH  24  32
ENDBRANCH   1  16
BRANCH   3  36
ATOM     36  O   LIG d   1       3.869  -5.791  -7.241  0.00  0.00    -0.384 OA
ATOM     37  H   LIG d   1       3.345  -6.487  -6.572  0.00  0.00     0.210 HD
ENDBRANCH   3  36
BRANCH   5  38
ATOM     38  N   LIG d   1       4.361  -2.845  -5.057  0.00  0.00     0.236 N 
ATOM     39  H   LIG d   1       5.216  -2.287  -5.468  0.00  0.00     0.202 HD
ATOM     40  H   LIG d   1       3.424  -2.412  -5.438  0.00  0.00     0.202 HD
BRANCH  38  41
ATOM     41  C   LIG d   1       4.378  -2.720  -3.594  0.00  0.00    -0.007 C 
ATOM     42  H   LIG d   1       3.589  -3.356  -3.163  0.00  0.00     0.087 H 
ATOM     43  H   LIG d   1       5.357  -3.040  -3.209  0.00  0.00     0.087 H 
BRANCH  41  44
ATOM     44  C   LIG d   1       4.130  -1.284  -3.209  0.00  0.00    -0.003 A 
ATOM     45  C   LIG d   1       3.340  -0.480  -4.009  0.00  0.00    -0.053 A 
ATOM     46  C   LIG d   1       3.114   0.837  -3.655  0.00  0.00    -0.061 A 
ATOM     47  H   LIG d   1       2.901  -0.880  -4.910  0.00  0.00     0.062 H 
ATOM     48  C   LIG d   1       3.677   1.349  -2.502  0.00  0.00    -0.062 A 
ATOM     49  H   LIG d   1       2.497   1.465  -4.281  0.00  0.00     0.062 H 
ATOM     50  C   LIG d   1       4.466   0.544  -1.701  0.00  0.00    -0.061 A 
ATOM     51  H   LIG d   1       3.499   2.378  -2.225  0.00  0.00     0.062 H 
ATOM     52  C   LIG d   1       4.689  -0.773  -2.052  0.00  0.00    -0.053 A 
ATOM     53  H   LIG d   1       4.905   0.945  -0.800  0.00  0.00     0.062 H 
ATOM     54  H   LIG d   1       5.303  -1.403  -1.425  0.00  0.00     0.062 H 
ENDBRANCH  41  44
ENDBRANCH  38  41
ENDBRANCH   5  38
TORSDOF 6
ENDMDL
MODEL 4
REMARK VINA RESULT:      -6.6      3.221      5.608
REMARK  6 active torsions:
REMARK  status: ('A' for Active; 'I' for Inactive)
REMARK    1  A    between atoms: C_1  and  C_2 
REMARK       I    between atoms: C_2  and  N_4 
REMARK    2  A    between atoms: N_7  and  C_10 
REMARK    3  A    between atoms: C_12  and  O_31 
REMARK    4  A    between atoms: C_14  and  N_23 
REMARK    5  A    between atoms: N_23  and  C_24 
REMARK    6  A    between atoms: C_24  and  C_25 
ROOT
ATOM      1  C   LIG d   1       5.820  -1.146  -3.221  0.00  0.00     0.093 C 
ATOM      2  H   LIG d   1       6.341  -1.636  -2.385  0.00  0.00     0.054 H 
ATOM      3  C   LIG d   1       4.897  -2.133  -3.944  0.00  0.00     0.120 C 
ATOM      4  H   LIG d   1       5.467  -2.961  -4.390  0.00  0.00     0.067 H 
ATOM      5  C   LIG d   1       4.082  -1.381  -5.003  0.00  0.00     0.035 C 
ATOM      6  H   LIG d   1       3.341  -2.043  -5.475  0.00  0.00     0.090 H 
ATOM      7  C   LIG d   1       3.405  -0.175  -4.332  0.00  0.00     0.130 C 
ATOM      8  H   LIG d   1       2.704   0.322  -5.020  0.00  0.00     0.068 H 
ATOM      9  C   LIG d   1       2.797  -0.659  -2.994  0.00  0.00     0.082 C 
ATOM     10  O   LIG d   1       3.841  -0.466  -2.022  0.00  0.00    -0.347 OA
ATOM     11  C   LIG d   1       4.985   0.047  -2.731  0.00  0.00     0.178 C 
ATOM     12  H   LIG d   1       5.546   0.744  -2.091  0.00  0.00     0.093 H 
ATOM     13  O   LIG d   1       4.459   0.719  -3.896  0.00  0.00    -0.339 OA
ATOM     14  H   LIG d   1       1.907  -0.059  -2.758  0.00  0.00     0.059 H 
ATOM     15  H   LIG d   1       2.514  -1.719  -3.083  0.00  0.00     0.059 H 
ENDROOT
BRANCH   1  16
ATOM     16  N   LIG d   1       6.858  -0.672  -4.147  0.00  0.00    -0.290 N 
ATOM     17  C   LIG d   1       7.451   0.586  -3.674  0.00  0.00     0.015 C 
ATOM     18  C   LIG d   1       8.392   1.139  -4.750  0.00  0.00     0.028 C 
ATOM     19  H   LIG d   1       8.020   0.399  -2.751  0.00  0.00     0.044 H 
ATOM     20  H   LIG d   1       6.654   1.317  -3.473  0.00  0.00     0.044 H 
ATOM     21  N   LIG d   1       9.359   0.091  -5.109  0.00  0.00    -0.299 N 
ATOM     22  H   LIG d   1       8.930   2.016  -4.363  0.00  0.00     0.048 H 
ATOM     23  H   LIG d   1       7.815   1.426  -5.641  0.00  0.00     0.048 H 
ATOM     24  C   LIG d   1      10.683   0.343  -5.115  0.00  0.00     0.212 C 
ATOM     25  C   LIG d   1       8.843  -1.241  -5.464  0.00  0.00     0.028 C 
ATOM     26  O   LIG d   1      11.091   1.446  -4.820  0.00  0.00    -0.276 OA
ATOM     27  C   LIG d   1       7.884  -1.700  -4.360  0.00  0.00     0.015 C 
ATOM     28  H   LIG d   1       8.309  -1.183  -6.423  0.00  0.00     0.048 H 
ATOM     29  H   LIG d   1       9.681  -1.947  -5.551  0.00  0.00     0.048 H 
ATOM     30  H   LIG d   1       8.445  -1.855  -3.426  0.00  0.00     0.044 H 
ATOM     31  H   LIG d   1       7.403  -2.642  -4.659  0.00  0.00     0.044 H 
BRANCH  24  32
ATOM     32  C   LIG d   1      11.656  -0.747  -5.485  0.00  0.00     0.012 C 
ATOM     33  H   LIG d   1      11.117  -1.567  -5.982  0.00  0.00     0.032 H 
ATOM     34  H   LIG d   1      12.146  -1.127  -4.577  0.00  0.00     0.032 H 
ATOM     35  H   LIG d   1      12.417  -0.341  -6.169  0.00  0.00     0.032 H 
ENDBRANCH  24  32
ENDBRANCH   1  16
BRANCH   3  36
ATOM     36  O   LIG d   1       4.011  -2.737  -3.000  0.00  0.00    -0.384 OA
ATOM     37  H   LIG d   1       2.944  -2.474  -3.000  0.00  0.00     0.210 HD
ENDBRANCH   3  36
BRANCH   5  38
ATOM     38  N   LIG d   1       4.973  -0.919  -6.076  0.00  0.00     0.236 N 
ATOM     39  H   LIG d   1       5.207   0.145  -5.924  0.00  0.00     0.202 HD
ATOM     40  H   LIG d   1       5.903  -1.505  -6.058  0.00  0.00     0.202 HD
BRANCH  38  41
ATOM     41  C   LIG d   1       4.339  -1.079  -7.391  0.00  0.00    -0.007 C 
ATOM     42  H   LIG d   1       4.966  -1.727  -8.023  0.00  0.00     0.087 H 
ATOM     43  H   LIG d   1       3.346  -1.537  -7.268  0.00  0.00     0.087 H 
BRANCH  41  44
ATOM     44  C   LIG d   1       4.193   0.271  -8.046  0.00  0.00    -0.003 A 
ATOM     45  C   LIG d   1       5.282   0.865  -8.655  0.00  0.00    -0.053 A 
ATOM     46  C   LIG d   1       5.147   2.104  -9.255  0.00  0.00    -0.061 A 
ATOM     47  H   LIG d   1       6.238   0.364  -8.662  0.00  0.00     0.062 H 
ATOM     48  C   LIG d   1       3.923   2.746  -9.247  0.00  0.00    -0.062 A 
ATOM     49  H   LIG d   1       5.998   2.568  -9.731  0.00  0.00     0.062 H 
ATOM     50  C   LIG d   1       2.833   2.150  -8.638  0.00  0.00    -0.061 A 
ATOM     51  H   LIG d   1       3.818   3.713  -9.716  0.00  0.00     0.062 H 
ATOM     52  C   LIG d   1       2.968   0.911  -8.042  0.00  0.00    -0.053 A 
ATOM     53  H   LIG d   1       1.878   2.653  -8.631  0.00  0.00     0.062 H 
ATOM     54  H   LIG d   1       2.116   0.444  -7.569  0.00  0.00     0.062 H 
ENDBRANCH  41  44
ENDBRANCH  38  41
ENDBRANCH   5  38
TORSDOF 6
ENDMDL
MODEL 5
REMARK VINA RESULT:      -6.4      2.839      4.129
REMARK  6 active torsions:
REMARK  status: ('A' for Active; 'I' for Inactive)
REMARK    1  A    between atoms: C_1  and  C_2 
REMARK       I    between atoms: C_2  and  N_4 
REMARK    2  A    between atoms: N_7  and  C_10 
REMARK    3  A    between atoms: C_12  and  O_31 
REMARK    4  A    between atoms: C_14  and  N_23 
REMARK    5  A    between atoms: N_23  and  C_24 
REMARK    6  A    between atoms: C_24  and  C_25 
ROOT
ATOM      1  C   LIG d   1       7.883  -1.252  -6.962  0.00  0.00     0.093 C 
ATOM      2  H   LIG d   1       8.239  -1.837  -7.823  0.00  0.00     0.054 H 
ATOM      3  C   LIG d   1       9.046  -0.870  -6.040  0.00  0.00     0.120 C 
ATOM      4  H   LIG d   1       9.531  -1.762  -5.617  0.00  0.00     0.067 H 
ATOM      5  C   LIG d   1       8.533   0.064  -4.939  0.00  0.00     0.035 C 
ATOM      6  H   LIG d   1       9.362   0.433  -4.315  0.00  0.00     0.090 H 
ATOM      7  C   LIG d   1       7.772   1.225  -5.598  0.00  0.00     0.130 C 
ATOM      8  H   LIG d   1       7.496   1.992  -4.858  0.00  0.00     0.068 H 
ATOM      9  C   LIG d   1       8.617   1.725  -6.794  0.00  0.00     0.082 C 
ATOM     10  O   LIG d   1       8.167   0.945  -7.916  0.00  0.00    -0.347 OA
ATOM     11  C   LIG d   1       7.171   0.031  -7.420  0.00  0.00     0.178 C 
ATOM     12  H   LIG d   1       6.401  -0.143  -8.186  0.00  0.00     0.093 H 
ATOM     13  O   LIG d   1       6.607   0.659  -6.248  0.00  0.00    -0.339 OA
ATOM     14  H   LIG d   1       8.436   2.799  -6.947  0.00  0.00     0.059 H 
ATOM     15  H   LIG d   1       9.684   1.557  -6.584  0.00  0.00     0.059 H 
ENDROOT
BRANCH   1  16
ATOM     16  N   LIG d   1       6.936  -2.106  -6.233  0.00  0.00    -0.290 N 
ATOM     17  C   LIG d   1       5.638  -2.159  -6.920  0.00  0.00     0.015 C 
ATOM     18  C   LIG d   1       4.629  -2.906  -6.040  0.00  0.00     0.028 C 
ATOM     19  H   LIG d   1       5.751  -2.687  -7.878  0.00  0.00     0.044 H 
ATOM     20  H   LIG d   1       5.277  -1.136  -7.104  0.00  0.00     0.044 H 
ATOM     21  N   LIG d   1       5.199  -4.214  -5.683  0.00  0.00    -0.299 N 
ATOM     22  H   LIG d   1       3.689  -3.053  -6.590  0.00  0.00     0.048 H 
ATOM     23  H   LIG d   1       4.432  -2.330  -5.124  0.00  0.00     0.048 H 
ATOM     24  C   LIG d   1       4.496  -5.349  -5.871  0.00  0.00     0.212 C 
ATOM     25  C   LIG d   1       6.555  -4.252  -5.115  0.00  0.00     0.028 C 
ATOM     26  O   LIG d   1       3.379  -5.299  -6.340  0.00  0.00    -0.276 OA
ATOM     27  C   LIG d   1       7.488  -3.452  -6.031  0.00  0.00     0.015 C 
ATOM     28  H   LIG d   1       6.544  -3.806  -4.111  0.00  0.00     0.048 H 
ATOM     29  H   LIG d   1       6.896  -5.295  -5.051  0.00  0.00     0.048 H 
ATOM     30  H   LIG d   1       7.575  -3.961  -7.003  0.00  0.00     0.044 H 
ATOM     31  H   LIG d   1       8.482  -3.374  -5.567  0.00  0.00     0.044 H 
BRANCH  24  32
ATOM     32  C   LIG d   1       5.099  -6.679  -5.500  0.00  0.00     0.012 C 
ATOM     33  H   LIG d   1       5.923  -6.914  -6.190  0.00  0.00     0.032 H 
ATOM     34  H   LIG d   1       4.330  -7.462  -5.566  0.00  0.00     0.032 H 
ATOM     35  H   LIG d   1       5.486  -6.630  -4.470  0.00  0.00     0.032 H 
ENDBRANCH  24  32
ENDBRANCH   1  16
BRANCH   3  36
ATOM     36  O   LIG d   1      10.057  -0.204  -6.799  0.00  0.00    -0.384 OA
ATOM     37  H   LIG d   1      11.031  -0.688  -6.963  0.00  0.00     0.210 HD
ENDBRANCH   3  36
BRANCH   5  38
ATOM     38  N   LIG d   1       7.635  -0.676  -4.043  0.00  0.00     0.236 N 
ATOM     39  H   LIG d   1       6.896  -1.229  -4.641  0.00  0.00     0.202 HD
ATOM     40  H   LIG d   1       8.221  -1.384  -3.438  0.00  0.00     0.202 HD
BRANCH  38  41
ATOM     41  C   LIG d   1       6.921   0.238  -3.141  0.00  0.00    -0.007 C 
ATOM     42  H   LIG d   1       7.429   0.260  -2.165  0.00  0.00     0.087 H 
ATOM     43  H   LIG d   1       6.913   1.249  -3.573  0.00  0.00     0.087 H 
BRANCH  41  44
ATOM     44  C   LIG d   1       5.504  -0.242  -2.958  0.00  0.00    -0.003 A 
ATOM     45  C   LIG d   1       5.255  -1.572  -2.677  0.00  0.00    -0.053 A 
ATOM     46  C   LIG d   1       3.955  -2.012  -2.509  0.00  0.00    -0.061 A 
ATOM     47  H   LIG d   1       6.076  -2.269  -2.589  0.00  0.00     0.062 H 
ATOM     48  C   LIG d   1       2.905  -1.121  -2.622  0.00  0.00    -0.062 A 
ATOM     49  H   LIG d   1       3.761  -3.052  -2.290  0.00  0.00     0.062 H 
ATOM     50  C   LIG d   1       3.154   0.210  -2.902  0.00  0.00    -0.061 A 
ATOM     51  H   LIG d   1       1.889  -1.464  -2.490  0.00  0.00     0.062 H 
ATOM     52  C   LIG d   1       4.453   0.650  -3.065  0.00  0.00    -0.053 A 
ATOM     53  H   LIG d   1       2.333   0.906  -2.989  0.00  0.00     0.062 H 
ATOM     54  H   LIG d   1       4.649   1.690  -3.281  0.00  0.00     0.062 H 
ENDBRANCH  41  44
ENDBRANCH  38  41
ENDBRANCH   5  38
TORSDOF 6
ENDMDL
MODEL 6
REMARK VINA RESULT:      -6.4      2.718      5.833
REMARK  6 active torsions:
REMARK  status: ('A' for Active; 'I' for Inactive)
REMARK    1  A    between atoms: C_1  and  C_2 
REMARK       I    between atoms: C_2  and  N_4 
REMARK    2  A    between atoms: N_7  and  C_10 
REMARK    3  A    between atoms: C_12  and  O_31 
REMARK    4  A    between atoms: C_14  and  N_23 
REMARK    5  A    between atoms: N_23  and  C_24 
REMARK    6  A    between atoms: C_24  and  C_25 
ROOT
ATOM      1  C   LIG d   1       5.716  -1.117  -4.730  0.00  0.00     0.093 C 
ATOM      2  H   LIG d   1       6.386  -1.988  -4.671  0.00  0.00     0.054 H 
ATOM      3  C   LIG d   1       4.258  -1.559  -4.890  0.00  0.00     0.120 C 
ATOM      4  H   LIG d   1       4.109  -2.116  -5.827  0.00  0.00     0.067 H 
ATOM      5  C   LIG d   1       3.345  -0.329  -4.820  0.00  0.00     0.035 C 
ATOM      6  H   LIG d   1       2.285  -0.621  -4.837  0.00  0.00     0.090 H 
ATOM      7  C   LIG d   1       3.686   0.460  -3.545  0.00  0.00     0.130 C 
ATOM      8  H   LIG d   1       2.971   1.280  -3.381  0.00  0.00     0.068 H 
ATOM      9  C   LIG d   1       3.817  -0.554  -2.384  0.00  0.00     0.082 C 
ATOM     10  O   LIG d   1       5.205  -0.936  -2.380  0.00  0.00    -0.347 OA
ATOM     11  C   LIG d   1       5.834  -0.241  -3.473  0.00  0.00     0.178 C 
ATOM     12  H   LIG d   1       6.871   0.016  -3.211  0.00  0.00     0.093 H 
ATOM     13  O   LIG d   1       5.043   0.947  -3.693  0.00  0.00    -0.339 OA
ATOM     14  H   LIG d   1       3.526  -0.071  -1.440  0.00  0.00     0.059 H 
ATOM     15  H   LIG d   1       3.159  -1.416  -2.574  0.00  0.00     0.059 H 
ENDROOT
BRANCH   1  16
ATOM     16  N   LIG d   1       6.130  -0.344  -5.908  0.00  0.00    -0.290 N 
ATOM     17  C   LIG d   1       7.424   0.314  -5.679  0.00  0.00     0.015 C 
ATOM     18  C   LIG d   1       7.731   1.251  -6.853  0.00  0.00     0.028 C 
ATOM     19  H   LIG d   1       8.213  -0.448  -5.602  0.00  0.00     0.044 H 
ATOM     20  H   LIG d   1       7.381   0.896  -4.747  0.00  0.00     0.044 H 
ATOM     21  N   LIG d   1       7.636   0.481  -8.103  0.00  0.00    -0.299 N 
ATOM     22  H   LIG d   1       8.747   1.659  -6.751  0.00  0.00     0.048 H 
ATOM     23  H   LIG d   1       7.004   2.076  -6.874  0.00  0.00     0.048 H 
ATOM     24  C   LIG d   1       8.635   0.505  -9.008  0.00  0.00     0.212 C 
ATOM     25  C   LIG d   1       6.421  -0.314  -8.340  0.00  0.00     0.028 C 
ATOM     26  O   LIG d   1       9.628   1.167  -8.796  0.00  0.00    -0.276 OA
ATOM     27  C   LIG d   1       6.166  -1.190  -7.108  0.00  0.00     0.015 C 
ATOM     28  H   LIG d   1       5.568   0.359  -8.504  0.00  0.00     0.048 H 
ATOM     29  H   LIG d   1       6.566  -0.948  -9.227  0.00  0.00     0.048 H 
ATOM     30  H   LIG d   1       6.973  -1.931  -7.009  0.00  0.00     0.044 H 
ATOM     31  H   LIG d   1       5.202  -1.709  -7.219  0.00  0.00     0.044 H 
BRANCH  24  32
ATOM     32  C   LIG d   1       8.516  -0.292 -10.282  0.00  0.00     0.012 C 
ATOM     33  H   LIG d   1       7.469  -0.593 -10.429  0.00  0.00     0.032 H 
ATOM     34  H   LIG d   1       9.150  -1.187 -10.214  0.00  0.00     0.032 H 
ATOM     35  H   LIG d   1       8.843   0.327 -11.131  0.00  0.00     0.032 H 
ENDBRANCH  24  32
ENDBRANCH   1  16
BRANCH   3  36
ATOM     36  O   LIG d   1       3.916  -2.467  -3.842  0.00  0.00    -0.384 OA
ATOM     37  H   LIG d   1       4.283  -3.503  -3.870  0.00  0.00     0.210 HD
ENDBRANCH   3  36
BRANCH   5  38
ATOM     38  N   LIG d   1       3.563   0.516  -6.001  0.00  0.00     0.236 N 
ATOM     39  H   LIG d   1       3.652   1.567  -5.688  0.00  0.00     0.202 HD
ATOM     40  H   LIG d   1       4.489   0.206  -6.509  0.00  0.00     0.202 HD
BRANCH  38  41
ATOM     41  C   LIG d   1       2.445   0.399  -6.946  0.00  0.00    -0.007 C 
ATOM     42  H   LIG d   1       2.062  -0.632  -6.933  0.00  0.00     0.087 H 
ATOM     43  H   LIG d   1       1.643   1.092  -6.653  0.00  0.00     0.087 H 
BRANCH  41  44
ATOM     44  C   LIG d   1       2.922   0.740  -8.335  0.00  0.00    -0.003 A 
ATOM     45  C   LIG d   1       2.895  -0.218  -9.330  0.00  0.00    -0.053 A 
ATOM     46  C   LIG d   1       3.333   0.095 -10.604  0.00  0.00    -0.061 A 
ATOM     47  H   LIG d   1       2.532  -1.212  -9.114  0.00  0.00     0.062 H 
ATOM     48  C   LIG d   1       3.797   1.367 -10.881  0.00  0.00    -0.062 A 
ATOM     49  H   LIG d   1       3.311  -0.654 -11.381  0.00  0.00     0.062 H 
ATOM     50  C   LIG d   1       3.824   2.326  -9.885  0.00  0.00    -0.061 A 
ATOM     51  H   LIG d   1       4.139   1.612 -11.876  0.00  0.00     0.062 H 
ATOM     52  C   LIG d   1       3.383   2.013  -8.613  0.00  0.00    -0.053 A 
ATOM     53  H   LIG d   1       4.187   3.319 -10.102  0.00  0.00     0.062 H 
ATOM     54  H   LIG d   1       3.400   2.763  -7.836  0.00  0.00     0.062 H 
ENDBRANCH  41  44
ENDBRANCH  38  41
ENDBRANCH   5  38
TORSDOF 6
ENDMDL
MODEL 7
REMARK VINA RESULT:      -6.2      2.588      5.362
REMARK  6 active torsions:
REMARK  status: ('A' for Active; 'I' for Inactive)
REMARK    1  A    between atoms: C_1  and  C_2 
REMARK       I    between atoms: C_2  and  N_4 
REMARK    2  A    between atoms: N_7  and  C_10 
REMARK    3  A    between atoms: C_12  and  O_31 
REMARK    4  A    between atoms: C_14  and  N_23 
REMARK    5  A    between atoms: N_23  and  C_24 
REMARK    6  A    between atoms: C_24  and  C_25 
ROOT
ATOM      1  C   LIG d   1       5.666  -4.031  -6.253  0.00  0.00     0.093 C 
ATOM      2  H   LIG d   1       6.650  -4.182  -5.786  0.00  0.00     0.054 H 
ATOM      3  C   LIG d   1       5.807  -3.764  -7.756  0.00  0.00     0.120 C 
ATOM      4  H   LIG d   1       6.374  -2.842  -7.947  0.00  0.00     0.067 H 
ATOM      5  C   LIG d   1       4.414  -3.707  -8.393  0.00  0.00     0.035 C 
ATOM      6  H   LIG d   1       4.483  -3.612  -9.487  0.00  0.00     0.090 H 
ATOM      7  C   LIG d   1       3.641  -4.974  -7.992  0.00  0.00     0.130 C 
ATOM      8  H   LIG d   1       2.683  -5.043  -8.530  0.00  0.00     0.068 H 
ATOM      9  C   LIG d   1       4.592  -6.182  -8.164  0.00  0.00     0.082 C 
ATOM     10  O   LIG d   1       5.249  -6.319  -6.891  0.00  0.00    -0.347 OA
ATOM     11  C   LIG d   1       4.762  -5.257  -6.050  0.00  0.00     0.178 C 
ATOM     12  H   LIG d   1       4.708  -5.596  -5.004  0.00  0.00     0.093 H 
ATOM     13  O   LIG d   1       3.451  -4.922  -6.556  0.00  0.00    -0.339 OA
ATOM     14  H   LIG d   1       4.006  -7.077  -8.417  0.00  0.00     0.059 H 
ATOM     15  H   LIG d   1       5.309  -5.971  -8.971  0.00  0.00     0.059 H 
ENDROOT
BRANCH   1  16
ATOM     16  N   LIG d   1       5.062  -2.862  -5.600  0.00  0.00    -0.290 N 
ATOM     17  C   LIG d   1       4.681  -3.171  -4.215  0.00  0.00     0.015 C 
ATOM     18  C   LIG d   1       3.894  -1.992  -3.630  0.00  0.00     0.028 C 
ATOM     19  H   LIG d   1       5.586  -3.342  -3.614  0.00  0.00     0.044 H 
ATOM     20  H   LIG d   1       4.052  -4.074  -4.199  0.00  0.00     0.044 H 
ATOM     21  N   LIG d   1       4.694  -0.769  -3.797  0.00  0.00    -0.299 N 
ATOM     22  H   LIG d   1       3.704  -2.162  -2.560  0.00  0.00     0.048 H 
ATOM     23  H   LIG d   1       2.937  -1.881  -4.160  0.00  0.00     0.048 H 
ATOM     24  C   LIG d   1       4.930   0.051  -2.754  0.00  0.00     0.212 C 
ATOM     25  C   LIG d   1       5.227  -0.463  -5.134  0.00  0.00     0.028 C 
ATOM     26  O   LIG d   1       4.482  -0.216  -1.660  0.00  0.00    -0.276 OA
ATOM     27  C   LIG d   1       5.961  -1.702  -5.659  0.00  0.00     0.015 C 
ATOM     28  H   LIG d   1       4.399  -0.204  -5.808  0.00  0.00     0.048 H 
ATOM     29  H   LIG d   1       5.925   0.384  -5.065  0.00  0.00     0.048 H 
ATOM     30  H   LIG d   1       6.849  -1.895  -5.039  0.00  0.00     0.044 H 
ATOM     31  H   LIG d   1       6.270  -1.532  -6.701  0.00  0.00     0.044 H 
BRANCH  24  32
ATOM     32  C   LIG d   1       5.753   1.299  -2.948  0.00  0.00     0.012 C 
ATOM     33  H   LIG d   1       5.220   1.988  -3.621  0.00  0.00     0.032 H 
ATOM     34  H   LIG d   1       6.724   1.033  -3.388  0.00  0.00     0.032 H 
ATOM     35  H   LIG d   1       5.911   1.787  -1.975  0.00  0.00     0.032 H 
ENDBRANCH  24  32
ENDBRANCH   1  16
BRANCH   3  36
ATOM     36  O   LIG d   1       6.565  -4.816  -8.358  0.00  0.00    -0.384 OA
ATOM     37  H   LIG d   1       7.661  -4.746  -8.406  0.00  0.00     0.210 HD
ENDBRANCH   3  36
BRANCH   5  38
ATOM     38  N   LIG d   1       3.701  -2.516  -7.915  0.00  0.00     0.236 N 
ATOM     39  H   LIG d   1       3.110  -2.776  -7.024  0.00  0.00     0.202 HD
ATOM     40  H   LIG d   1       4.428  -1.732  -7.656  0.00  0.00     0.202 HD
BRANCH  38  41
ATOM     41  C   LIG d   1       2.793  -1.996  -8.946  0.00  0.00    -0.007 C 
ATOM     42  H   LIG d   1       2.974  -2.526  -9.894  0.00  0.00     0.087 H 
ATOM     43  H   LIG d   1       1.751  -2.154  -8.631  0.00  0.00     0.087 H 
BRANCH  41  44
ATOM     44  C   LIG d   1       3.042  -0.522  -9.138  0.00  0.00    -0.003 A 
ATOM     45  C   LIG d   1       3.562  -0.059 -10.332  0.00  0.00    -0.053 A 
ATOM     46  C   LIG d   1       3.790   1.293 -10.508  0.00  0.00    -0.061 A 
ATOM     47  H   LIG d   1       3.791  -0.753 -11.127  0.00  0.00     0.062 H 
ATOM     48  C   LIG d   1       3.497   2.181  -9.491  0.00  0.00    -0.062 A 
ATOM     49  H   LIG d   1       4.197   1.655 -11.441  0.00  0.00     0.062 H 
ATOM     50  C   LIG d   1       2.976   1.718  -8.297  0.00  0.00    -0.061 A 
ATOM     51  H   LIG d   1       3.675   3.238  -9.628  0.00  0.00     0.062 H 
ATOM     52  C   LIG d   1       2.744   0.367  -8.123  0.00  0.00    -0.053 A 
ATOM     53  H   LIG d   1       2.747   2.412  -7.502  0.00  0.00     0.062 H 
ATOM     54  H   LIG d   1       2.334   0.005  -7.191  0.00  0.00     0.062 H 
ENDBRANCH  41  44
ENDBRANCH  38  41
ENDBRANCH   5  38
TORSDOF 6
ENDMDL
MODEL 8
REMARK VINA RESULT:      -5.9     11.169     12.880
REMARK  6 active torsions:
REMARK  status: ('A' for Active; 'I' for Inactive)
REMARK    1  A    between atoms: C_1  and  C_2 
REMARK       I    between atoms: C_2  and  N_4 
REMARK    2  A    between atoms: N_7  and  C_10 
REMARK    3  A    between atoms: C_12  and  O_31 
REMARK    4  A    between atoms: C_14  and  N_23 
REMARK    5  A    between atoms: N_23  and  C_24 
REMARK    6  A    between atoms: C_24  and  C_25 
ROOT
ATOM      1  C   LIG d   1       9.614  11.321  -2.110  0.00  0.00     0.093 C 
ATOM      2  H   LIG d   1       9.279  11.624  -1.107  0.00  0.00     0.054 H 
ATOM      3  C   LIG d   1       8.439  11.290  -3.094  0.00  0.00     0.120 C 
ATOM      4  H   LIG d   1       7.685  10.548  -2.793  0.00  0.00     0.067 H 
ATOM      5  C   LIG d   1       8.968  11.010  -4.505  0.00  0.00     0.035 C 
ATOM      6  H   LIG d   1       8.161  11.075  -5.250  0.00  0.00     0.090 H 
ATOM      7  C   LIG d   1      10.093  12.010  -4.813  0.00  0.00     0.130 C 
ATOM      8  H   LIG d   1      10.417  11.936  -5.862  0.00  0.00     0.068 H 
ATOM      9  C   LIG d   1       9.616  13.411  -4.360  0.00  0.00     0.082 C 
ATOM     10  O   LIG d   1      10.047  13.524  -2.991  0.00  0.00    -0.347 OA
ATOM     11  C   LIG d   1      10.687  12.280  -2.649  0.00  0.00     0.178 C 
ATOM     12  H   LIG d   1      11.511  12.460  -1.943  0.00  0.00     0.093 H 
ATOM     13  O   LIG d   1      11.177  11.732  -3.892  0.00  0.00    -0.339 OA
ATOM     14  H   LIG d   1      10.078  14.179  -4.996  0.00  0.00     0.059 H 
ATOM     15  H   LIG d   1       8.521  13.470  -4.447  0.00  0.00     0.059 H 
ENDROOT
BRANCH   1  16
ATOM     16  N   LIG d   1      10.182   9.973  -1.977  0.00  0.00    -0.290 N 
ATOM     17  C   LIG d   1      11.588  10.033  -1.555  0.00  0.00     0.015 C 
ATOM     18  C   LIG d   1      12.193   8.625  -1.605  0.00  0.00     0.028 C 
ATOM     19  H   LIG d   1      11.647  10.421  -0.528  0.00  0.00     0.044 H 
ATOM     20  H   LIG d   1      12.147  10.696  -2.232  0.00  0.00     0.044 H 
ATOM     21  N   LIG d   1      11.343   7.723  -0.813  0.00  0.00    -0.299 N 
ATOM     22  H   LIG d   1      13.208   8.638  -1.182  0.00  0.00     0.048 H 
ATOM     23  H   LIG d   1      12.234   8.271  -2.645  0.00  0.00     0.048 H 
ATOM     24  C   LIG d   1      11.874   6.930   0.139  0.00  0.00     0.212 C 
ATOM     25  C   LIG d   1       9.898   7.709  -1.086  0.00  0.00     0.028 C 
ATOM     26  O   LIG d   1      13.068   6.954   0.351  0.00  0.00    -0.276 OA
ATOM     27  C   LIG d   1       9.383   9.153  -1.057  0.00  0.00     0.015 C 
ATOM     28  H   LIG d   1       9.717   7.267  -2.076  0.00  0.00     0.048 H 
ATOM     29  H   LIG d   1       9.385   7.113  -0.318  0.00  0.00     0.048 H 
ATOM     30  H   LIG d   1       9.472   9.555  -0.037  0.00  0.00     0.044 H 
ATOM     31  H   LIG d   1       8.329   9.174  -1.370  0.00  0.00     0.044 H 
BRANCH  24  32
ATOM     32  C   LIG d   1      10.984   6.014   0.939  0.00  0.00     0.012 C 
ATOM     33  H   LIG d   1      11.470   5.033   1.046  0.00  0.00     0.032 H 
ATOM     34  H   LIG d   1      10.022   5.893   0.422  0.00  0.00     0.032 H 
ATOM     35  H   LIG d   1      10.814   6.449   1.936  0.00  0.00     0.032 H 
ENDBRANCH  24  32
ENDBRANCH   1  16
BRANCH   3  36
ATOM     36  O   LIG d   1       7.769  12.552  -3.077  0.00  0.00    -0.384 OA
ATOM     37  H   LIG d   1       7.208  12.889  -3.961  0.00  0.00     0.210 HD
ENDBRANCH   3  36
BRANCH   5  38
ATOM     38  N   LIG d   1       9.489   9.638  -4.574  0.00  0.00     0.236 N 
ATOM     39  H   LIG d   1      10.531   9.624  -4.219  0.00  0.00     0.202 HD
ATOM     40  H   LIG d   1       8.877   8.981  -3.939  0.00  0.00     0.202 HD
BRANCH  38  41
ATOM     41  C   LIG d   1       9.455   9.130  -5.951  0.00  0.00    -0.007 C 
ATOM     42  H   LIG d   1       8.514   9.438  -6.432  0.00  0.00     0.087 H 
ATOM     43  H   LIG d   1      10.306   9.539  -6.515  0.00  0.00     0.087 H 
BRANCH  41  44
ATOM     44  C   LIG d   1       9.540   7.625  -5.934  0.00  0.00    -0.003 A 
ATOM     45  C   LIG d   1       9.828   6.935  -7.097  0.00  0.00    -0.053 A 
ATOM     46  C   LIG d   1       9.907   5.555  -7.080  0.00  0.00    -0.061 A 
ATOM     47  H   LIG d   1       9.991   7.474  -8.018  0.00  0.00     0.062 H 
ATOM     48  C   LIG d   1       9.698   4.865  -5.901  0.00  0.00    -0.062 A 
ATOM     49  H   LIG d   1      10.131   5.017  -7.989  0.00  0.00     0.062 H 
ATOM     50  C   LIG d   1       9.411   5.556  -4.737  0.00  0.00    -0.061 A 
ATOM     51  H   LIG d   1       9.760   3.787  -5.888  0.00  0.00     0.062 H 
ATOM     52  C   LIG d   1       9.336   6.935  -4.754  0.00  0.00    -0.053 A 
ATOM     53  H   LIG d   1       9.248   5.017  -3.817  0.00  0.00     0.062 H 
ATOM     54  H   LIG d   1       9.115   7.475  -3.844  0.00  0.00     0.062 H 
ENDBRANCH  41  44
ENDBRANCH  38  41
ENDBRANCH   5  38
TORSDOF 6
ENDMDL
MODEL 9
REMARK VINA RESULT:      -5.9      2.521      4.981
REMARK  6 active torsions:
REMARK  status: ('A' for Active; 'I' for Inactive)
REMARK    1  A    between atoms: C_1  and  C_2 
REMARK       I    between atoms: C_2  and  N_4 
REMARK    2  A    between atoms: N_7  and  C_10 
REMARK    3  A    between atoms: C_12  and  O_31 
REMARK    4  A    between atoms: C_14  and  N_23 
REMARK    5  A    between atoms: N_23  and  C_24 
REMARK    6  A    between atoms: C_24  and  C_25 
ROOT
ATOM      1  C   LIG d   1       7.880  -0.075  -7.521  0.00  0.00     0.093 C 
ATOM      2  H   LIG d   1       8.156  -0.120  -8.585  0.00  0.00     0.054 H 
ATOM      3  C   LIG d   1       8.836  -0.918  -6.671  0.00  0.00     0.120 C 
ATOM      4  H   LIG d   1       8.787  -1.981  -6.948  0.00  0.00     0.067 H 
ATOM      5  C   LIG d   1       8.510  -0.711  -5.187  0.00  0.00     0.035 C 
ATOM      6  H   LIG d   1       9.240  -1.229  -4.546  0.00  0.00     0.090 H 
ATOM      7  C   LIG d   1       8.485   0.798  -4.898  0.00  0.00     0.130 C 
ATOM      8  H   LIG d   1       8.385   0.996  -3.820  0.00  0.00     0.068 H 
ATOM      9  C   LIG d   1       9.722   1.429  -5.580  0.00  0.00     0.082 C 
ATOM     10  O   LIG d   1       9.273   1.792  -6.898  0.00  0.00    -0.347 OA
ATOM     11  C   LIG d   1       7.900   1.372  -7.004  0.00  0.00     0.178 C 
ATOM     12  H   LIG d   1       7.337   2.073  -7.638  0.00  0.00     0.093 H 
ATOM     13  O   LIG d   1       7.385   1.361  -5.655  0.00  0.00    -0.339 OA
ATOM     14  H   LIG d   1      10.049   2.309  -5.006  0.00  0.00     0.059 H 
ATOM     15  H   LIG d   1      10.537   0.691  -5.617  0.00  0.00     0.059 H 
ENDROOT
BRANCH   1  16
ATOM     16  N   LIG d   1       6.518  -0.616  -7.414  0.00  0.00    -0.290 N 
ATOM     17  C   LIG d   1       5.529   0.344  -7.923  0.00  0.00     0.015 C 
ATOM     18  C   LIG d   1       4.118  -0.178  -7.627  0.00  0.00     0.028 C 
ATOM     19  H   LIG d   1       5.656   0.462  -9.009  0.00  0.00     0.044 H 
ATOM     20  H   LIG d   1       5.671   1.316  -7.428  0.00  0.00     0.044 H 
ATOM     21  N   LIG d   1       4.000  -1.540  -8.170  0.00  0.00    -0.299 N 
ATOM     22  H   LIG d   1       3.370   0.472  -8.104  0.00  0.00     0.048 H 
ATOM     23  H   LIG d   1       3.946  -0.200  -6.542  0.00  0.00     0.048 H 
ATOM     24  C   LIG d   1       2.971  -1.879  -8.973  0.00  0.00     0.212 C 
ATOM     25  C   LIG d   1       5.034  -2.523  -7.813  0.00  0.00     0.028 C 
ATOM     26  O   LIG d   1       2.128  -1.055  -9.256  0.00  0.00    -0.276 OA
ATOM     27  C   LIG d   1       6.409  -1.909  -8.101  0.00  0.00     0.015 C 
ATOM     28  H   LIG d   1       4.951  -2.771  -6.746  0.00  0.00     0.048 H 
ATOM     29  H   LIG d   1       4.897  -3.434  -8.414  0.00  0.00     0.048 H 
ATOM     30  H   LIG d   1       6.525  -1.759  -9.185  0.00  0.00     0.044 H 
ATOM     31  H   LIG d   1       7.197  -2.585  -7.737  0.00  0.00     0.044 H 
BRANCH  24  32
ATOM     32  C   LIG d   1       2.871  -3.280  -9.518  0.00  0.00     0.012 C 
ATOM     33  H   LIG d   1       3.861  -3.608  -9.869  0.00  0.00     0.032 H 
ATOM     34  H   LIG d   1       2.160  -3.297 -10.357  0.00  0.00     0.032 H 
ATOM     35  H   LIG d   1       2.520  -3.957  -8.725  0.00  0.00     0.032 H 
ENDBRANCH  24  32
ENDBRANCH   1  16
BRANCH   3  36
ATOM     36  O   LIG d   1      10.183  -0.513  -6.925  0.00  0.00    -0.384 OA
ATOM     37  H   LIG d   1      10.662   0.239  -6.281  0.00  0.00     0.210 HD
ENDBRANCH   3  36
BRANCH   5  38
ATOM     38  N   LIG d   1       7.199  -1.298  -4.883  0.00  0.00     0.236 N 
ATOM     39  H   LIG d   1       6.406  -0.656  -5.296  0.00  0.00     0.202 HD
ATOM     40  H   LIG d   1       7.131  -2.299  -5.335  0.00  0.00     0.202 HD
BRANCH  38  41
ATOM     41  C   LIG d   1       6.999  -1.420  -3.433  0.00  0.00    -0.007 C 
ATOM     42  H   LIG d   1       7.041  -2.482  -3.146  0.00  0.00     0.087 H 
ATOM     43  H   LIG d   1       7.790  -0.866  -2.906  0.00  0.00     0.087 H 
BRANCH  41  44
ATOM     44  C   LIG d   1       5.653  -0.852  -3.062  0.00  0.00    -0.003 A 
ATOM     45  C   LIG d   1       5.551   0.455  -2.623  0.00  0.00    -0.053 A 
ATOM     46  C   LIG d   1       4.316   0.975  -2.282  0.00  0.00    -0.061 A 
ATOM     47  H   LIG d   1       6.436   1.069  -2.544  0.00  0.00     0.062 H 
ATOM     48  C   LIG d   1       3.184   0.189  -2.382  0.00  0.00    -0.062 A 
ATOM     49  H   LIG d   1       4.238   1.996  -1.939  0.00  0.00     0.062 H 
ATOM     50  C   LIG d   1       3.286  -1.118  -2.823  0.00  0.00    -0.061 A 
ATOM     51  H   LIG d   1       2.220   0.596  -2.117  0.00  0.00     0.062 H 
ATOM     52  C   LIG d   1       4.520  -1.636  -3.167  0.00  0.00    -0.053 A 
ATOM     53  H   LIG d   1       2.401  -1.731  -2.901  0.00  0.00     0.062 H 
ATOM     54  H   LIG d   1       4.599  -2.656  -3.514  0.00  0.00     0.062 H 
ENDBRANCH  41  44
ENDBRANCH  38  41
ENDBRANCH   5  38
TORSDOF 6
ENDMDL
