MODEL 1
REMARK VINA RESULT:      -7.4      0.000      0.000
REMARK  7 active torsions:
REMARK  status: ('A' for Active; 'I' for Inactive)
REMARK    1  A    between atoms: C_1  and  O_2 
REMARK    2  A    between atoms: O_2  and  C_3 
REMARK    3  A    between atoms: C_8  and  C_9 
REMARK       I    between atoms: N_19  and  C_20 
REMARK       I    between atoms: C_20  and  N_22 
REMARK    4  A    between atoms: N_22  and  C_23 
REMARK    5  A    between atoms: C_28  and  C_29 
REMARK    6  A    between atoms: C_29  and  O_31 
REMARK    7  A    between atoms: O_31  and  C_32 
ROOT
ATOM      1  C   LIG d   1       6.327  -1.858  -5.239  0.00  0.00     0.098 C 
ATOM      2  H   LIG d   1       6.573  -1.072  -5.953  0.00  0.00     0.062 H 
ATOM      3  C   LIG d   1       7.580  -2.595  -4.837  0.00  0.00     0.064 A 
ATOM      4  C   LIG d   1       7.703  -3.939  -4.837  0.00  0.00     0.066 A 
ATOM      5  N   LIG d   1       8.937  -4.237  -4.421  0.00  0.00    -0.240 NA
ATOM      6  C   LIG d   1       9.584  -3.131  -4.165  0.00  0.00     0.094 A 
ATOM      7  N   LIG d   1       8.767  -2.082  -4.414  0.00  0.00    -0.346 N 
ATOM      8  H   LIG d   1       8.986  -1.142  -4.312  0.00  0.00     0.167 HD
ATOM      9  C   LIG d   1       6.610  -4.894  -5.250  0.00  0.00     0.007 C 
ATOM     10  C   LIG d   1       5.268  -4.153  -5.220  0.00  0.00     0.023 C 
ATOM     11  N   LIG d   1       5.424  -2.840  -5.866  0.00  0.00    -0.272 N 
ATOM     12  C   LIG d   1       4.761  -2.543  -7.001  0.00  0.00     0.307 C 
ATOM     13  O   LIG d   1       3.948  -3.326  -7.454  0.00  0.00    -0.252 OA
ATOM     14  N   LIG d   1       4.997  -1.377  -7.635  0.00  0.00    -0.269 N 
ATOM     15  H   LIG d   1      10.603  -3.064  -3.812  0.00  0.00     0.103 H 
ATOM     16  H   LIG d   1       6.805  -5.256  -6.260  0.00  0.00     0.034 H 
ATOM     17  H   LIG d   1       6.579  -5.734  -4.558  0.00  0.00     0.034 H 
ATOM     18  H   LIG d   1       4.518  -4.736  -5.756  0.00  0.00     0.047 H 
ATOM     19  H   LIG d   1       4.952  -4.014  -4.186  0.00  0.00     0.047 H 
ATOM     20  H   LIG d   1       5.705  -0.791  -7.324  0.00  0.00     0.156 HD
ENDROOT
BRANCH   1  21
ATOM     21  C   LIG d   1       5.670  -1.259  -4.023  0.00  0.00     0.021 A 
ATOM     22  C   LIG d   1       5.857   0.082  -3.721  0.00  0.00     0.125 A 
ATOM     23  C   LIG d   1       5.244   0.632  -2.605  0.00  0.00    -0.020 A 
ATOM     24  C   LIG d   1       4.454  -0.159  -1.793  0.00  0.00    -0.058 A 
ATOM     25  H   LIG d   1       5.385   1.676  -2.369  0.00  0.00     0.065 H 
ATOM     26  C   LIG d   1       4.273  -1.497  -2.093  0.00  0.00    -0.061 A 
ATOM     27  H   LIG d   1       3.978   0.268  -0.923  0.00  0.00     0.062 H 
ATOM     28  C   LIG d   1       4.882  -2.047  -3.205  0.00  0.00    -0.053 A 
ATOM     29  H   LIG d   1       3.655  -2.113  -1.456  0.00  0.00     0.062 H 
ATOM     30  H   LIG d   1       4.740  -3.092  -3.436  0.00  0.00     0.062 H 
BRANCH  22  31
ATOM     31  O   LIG d   1       6.634   0.857  -4.522  0.00  0.00    -0.495 OA
BRANCH  31  32
ATOM     32  C   LIG d   1       7.785   1.457  -3.924  0.00  0.00     0.079 C 
ATOM     33  H   LIG d   1       7.640   1.528  -2.845  0.00  0.00     0.066 H 
ATOM     34  H   LIG d   1       8.663   0.847  -4.132  0.00  0.00     0.066 H 
ATOM     35  H   LIG d   1       7.931   2.455  -4.338  0.00  0.00     0.066 H 
ENDBRANCH  31  32
ENDBRANCH  22  31
ENDBRANCH   1  21
BRANCH  14  36
ATOM     36  C   LIG d   1       4.226  -1.014  -8.736  0.00  0.00     0.049 A 
ATOM     37  C   LIG d   1       3.230  -0.034  -8.608  0.00  0.00     0.080 A 
ATOM     38  C   LIG d   1       2.468   0.326  -9.723  0.00  0.00    -0.046 A 
ATOM     39  C   LIG d   1       2.690  -0.292 -10.934  0.00  0.00    -0.061 A 
ATOM     40  H   LIG d   1       1.703   1.083  -9.634  0.00  0.00     0.063 H 
ATOM     41  C   LIG d   1       3.670  -1.264 -11.056  0.00  0.00    -0.060 A 
ATOM     42  H   LIG d   1       2.097  -0.016 -11.793  0.00  0.00     0.062 H 
ATOM     43  C   LIG d   1       4.435  -1.626  -9.966  0.00  0.00    -0.040 A 
ATOM     44  H   LIG d   1       3.836  -1.742 -12.010  0.00  0.00     0.062 H 
ATOM     45  H   LIG d   1       5.197  -2.384 -10.069  0.00  0.00     0.064 H 
BRANCH  37  46
ATOM     46  C   LIG d   1       2.995   0.618  -7.308  0.00  0.00     0.341 C 
ATOM     47  O   LIG d   1       2.920   1.830  -7.240  0.00  0.00    -0.245 OA
BRANCH  46  48
ATOM     48  O   LIG d   1       2.865  -0.128  -6.194  0.00  0.00    -0.464 OA
BRANCH  48  49
ATOM     49  C   LIG d   1       2.432   0.544  -5.009  0.00  0.00     0.082 C 
ATOM     50  H   LIG d   1       1.638   1.248  -5.260  0.00  0.00     0.066 H 
ATOM     51  H   LIG d   1       2.056  -0.187  -4.293  0.00  0.00     0.066 H 
ATOM     52  H   LIG d   1       3.271   1.085  -4.571  0.00  0.00     0.066 H 
ENDBRANCH  48  49
ENDBRANCH  46  48
ENDBRANCH  37  46
ENDBRANCH  14  36
TORSDOF 7
ENDMDL
MODEL 2
REMARK VINA RESULT:      -7.3      1.755      2.607
REMARK  7 active torsions:
REMARK  status: ('A' for Active; 'I' for Inactive)
REMARK    1  A    between atoms: C_1  and  O_2 
REMARK    2  A    between atoms: O_2  and  C_3 
REMARK    3  A    between atoms: C_8  and  C_9 
REMARK       I    between atoms: N_19  and  C_20 
REMARK       I    between atoms: C_20  and  N_22 
REMARK    4  A    between atoms: N_22  and  C_23 
REMARK    5  A    between atoms: C_28  and  C_29 
REMARK    6  A    between atoms: C_29  and  O_31 
REMARK    7  A    between atoms: O_31  and  C_32 
ROOT
ATOM      1  C   LIG d   1       6.324  -1.475  -5.040  0.00  0.00     0.098 C 
ATOM      2  H   LIG d   1       6.805  -0.687  -5.621  0.00  0.00     0.062 H 
ATOM      3  C   LIG d   1       7.342  -2.509  -4.635  0.00  0.00     0.064 A 
ATOM      4  C   LIG d   1       7.181  -3.839  -4.802  0.00  0.00     0.066 A 
ATOM      5  N   LIG d   1       8.272  -4.447  -4.327  0.00  0.00    -0.240 NA
ATOM      6  C   LIG d   1       9.104  -3.546  -3.874  0.00  0.00     0.094 A 
ATOM      7  N   LIG d   1       8.556  -2.321  -4.050  0.00  0.00    -0.346 N 
ATOM      8  H   LIG d   1       8.953  -1.470  -3.807  0.00  0.00     0.167 HD
ATOM      9  C   LIG d   1       5.966  -4.477  -5.428  0.00  0.00     0.007 C 
ATOM     10  C   LIG d   1       4.813  -3.467  -5.414  0.00  0.00     0.023 C 
ATOM     11  N   LIG d   1       5.310  -2.157  -5.865  0.00  0.00    -0.272 N 
ATOM     12  C   LIG d   1       4.854  -1.597  -7.003  0.00  0.00     0.307 C 
ATOM     13  O   LIG d   1       3.950  -2.126  -7.621  0.00  0.00    -0.252 OA
ATOM     14  N   LIG d   1       5.396  -0.449  -7.455  0.00  0.00    -0.269 N 
ATOM     15  H   LIG d   1      10.068  -3.746  -3.430  0.00  0.00     0.103 H 
ATOM     16  H   LIG d   1       6.192  -4.759  -6.457  0.00  0.00     0.034 H 
ATOM     17  H   LIG d   1       5.683  -5.362  -4.858  0.00  0.00     0.034 H 
ATOM     18  H   LIG d   1       4.022  -3.806  -6.083  0.00  0.00     0.047 H 
ATOM     19  H   LIG d   1       4.420  -3.377  -4.401  0.00  0.00     0.047 H 
ATOM     20  H   LIG d   1       6.172  -0.072  -7.010  0.00  0.00     0.156 HD
ENDROOT
BRANCH   1  21
ATOM     21  C   LIG d   1       5.675  -0.883  -3.815  0.00  0.00     0.021 A 
ATOM     22  C   LIG d   1       5.824   0.467  -3.533  0.00  0.00     0.125 A 
ATOM     23  C   LIG d   1       5.220   1.008  -2.408  0.00  0.00    -0.020 A 
ATOM     24  C   LIG d   1       4.476   0.201  -1.568  0.00  0.00    -0.058 A 
ATOM     25  H   LIG d   1       5.331   2.060  -2.187  0.00  0.00     0.065 H 
ATOM     26  C   LIG d   1       4.334  -1.145  -1.849  0.00  0.00    -0.061 A 
ATOM     27  H   LIG d   1       4.007   0.622  -0.692  0.00  0.00     0.062 H 
ATOM     28  C   LIG d   1       4.934  -1.687  -2.969  0.00  0.00    -0.053 A 
ATOM     29  H   LIG d   1       3.752  -1.774  -1.191  0.00  0.00     0.062 H 
ATOM     30  H   LIG d   1       4.822  -2.740  -3.186  0.00  0.00     0.062 H 
BRANCH  22  31
ATOM     31  O   LIG d   1       6.555   1.258  -4.361  0.00  0.00    -0.495 OA
BRANCH  31  32
ATOM     32  C   LIG d   1       7.814   1.723  -3.868  0.00  0.00     0.079 C 
ATOM     33  H   LIG d   1       8.415   2.094  -4.699  0.00  0.00     0.066 H 
ATOM     34  H   LIG d   1       7.648   2.527  -3.152  0.00  0.00     0.066 H 
ATOM     35  H   LIG d   1       8.337   0.902  -3.378  0.00  0.00     0.066 H 
ENDBRANCH  31  32
ENDBRANCH  22  31
ENDBRANCH   1  21
BRANCH  14  36
ATOM     36  C   LIG d   1       4.845   0.195  -8.559  0.00  0.00     0.049 A 
ATOM     37  C   LIG d   1       5.341  -0.063  -9.847  0.00  0.00     0.080 A 
ATOM     38  C   LIG d   1       4.774   0.585 -10.947  0.00  0.00    -0.046 A 
ATOM     39  C   LIG d   1       3.744   1.481 -10.761  0.00  0.00    -0.061 A 
ATOM     40  H   LIG d   1       5.147   0.389 -11.942  0.00  0.00     0.063 H 
ATOM     41  C   LIG d   1       3.261   1.738  -9.488  0.00  0.00    -0.060 A 
ATOM     42  H   LIG d   1       3.311   1.985 -11.612  0.00  0.00     0.062 H 
ATOM     43  C   LIG d   1       3.806   1.101  -8.392  0.00  0.00    -0.040 A 
ATOM     44  H   LIG d   1       2.453   2.442  -9.352  0.00  0.00     0.062 H 
ATOM     45  H   LIG d   1       3.424   1.307  -7.403  0.00  0.00     0.064 H 
BRANCH  37  46
ATOM     46  C   LIG d   1       6.447  -1.018 -10.038  0.00  0.00     0.341 C 
ATOM     47  O   LIG d   1       6.268  -2.035 -10.679  0.00  0.00    -0.245 OA
BRANCH  46  48
ATOM     48  O   LIG d   1       7.656  -0.765  -9.500  0.00  0.00    -0.464 OA
BRANCH  48  49
ATOM     49  C   LIG d   1       8.366   0.369 -10.004  0.00  0.00     0.082 C 
ATOM     50  H   LIG d   1       8.061   1.260  -9.456  0.00  0.00     0.066 H 
ATOM     51  H   LIG d   1       9.437   0.213  -9.876  0.00  0.00     0.066 H 
ATOM     52  H   LIG d   1       8.140   0.498 -11.062  0.00  0.00     0.066 H 
ENDBRANCH  48  49
ENDBRANCH  46  48
ENDBRANCH  37  46
ENDBRANCH  14  36
TORSDOF 7
ENDMDL
MODEL 3
REMARK VINA RESULT:      -6.9      2.010      3.086
REMARK  7 active torsions:
REMARK  status: ('A' for Active; 'I' for Inactive)
REMARK    1  A    between atoms: C_1  and  O_2 
REMARK    2  A    between atoms: O_2  and  C_3 
REMARK    3  A    between atoms: C_8  and  C_9 
REMARK       I    between atoms: N_19  and  C_20 
REMARK       I    between atoms: C_20  and  N_22 
REMARK    4  A    between atoms: N_22  and  C_23 
REMARK    5  A    between atoms: C_28  and  C_29 
REMARK    6  A    between atoms: C_29  and  O_31 
REMARK    7  A    between atoms: O_31  and  C_32 
ROOT
ATOM      1  C   LIG d   1       5.729  -0.386  -5.810  0.00  0.00     0.098 C 
ATOM      2  H   LIG d   1       5.135   0.375  -6.317  0.00  0.00     0.062 H 
ATOM      3  C   LIG d   1       7.085   0.172  -5.459  0.00  0.00     0.064 A 
ATOM      4  C   LIG d   1       8.253  -0.446  -5.731  0.00  0.00     0.066 A 
ATOM      5  N   LIG d   1       9.243   0.329  -5.276  0.00  0.00    -0.240 NA
ATOM      6  C   LIG d   1       8.733   1.404  -4.735  0.00  0.00     0.094 A 
ATOM      7  N   LIG d   1       7.384   1.342  -4.832  0.00  0.00    -0.346 N 
ATOM      8  H   LIG d   1       6.751   2.005  -4.515  0.00  0.00     0.167 HD
ATOM      9  C   LIG d   1       8.370  -1.776  -6.433  0.00  0.00     0.007 C 
ATOM     10  C   LIG d   1       7.014  -2.489  -6.371  0.00  0.00     0.023 C 
ATOM     11  N   LIG d   1       5.947  -1.534  -6.709  0.00  0.00    -0.272 N 
ATOM     12  C   LIG d   1       5.191  -1.701  -7.812  0.00  0.00     0.307 C 
ATOM     13  O   LIG d   1       5.319  -2.702  -8.491  0.00  0.00    -0.252 OA
ATOM     14  N   LIG d   1       4.291  -0.761  -8.162  0.00  0.00    -0.269 N 
ATOM     15  H   LIG d   1       9.294   2.210  -4.285  0.00  0.00     0.103 H 
ATOM     16  H   LIG d   1       8.650  -1.615  -7.475  0.00  0.00     0.034 H 
ATOM     17  H   LIG d   1       9.126  -2.385  -5.939  0.00  0.00     0.034 H 
ATOM     18  H   LIG d   1       7.003  -3.315  -7.083  0.00  0.00     0.047 H 
ATOM     19  H   LIG d   1       6.851  -2.874  -5.364  0.00  0.00     0.047 H 
ATOM     20  H   LIG d   1       4.248   0.075  -7.671  0.00  0.00     0.156 HD
ENDROOT
BRANCH   1  21
ATOM     21  C   LIG d   1       5.020  -0.840  -4.560  0.00  0.00     0.021 A 
ATOM     22  C   LIG d   1       3.651  -0.659  -4.432  0.00  0.00     0.125 A 
ATOM     23  C   LIG d   1       3.002  -1.084  -3.283  0.00  0.00    -0.020 A 
ATOM     24  C   LIG d   1       3.721  -1.683  -2.266  0.00  0.00    -0.058 A 
ATOM     25  H   LIG d   1       1.935  -0.947  -3.182  0.00  0.00     0.065 H 
ATOM     26  C   LIG d   1       5.086  -1.858  -2.393  0.00  0.00    -0.061 A 
ATOM     27  H   LIG d   1       3.216  -2.013  -1.371  0.00  0.00     0.062 H 
ATOM     28  C   LIG d   1       5.736  -1.435  -3.538  0.00  0.00    -0.053 A 
ATOM     29  H   LIG d   1       5.646  -2.326  -1.597  0.00  0.00     0.062 H 
ATOM     30  H   LIG d   1       6.803  -1.573  -3.635  0.00  0.00     0.062 H 
BRANCH  22  31
ATOM     31  O   LIG d   1       2.947  -0.070  -5.434  0.00  0.00    -0.495 OA
BRANCH  31  32
ATOM     32  C   LIG d   1       2.353   1.198  -5.150  0.00  0.00     0.079 C 
ATOM     33  H   LIG d   1       1.523   1.064  -4.456  0.00  0.00     0.066 H 
ATOM     34  H   LIG d   1       3.097   1.856  -4.703  0.00  0.00     0.066 H 
ATOM     35  H   LIG d   1       1.986   1.642  -6.075  0.00  0.00     0.066 H 
ENDBRANCH  31  32
ENDBRANCH  22  31
ENDBRANCH   1  21
BRANCH  14  36
ATOM     36  C   LIG d   1       3.424  -0.989  -9.228  0.00  0.00     0.049 A 
ATOM     37  C   LIG d   1       3.559  -0.253 -10.416  0.00  0.00     0.080 A 
ATOM     38  C   LIG d   1       2.686  -0.496 -11.480  0.00  0.00    -0.046 A 
ATOM     39  C   LIG d   1       1.694  -1.443 -11.352  0.00  0.00    -0.061 A 
ATOM     40  H   LIG d   1       2.785   0.062 -12.399  0.00  0.00     0.063 H 
ATOM     41  C   LIG d   1       1.561  -2.164 -10.176  0.00  0.00    -0.060 A 
ATOM     42  H   LIG d   1       1.018  -1.626 -12.174  0.00  0.00     0.062 H 
ATOM     43  C   LIG d   1       2.419  -1.940  -9.118  0.00  0.00    -0.040 A 
ATOM     44  H   LIG d   1       0.780  -2.905 -10.086  0.00  0.00     0.062 H 
ATOM     45  H   LIG d   1       2.308  -2.505  -8.205  0.00  0.00     0.064 H 
BRANCH  37  46
ATOM     46  C   LIG d   1       4.618   0.763 -10.543  0.00  0.00     0.341 C 
ATOM     47  O   LIG d   1       5.778   0.420 -10.659  0.00  0.00    -0.245 OA
BRANCH  46  48
ATOM     48  O   LIG d   1       4.301   2.072 -10.529  0.00  0.00    -0.464 OA
BRANCH  48  49
ATOM     49  C   LIG d   1       4.061   2.669  -9.252  0.00  0.00     0.082 C 
ATOM     50  H   LIG d   1       5.010   2.816  -8.737  0.00  0.00     0.066 H 
ATOM     51  H   LIG d   1       3.569   3.632  -9.388  0.00  0.00     0.066 H 
ATOM     52  H   LIG d   1       3.423   2.014  -8.659  0.00  0.00     0.066 H 
ENDBRANCH  48  49
ENDBRANCH  46  48
ENDBRANCH  37  46
ENDBRANCH  14  36
TORSDOF 7
ENDMDL
MODEL 4
REMARK VINA RESULT:      -6.8      1.695      2.918
REMARK  7 active torsions:
REMARK  status: ('A' for Active; 'I' for Inactive)
REMARK    1  A    between atoms: C_1  and  O_2 
REMARK    2  A    between atoms: O_2  and  C_3 
REMARK    3  A    between atoms: C_8  and  C_9 
REMARK       I    between atoms: N_19  and  C_20 
REMARK       I    between atoms: C_20  and  N_22 
REMARK    4  A    between atoms: N_22  and  C_23 
REMARK    5  A    between atoms: C_28  and  C_29 
REMARK    6  A    between atoms: C_29  and  O_31 
REMARK    7  A    between atoms: O_31  and  C_32 
ROOT
ATOM      1  C   LIG d   1       5.417  -2.318  -5.795  0.00  0.00     0.098 C 
ATOM      2  H   LIG d   1       5.655  -1.488  -6.461  0.00  0.00     0.062 H 
ATOM      3  C   LIG d   1       6.689  -2.941  -5.279  0.00  0.00     0.064 A 
ATOM      4  C   LIG d   1       6.945  -4.266  -5.295  0.00  0.00     0.066 A 
ATOM      5  N   LIG d   1       8.154  -4.457  -4.758  0.00  0.00    -0.240 NA
ATOM      6  C   LIG d   1       8.657  -3.302  -4.411  0.00  0.00     0.094 A 
ATOM      7  N   LIG d   1       7.769  -2.329  -4.722  0.00  0.00    -0.346 N 
ATOM      8  H   LIG d   1       7.881  -1.377  -4.577  0.00  0.00     0.167 HD
ATOM      9  C   LIG d   1       6.002  -5.309  -5.842  0.00  0.00     0.007 C 
ATOM     10  C   LIG d   1       4.597  -4.704  -5.938  0.00  0.00     0.023 C 
ATOM     11  N   LIG d   1       4.686  -3.362  -6.535  0.00  0.00    -0.272 N 
ATOM     12  C   LIG d   1       4.117  -3.094  -7.727  0.00  0.00     0.307 C 
ATOM     13  O   LIG d   1       3.437  -3.938  -8.280  0.00  0.00    -0.252 OA
ATOM     14  N   LIG d   1       4.299  -1.892  -8.307  0.00  0.00    -0.269 N 
ATOM     15  H   LIG d   1       9.622  -3.148  -3.951  0.00  0.00     0.103 H 
ATOM     16  H   LIG d   1       6.335  -5.618  -6.833  0.00  0.00     0.034 H 
ATOM     17  H   LIG d   1       5.984  -6.171  -5.175  0.00  0.00     0.034 H 
ATOM     18  H   LIG d   1       3.968  -5.339  -6.563  0.00  0.00     0.047 H 
ATOM     19  H   LIG d   1       4.163  -4.630  -4.940  0.00  0.00     0.047 H 
ATOM     20  H   LIG d   1       4.909  -1.249  -7.910  0.00  0.00     0.156 HD
ENDROOT
BRANCH   1  21
ATOM     21  C   LIG d   1       4.581  -1.824  -4.642  0.00  0.00     0.021 A 
ATOM     22  C   LIG d   1       3.849  -0.652  -4.766  0.00  0.00     0.125 A 
ATOM     23  C   LIG d   1       3.076  -0.205  -3.705  0.00  0.00    -0.020 A 
ATOM     24  C   LIG d   1       3.041  -0.925  -2.525  0.00  0.00    -0.058 A 
ATOM     25  H   LIG d   1       2.503   0.705  -3.799  0.00  0.00     0.065 H 
ATOM     26  C   LIG d   1       3.775  -2.090  -2.403  0.00  0.00    -0.061 A 
ATOM     27  H   LIG d   1       2.440  -0.576  -1.699  0.00  0.00     0.062 H 
ATOM     28  C   LIG d   1       4.546  -2.538  -3.459  0.00  0.00    -0.053 A 
ATOM     29  H   LIG d   1       3.746  -2.650  -1.480  0.00  0.00     0.062 H 
ATOM     30  H   LIG d   1       5.120  -3.448  -3.360  0.00  0.00     0.062 H 
BRANCH  22  31
ATOM     31  O   LIG d   1       3.886   0.053  -5.926  0.00  0.00    -0.495 OA
BRANCH  31  32
ATOM     32  C   LIG d   1       2.656   0.624  -6.377  0.00  0.00     0.079 C 
ATOM     33  H   LIG d   1       1.956  -0.173  -6.632  0.00  0.00     0.066 H 
ATOM     34  H   LIG d   1       2.230   1.241  -5.586  0.00  0.00     0.066 H 
ATOM     35  H   LIG d   1       2.842   1.240  -7.257  0.00  0.00     0.066 H 
ENDBRANCH  31  32
ENDBRANCH  22  31
ENDBRANCH   1  21
BRANCH  14  36
ATOM     36  C   LIG d   1       3.613  -1.570  -9.475  0.00  0.00     0.049 A 
ATOM     37  C   LIG d   1       4.293  -1.526 -10.703  0.00  0.00     0.080 A 
ATOM     38  C   LIG d   1       3.591  -1.208 -11.869  0.00  0.00    -0.046 A 
ATOM     39  C   LIG d   1       2.244  -0.927 -11.804  0.00  0.00    -0.061 A 
ATOM     40  H   LIG d   1       4.105  -1.176 -12.818  0.00  0.00     0.063 H 
ATOM     41  C   LIG d   1       1.577  -0.966 -10.590  0.00  0.00    -0.060 A 
ATOM     42  H   LIG d   1       1.704  -0.677 -12.705  0.00  0.00     0.062 H 
ATOM     43  C   LIG d   1       2.255  -1.284  -9.430  0.00  0.00    -0.040 A 
ATOM     44  H   LIG d   1       0.521  -0.744 -10.550  0.00  0.00     0.062 H 
ATOM     45  H   LIG d   1       1.729  -1.312  -8.488  0.00  0.00     0.064 H 
BRANCH  37  46
ATOM     46  C   LIG d   1       5.735  -1.821 -10.763  0.00  0.00     0.341 C 
ATOM     47  O   LIG d   1       6.133  -2.951 -10.558  0.00  0.00    -0.245 OA
BRANCH  46  48
ATOM     48  O   LIG d   1       6.613  -0.839 -11.044  0.00  0.00    -0.464 OA
BRANCH  48  49
ATOM     49  C   LIG d   1       6.708   0.235 -10.105  0.00  0.00     0.082 C 
ATOM     50  H   LIG d   1       7.428  -0.025  -9.329  0.00  0.00     0.066 H 
ATOM     51  H   LIG d   1       7.037   1.138 -10.618  0.00  0.00     0.066 H 
ATOM     52  H   LIG d   1       5.733   0.409  -9.651  0.00  0.00     0.066 H 
ENDBRANCH  48  49
ENDBRANCH  46  48
ENDBRANCH  37  46
ENDBRANCH  14  36
TORSDOF 7
ENDMDL
MODEL 5
REMARK VINA RESULT:      -6.6      2.017      6.484
REMARK  7 active torsions:
REMARK  status: ('A' for Active; 'I' for Inactive)
REMARK    1  A    between atoms: C_1  and  O_2 
REMARK    2  A    between atoms: O_2  and  C_3 
REMARK    3  A    between atoms: C_8  and  C_9 
REMARK       I    between atoms: N_19  and  C_20 
REMARK       I    between atoms: C_20  and  N_22 
REMARK    4  A    between atoms: N_22  and  C_23 
REMARK    5  A    between atoms: C_28  and  C_29 
REMARK    6  A    between atoms: C_29  and  O_31 
REMARK    7  A    between atoms: O_31  and  C_32 
ROOT
ATOM      1  C   LIG d   1       4.491  -1.484  -8.390  0.00  0.00     0.098 C 
ATOM      2  H   LIG d   1       5.366  -1.403  -7.745  0.00  0.00     0.062 H 
ATOM      3  C   LIG d   1       4.825  -0.982  -9.772  0.00  0.00     0.064 A 
ATOM      4  C   LIG d   1       4.075  -0.094 -10.458  0.00  0.00     0.066 A 
ATOM      5  N   LIG d   1       4.666   0.114 -11.639  0.00  0.00    -0.240 NA
ATOM      6  C   LIG d   1       5.753  -0.608 -11.710  0.00  0.00     0.094 A 
ATOM      7  N   LIG d   1       5.886  -1.307 -10.559  0.00  0.00    -0.346 N 
ATOM      8  H   LIG d   1       6.602  -1.922 -10.337  0.00  0.00     0.167 HD
ATOM      9  C   LIG d   1       2.804   0.530  -9.937  0.00  0.00     0.007 C 
ATOM     10  C   LIG d   1       2.284  -0.312  -8.767  0.00  0.00     0.023 C 
ATOM     11  N   LIG d   1       3.403  -0.638  -7.868  0.00  0.00    -0.272 N 
ATOM     12  C   LIG d   1       3.433  -0.176  -6.603  0.00  0.00     0.307 C 
ATOM     13  O   LIG d   1       2.484   0.440  -6.157  0.00  0.00    -0.252 OA
ATOM     14  N   LIG d   1       4.514  -0.396  -5.829  0.00  0.00    -0.269 N 
ATOM     15  H   LIG d   1       6.433  -0.642 -12.549  0.00  0.00     0.103 H 
ATOM     16  H   LIG d   1       3.010   1.544  -9.595  0.00  0.00     0.034 H 
ATOM     17  H   LIG d   1       2.058   0.554 -10.730  0.00  0.00     0.034 H 
ATOM     18  H   LIG d   1       1.529   0.253  -8.218  0.00  0.00     0.047 H 
ATOM     19  H   LIG d   1       1.843  -1.234  -9.148  0.00  0.00     0.047 H 
ATOM     20  H   LIG d   1       5.305  -0.811  -6.209  0.00  0.00     0.156 HD
ENDROOT
BRANCH   1  21
ATOM     21  C   LIG d   1       4.038  -2.920  -8.460  0.00  0.00     0.021 A 
ATOM     22  C   LIG d   1       4.288  -3.779  -7.401  0.00  0.00     0.125 A 
ATOM     23  C   LIG d   1       3.864  -5.098  -7.466  0.00  0.00    -0.020 A 
ATOM     24  C   LIG d   1       3.198  -5.554  -8.588  0.00  0.00    -0.058 A 
ATOM     25  H   LIG d   1       4.054  -5.769  -6.641  0.00  0.00     0.065 H 
ATOM     26  C   LIG d   1       2.955  -4.697  -9.645  0.00  0.00    -0.061 A 
ATOM     27  H   LIG d   1       2.869  -6.581  -8.639  0.00  0.00     0.062 H 
ATOM     28  C   LIG d   1       3.377  -3.382  -9.582  0.00  0.00    -0.053 A 
ATOM     29  H   LIG d   1       2.435  -5.055 -10.521  0.00  0.00     0.062 H 
ATOM     30  H   LIG d   1       3.187  -2.714 -10.410  0.00  0.00     0.062 H 
BRANCH  22  31
ATOM     31  O   LIG d   1       4.942  -3.328  -6.298  0.00  0.00    -0.495 OA
BRANCH  31  32
ATOM     32  C   LIG d   1       4.970  -4.194  -5.161  0.00  0.00     0.079 C 
ATOM     33  H   LIG d   1       4.612  -3.654  -4.284  0.00  0.00     0.066 H 
ATOM     34  H   LIG d   1       4.327  -5.055  -5.344  0.00  0.00     0.066 H 
ATOM     35  H   LIG d   1       5.991  -4.533  -4.988  0.00  0.00     0.066 H 
ENDBRANCH  31  32
ENDBRANCH  22  31
ENDBRANCH   1  21
BRANCH  14  36
ATOM     36  C   LIG d   1       4.498  -0.028  -4.487  0.00  0.00     0.049 A 
ATOM     37  C   LIG d   1       5.681   0.387  -3.855  0.00  0.00     0.080 A 
ATOM     38  C   LIG d   1       5.649   0.760  -2.508  0.00  0.00    -0.046 A 
ATOM     39  C   LIG d   1       4.464   0.706  -1.809  0.00  0.00    -0.061 A 
ATOM     40  H   LIG d   1       6.553   1.086  -2.016  0.00  0.00     0.063 H 
ATOM     41  C   LIG d   1       3.299   0.289  -2.434  0.00  0.00    -0.060 A 
ATOM     42  H   LIG d   1       4.442   0.989  -0.767  0.00  0.00     0.062 H 
ATOM     43  C   LIG d   1       3.313  -0.076  -3.765  0.00  0.00    -0.040 A 
ATOM     44  H   LIG d   1       2.375   0.250  -1.876  0.00  0.00     0.062 H 
ATOM     45  H   LIG d   1       2.401  -0.399  -4.245  0.00  0.00     0.064 H 
BRANCH  37  46
ATOM     46  C   LIG d   1       6.946   0.438  -4.608  0.00  0.00     0.341 C 
ATOM     47  O   LIG d   1       7.099   1.266  -5.485  0.00  0.00    -0.245 OA
BRANCH  46  48
ATOM     48  O   LIG d   1       7.932  -0.435  -4.327  0.00  0.00    -0.464 OA
BRANCH  48  49
ATOM     49  C   LIG d   1       7.910  -1.686  -5.019  0.00  0.00     0.082 C 
ATOM     50  H   LIG d   1       8.889  -2.159  -4.945  0.00  0.00     0.066 H 
ATOM     51  H   LIG d   1       7.159  -2.336  -4.571  0.00  0.00     0.066 H 
ATOM     52  H   LIG d   1       7.667  -1.517  -6.068  0.00  0.00     0.066 H 
ENDBRANCH  48  49
ENDBRANCH  46  48
ENDBRANCH  37  46
ENDBRANCH  14  36
TORSDOF 7
ENDMDL
MODEL 6
REMARK VINA RESULT:      -6.5      2.920      5.604
REMARK  7 active torsions:
REMARK  status: ('A' for Active; 'I' for Inactive)
REMARK    1  A    between atoms: C_1  and  O_2 
REMARK    2  A    between atoms: O_2  and  C_3 
REMARK    3  A    between atoms: C_8  and  C_9 
REMARK       I    between atoms: N_19  and  C_20 
REMARK       I    between atoms: C_20  and  N_22 
REMARK    4  A    between atoms: N_22  and  C_23 
REMARK    5  A    between atoms: C_28  and  C_29 
REMARK    6  A    between atoms: C_29  and  O_31 
REMARK    7  A    between atoms: O_31  and  C_32 
ROOT
ATOM      1  C   LIG d   1       4.813  -0.451  -5.908  0.00  0.00     0.098 C 
ATOM      2  H   LIG d   1       4.843   0.639  -5.897  0.00  0.00     0.062 H 
ATOM      3  C   LIG d   1       4.143  -0.958  -4.656  0.00  0.00     0.064 A 
ATOM      4  C   LIG d   1       4.653  -1.923  -3.861  0.00  0.00     0.066 A 
ATOM      5  N   LIG d   1       3.795  -2.120  -2.855  0.00  0.00    -0.240 NA
ATOM      6  C   LIG d   1       2.776  -1.313  -2.995  0.00  0.00     0.094 A 
ATOM      7  N   LIG d   1       2.959  -0.570  -4.111  0.00  0.00    -0.346 N 
ATOM      8  H   LIG d   1       2.361   0.110  -4.456  0.00  0.00     0.167 HD
ATOM      9  C   LIG d   1       5.967  -2.622  -4.105  0.00  0.00     0.007 C 
ATOM     10  C   LIG d   1       6.379  -2.405  -5.565  0.00  0.00     0.023 C 
ATOM     11  N   LIG d   1       6.185  -0.990  -5.920  0.00  0.00    -0.272 N 
ATOM     12  C   LIG d   1       7.233  -0.207  -6.246  0.00  0.00     0.307 C 
ATOM     13  O   LIG d   1       8.345  -0.689  -6.344  0.00  0.00    -0.252 OA
ATOM     14  N   LIG d   1       7.049   1.110  -6.464  0.00  0.00    -0.269 N 
ATOM     15  H   LIG d   1       1.927  -1.250  -2.330  0.00  0.00     0.103 H 
ATOM     16  H   LIG d   1       6.729  -2.205  -3.445  0.00  0.00     0.034 H 
ATOM     17  H   LIG d   1       5.856  -3.688  -3.911  0.00  0.00     0.034 H 
ATOM     18  H   LIG d   1       7.429  -2.672  -5.692  0.00  0.00     0.047 H 
ATOM     19  H   LIG d   1       5.764  -3.030  -6.214  0.00  0.00     0.047 H 
ATOM     20  H   LIG d   1       6.180   1.511  -6.302  0.00  0.00     0.156 HD
ENDROOT
BRANCH   1  21
ATOM     21  C   LIG d   1       4.062  -0.930  -7.124  0.00  0.00     0.021 A 
ATOM     22  C   LIG d   1       3.251  -0.054  -7.829  0.00  0.00     0.125 A 
ATOM     23  C   LIG d   1       2.566  -0.497  -8.951  0.00  0.00    -0.020 A 
ATOM     24  C   LIG d   1       2.690  -1.811  -9.361  0.00  0.00    -0.058 A 
ATOM     25  H   LIG d   1       1.936   0.183  -9.505  0.00  0.00     0.065 H 
ATOM     26  C   LIG d   1       3.496  -2.684  -8.653  0.00  0.00    -0.061 A 
ATOM     27  H   LIG d   1       2.157  -2.157 -10.233  0.00  0.00     0.062 H 
ATOM     28  C   LIG d   1       4.179  -2.245  -7.534  0.00  0.00    -0.053 A 
ATOM     29  H   LIG d   1       3.591  -3.711  -8.974  0.00  0.00     0.062 H 
ATOM     30  H   LIG d   1       4.807  -2.929  -6.982  0.00  0.00     0.062 H 
BRANCH  22  31
ATOM     31  O   LIG d   1       3.131   1.237  -7.424  0.00  0.00    -0.495 OA
BRANCH  31  32
ATOM     32  C   LIG d   1       2.809   2.204  -8.427  0.00  0.00     0.079 C 
ATOM     33  H   LIG d   1       3.658   2.328  -9.099  0.00  0.00     0.066 H 
ATOM     34  H   LIG d   1       1.943   1.864  -8.995  0.00  0.00     0.066 H 
ATOM     35  H   LIG d   1       2.578   3.157  -7.951  0.00  0.00     0.066 H 
ENDBRANCH  31  32
ENDBRANCH  22  31
ENDBRANCH   1  21
BRANCH  14  36
ATOM     36  C   LIG d   1       8.104   1.895  -6.919  0.00  0.00     0.049 A 
ATOM     37  C   LIG d   1       8.220   2.198  -8.285  0.00  0.00     0.080 A 
ATOM     38  C   LIG d   1       9.280   2.993  -8.728  0.00  0.00    -0.046 A 
ATOM     39  C   LIG d   1      10.210   3.461  -7.827  0.00  0.00    -0.061 A 
ATOM     40  H   LIG d   1       9.374   3.235  -9.777  0.00  0.00     0.063 H 
ATOM     41  C   LIG d   1      10.097   3.155  -6.479  0.00  0.00    -0.060 A 
ATOM     42  H   LIG d   1      11.032   4.071  -8.171  0.00  0.00     0.062 H 
ATOM     43  C   LIG d   1       9.052   2.376  -6.026  0.00  0.00    -0.040 A 
ATOM     44  H   LIG d   1      10.832   3.527  -5.780  0.00  0.00     0.062 H 
ATOM     45  H   LIG d   1       8.970   2.142  -4.975  0.00  0.00     0.064 H 
BRANCH  37  46
ATOM     46  C   LIG d   1       7.224   1.689  -9.244  0.00  0.00     0.341 C 
ATOM     47  O   LIG d   1       6.154   2.252  -9.366  0.00  0.00    -0.245 OA
BRANCH  46  48
ATOM     48  O   LIG d   1       7.499   0.598  -9.985  0.00  0.00    -0.464 OA
BRANCH  48  49
ATOM     49  C   LIG d   1       6.585  -0.498  -9.892  0.00  0.00     0.082 C 
ATOM     50  H   LIG d   1       6.230  -0.759 -10.889  0.00  0.00     0.066 H 
ATOM     51  H   LIG d   1       7.089  -1.356  -9.449  0.00  0.00     0.066 H 
ATOM     52  H   LIG d   1       5.737  -0.212  -9.269  0.00  0.00     0.066 H 
ENDBRANCH  48  49
ENDBRANCH  46  48
ENDBRANCH  37  46
ENDBRANCH  14  36
TORSDOF 7
ENDMDL
MODEL 7
REMARK VINA RESULT:      -6.4      2.770      5.758
REMARK  7 active torsions:
REMARK  status: ('A' for Active; 'I' for Inactive)
REMARK    1  A    between atoms: C_1  and  O_2 
REMARK    2  A    between atoms: O_2  and  C_3 
REMARK    3  A    between atoms: C_8  and  C_9 
REMARK       I    between atoms: N_19  and  C_20 
REMARK       I    between atoms: C_20  and  N_22 
REMARK    4  A    between atoms: N_22  and  C_23 
REMARK    5  A    between atoms: C_28  and  C_29 
REMARK    6  A    between atoms: C_29  and  O_31 
REMARK    7  A    between atoms: O_31  and  C_32 
ROOT
ATOM      1  C   LIG d   1       4.746  -0.493  -6.119  0.00  0.00     0.098 C 
ATOM      2  H   LIG d   1       4.799   0.596  -6.092  0.00  0.00     0.062 H 
ATOM      3  C   LIG d   1       4.141  -1.008  -4.838  0.00  0.00     0.064 A 
ATOM      4  C   LIG d   1       4.677  -1.995  -4.089  0.00  0.00     0.066 A 
ATOM      5  N   LIG d   1       3.877  -2.192  -3.037  0.00  0.00    -0.240 NA
ATOM      6  C   LIG d   1       2.868  -1.364  -3.103  0.00  0.00     0.094 A 
ATOM      7  N   LIG d   1       3.000  -0.606  -4.216  0.00  0.00    -0.346 N 
ATOM      8  H   LIG d   1       2.396   0.092  -4.515  0.00  0.00     0.167 HD
ATOM      9  C   LIG d   1       5.961  -2.715  -4.422  0.00  0.00     0.007 C 
ATOM     10  C   LIG d   1       6.290  -2.482  -5.901  0.00  0.00     0.023 C 
ATOM     11  N   LIG d   1       6.104  -1.058  -6.221  0.00  0.00    -0.272 N 
ATOM     12  C   LIG d   1       7.146  -0.290  -6.596  0.00  0.00     0.307 C 
ATOM     13  O   LIG d   1       8.240  -0.791  -6.768  0.00  0.00    -0.252 OA
ATOM     14  N   LIG d   1       6.976   1.034  -6.782  0.00  0.00    -0.269 N 
ATOM     15  H   LIG d   1       2.061  -1.296  -2.388  0.00  0.00     0.103 H 
ATOM     16  H   LIG d   1       6.769  -2.324  -3.802  0.00  0.00     0.034 H 
ATOM     17  H   LIG d   1       5.839  -3.782  -4.238  0.00  0.00     0.034 H 
ATOM     18  H   LIG d   1       7.325  -2.767  -6.093  0.00  0.00     0.047 H 
ATOM     19  H   LIG d   1       5.625  -3.084  -6.521  0.00  0.00     0.047 H 
ATOM     20  H   LIG d   1       6.126   1.449  -6.563  0.00  0.00     0.156 HD
ENDROOT
BRANCH   1  21
ATOM     21  C   LIG d   1       3.915  -0.937  -7.295  0.00  0.00     0.021 A 
ATOM     22  C   LIG d   1       3.052  -0.044  -7.913  0.00  0.00     0.125 A 
ATOM     23  C   LIG d   1       2.294  -0.454  -8.999  0.00  0.00    -0.020 A 
ATOM     24  C   LIG d   1       2.396  -1.753  -9.460  0.00  0.00    -0.058 A 
ATOM     25  H   LIG d   1       1.623   0.239  -9.485  0.00  0.00     0.065 H 
ATOM     26  C   LIG d   1       3.253  -2.643  -8.839  0.00  0.00    -0.061 A 
ATOM     27  H   LIG d   1       1.805  -2.074 -10.305  0.00  0.00     0.062 H 
ATOM     28  C   LIG d   1       4.010  -2.236  -7.756  0.00  0.00    -0.053 A 
ATOM     29  H   LIG d   1       3.330  -3.658  -9.201  0.00  0.00     0.062 H 
ATOM     30  H   LIG d   1       4.678  -2.933  -7.272  0.00  0.00     0.062 H 
BRANCH  22  31
ATOM     31  O   LIG d   1       2.954   1.233  -7.458  0.00  0.00    -0.495 OA
BRANCH  31  32
ATOM     32  C   LIG d   1       2.917   2.270  -8.440  0.00  0.00     0.079 C 
ATOM     33  H   LIG d   1       2.884   1.828  -9.436  0.00  0.00     0.066 H 
ATOM     34  H   LIG d   1       2.031   2.885  -8.286  0.00  0.00     0.066 H 
ATOM     35  H   LIG d   1       3.809   2.890  -8.347  0.00  0.00     0.066 H 
ENDBRANCH  31  32
ENDBRANCH  22  31
ENDBRANCH   1  21
BRANCH  14  36
ATOM     36  C   LIG d   1       8.018   1.806  -7.288  0.00  0.00     0.049 A 
ATOM     37  C   LIG d   1       8.921   2.431  -6.414  0.00  0.00     0.080 A 
ATOM     38  C   LIG d   1       9.967   3.199  -6.935  0.00  0.00    -0.046 A 
ATOM     39  C   LIG d   1      10.096   3.347  -8.298  0.00  0.00    -0.061 A 
ATOM     40  H   LIG d   1      10.669   3.679  -6.269  0.00  0.00     0.063 H 
ATOM     41  C   LIG d   1       9.199   2.733  -9.158  0.00  0.00    -0.060 A 
ATOM     42  H   LIG d   1      10.902   3.944  -8.699  0.00  0.00     0.062 H 
ATOM     43  C   LIG d   1       8.165   1.967  -8.659  0.00  0.00    -0.040 A 
ATOM     44  H   LIG d   1       9.310   2.855 -10.226  0.00  0.00     0.062 H 
ATOM     45  H   LIG d   1       7.471   1.492  -9.336  0.00  0.00     0.064 H 
BRANCH  37  46
ATOM     46  C   LIG d   1       8.773   2.273  -4.956  0.00  0.00     0.341 C 
ATOM     47  O   LIG d   1       7.706   2.509  -4.425  0.00  0.00    -0.245 OA
BRANCH  46  48
ATOM     48  O   LIG d   1       9.821   1.868  -4.213  0.00  0.00    -0.464 OA
BRANCH  48  49
ATOM     49  C   LIG d   1      10.258   2.748  -3.174  0.00  0.00     0.082 C 
ATOM     50  H   LIG d   1      11.348   2.766  -3.149  0.00  0.00     0.066 H 
ATOM     51  H   LIG d   1       9.883   3.753  -3.366  0.00  0.00     0.066 H 
ATOM     52  H   LIG d   1       9.879   2.394  -2.215  0.00  0.00     0.066 H 
ENDBRANCH  48  49
ENDBRANCH  46  48
ENDBRANCH  37  46
ENDBRANCH  14  36
TORSDOF 7
ENDMDL
MODEL 8
REMARK VINA RESULT:      -6.3      1.743      4.062
REMARK  7 active torsions:
REMARK  status: ('A' for Active; 'I' for Inactive)
REMARK    1  A    between atoms: C_1  and  O_2 
REMARK    2  A    between atoms: O_2  and  C_3 
REMARK    3  A    between atoms: C_8  and  C_9 
REMARK       I    between atoms: N_19  and  C_20 
REMARK       I    between atoms: C_20  and  N_22 
REMARK    4  A    between atoms: N_22  and  C_23 
REMARK    5  A    between atoms: C_28  and  C_29 
REMARK    6  A    between atoms: C_29  and  O_31 
REMARK    7  A    between atoms: O_31  and  C_32 
ROOT
ATOM      1  C   LIG d   1       5.466  -2.033  -5.251  0.00  0.00     0.098 C 
ATOM      2  H   LIG d   1       4.647  -2.304  -5.918  0.00  0.00     0.062 H 
ATOM      3  C   LIG d   1       4.945  -1.842  -3.849  0.00  0.00     0.064 A 
ATOM      4  C   LIG d   1       5.216  -0.768  -3.079  0.00  0.00     0.066 A 
ATOM      5  N   LIG d   1       4.597  -0.938  -1.906  0.00  0.00    -0.240 NA
ATOM      6  C   LIG d   1       3.951  -2.074  -1.922  0.00  0.00     0.094 A 
ATOM      7  N   LIG d   1       4.145  -2.668  -3.122  0.00  0.00    -0.346 N 
ATOM      8  H   LIG d   1       3.782  -3.520  -3.410  0.00  0.00     0.167 HD
ATOM      9  C   LIG d   1       6.069   0.398  -3.513  0.00  0.00     0.007 C 
ATOM     10  C   LIG d   1       6.911  -0.027  -4.721  0.00  0.00     0.023 C 
ATOM     11  N   LIG d   1       6.057  -0.751  -5.677  0.00  0.00    -0.272 N 
ATOM     12  C   LIG d   1       5.819  -0.256  -6.908  0.00  0.00     0.307 C 
ATOM     13  O   LIG d   1       6.389   0.753  -7.278  0.00  0.00    -0.252 OA
ATOM     14  N   LIG d   1       4.952  -0.878  -7.729  0.00  0.00    -0.269 N 
ATOM     15  H   LIG d   1       3.361  -2.474  -1.110  0.00  0.00     0.103 H 
ATOM     16  H   LIG d   1       5.428   1.235  -3.791  0.00  0.00     0.034 H 
ATOM     17  H   LIG d   1       6.726   0.694  -2.696  0.00  0.00     0.034 H 
ATOM     18  H   LIG d   1       7.329   0.856  -5.204  0.00  0.00     0.047 H 
ATOM     19  H   LIG d   1       7.720  -0.680  -4.391  0.00  0.00     0.047 H 
ATOM     20  H   LIG d   1       4.433  -1.632  -7.406  0.00  0.00     0.156 HD
ENDROOT
BRANCH   1  21
ATOM     21  C   LIG d   1       6.517  -3.113  -5.266  0.00  0.00     0.021 A 
ATOM     22  C   LIG d   1       6.609  -3.978  -6.346  0.00  0.00     0.125 A 
ATOM     23  C   LIG d   1       7.582  -4.967  -6.359  0.00  0.00    -0.020 A 
ATOM     24  C   LIG d   1       8.453  -5.091  -5.294  0.00  0.00    -0.058 A 
ATOM     25  H   LIG d   1       7.658  -5.640  -7.201  0.00  0.00     0.065 H 
ATOM     26  C   LIG d   1       8.356  -4.231  -4.216  0.00  0.00    -0.061 A 
ATOM     27  H   LIG d   1       9.210  -5.861  -5.304  0.00  0.00     0.062 H 
ATOM     28  C   LIG d   1       7.388  -3.244  -4.201  0.00  0.00    -0.053 A 
ATOM     29  H   LIG d   1       9.039  -4.330  -3.385  0.00  0.00     0.062 H 
ATOM     30  H   LIG d   1       7.314  -2.574  -3.357  0.00  0.00     0.062 H 
BRANCH  22  31
ATOM     31  O   LIG d   1       5.751  -3.854  -7.392  0.00  0.00    -0.495 OA
BRANCH  31  32
ATOM     32  C   LIG d   1       4.727  -4.843  -7.512  0.00  0.00     0.079 C 
ATOM     33  H   LIG d   1       4.118  -4.632  -8.392  0.00  0.00     0.066 H 
ATOM     34  H   LIG d   1       5.183  -5.827  -7.614  0.00  0.00     0.066 H 
ATOM     35  H   LIG d   1       4.098  -4.825  -6.622  0.00  0.00     0.066 H 
ENDBRANCH  31  32
ENDBRANCH  22  31
ENDBRANCH   1  21
BRANCH  14  36
ATOM     36  C   LIG d   1       4.798  -0.440  -9.042  0.00  0.00     0.049 A 
ATOM     37  C   LIG d   1       3.843   0.541  -9.351  0.00  0.00     0.080 A 
ATOM     38  C   LIG d   1       3.703   0.976 -10.672  0.00  0.00    -0.046 A 
ATOM     39  C   LIG d   1       4.493   0.433 -11.661  0.00  0.00    -0.061 A 
ATOM     40  H   LIG d   1       2.974   1.734 -10.918  0.00  0.00     0.063 H 
ATOM     41  C   LIG d   1       5.431  -0.540 -11.353  0.00  0.00    -0.060 A 
ATOM     42  H   LIG d   1       4.381   0.767 -12.682  0.00  0.00     0.062 H 
ATOM     43  C   LIG d   1       5.585  -0.976 -10.053  0.00  0.00    -0.040 A 
ATOM     44  H   LIG d   1       6.046  -0.960 -12.136  0.00  0.00     0.062 H 
ATOM     45  H   LIG d   1       6.318  -1.734  -9.821  0.00  0.00     0.064 H 
BRANCH  37  46
ATOM     46  C   LIG d   1       2.998   1.114  -8.289  0.00  0.00     0.341 C 
ATOM     47  O   LIG d   1       2.891   2.320  -8.181  0.00  0.00    -0.245 OA
BRANCH  46  48
ATOM     48  O   LIG d   1       2.345   0.301  -7.436  0.00  0.00    -0.464 OA
BRANCH  48  49
ATOM     49  C   LIG d   1       2.491   0.572  -6.040  0.00  0.00     0.082 C 
ATOM     50  H   LIG d   1       3.437   1.084  -5.867  0.00  0.00     0.066 H 
ATOM     51  H   LIG d   1       1.670   1.204  -5.704  0.00  0.00     0.066 H 
ATOM     52  H   LIG d   1       2.480  -0.366  -5.485  0.00  0.00     0.066 H 
ENDBRANCH  48  49
ENDBRANCH  46  48
ENDBRANCH  37  46
ENDBRANCH  14  36
TORSDOF 7
ENDMDL
MODEL 9
REMARK VINA RESULT:      -6.2      2.710      5.214
REMARK  7 active torsions:
REMARK  status: ('A' for Active; 'I' for Inactive)
REMARK    1  A    between atoms: C_1  and  O_2 
REMARK    2  A    between atoms: O_2  and  C_3 
REMARK    3  A    between atoms: C_8  and  C_9 
REMARK       I    between atoms: N_19  and  C_20 
REMARK       I    between atoms: C_20  and  N_22 
REMARK    4  A    between atoms: N_22  and  C_23 
REMARK    5  A    between atoms: C_28  and  C_29 
REMARK    6  A    between atoms: C_29  and  O_31 
REMARK    7  A    between atoms: O_31  and  C_32 
ROOT
ATOM      1  C   LIG d   1       9.261  -0.857  -5.802  0.00  0.00     0.098 C 
ATOM      2  H   LIG d   1       8.559  -0.084  -6.116  0.00  0.00     0.062 H 
ATOM      3  C   LIG d   1       9.718  -1.651  -6.999  0.00  0.00     0.064 A 
ATOM      4  C   LIG d   1       9.723  -2.999  -7.058  0.00  0.00     0.066 A 
ATOM      5  N   LIG d   1      10.193  -3.355  -8.258  0.00  0.00    -0.240 NA
ATOM      6  C   LIG d   1      10.477  -2.280  -8.945  0.00  0.00     0.094 A 
ATOM      7  N   LIG d   1      10.192  -1.194  -8.190  0.00  0.00    -0.346 N 
ATOM      8  H   LIG d   1      10.304  -0.266  -8.448  0.00  0.00     0.167 HD
ATOM      9  C   LIG d   1       9.262  -3.902  -5.941  0.00  0.00     0.007 C 
ATOM     10  C   LIG d   1       9.233  -3.099  -4.636  0.00  0.00     0.023 C 
ATOM     11  N   LIG d   1       8.595  -1.796  -4.882  0.00  0.00    -0.272 N 
ATOM     12  C   LIG d   1       7.432  -1.470  -4.284  0.00  0.00     0.307 C 
ATOM     13  O   LIG d   1       6.944  -2.215  -3.455  0.00  0.00    -0.252 OA
ATOM     14  N   LIG d   1       6.809  -0.318  -4.602  0.00  0.00    -0.269 N 
ATOM     15  H   LIG d   1      10.875  -2.261  -9.949  0.00  0.00     0.103 H 
ATOM     16  H   LIG d   1       8.262  -4.275  -6.163  0.00  0.00     0.034 H 
ATOM     17  H   LIG d   1       9.952  -4.739  -5.840  0.00  0.00     0.034 H 
ATOM     18  H   LIG d   1       8.665  -3.646  -3.883  0.00  0.00     0.047 H 
ATOM     19  H   LIG d   1      10.253  -2.943  -4.281  0.00  0.00     0.047 H 
ATOM     20  H   LIG d   1       7.151   0.235  -5.323  0.00  0.00     0.156 HD
ENDROOT
BRANCH   1  21
ATOM     21  C   LIG d   1      10.447  -0.224  -5.121  0.00  0.00     0.021 A 
ATOM     22  C   LIG d   1      10.358   1.069  -4.628  0.00  0.00     0.125 A 
ATOM     23  C   LIG d   1      11.450   1.645  -3.995  0.00  0.00    -0.020 A 
ATOM     24  C   LIG d   1      12.626   0.931  -3.863  0.00  0.00    -0.058 A 
ATOM     25  H   LIG d   1      11.382   2.651  -3.608  0.00  0.00     0.065 H 
ATOM     26  C   LIG d   1      12.714  -0.356  -4.360  0.00  0.00    -0.061 A 
ATOM     27  H   LIG d   1      13.476   1.380  -3.372  0.00  0.00     0.062 H 
ATOM     28  C   LIG d   1      11.627  -0.932  -4.990  0.00  0.00    -0.053 A 
ATOM     29  H   LIG d   1      13.635  -0.912  -4.256  0.00  0.00     0.062 H 
ATOM     30  H   LIG d   1      11.699  -1.938  -5.378  0.00  0.00     0.062 H 
BRANCH  22  31
ATOM     31  O   LIG d   1       9.201   1.768  -4.759  0.00  0.00    -0.495 OA
BRANCH  31  32
ATOM     32  C   LIG d   1       8.837   2.629  -3.678  0.00  0.00     0.079 C 
ATOM     33  H   LIG d   1       8.869   3.667  -4.012  0.00  0.00     0.066 H 
ATOM     34  H   LIG d   1       7.828   2.387  -3.344  0.00  0.00     0.066 H 
ATOM     35  H   LIG d   1       9.535   2.491  -2.853  0.00  0.00     0.066 H 
ENDBRANCH  31  32
ENDBRANCH  22  31
ENDBRANCH   1  21
BRANCH  14  36
ATOM     36  C   LIG d   1       5.675   0.079  -3.899  0.00  0.00     0.049 A 
ATOM     37  C   LIG d   1       4.406  -0.029  -4.488  0.00  0.00     0.080 A 
ATOM     38  C   LIG d   1       3.275   0.367  -3.768  0.00  0.00    -0.046 A 
ATOM     39  C   LIG d   1       3.415   0.872  -2.494  0.00  0.00    -0.061 A 
ATOM     40  H   LIG d   1       2.294   0.283  -4.212  0.00  0.00     0.063 H 
ATOM     41  C   LIG d   1       4.670   0.983  -1.917  0.00  0.00    -0.060 A 
ATOM     42  H   LIG d   1       2.541   1.182  -1.941  0.00  0.00     0.062 H 
ATOM     43  C   LIG d   1       5.796   0.591  -2.613  0.00  0.00    -0.040 A 
ATOM     44  H   LIG d   1       4.769   1.380  -0.918  0.00  0.00     0.062 H 
ATOM     45  H   LIG d   1       6.770   0.680  -2.157  0.00  0.00     0.064 H 
BRANCH  37  46
ATOM     46  C   LIG d   1       4.265  -0.565  -5.853  0.00  0.00     0.341 C 
ATOM     47  O   LIG d   1       4.422  -1.752  -6.059  0.00  0.00    -0.245 OA
BRANCH  46  48
ATOM     48  O   LIG d   1       3.964   0.262  -6.873  0.00  0.00    -0.464 OA
BRANCH  48  49
ATOM     49  C   LIG d   1       2.776  -0.027  -7.614  0.00  0.00     0.082 C 
ATOM     50  H   LIG d   1       2.040   0.757  -7.438  0.00  0.00     0.066 H 
ATOM     51  H   LIG d   1       3.012  -0.071  -8.677  0.00  0.00     0.066 H 
ATOM     52  H   LIG d   1       2.370  -0.985  -7.291  0.00  0.00     0.066 H 
ENDBRANCH  48  49
ENDBRANCH  46  48
ENDBRANCH  37  46
ENDBRANCH  14  36
TORSDOF 7
ENDMDL
MODEL 10
REMARK VINA RESULT:      -6.1      2.679      5.479
REMARK  7 active torsions:
REMARK  status: ('A' for Active; 'I' for Inactive)
REMARK    1  A    between atoms: C_1  and  O_2 
REMARK    2  A    between atoms: O_2  and  C_3 
REMARK    3  A    between atoms: C_8  and  C_9 
REMARK       I    between atoms: N_19  and  C_20 
REMARK       I    between atoms: C_20  and  N_22 
REMARK    4  A    between atoms: N_22  and  C_23 
REMARK    5  A    between atoms: C_28  and  C_29 
REMARK    6  A    between atoms: C_29  and  O_31 
REMARK    7  A    between atoms: O_31  and  C_32 
ROOT
ATOM      1  C   LIG d   1       4.618  -0.970  -7.173  0.00  0.00     0.098 C 
ATOM      2  H   LIG d   1       5.682  -1.168  -7.042  0.00  0.00     0.062 H 
ATOM      3  C   LIG d   1       3.975  -2.102  -7.932  0.00  0.00     0.064 A 
ATOM      4  C   LIG d   1       3.172  -1.937  -9.004  0.00  0.00     0.066 A 
ATOM      5  N   LIG d   1       2.782  -3.148  -9.414  0.00  0.00    -0.240 NA
ATOM      6  C   LIG d   1       3.314  -4.056  -8.640  0.00  0.00     0.094 A 
ATOM      7  N   LIG d   1       4.068  -3.440  -7.700  0.00  0.00    -0.346 N 
ATOM      8  H   LIG d   1       4.578  -3.869  -6.996  0.00  0.00     0.167 HD
ATOM      9  C   LIG d   1       2.813  -0.598  -9.601  0.00  0.00     0.007 C 
ATOM     10  C   LIG d   1       3.109   0.498  -8.572  0.00  0.00     0.023 C 
ATOM     11  N   LIG d   1       4.430   0.256  -7.970  0.00  0.00    -0.272 N 
ATOM     12  C   LIG d   1       5.442   1.128  -8.145  0.00  0.00     0.307 C 
ATOM     13  O   LIG d   1       5.245   2.179  -8.725  0.00  0.00    -0.252 OA
ATOM     14  N   LIG d   1       6.672   0.838  -7.678  0.00  0.00    -0.269 N 
ATOM     15  H   LIG d   1       3.174  -5.123  -8.733  0.00  0.00     0.103 H 
ATOM     16  H   LIG d   1       3.409  -0.428 -10.498  0.00  0.00     0.034 H 
ATOM     17  H   LIG d   1       1.754  -0.584  -9.856  0.00  0.00     0.034 H 
ATOM     18  H   LIG d   1       3.106   1.471  -9.064  0.00  0.00     0.047 H 
ATOM     19  H   LIG d   1       2.346   0.481  -7.792  0.00  0.00     0.047 H 
ATOM     20  H   LIG d   1       6.850  -0.034  -7.292  0.00  0.00     0.156 HD
ENDROOT
BRANCH   1  21
ATOM     21  C   LIG d   1       3.958  -0.812  -5.827  0.00  0.00     0.021 A 
ATOM     22  C   LIG d   1       4.376  -1.585  -4.753  0.00  0.00     0.125 A 
ATOM     23  C   LIG d   1       3.770  -1.433  -3.515  0.00  0.00    -0.020 A 
ATOM     24  C   LIG d   1       2.749  -0.516  -3.354  0.00  0.00    -0.058 A 
ATOM     25  H   LIG d   1       4.095  -2.031  -2.676  0.00  0.00     0.065 H 
ATOM     26  C   LIG d   1       2.331   0.250  -4.427  0.00  0.00    -0.061 A 
ATOM     27  H   LIG d   1       2.277  -0.397  -2.391  0.00  0.00     0.062 H 
ATOM     28  C   LIG d   1       2.933   0.100  -5.663  0.00  0.00    -0.053 A 
ATOM     29  H   LIG d   1       1.533   0.966  -4.300  0.00  0.00     0.062 H 
ATOM     30  H   LIG d   1       2.604   0.699  -6.499  0.00  0.00     0.062 H 
BRANCH  22  31
ATOM     31  O   LIG d   1       5.380  -2.486  -4.914  0.00  0.00    -0.495 OA
BRANCH  31  32
ATOM     32  C   LIG d   1       6.531  -2.329  -4.082  0.00  0.00     0.079 C 
ATOM     33  H   LIG d   1       7.428  -2.309  -4.701  0.00  0.00     0.066 H 
ATOM     34  H   LIG d   1       6.453  -1.395  -3.526  0.00  0.00     0.066 H 
ATOM     35  H   LIG d   1       6.590  -3.163  -3.382  0.00  0.00     0.066 H 
ENDBRANCH  31  32
ENDBRANCH  22  31
ENDBRANCH   1  21
BRANCH  14  36
ATOM     36  C   LIG d   1       7.687   1.789  -7.748  0.00  0.00     0.049 A 
ATOM     37  C   LIG d   1       8.436   2.107  -6.604  0.00  0.00     0.080 A 
ATOM     38  C   LIG d   1       9.456   3.059  -6.690  0.00  0.00    -0.046 A 
ATOM     39  C   LIG d   1       9.710   3.686  -7.890  0.00  0.00    -0.061 A 
ATOM     40  H   LIG d   1      10.040   3.306  -5.816  0.00  0.00     0.063 H 
ATOM     41  C   LIG d   1       8.965   3.374  -9.016  0.00  0.00    -0.060 A 
ATOM     42  H   LIG d   1      10.495   4.425  -7.953  0.00  0.00     0.062 H 
ATOM     43  C   LIG d   1       7.958   2.432  -8.948  0.00  0.00    -0.040 A 
ATOM     44  H   LIG d   1       9.172   3.871  -9.952  0.00  0.00     0.062 H 
ATOM     45  H   LIG d   1       7.382   2.194  -9.830  0.00  0.00     0.064 H 
BRANCH  37  46
ATOM     46  C   LIG d   1       8.154   1.437  -5.323  0.00  0.00     0.341 C 
ATOM     47  O   LIG d   1       7.049   1.521  -4.823  0.00  0.00    -0.245 OA
BRANCH  46  48
ATOM     48  O   LIG d   1       9.121   0.731  -4.705  0.00  0.00    -0.464 OA
BRANCH  48  49
ATOM     49  C   LIG d   1       9.542  -0.482  -5.333  0.00  0.00     0.082 C 
ATOM     50  H   LIG d   1      10.470  -0.824  -4.875  0.00  0.00     0.066 H 
ATOM     51  H   LIG d   1       8.772  -1.243  -5.206  0.00  0.00     0.066 H 
ATOM     52  H   LIG d   1       9.706  -0.303  -6.395  0.00  0.00     0.066 H 
ENDBRANCH  48  49
ENDBRANCH  46  48
ENDBRANCH  37  46
ENDBRANCH  14  36
TORSDOF 7
ENDMDL
