MODEL 1
REMARK VINA RESULT:      -7.0      0.000      0.000
REMARK  5 active torsions:
REMARK  status: ('A' for Active; 'I' for Inactive)
REMARK    1  A    between atoms: C_3  and  C_21 
REMARK    2  A    between atoms: C_6  and  C_7 
REMARK    3  A    between atoms: C_12  and  N_17 
REMARK    4  A    between atoms: C_22  and  O_34 
REMARK    5  A    between atoms: C_26  and  N_31 
ROOT
ATOM      1  C   LIG d   1       9.279   7.185  -2.249  0.00  0.00    -0.052 A 
ATOM      2  C   LIG d   1       9.523   7.305  -0.923  0.00  0.00    -0.052 A 
ATOM      3  C   LIG d   1      10.853   7.452  -0.458  0.00  0.00     0.002 A 
ATOM      4  C   LIG d   1      11.927   7.475  -1.381  0.00  0.00    -0.052 A 
ATOM      5  C   LIG d   1      11.683   7.356  -2.708  0.00  0.00    -0.052 A 
ATOM      6  C   LIG d   1      10.353   7.209  -3.172  0.00  0.00    -0.002 A 
ATOM      7  H   LIG d   1       8.265   7.069  -2.604  0.00  0.00     0.062 H 
ATOM      8  H   LIG d   1       8.704   7.287  -0.219  0.00  0.00     0.062 H 
ATOM      9  H   LIG d   1      12.941   7.588  -1.027  0.00  0.00     0.062 H 
ATOM     10  H   LIG d   1      12.502   7.374  -3.410  0.00  0.00     0.062 H 
ENDROOT
BRANCH   3  11
ATOM     11  C   LIG d   1      11.107   7.576   0.919  0.00  0.00     0.089 A 
ATOM     12  N   LIG d   1      11.551   8.709   1.558  0.00  0.00    -0.351 N 
ATOM     13  C   LIG d   1      11.679   8.447   2.911  0.00  0.00     0.057 A 
ATOM     14  H   LIG d   1      11.742   9.558   1.129  0.00  0.00     0.166 HD
ATOM     15  C   LIG d   1      11.315   7.103   3.136  0.00  0.00     0.042 A 
ATOM     16  C   LIG d   1      12.081   9.231   3.984  0.00  0.00     0.040 A 
ATOM     17  C   LIG d   1      10.953   6.551   1.886  0.00  0.00     0.150 A 
ATOM     18  C   LIG d   1      11.363   6.576   4.438  0.00  0.00    -0.043 A 
ATOM     19  C   LIG d   1      11.761   7.368   5.476  0.00  0.00     0.016 A 
ATOM     20  H   LIG d   1      11.084   5.548   4.617  0.00  0.00     0.063 H 
ATOM     21  C   LIG d   1      12.121   8.691   5.256  0.00  0.00     0.275 A 
ATOM     22  H   LIG d   1      11.798   6.962   6.476  0.00  0.00     0.069 H 
ATOM     23  H   LIG d   1      12.362  10.261   3.825  0.00  0.00     0.071 H 
BRANCH  17  24
ATOM     24  O   LIG d   1      10.542   5.288   1.657  0.00  0.00    -0.504 OA
ATOM     25  H   LIG d   1      11.188   4.612   1.904  0.00  0.00     0.292 HD
ENDBRANCH  17  24
BRANCH  21  26
ATOM     26  N   LIG d   1      12.549   9.533   6.395  0.00  0.00     0.080 N 
ATOM     27  O   LIG d   1      11.672  10.295   7.017  0.00  0.00     0.041 OA
ATOM     28  O   LIG d   1      13.806   9.520   6.788  0.00  0.00    -0.576 OA
ENDBRANCH  21  26
ENDBRANCH   3  11
BRANCH   6  29
ATOM     29  C   LIG d   1      10.100   7.085  -4.550  0.00  0.00     0.040 A 
ATOM     30  N   LIG d   1      10.199   5.929  -5.286  0.00  0.00    -0.354 N 
ATOM     31  C   LIG d   1       9.870   6.199  -6.603  0.00  0.00     0.053 A 
ATOM     32  H   LIG d   1      10.456   5.062  -4.938  0.00  0.00     0.166 HD
ATOM     33  C   LIG d   1       9.562   7.572  -6.708  0.00  0.00    -0.007 A 
ATOM     34  C   LIG d   1       9.807   5.401  -7.736  0.00  0.00     0.039 A 
ATOM     35  C   LIG d   1       9.705   8.134  -5.418  0.00  0.00    -0.074 A 
ATOM     36  C   LIG d   1       9.196   8.112  -7.952  0.00  0.00    -0.047 A 
ATOM     37  O   LIG d   1       9.502   9.423  -5.078  0.00  0.00    -0.872 OA
ATOM     38  C   LIG d   1       9.143   7.305  -9.052  0.00  0.00     0.016 A 
ATOM     39  H   LIG d   1       8.958   9.161  -8.038  0.00  0.00     0.063 H 
ATOM     40  C   LIG d   1       9.445   5.955  -8.951  0.00  0.00     0.275 A 
ATOM     41  H   LIG d   1       8.862   7.721 -10.009  0.00  0.00     0.069 H 
ATOM     42  H   LIG d   1      10.041   4.349  -7.670  0.00  0.00     0.071 H 
BRANCH  40  43
ATOM     43  N   LIG d   1       9.381   5.097 -10.155  0.00  0.00     0.080 N 
ATOM     44  O   LIG d   1       9.854   3.869 -10.115  0.00  0.00     0.041 OA
ATOM     45  O   LIG d   1       8.852   5.562 -11.269  0.00  0.00    -0.576 OA
ENDBRANCH  40  43
ENDBRANCH   6  29
TORSDOF 5
ENDMDL
MODEL 2
REMARK VINA RESULT:      -6.7      3.141     12.700
REMARK  5 active torsions:
REMARK  status: ('A' for Active; 'I' for Inactive)
REMARK    1  A    between atoms: C_3  and  C_21 
REMARK    2  A    between atoms: C_6  and  C_7 
REMARK    3  A    between atoms: C_12  and  N_17 
REMARK    4  A    between atoms: C_22  and  O_34 
REMARK    5  A    between atoms: C_26  and  N_31 
ROOT
ATOM      1  C   LIG d   1       9.071   8.477  -6.648  0.00  0.00    -0.052 A 
ATOM      2  C   LIG d   1       8.943   8.373  -7.992  0.00  0.00    -0.052 A 
ATOM      3  C   LIG d   1       9.871   7.600  -8.732  0.00  0.00     0.002 A 
ATOM      4  C   LIG d   1      10.931   6.937  -8.068  0.00  0.00    -0.052 A 
ATOM      5  C   LIG d   1      11.057   7.040  -6.724  0.00  0.00    -0.052 A 
ATOM      6  C   LIG d   1      10.130   7.813  -5.983  0.00  0.00    -0.002 A 
ATOM      7  H   LIG d   1       8.366   9.070  -6.082  0.00  0.00     0.062 H 
ATOM      8  H   LIG d   1       8.135   8.880  -8.498  0.00  0.00     0.062 H 
ATOM      9  H   LIG d   1      11.637   6.347  -8.632  0.00  0.00     0.062 H 
ATOM     10  H   LIG d   1      11.865   6.534  -6.218  0.00  0.00     0.062 H 
ENDROOT
BRANCH   3  11
ATOM     11  C   LIG d   1       9.739   7.493 -10.128  0.00  0.00     0.089 A 
ATOM     12  N   LIG d   1      10.009   8.483 -11.042  0.00  0.00    -0.351 N 
ATOM     13  C   LIG d   1       9.764   8.004 -12.317  0.00  0.00     0.057 A 
ATOM     14  H   LIG d   1      10.323   9.376 -10.827  0.00  0.00     0.166 HD
ATOM     15  C   LIG d   1       9.315   6.672 -12.209  0.00  0.00     0.042 A 
ATOM     16  C   LIG d   1       9.877   8.583 -13.574  0.00  0.00     0.040 A 
ATOM     17  C   LIG d   1       9.298   6.345 -10.833  0.00  0.00     0.150 A 
ATOM     18  C   LIG d   1       8.989   5.950 -13.369  0.00  0.00    -0.043 A 
ATOM     19  C   LIG d   1       9.109   6.542 -14.593  0.00  0.00     0.016 A 
ATOM     20  H   LIG d   1       8.645   4.928 -13.293  0.00  0.00     0.063 H 
ATOM     21  C   LIG d   1       9.550   7.854 -14.701  0.00  0.00     0.275 A 
ATOM     22  H   LIG d   1       8.857   5.986 -15.484  0.00  0.00     0.069 H 
ATOM     23  H   LIG d   1      10.220   9.603 -13.670  0.00  0.00     0.071 H 
BRANCH  17  24
ATOM     24  O   LIG d   1       8.930   5.165 -10.295  0.00  0.00    -0.504 OA
ATOM     25  H   LIG d   1       9.615   4.482 -10.338  0.00  0.00     0.292 HD
ENDBRANCH  17  24
BRANCH  21  26
ATOM     26  N   LIG d   1       9.673   8.477 -16.037  0.00  0.00     0.080 N 
ATOM     27  O   LIG d   1      10.308   9.624 -16.174  0.00  0.00     0.041 OA
ATOM     28  O   LIG d   1       9.149   7.887 -17.091  0.00  0.00    -0.576 OA
ENDBRANCH  21  26
ENDBRANCH   3  11
BRANCH   6  29
ATOM     29  C   LIG d   1      10.262   7.921  -4.587  0.00  0.00     0.040 A 
ATOM     30  N   LIG d   1      10.477   6.880  -3.716  0.00  0.00    -0.354 N 
ATOM     31  C   LIG d   1      10.555   7.375  -2.426  0.00  0.00     0.053 A 
ATOM     32  H   LIG d   1      10.562   5.947  -3.966  0.00  0.00     0.166 HD
ATOM     33  C   LIG d   1      10.374   8.774  -2.479  0.00  0.00    -0.007 A 
ATOM     34  C   LIG d   1      10.760   6.763  -1.197  0.00  0.00     0.039 A 
ATOM     35  C   LIG d   1      10.190   9.122  -3.837  0.00  0.00    -0.074 A 
ATOM     36  C   LIG d   1      10.404   9.526  -1.293  0.00  0.00    -0.047 A 
ATOM     37  O   LIG d   1       9.985  10.362  -4.326  0.00  0.00    -0.872 OA
ATOM     38  C   LIG d   1      10.607   8.900  -0.097  0.00  0.00     0.016 A 
ATOM     39  H   LIG d   1      10.267  10.597  -1.327  0.00  0.00     0.063 H 
ATOM     40  C   LIG d   1      10.785   7.525  -0.043  0.00  0.00     0.275 A 
ATOM     41  H   LIG d   1      10.629   9.479   0.814  0.00  0.00     0.069 H 
ATOM     42  H   LIG d   1      10.899   5.694  -1.143  0.00  0.00     0.071 H 
BRANCH  40  43
ATOM     43  N   LIG d   1      11.004   6.865   1.264  0.00  0.00     0.080 N 
ATOM     44  O   LIG d   1      10.665   5.603   1.428  0.00  0.00     0.041 OA
ATOM     45  O   LIG d   1      11.535   7.539   2.262  0.00  0.00    -0.576 OA
ENDBRANCH  40  43
ENDBRANCH   6  29
TORSDOF 5
ENDMDL
MODEL 3
REMARK VINA RESULT:      -6.6      3.115      6.078
REMARK  5 active torsions:
REMARK  status: ('A' for Active; 'I' for Inactive)
REMARK    1  A    between atoms: C_3  and  C_21 
REMARK    2  A    between atoms: C_6  and  C_7 
REMARK    3  A    between atoms: C_12  and  N_17 
REMARK    4  A    between atoms: C_22  and  O_34 
REMARK    5  A    between atoms: C_26  and  N_31 
ROOT
ATOM      1  C   LIG d   1       9.013   8.416  -7.946  0.00  0.00    -0.052 A 
ATOM      2  C   LIG d   1       9.137   8.520  -6.602  0.00  0.00    -0.052 A 
ATOM      3  C   LIG d   1      10.151   7.797  -5.927  0.00  0.00     0.002 A 
ATOM      4  C   LIG d   1      11.034   6.965  -6.658  0.00  0.00    -0.052 A 
ATOM      5  C   LIG d   1      10.911   6.862  -8.002  0.00  0.00    -0.052 A 
ATOM      6  C   LIG d   1       9.897   7.586  -8.677  0.00  0.00    -0.002 A 
ATOM      7  H   LIG d   1       8.238   8.965  -8.461  0.00  0.00     0.062 H 
ATOM      8  H   LIG d   1       8.463   9.154  -6.044  0.00  0.00     0.062 H 
ATOM      9  H   LIG d   1      11.807   6.415  -6.143  0.00  0.00     0.062 H 
ATOM     10  H   LIG d   1      11.584   6.229  -8.559  0.00  0.00     0.062 H 
ENDROOT
BRANCH   3  11
ATOM     11  C   LIG d   1      10.280   7.905  -4.531  0.00  0.00     0.089 A 
ATOM     12  N   LIG d   1      10.482   6.862  -3.658  0.00  0.00    -0.351 N 
ATOM     13  C   LIG d   1      10.562   7.359  -2.368  0.00  0.00     0.057 A 
ATOM     14  H   LIG d   1      10.559   5.928  -3.906  0.00  0.00     0.166 HD
ATOM     15  C   LIG d   1      10.395   8.758  -2.424  0.00  0.00     0.042 A 
ATOM     16  C   LIG d   1      10.756   6.746  -1.138  0.00  0.00     0.040 A 
ATOM     17  C   LIG d   1      10.218   9.107  -3.783  0.00  0.00     0.150 A 
ATOM     18  C   LIG d   1      10.428   9.512  -1.239  0.00  0.00    -0.043 A 
ATOM     19  C   LIG d   1      10.622   8.885  -0.041  0.00  0.00     0.016 A 
ATOM     20  H   LIG d   1      10.302  10.584  -1.274  0.00  0.00     0.063 H 
ATOM     21  C   LIG d   1      10.785   7.508   0.015  0.00  0.00     0.275 A 
ATOM     22  H   LIG d   1      10.647   9.465   0.870  0.00  0.00     0.069 H 
ATOM     23  H   LIG d   1      10.885   5.675  -1.082  0.00  0.00     0.071 H 
BRANCH  17  24
ATOM     24  O   LIG d   1      10.026  10.348  -4.273  0.00  0.00    -0.504 OA
ATOM     25  H   LIG d   1      10.366  11.053  -3.705  0.00  0.00     0.292 HD
ENDBRANCH  17  24
BRANCH  21  26
ATOM     26  N   LIG d   1      10.994   6.848   1.323  0.00  0.00     0.080 N 
ATOM     27  O   LIG d   1      11.417   7.549   2.355  0.00  0.00     0.041 OA
ATOM     28  O   LIG d   1      10.758   5.559   1.456  0.00  0.00    -0.576 OA
ENDBRANCH  21  26
ENDBRANCH   3  11
BRANCH   6  29
ATOM     29  C   LIG d   1       9.768   7.478 -10.073  0.00  0.00     0.040 A 
ATOM     30  N   LIG d   1      10.043   8.468 -10.985  0.00  0.00    -0.354 N 
ATOM     31  C   LIG d   1       9.800   7.990 -12.262  0.00  0.00     0.053 A 
ATOM     32  H   LIG d   1      10.360   9.358 -10.770  0.00  0.00     0.166 HD
ATOM     33  C   LIG d   1       9.347   6.658 -12.155  0.00  0.00    -0.007 A 
ATOM     34  C   LIG d   1       9.918   8.569 -13.518  0.00  0.00     0.039 A 
ATOM     35  C   LIG d   1       9.325   6.331 -10.779  0.00  0.00    -0.074 A 
ATOM     36  C   LIG d   1       9.021   5.937 -13.316  0.00  0.00    -0.047 A 
ATOM     37  O   LIG d   1       8.954   5.151 -10.241  0.00  0.00    -0.872 OA
ATOM     38  C   LIG d   1       9.146   6.529 -14.540  0.00  0.00     0.016 A 
ATOM     39  H   LIG d   1       8.675   4.917 -13.240  0.00  0.00     0.063 H 
ATOM     40  C   LIG d   1       9.591   7.839 -14.647  0.00  0.00     0.275 A 
ATOM     41  H   LIG d   1       8.895   5.974 -15.432  0.00  0.00     0.069 H 
ATOM     42  H   LIG d   1      10.263   9.587 -13.613  0.00  0.00     0.071 H 
BRANCH  40  43
ATOM     43  N   LIG d   1       9.719   8.463 -15.983  0.00  0.00     0.080 N 
ATOM     44  O   LIG d   1       9.012   8.003 -16.994  0.00  0.00     0.041 OA
ATOM     45  O   LIG d   1      10.542   9.476 -16.161  0.00  0.00    -0.576 OA
ENDBRANCH  40  43
ENDBRANCH   6  29
TORSDOF 5
ENDMDL
MODEL 4
REMARK VINA RESULT:      -6.6      3.416     12.893
REMARK  5 active torsions:
REMARK  status: ('A' for Active; 'I' for Inactive)
REMARK    1  A    between atoms: C_3  and  C_21 
REMARK    2  A    between atoms: C_6  and  C_7 
REMARK    3  A    between atoms: C_12  and  N_17 
REMARK    4  A    between atoms: C_22  and  O_34 
REMARK    5  A    between atoms: C_26  and  N_31 
ROOT
ATOM      1  C   LIG d   1      10.833   6.588  -6.894  0.00  0.00    -0.052 A 
ATOM      2  C   LIG d   1      10.712   6.552  -8.242  0.00  0.00    -0.052 A 
ATOM      3  C   LIG d   1       9.805   7.423  -8.895  0.00  0.00     0.002 A 
ATOM      4  C   LIG d   1       9.026   8.331  -8.137  0.00  0.00    -0.052 A 
ATOM      5  C   LIG d   1       9.147   8.368  -6.789  0.00  0.00    -0.052 A 
ATOM      6  C   LIG d   1      10.054   7.496  -6.137  0.00  0.00    -0.002 A 
ATOM      7  H   LIG d   1      11.521   5.921  -6.395  0.00  0.00     0.062 H 
ATOM      8  H   LIG d   1      11.306   5.858  -8.819  0.00  0.00     0.062 H 
ATOM      9  H   LIG d   1       8.336   8.995  -8.635  0.00  0.00     0.062 H 
ATOM     10  H   LIG d   1       8.554   9.060  -6.213  0.00  0.00     0.062 H 
ENDROOT
BRANCH   3  11
ATOM     11  C   LIG d   1       9.679   7.385 -10.295  0.00  0.00     0.089 A 
ATOM     12  N   LIG d   1       9.954   8.420 -11.156  0.00  0.00    -0.351 N 
ATOM     13  C   LIG d   1       9.715   8.005 -12.455  0.00  0.00     0.057 A 
ATOM     14  H   LIG d   1      10.268   9.300 -10.896  0.00  0.00     0.166 HD
ATOM     15  C   LIG d   1       9.264   6.669 -12.415  0.00  0.00     0.042 A 
ATOM     16  C   LIG d   1       9.833   8.646 -13.681  0.00  0.00     0.040 A 
ATOM     17  C   LIG d   1       9.241   6.274 -11.058  0.00  0.00     0.150 A 
ATOM     18  C   LIG d   1       8.943   6.006 -13.611  0.00  0.00    -0.043 A 
ATOM     19  C   LIG d   1       9.068   6.659 -14.804  0.00  0.00     0.016 A 
ATOM     20  H   LIG d   1       8.599   4.982 -13.588  0.00  0.00     0.063 H 
ATOM     21  C   LIG d   1       9.511   7.974 -14.844  0.00  0.00     0.275 A 
ATOM     22  H   LIG d   1       8.821   6.148 -15.723  0.00  0.00     0.069 H 
ATOM     23  H   LIG d   1      10.177   9.669 -13.725  0.00  0.00     0.071 H 
BRANCH  17  24
ATOM     24  O   LIG d   1       8.871   5.069 -10.581  0.00  0.00    -0.504 OA
ATOM     25  H   LIG d   1       7.942   4.850 -10.742  0.00  0.00     0.292 HD
ENDBRANCH  17  24
BRANCH  21  26
ATOM     26  N   LIG d   1       9.641   8.663 -16.148  0.00  0.00     0.080 N 
ATOM     27  O   LIG d   1       9.102   8.136 -17.228  0.00  0.00     0.041 OA
ATOM     28  O   LIG d   1      10.294   9.804 -16.228  0.00  0.00    -0.576 OA
ENDBRANCH  21  26
ENDBRANCH   3  11
BRANCH   6  29
ATOM     29  C   LIG d   1      10.180   7.534  -4.737  0.00  0.00     0.040 A 
ATOM     30  N   LIG d   1      10.637   8.599  -3.998  0.00  0.00    -0.354 N 
ATOM     31  C   LIG d   1      10.615   8.264  -2.655  0.00  0.00     0.053 A 
ATOM     32  H   LIG d   1      10.926   9.451  -4.360  0.00  0.00     0.166 HD
ATOM     33  C   LIG d   1      10.139   6.940  -2.539  0.00  0.00    -0.007 A 
ATOM     34  C   LIG d   1      10.964   8.963  -1.508  0.00  0.00     0.039 A 
ATOM     35  C   LIG d   1       9.863   6.478  -3.846  0.00  0.00    -0.074 A 
ATOM     36  C   LIG d   1      10.023   6.350  -1.270  0.00  0.00    -0.047 A 
ATOM     37  O   LIG d   1       9.388   5.261  -4.183  0.00  0.00    -0.872 OA
ATOM     38  C   LIG d   1      10.373   7.060  -0.157  0.00  0.00     0.016 A 
ATOM     39  H   LIG d   1       9.659   5.338  -1.174  0.00  0.00     0.063 H 
ATOM     40  C   LIG d   1      10.842   8.361  -0.269  0.00  0.00     0.275 A 
ATOM     41  H   LIG d   1      10.284   6.605   0.819  0.00  0.00     0.069 H 
ATOM     42  H   LIG d   1      11.330   9.976  -1.584  0.00  0.00     0.071 H 
BRANCH  40  43
ATOM     43  N   LIG d   1      11.215   9.113   0.949  0.00  0.00     0.080 N 
ATOM     44  O   LIG d   1      10.959  10.402   1.031  0.00  0.00     0.041 OA
ATOM     45  O   LIG d   1      11.806   8.495   1.951  0.00  0.00    -0.576 OA
ENDBRANCH  40  43
ENDBRANCH   6  29
TORSDOF 5
ENDMDL
MODEL 5
REMARK VINA RESULT:      -6.5      3.390      6.081
REMARK  5 active torsions:
REMARK  status: ('A' for Active; 'I' for Inactive)
REMARK    1  A    between atoms: C_3  and  C_21 
REMARK    2  A    between atoms: C_6  and  C_7 
REMARK    3  A    between atoms: C_12  and  N_17 
REMARK    4  A    between atoms: C_22  and  O_34 
REMARK    5  A    between atoms: C_26  and  N_31 
ROOT
ATOM      1  C   LIG d   1      10.873   6.538  -8.231  0.00  0.00    -0.052 A 
ATOM      2  C   LIG d   1      10.999   6.492  -6.884  0.00  0.00    -0.052 A 
ATOM      3  C   LIG d   1      10.153   7.281  -6.066  0.00  0.00     0.002 A 
ATOM      4  C   LIG d   1       9.177   8.119  -6.658  0.00  0.00    -0.052 A 
ATOM      5  C   LIG d   1       9.051   8.165  -8.006  0.00  0.00    -0.052 A 
ATOM      6  C   LIG d   1       9.896   7.375  -8.823  0.00  0.00    -0.002 A 
ATOM      7  H   LIG d   1      11.520   5.938  -8.855  0.00  0.00     0.062 H 
ATOM      8  H   LIG d   1      11.744   5.853  -6.432  0.00  0.00     0.062 H 
ATOM      9  H   LIG d   1       8.532   8.720  -6.035  0.00  0.00     0.062 H 
ATOM     10  H   LIG d   1       8.306   8.803  -8.456  0.00  0.00     0.062 H 
ENDROOT
BRANCH   3  11
ATOM     11  C   LIG d   1      10.284   7.234  -4.667  0.00  0.00     0.089 A 
ATOM     12  N   LIG d   1      10.619   8.289  -3.853  0.00  0.00    -0.351 N 
ATOM     13  C   LIG d   1      10.646   7.858  -2.538  0.00  0.00     0.057 A 
ATOM     14  H   LIG d   1      10.804   9.193  -4.152  0.00  0.00     0.166 HD
ATOM     15  C   LIG d   1      10.329   6.484  -2.518  0.00  0.00     0.042 A 
ATOM     16  C   LIG d   1      10.918   8.509  -1.343  0.00  0.00     0.040 A 
ATOM     17  C   LIG d   1      10.100   6.086  -3.856  0.00  0.00     0.150 A 
ATOM     18  C   LIG d   1      10.293   5.794  -1.295  0.00  0.00    -0.043 A 
ATOM     19  C   LIG d   1      10.565   6.458  -0.133  0.00  0.00     0.016 A 
ATOM     20  H   LIG d   1      10.050   4.742  -1.273  0.00  0.00     0.063 H 
ATOM     21  C   LIG d   1      10.878   7.810  -0.151  0.00  0.00     0.275 A 
ATOM     22  H   LIG d   1      10.537   5.927   0.807  0.00  0.00     0.069 H 
ATOM     23  H   LIG d   1      11.162   9.562  -1.345  0.00  0.00     0.071 H 
BRANCH  17  24
ATOM     24  O   LIG d   1       9.770   4.850  -4.279  0.00  0.00    -0.504 OA
ATOM     25  H   LIG d   1       9.949   4.152  -3.633  0.00  0.00     0.292 HD
ENDBRANCH  17  24
BRANCH  21  26
ATOM     26  N   LIG d   1      11.168   8.512   1.119  0.00  0.00     0.080 N 
ATOM     27  O   LIG d   1      11.177   9.829   1.157  0.00  0.00     0.041 OA
ATOM     28  O   LIG d   1      11.418   7.820   2.212  0.00  0.00    -0.576 OA
ENDBRANCH  21  26
ENDBRANCH   3  11
BRANCH   6  29
ATOM     29  C   LIG d   1       9.765   7.423 -10.222  0.00  0.00     0.040 A 
ATOM     30  N   LIG d   1       9.982   8.525 -11.014  0.00  0.00    -0.354 N 
ATOM     31  C   LIG d   1       9.757   8.185 -12.337  0.00  0.00     0.053 A 
ATOM     32  H   LIG d   1      10.251   9.400 -10.696  0.00  0.00     0.166 HD
ATOM     33  C   LIG d   1       9.377   6.827 -12.385  0.00  0.00    -0.007 A 
ATOM     34  C   LIG d   1       9.836   8.911 -13.517  0.00  0.00     0.039 A 
ATOM     35  C   LIG d   1       9.381   6.343 -11.057  0.00  0.00    -0.074 A 
ATOM     36  C   LIG d   1       9.084   6.229 -13.622  0.00  0.00    -0.047 A 
ATOM     37  O   LIG d   1       9.077   5.091 -10.659  0.00  0.00    -0.872 OA
ATOM     38  C   LIG d   1       9.169   6.965 -14.769  0.00  0.00     0.016 A 
ATOM     39  H   LIG d   1       8.793   5.190 -13.665  0.00  0.00     0.063 H 
ATOM     40  C   LIG d   1       9.543   8.300 -14.723  0.00  0.00     0.275 A 
ATOM     41  H   LIG d   1       8.943   6.504 -15.719  0.00  0.00     0.069 H 
ATOM     42  H   LIG d   1      10.125   9.951 -13.494  0.00  0.00     0.071 H 
BRANCH  40  43
ATOM     43  N   LIG d   1       9.629   9.080 -15.978  0.00  0.00     0.080 N 
ATOM     44  O   LIG d   1      10.166  10.283 -15.969  0.00  0.00     0.041 OA
ATOM     45  O   LIG d   1       9.168   8.573 -17.103  0.00  0.00    -0.576 OA
ENDBRANCH  40  43
ENDBRANCH   6  29
TORSDOF 5
ENDMDL
MODEL 6
REMARK VINA RESULT:      -6.5      3.165      6.091
REMARK  5 active torsions:
REMARK  status: ('A' for Active; 'I' for Inactive)
REMARK    1  A    between atoms: C_3  and  C_21 
REMARK    2  A    between atoms: C_6  and  C_7 
REMARK    3  A    between atoms: C_12  and  N_17 
REMARK    4  A    between atoms: C_22  and  O_34 
REMARK    5  A    between atoms: C_26  and  N_31 
ROOT
ATOM      1  C   LIG d   1      10.723   6.689  -8.192  0.00  0.00    -0.052 A 
ATOM      2  C   LIG d   1      10.818   6.808  -6.847  0.00  0.00    -0.052 A 
ATOM      3  C   LIG d   1       9.996   7.735  -6.159  0.00  0.00     0.002 A 
ATOM      4  C   LIG d   1       9.077   8.537  -6.878  0.00  0.00    -0.052 A 
ATOM      5  C   LIG d   1       8.981   8.417  -8.223  0.00  0.00    -0.052 A 
ATOM      6  C   LIG d   1       9.803   7.490  -8.911  0.00  0.00    -0.002 A 
ATOM      7  H   LIG d   1      11.352   5.985  -8.718  0.00  0.00     0.062 H 
ATOM      8  H   LIG d   1      11.519   6.197  -6.299  0.00  0.00     0.062 H 
ATOM      9  H   LIG d   1       8.450   9.242  -6.354  0.00  0.00     0.062 H 
ATOM     10  H   LIG d   1       8.280   9.027  -8.771  0.00  0.00     0.062 H 
ENDROOT
BRANCH   3  11
ATOM     11  C   LIG d   1      10.095   7.859  -4.762  0.00  0.00     0.089 A 
ATOM     12  N   LIG d   1      10.496   6.873  -3.892  0.00  0.00    -0.351 N 
ATOM     13  C   LIG d   1      10.469   7.369  -2.600  0.00  0.00     0.057 A 
ATOM     14  H   LIG d   1      10.757   5.973  -4.144  0.00  0.00     0.166 HD
ATOM     15  C   LIG d   1      10.028   8.707  -2.651  0.00  0.00     0.042 A 
ATOM     16  C   LIG d   1      10.776   6.801  -1.371  0.00  0.00     0.040 A 
ATOM     17  C   LIG d   1       9.792   9.020  -4.009  0.00  0.00     0.150 A 
ATOM     18  C   LIG d   1       9.906   9.446  -1.462  0.00  0.00    -0.043 A 
ATOM     19  C   LIG d   1      10.215   8.864  -0.266  0.00  0.00     0.016 A 
ATOM     20  H   LIG d   1       9.570  10.473  -1.494  0.00  0.00     0.063 H 
ATOM     21  C   LIG d   1      10.648   7.546  -0.215  0.00  0.00     0.275 A 
ATOM     22  H   LIG d   1      10.120   9.433   0.647  0.00  0.00     0.069 H 
ATOM     23  H   LIG d   1      11.115   5.776  -1.319  0.00  0.00     0.071 H 
BRANCH  17  24
ATOM     24  O   LIG d   1       9.359  10.201  -4.495  0.00  0.00    -0.504 OA
ATOM     25  H   LIG d   1       8.933  10.766  -3.836  0.00  0.00     0.292 HD
ENDBRANCH  17  24
BRANCH  21  26
ATOM     26  N   LIG d   1      10.978   6.934   1.091  0.00  0.00     0.080 N 
ATOM     27  O   LIG d   1      11.565   7.654   2.026  0.00  0.00     0.041 OA
ATOM     28  O   LIG d   1      10.686   5.671   1.320  0.00  0.00    -0.576 OA
ENDBRANCH  21  26
ENDBRANCH   3  11
BRANCH   6  29
ATOM     29  C   LIG d   1       9.704   7.366 -10.309  0.00  0.00     0.040 A 
ATOM     30  N   LIG d   1       9.063   6.355 -10.984  0.00  0.00    -0.354 N 
ATOM     31  C   LIG d   1       9.176   6.576 -12.346  0.00  0.00     0.053 A 
ATOM     32  H   LIG d   1       8.603   5.608 -10.572  0.00  0.00     0.166 HD
ATOM     33  C   LIG d   1       9.920   7.759 -12.541  0.00  0.00    -0.007 A 
ATOM     34  C   LIG d   1       8.716   5.873 -13.451  0.00  0.00     0.039 A 
ATOM     35  C   LIG d   1      10.255   8.260 -11.262  0.00  0.00    -0.074 A 
ATOM     36  C   LIG d   1      10.186   8.209 -13.845  0.00  0.00    -0.047 A 
ATOM     37  O   LIG d   1      10.963   9.377 -10.998  0.00  0.00    -0.872 OA
ATOM     38  C   LIG d   1       9.721   7.498 -14.915  0.00  0.00     0.016 A 
ATOM     39  H   LIG d   1      10.753   9.113 -14.001  0.00  0.00     0.063 H 
ATOM     40  C   LIG d   1       8.989   6.335 -14.725  0.00  0.00     0.275 A 
ATOM     41  H   LIG d   1       9.926   7.845 -15.918  0.00  0.00     0.069 H 
ATOM     42  H   LIG d   1       8.146   4.966 -13.315  0.00  0.00     0.071 H 
BRANCH  40  43
ATOM     43  N   LIG d   1       8.495   5.580 -15.898  0.00  0.00     0.080 N 
ATOM     44  O   LIG d   1       8.579   4.266 -15.919  0.00  0.00     0.041 OA
ATOM     45  O   LIG d   1       7.973   6.222 -16.923  0.00  0.00    -0.576 OA
ENDBRANCH  40  43
ENDBRANCH   6  29
TORSDOF 5
ENDMDL
MODEL 7
REMARK VINA RESULT:      -6.4      2.810      4.538
REMARK  5 active torsions:
REMARK  status: ('A' for Active; 'I' for Inactive)
REMARK    1  A    between atoms: C_3  and  C_21 
REMARK    2  A    between atoms: C_6  and  C_7 
REMARK    3  A    between atoms: C_12  and  N_17 
REMARK    4  A    between atoms: C_22  and  O_34 
REMARK    5  A    between atoms: C_26  and  N_31 
ROOT
ATOM      1  C   LIG d   1       9.297   8.043  -6.807  0.00  0.00    -0.052 A 
ATOM      2  C   LIG d   1       9.445   8.029  -5.461  0.00  0.00    -0.052 A 
ATOM      3  C   LIG d   1      10.538   7.344  -4.877  0.00  0.00     0.002 A 
ATOM      4  C   LIG d   1      11.475   6.672  -5.699  0.00  0.00    -0.052 A 
ATOM      5  C   LIG d   1      11.328   6.687  -7.045  0.00  0.00    -0.052 A 
ATOM      6  C   LIG d   1      10.234   7.372  -7.630  0.00  0.00    -0.002 A 
ATOM      7  H   LIG d   1       8.461   8.562  -7.253  0.00  0.00     0.062 H 
ATOM      8  H   LIG d   1       8.730   8.541  -4.834  0.00  0.00     0.062 H 
ATOM      9  H   LIG d   1      12.309   6.151  -5.253  0.00  0.00     0.062 H 
ATOM     10  H   LIG d   1      12.042   6.176  -7.671  0.00  0.00     0.062 H 
ENDROOT
BRANCH   3  11
ATOM     11  C   LIG d   1      10.692   7.330  -3.479  0.00  0.00     0.089 A 
ATOM     12  N   LIG d   1      11.053   8.401  -2.698  0.00  0.00    -0.351 N 
ATOM     13  C   LIG d   1      11.097   8.003  -1.372  0.00  0.00     0.057 A 
ATOM     14  H   LIG d   1      11.245   9.295  -3.023  0.00  0.00     0.166 HD
ATOM     15  C   LIG d   1      10.763   6.634  -1.313  0.00  0.00     0.042 A 
ATOM     16  C   LIG d   1      11.397   8.681  -0.199  0.00  0.00     0.040 A 
ATOM     17  C   LIG d   1      10.507   6.206  -2.636  0.00  0.00     0.150 A 
ATOM     18  C   LIG d   1      10.738   5.976  -0.072  0.00  0.00    -0.043 A 
ATOM     19  C   LIG d   1      11.038   6.666   1.068  0.00  0.00     0.016 A 
ATOM     20  H   LIG d   1      10.482   4.928  -0.019  0.00  0.00     0.063 H 
ATOM     21  C   LIG d   1      11.368   8.013   1.010  0.00  0.00     0.275 A 
ATOM     22  H   LIG d   1      11.019   6.159   2.022  0.00  0.00     0.069 H 
ATOM     23  H   LIG d   1      11.655   9.729  -0.232  0.00  0.00     0.071 H 
BRANCH  17  24
ATOM     24  O   LIG d   1      10.154   4.963  -3.021  0.00  0.00    -0.504 OA
ATOM     25  H   LIG d   1      10.356   4.766  -3.946  0.00  0.00     0.292 HD
ENDBRANCH  17  24
BRANCH  21  26
ATOM     26  N   LIG d   1      11.688   8.742   2.257  0.00  0.00     0.080 N 
ATOM     27  O   LIG d   1      11.948  10.034   2.217  0.00  0.00     0.041 OA
ATOM     28  O   LIG d   1      11.714   8.102   3.408  0.00  0.00    -0.576 OA
ENDBRANCH  21  26
ENDBRANCH   3  11
BRANCH   6  29
ATOM     29  C   LIG d   1      10.081   7.386  -9.028  0.00  0.00     0.040 A 
ATOM     30  N   LIG d   1       9.586   6.358  -9.793  0.00  0.00    -0.354 N 
ATOM     31  C   LIG d   1       9.583   6.742 -11.123  0.00  0.00     0.053 A 
ATOM     32  H   LIG d   1       9.284   5.501  -9.456  0.00  0.00     0.166 HD
ATOM     33  C   LIG d   1      10.102   8.052 -11.205  0.00  0.00    -0.007 A 
ATOM     34  C   LIG d   1       9.189   6.094 -12.286  0.00  0.00     0.039 A 
ATOM     35  C   LIG d   1      10.416   8.461  -9.888  0.00  0.00    -0.074 A 
ATOM     36  C   LIG d   1      10.214   8.682 -12.455  0.00  0.00    -0.047 A 
ATOM     37  O   LIG d   1      10.937   9.650  -9.521  0.00  0.00    -0.872 OA
ATOM     38  C   LIG d   1       9.819   8.022 -13.584  0.00  0.00     0.016 A 
ATOM     39  H   LIG d   1      10.609   9.684 -12.524  0.00  0.00     0.063 H 
ATOM     40  C   LIG d   1       9.308   6.734 -13.506  0.00  0.00     0.275 A 
ATOM     41  H   LIG d   1       9.905   8.507 -14.546  0.00  0.00     0.069 H 
ATOM     42  H   LIG d   1       8.791   5.092 -12.237  0.00  0.00     0.071 H 
BRANCH  40  43
ATOM     43  N   LIG d   1       8.886   6.037 -14.741  0.00  0.00     0.080 N 
ATOM     44  O   LIG d   1       8.468   4.789 -14.683  0.00  0.00     0.041 OA
ATOM     45  O   LIG d   1       8.929   6.663 -15.900  0.00  0.00    -0.576 OA
ENDBRANCH  40  43
ENDBRANCH   6  29
TORSDOF 5
ENDMDL
MODEL 8
REMARK VINA RESULT:      -6.4      3.088     12.783
REMARK  5 active torsions:
REMARK  status: ('A' for Active; 'I' for Inactive)
REMARK    1  A    between atoms: C_3  and  C_21 
REMARK    2  A    between atoms: C_6  and  C_7 
REMARK    3  A    between atoms: C_12  and  N_17 
REMARK    4  A    between atoms: C_22  and  O_34 
REMARK    5  A    between atoms: C_26  and  N_31 
ROOT
ATOM      1  C   LIG d   1       9.287   7.972  -6.287  0.00  0.00    -0.052 A 
ATOM      2  C   LIG d   1       9.155   7.971  -7.635  0.00  0.00    -0.052 A 
ATOM      3  C   LIG d   1      10.081   7.259  -8.436  0.00  0.00     0.002 A 
ATOM      4  C   LIG d   1      11.144   6.547  -7.828  0.00  0.00    -0.052 A 
ATOM      5  C   LIG d   1      11.275   6.546  -6.481  0.00  0.00    -0.052 A 
ATOM      6  C   LIG d   1      10.349   7.259  -5.679  0.00  0.00    -0.002 A 
ATOM      7  H   LIG d   1       8.584   8.518  -5.675  0.00  0.00     0.062 H 
ATOM      8  H   LIG d   1       8.345   8.515  -8.098  0.00  0.00     0.062 H 
ATOM      9  H   LIG d   1      11.848   6.003  -8.439  0.00  0.00     0.062 H 
ATOM     10  H   LIG d   1      12.084   6.004  -6.018  0.00  0.00     0.062 H 
ENDROOT
BRANCH   3  11
ATOM     11  C   LIG d   1       9.944   7.259  -9.836  0.00  0.00     0.089 A 
ATOM     12  N   LIG d   1       9.409   6.244 -10.592  0.00  0.00    -0.351 N 
ATOM     13  C   LIG d   1       9.439   6.609 -11.928  0.00  0.00     0.057 A 
ATOM     14  H   LIG d   1       9.063   5.406 -10.246  0.00  0.00     0.166 HD
ATOM     15  C   LIG d   1      10.022   7.890 -12.021  0.00  0.00     0.042 A 
ATOM     16  C   LIG d   1       9.028   5.963 -13.085  0.00  0.00     0.040 A 
ATOM     17  C   LIG d   1      10.340   8.303 -10.707  0.00  0.00     0.150 A 
ATOM     18  C   LIG d   1      10.177   8.495 -13.280  0.00  0.00    -0.043 A 
ATOM     19  C   LIG d   1       9.764   7.838 -14.403  0.00  0.00     0.016 A 
ATOM     20  H   LIG d   1      10.621   9.476 -13.358  0.00  0.00     0.063 H 
ATOM     21  C   LIG d   1       9.192   6.577 -14.313  0.00  0.00     0.275 A 
ATOM     22  H   LIG d   1       9.884   8.304 -15.371  0.00  0.00     0.069 H 
ATOM     23  H   LIG d   1       8.581   4.981 -13.027  0.00  0.00     0.071 H 
BRANCH  17  24
ATOM     24  O   LIG d   1      10.913   9.471 -10.352  0.00  0.00    -0.504 OA
ATOM     25  H   LIG d   1      10.544  10.244 -10.802  0.00  0.00     0.292 HD
ENDBRANCH  17  24
BRANCH  21  26
ATOM     26  N   LIG d   1       8.750   5.883 -15.543  0.00  0.00     0.080 N 
ATOM     27  O   LIG d   1       9.506   5.909 -16.622  0.00  0.00     0.041 OA
ATOM     28  O   LIG d   1       7.602   5.238 -15.560  0.00  0.00    -0.576 OA
ENDBRANCH  21  26
ENDBRANCH   3  11
BRANCH   6  29
ATOM     29  C   LIG d   1      10.486   7.259  -4.279  0.00  0.00     0.040 A 
ATOM     30  N   LIG d   1      10.869   8.330  -3.508  0.00  0.00    -0.354 N 
ATOM     31  C   LIG d   1      10.886   7.949  -2.177  0.00  0.00     0.053 A 
ATOM     32  H   LIG d   1      11.088   9.213  -3.842  0.00  0.00     0.166 HD
ATOM     33  C   LIG d   1      10.513   6.589  -2.103  0.00  0.00    -0.007 A 
ATOM     34  C   LIG d   1      11.192   8.633  -1.010  0.00  0.00     0.039 A 
ATOM     35  C   LIG d   1      10.260   6.152  -3.424  0.00  0.00    -0.074 A 
ATOM     36  C   LIG d   1      10.455   5.949  -0.855  0.00  0.00    -0.047 A 
ATOM     37  O   LIG d   1       9.875   4.914  -3.799  0.00  0.00    -0.872 OA
ATOM     38  C   LIG d   1      10.762   6.646   0.279  0.00  0.00     0.016 A 
ATOM     39  H   LIG d   1      10.170   4.910  -0.791  0.00  0.00     0.063 H 
ATOM     40  C   LIG d   1      11.129   7.982   0.209  0.00  0.00     0.275 A 
ATOM     41  H   LIG d   1      10.717   6.152   1.239  0.00  0.00     0.069 H 
ATOM     42  H   LIG d   1      11.479   9.673  -1.053  0.00  0.00     0.071 H 
BRANCH  40  43
ATOM     43  N   LIG d   1      11.456   8.719   1.450  0.00  0.00     0.080 N 
ATOM     44  O   LIG d   1      11.578   8.069   2.588  0.00  0.00     0.041 OA
ATOM     45  O   LIG d   1      11.624  10.025   1.416  0.00  0.00    -0.576 OA
ENDBRANCH  40  43
ENDBRANCH   6  29
TORSDOF 5
ENDMDL
MODEL 9
REMARK VINA RESULT:      -6.2      4.551      5.702
REMARK  5 active torsions:
REMARK  status: ('A' for Active; 'I' for Inactive)
REMARK    1  A    between atoms: C_3  and  C_21 
REMARK    2  A    between atoms: C_6  and  C_7 
REMARK    3  A    between atoms: C_12  and  N_17 
REMARK    4  A    between atoms: C_22  and  O_34 
REMARK    5  A    between atoms: C_26  and  N_31 
ROOT
ATOM      1  C   LIG d   1       9.179   5.451  -4.798  0.00  0.00    -0.052 A 
ATOM      2  C   LIG d   1       9.451   6.563  -4.075  0.00  0.00    -0.052 A 
ATOM      3  C   LIG d   1       9.945   6.443  -2.753  0.00  0.00     0.002 A 
ATOM      4  C   LIG d   1      10.154   5.162  -2.188  0.00  0.00    -0.052 A 
ATOM      5  C   LIG d   1       9.884   4.050  -2.911  0.00  0.00    -0.052 A 
ATOM      6  C   LIG d   1       9.390   4.169  -4.233  0.00  0.00    -0.002 A 
ATOM      7  H   LIG d   1       8.799   5.541  -5.806  0.00  0.00     0.062 H 
ATOM      8  H   LIG d   1       9.291   7.540  -4.506  0.00  0.00     0.062 H 
ATOM      9  H   LIG d   1      10.531   5.072  -1.180  0.00  0.00     0.062 H 
ATOM     10  H   LIG d   1      10.044   3.074  -2.480  0.00  0.00     0.062 H 
ENDROOT
BRANCH   3  11
ATOM     11  C   LIG d   1      10.227   7.598  -2.002  0.00  0.00     0.089 A 
ATOM     12  N   LIG d   1      11.441   8.238  -1.933  0.00  0.00    -0.351 N 
ATOM     13  C   LIG d   1      11.329   9.337  -1.098  0.00  0.00     0.057 A 
ATOM     14  H   LIG d   1      12.248   7.965  -2.397  0.00  0.00     0.166 HD
ATOM     15  C   LIG d   1      10.005   9.390  -0.615  0.00  0.00     0.042 A 
ATOM     16  C   LIG d   1      12.239  10.305  -0.695  0.00  0.00     0.040 A 
ATOM     17  C   LIG d   1       9.307   8.298  -1.181  0.00  0.00     0.150 A 
ATOM     18  C   LIG d   1       9.625  10.417   0.265  0.00  0.00    -0.043 A 
ATOM     19  C   LIG d   1      10.539  11.357   0.646  0.00  0.00     0.016 A 
ATOM     20  H   LIG d   1       8.612  10.464   0.639  0.00  0.00     0.063 H 
ATOM     21  C   LIG d   1      11.842  11.306   0.172  0.00  0.00     0.275 A 
ATOM     22  H   LIG d   1      10.246  12.146   1.323  0.00  0.00     0.069 H 
ATOM     23  H   LIG d   1      13.255  10.275  -1.059  0.00  0.00     0.071 H 
BRANCH  17  24
ATOM     24  O   LIG d   1       8.013   7.982  -0.977  0.00  0.00    -0.504 OA
ATOM     25  H   LIG d   1       7.388   8.596  -1.389  0.00  0.00     0.292 HD
ENDBRANCH  17  24
BRANCH  21  26
ATOM     26  N   LIG d   1      12.817  12.335   0.596  0.00  0.00     0.080 N 
ATOM     27  O   LIG d   1      14.022  12.361   0.062  0.00  0.00     0.041 OA
ATOM     28  O   LIG d   1      12.482  13.225   1.507  0.00  0.00    -0.576 OA
ENDBRANCH  21  26
ENDBRANCH   3  11
BRANCH   6  29
ATOM     29  C   LIG d   1       9.108   3.014  -4.985  0.00  0.00     0.040 A 
ATOM     30  N   LIG d   1       7.936   2.298  -4.951  0.00  0.00    -0.354 N 
ATOM     31  C   LIG d   1       8.030   1.231  -5.827  0.00  0.00     0.053 A 
ATOM     32  H   LIG d   1       7.164   2.509  -4.403  0.00  0.00     0.166 HD
ATOM     33  C   LIG d   1       9.306   1.265  -6.429  0.00  0.00    -0.007 A 
ATOM     34  C   LIG d   1       7.144   0.219  -6.171  0.00  0.00     0.039 A 
ATOM     35  C   LIG d   1       9.988   2.386  -5.902  0.00  0.00    -0.074 A 
ATOM     36  C   LIG d   1       9.663   0.280  -7.364  0.00  0.00    -0.047 A 
ATOM     37  O   LIG d   1      11.239   2.783  -6.213  0.00  0.00    -0.872 OA
ATOM     38  C   LIG d   1       8.773  -0.705  -7.684  0.00  0.00     0.016 A 
ATOM     39  H   LIG d   1      10.638   0.301  -7.828  0.00  0.00     0.063 H 
ATOM     40  C   LIG d   1       7.518  -0.741  -7.094  0.00  0.00     0.275 A 
ATOM     41  H   LIG d   1       9.049  -1.463  -8.403  0.00  0.00     0.069 H 
ATOM     42  H   LIG d   1       6.165   0.181  -5.718  0.00  0.00     0.071 H 
BRANCH  40  43
ATOM     43  N   LIG d   1       6.568  -1.816  -7.456  0.00  0.00     0.080 N 
ATOM     44  O   LIG d   1       5.591  -2.136  -6.633  0.00  0.00     0.041 OA
ATOM     45  O   LIG d   1       6.700  -2.456  -8.600  0.00  0.00    -0.576 OA
ENDBRANCH  40  43
ENDBRANCH   6  29
TORSDOF 5
ENDMDL
MODEL 10
REMARK VINA RESULT:      -6.2     12.572     16.199
REMARK  5 active torsions:
REMARK  status: ('A' for Active; 'I' for Inactive)
REMARK    1  A    between atoms: C_3  and  C_21 
REMARK    2  A    between atoms: C_6  and  C_7 
REMARK    3  A    between atoms: C_12  and  N_17 
REMARK    4  A    between atoms: C_22  and  O_34 
REMARK    5  A    between atoms: C_26  and  N_31 
ROOT
ATOM      1  C   LIG d   1      11.519  -6.442  -2.695  0.00  0.00    -0.052 A 
ATOM      2  C   LIG d   1      11.478  -5.393  -3.550  0.00  0.00    -0.052 A 
ATOM      3  C   LIG d   1      10.517  -4.369  -3.368  0.00  0.00     0.002 A 
ATOM      4  C   LIG d   1       9.598  -4.443  -2.293  0.00  0.00    -0.052 A 
ATOM      5  C   LIG d   1       9.639  -5.491  -1.438  0.00  0.00    -0.052 A 
ATOM      6  C   LIG d   1      10.601  -6.516  -1.619  0.00  0.00    -0.002 A 
ATOM      7  H   LIG d   1      12.250  -7.226  -2.835  0.00  0.00     0.062 H 
ATOM      8  H   LIG d   1      12.179  -5.338  -4.370  0.00  0.00     0.062 H 
ATOM      9  H   LIG d   1       8.866  -3.662  -2.155  0.00  0.00     0.062 H 
ATOM     10  H   LIG d   1       8.939  -5.547  -0.618  0.00  0.00     0.062 H 
ENDROOT
BRANCH   3  11
ATOM     11  C   LIG d   1      10.475  -3.280  -4.257  0.00  0.00     0.089 A 
ATOM     12  N   LIG d   1      11.295  -2.177  -4.218  0.00  0.00    -0.351 N 
ATOM     13  C   LIG d   1      10.956  -1.323  -5.254  0.00  0.00     0.057 A 
ATOM     14  H   LIG d   1      12.000  -2.023  -3.570  0.00  0.00     0.166 HD
ATOM     15  C   LIG d   1       9.880  -1.897  -5.964  0.00  0.00     0.042 A 
ATOM     16  C   LIG d   1      11.461  -0.096  -5.660  0.00  0.00     0.040 A 
ATOM     17  C   LIG d   1       9.575  -3.129  -5.341  0.00  0.00     0.150 A 
ATOM     18  C   LIG d   1       9.337  -1.222  -7.070  0.00  0.00    -0.043 A 
ATOM     19  C   LIG d   1       9.853  -0.016  -7.450  0.00  0.00     0.016 A 
ATOM     20  H   LIG d   1       8.515  -1.657  -7.619  0.00  0.00     0.063 H 
ATOM     21  C   LIG d   1      10.910   0.550  -6.751  0.00  0.00     0.275 A 
ATOM     22  H   LIG d   1       9.434   0.502  -8.300  0.00  0.00     0.069 H 
ATOM     23  H   LIG d   1      12.284   0.354  -5.124  0.00  0.00     0.071 H 
BRANCH  17  24
ATOM     24  O   LIG d   1       8.609  -3.994  -5.708  0.00  0.00    -0.504 OA
ATOM     25  H   LIG d   1       7.764  -3.574  -5.923  0.00  0.00     0.292 HD
ENDBRANCH  17  24
BRANCH  21  26
ATOM     26  N   LIG d   1      11.455   1.857  -7.179  0.00  0.00     0.080 N 
ATOM     27  O   LIG d   1      11.229   2.297  -8.401  0.00  0.00     0.041 OA
ATOM     28  O   LIG d   1      12.165   2.582  -6.340  0.00  0.00    -0.576 OA
ENDBRANCH  21  26
ENDBRANCH   3  11
BRANCH   6  29
ATOM     29  C   LIG d   1      10.643  -7.605  -0.731  0.00  0.00     0.040 A 
ATOM     30  N   LIG d   1      11.088  -7.567   0.568  0.00  0.00    -0.354 N 
ATOM     31  C   LIG d   1      10.974  -8.830   1.125  0.00  0.00     0.053 A 
ATOM     32  H   LIG d   1      11.425  -6.781   1.024  0.00  0.00     0.166 HD
ATOM     33  C   LIG d   1      10.450  -9.699   0.143  0.00  0.00    -0.007 A 
ATOM     34  C   LIG d   1      11.274  -9.330   2.384  0.00  0.00     0.039 A 
ATOM     35  C   LIG d   1      10.240  -8.932  -1.026  0.00  0.00    -0.074 A 
ATOM     36  C   LIG d   1      10.240 -11.052   0.451  0.00  0.00    -0.047 A 
ATOM     37  O   LIG d   1       9.748  -9.379  -2.200  0.00  0.00    -0.872 OA
ATOM     38  C   LIG d   1      10.544 -11.520   1.698  0.00  0.00     0.016 A 
ATOM     39  H   LIG d   1       9.838 -11.722  -0.294  0.00  0.00     0.063 H 
ATOM     40  C   LIG d   1      11.059 -10.667   2.664  0.00  0.00     0.275 A 
ATOM     41  H   LIG d   1      10.382 -12.561   1.934  0.00  0.00     0.069 H 
ATOM     42  H   LIG d   1      11.676  -8.676   3.143  0.00  0.00     0.071 H 
BRANCH  40  43
ATOM     43  N   LIG d   1      11.382 -11.193   4.009  0.00  0.00     0.080 N 
ATOM     44  O   LIG d   1      12.360 -10.657   4.708  0.00  0.00     0.041 OA
ATOM     45  O   LIG d   1      10.691 -12.199   4.507  0.00  0.00    -0.576 OA
ENDBRANCH  40  43
ENDBRANCH   6  29
TORSDOF 5
ENDMDL
