MODEL 1
REMARK VINA RESULT:      -6.2      0.000      0.000
REMARK  8 active torsions:
REMARK  status: ('A' for Active; 'I' for Inactive)
REMARK    1  A    between atoms: CD1_1  and  CG1_2 
REMARK    2  A    between atoms: CG1_2  and  CB_3 
REMARK    3  A    between atoms: CB_3  and  CG2_5 
REMARK    4  A    between atoms: CB_3  and  CA_6 
REMARK       I    between atoms: CA_6  and  C_8 
REMARK       I    between atoms: CA_6  and  N_18 
REMARK       I    between atoms: C_8  and  N_10 
REMARK       I    between atoms: CA_14  and  C_16 
REMARK       I    between atoms: N_18  and  C_19 
REMARK    5  A    between atoms: C_19  and  C_21 
REMARK    6  A    between atoms: N_26  and  C_28 
REMARK    7  A    between atoms: C_31  and  O_34 
REMARK    8  A    between atoms: O_34  and  C_35 
ROOT
ATOM      1  CA  PRO d   1       3.156  -0.532  -8.024  0.00  0.00     0.102 C 
ATOM      2  HA  PRO d   1       2.219   0.019  -8.100  0.00  0.00     0.060 H 
ATOM      3  C   PRO d   1       3.058  -1.803  -8.828  0.00  0.00     0.237 C 
ATOM      4  O   PRO d   1       3.568  -2.822  -8.415  0.00  0.00    -0.274 OA
ATOM      5  N   PRO d   1       2.404  -1.806 -10.007  0.00  0.00    -0.292 N 
ATOM      6  CD  PRO d   1       1.824  -0.624 -10.670  0.00  0.00     0.015 C 
ATOM      7  CG  PRO d   1       0.711  -1.187 -11.585  0.00  0.00    -0.035 C 
ATOM      8  CB  PRO d   1       1.347  -2.516 -12.072  0.00  0.00    -0.028 C 
ATOM      9  CA  PRO d   1       2.146  -2.989 -10.840  0.00  0.00     0.066 C 
ATOM     10  HA  PRO d   1       1.564  -3.720 -10.276  0.00  0.00     0.056 H 
ATOM     11  C   PRO d   1       3.451  -3.602 -11.279  0.00  0.00     0.062 C 
ATOM     12  O   PRO d   1       4.497  -3.106 -10.935  0.00  0.00    -0.548 OA
ATOM     13  N   PRO d   1       3.416  -0.860  -6.620  0.00  0.00    -0.303 N 
ATOM     14  HD1 PRO d   1       1.401   0.056  -9.932  0.00  0.00     0.046 H 
ATOM     15  HD2 PRO d   1       2.581  -0.115 -11.267  0.00  0.00     0.046 H 
ATOM     16  HG1 PRO d   1       0.516  -0.518 -12.423  0.00  0.00     0.028 H 
ATOM     17  HG2 PRO d   1      -0.199  -1.375 -11.017  0.00  0.00     0.028 H 
ATOM     18  HB1 PRO d   1       2.012  -2.338 -12.918  0.00  0.00     0.029 H 
ATOM     19  HB2 PRO d   1       0.577  -3.241 -12.335  0.00  0.00     0.029 H 
ATOM     20  H   PRO d   1       3.846  -1.699  -6.390  0.00  0.00     0.149 HD
ATOM     21  OXT PRO d   1       3.450  -4.699 -12.052  0.00  0.00    -0.548 OA
ATOM     22  C   UNK d   0       3.056   0.001  -5.648  0.00  0.00     0.219 C 
ATOM     23  O   UNK d   0       2.518   1.049  -5.935  0.00  0.00    -0.275 OA
ENDROOT
BRANCH   1  24
ATOM     24  CB  PRO d   1       4.299   0.329  -8.566  0.00  0.00    -0.017 C 
ATOM     25  HB  PRO d   1       4.567  -0.012  -9.566  0.00  0.00     0.032 H 
BRANCH  24  26
ATOM     26  CG1 PRO d   1       3.852   1.790  -8.628  0.00  0.00    -0.051 C 
ATOM     27 1HG1 PRO d   1       2.859   1.886  -8.189  0.00  0.00     0.027 H 
ATOM     28 2HG1 PRO d   1       4.557   2.409  -8.072  0.00  0.00     0.027 H 
BRANCH  26  29
ATOM     29  CD1 PRO d   1       3.812   2.250 -10.087  0.00  0.00    -0.065 C 
ATOM     30 1HD1 PRO d   1       2.774   2.364 -10.403  0.00  0.00     0.023 H 
ATOM     31 2HD1 PRO d   1       4.328   3.206 -10.180  0.00  0.00     0.023 H 
ATOM     32 3HD1 PRO d   1       4.304   1.508 -10.716  0.00  0.00     0.023 H 
ENDBRANCH  26  29
ENDBRANCH  24  26
BRANCH  24  33
ATOM     33  CG2 PRO d   1       5.513   0.205  -7.643  0.00  0.00    -0.060 C 
ATOM     34 1HG2 PRO d   1       6.285  -0.386  -8.135  0.00  0.00     0.023 H 
ATOM     35 2HG2 PRO d   1       5.902   1.197  -7.419  0.00  0.00     0.023 H 
ATOM     36 3HG2 PRO d   1       5.215  -0.287  -6.716  0.00  0.00     0.023 H 
ENDBRANCH  24  33
ENDBRANCH   1  24
BRANCH  22  37
ATOM     37  C   UNK d   0       3.324  -0.337  -4.204  0.00  0.00     0.060 C 
ATOM     38  H   UNK d   0       2.399  -0.594  -3.688  0.00  0.00     0.041 H 
ATOM     39  C   UNK d   0       4.362  -1.479  -4.085  0.00  0.00     0.031 C 
ATOM     40  N   UNK d   0       5.664  -0.812  -3.960  0.00  0.00    -0.271 N 
ATOM     41  H   UNK d   0       4.342  -2.102  -4.979  0.00  0.00     0.048 H 
ATOM     42  H   UNK d   0       4.161  -2.083  -3.200  0.00  0.00     0.048 H 
ATOM     43  C   UNK d   0       5.520   0.480  -3.620  0.00  0.00     0.221 C 
ATOM     44  C   UNK d   0       4.053   0.824  -3.489  0.00  0.00     0.037 C 
ATOM     45  O   UNK d   0       6.434   1.258  -3.445  0.00  0.00    -0.275 OA
ATOM     46  H   UNK d   0       3.763   0.867  -2.439  0.00  0.00     0.037 H 
ATOM     47  H   UNK d   0       3.837   1.771  -3.982  0.00  0.00     0.037 H 
BRANCH  40  48
ATOM     48  C   UNK d   0       6.898  -1.443  -4.167  0.00  0.00     0.036 A 
ATOM     49  C   UNK d   0       7.276  -2.511  -3.365  0.00  0.00    -0.037 A 
ATOM     50  C   UNK d   0       8.492  -3.133  -3.570  0.00  0.00    -0.018 A 
ATOM     51  H   UNK d   0       6.618  -2.857  -2.580  0.00  0.00     0.064 H 
ATOM     52  C   UNK d   0       9.336  -2.689  -4.577  0.00  0.00     0.120 A 
ATOM     53  H   UNK d   0       8.786  -3.964  -2.946  0.00  0.00     0.066 H 
ATOM     54  C   UNK d   0       8.960  -1.621  -5.379  0.00  0.00    -0.018 A 
ATOM     55  C   UNK d   0       7.742  -1.003  -5.178  0.00  0.00    -0.037 A 
ATOM     56  H   UNK d   0       9.617  -1.277  -6.163  0.00  0.00     0.066 H 
ATOM     57  H   UNK d   0       7.446  -0.175  -5.806  0.00  0.00     0.064 H 
BRANCH  52  58
ATOM     58  O   UNK d   0      10.533  -3.301  -4.779  0.00  0.00    -0.495 OA
BRANCH  58  59
ATOM     59  C   UNK d   0      11.223  -3.775  -3.620  0.00  0.00     0.079 C 
ATOM     60  H   UNK d   0      10.896  -3.210  -2.746  0.00  0.00     0.066 H 
ATOM     61  H   UNK d   0      11.003  -4.832  -3.473  0.00  0.00     0.066 H 
ATOM     62  H   UNK d   0      12.296  -3.642  -3.756  0.00  0.00     0.066 H 
ENDBRANCH  58  59
ENDBRANCH  52  58
ENDBRANCH  40  48
ENDBRANCH  22  37
TORSDOF 11
ENDMDL
MODEL 2
REMARK VINA RESULT:      -6.2      2.961      8.220
REMARK  8 active torsions:
REMARK  status: ('A' for Active; 'I' for Inactive)
REMARK    1  A    between atoms: CD1_1  and  CG1_2 
REMARK    2  A    between atoms: CG1_2  and  CB_3 
REMARK    3  A    between atoms: CB_3  and  CG2_5 
REMARK    4  A    between atoms: CB_3  and  CA_6 
REMARK       I    between atoms: CA_6  and  C_8 
REMARK       I    between atoms: CA_6  and  N_18 
REMARK       I    between atoms: C_8  and  N_10 
REMARK       I    between atoms: CA_14  and  C_16 
REMARK       I    between atoms: N_18  and  C_19 
REMARK    5  A    between atoms: C_19  and  C_21 
REMARK    6  A    between atoms: N_26  and  C_28 
REMARK    7  A    between atoms: C_31  and  O_34 
REMARK    8  A    between atoms: O_34  and  C_35 
ROOT
ATOM      1  CA  PRO d   1       4.035  -1.217  -6.790  0.00  0.00     0.102 C 
ATOM      2  HA  PRO d   1       3.596  -2.199  -6.617  0.00  0.00     0.060 H 
ATOM      3  C   PRO d   1       3.942  -0.395  -5.531  0.00  0.00     0.237 C 
ATOM      4  O   PRO d   1       3.701   0.791  -5.597  0.00  0.00    -0.274 OA
ATOM      5  N   PRO d   1       4.125  -0.980  -4.330  0.00  0.00    -0.292 N 
ATOM      6  CD  PRO d   1       4.515  -2.384  -4.109  0.00  0.00     0.015 C 
ATOM      7  CG  PRO d   1       4.002  -2.721  -2.689  0.00  0.00    -0.035 C 
ATOM      8  CB  PRO d   1       4.247  -1.385  -1.940  0.00  0.00    -0.028 C 
ATOM      9  CA  PRO d   1       3.962  -0.324  -3.025  0.00  0.00     0.066 C 
ATOM     10  HA  PRO d   1       2.942   0.049  -2.922  0.00  0.00     0.056 H 
ATOM     11  C   PRO d   1       4.941   0.816  -2.898  0.00  0.00     0.062 C 
ATOM     12  O   PRO d   1       5.702   1.062  -3.803  0.00  0.00    -0.548 OA
ATOM     13  N   PRO d   1       3.311  -0.542  -7.870  0.00  0.00    -0.303 N 
ATOM     14  HD1 PRO d   1       4.042  -3.030  -4.847  0.00  0.00     0.046 H 
ATOM     15  HD2 PRO d   1       5.600  -2.487  -4.152  0.00  0.00     0.046 H 
ATOM     16  HG1 PRO d   1       4.583  -3.530  -2.244  0.00  0.00     0.028 H 
ATOM     17  HG2 PRO d   1       2.942  -2.969  -2.709  0.00  0.00     0.028 H 
ATOM     18  HB1 PRO d   1       5.281  -1.318  -1.598  0.00  0.00     0.029 H 
ATOM     19  HB2 PRO d   1       3.558  -1.276  -1.103  0.00  0.00     0.029 H 
ATOM     20  H   PRO d   1       3.184   0.420  -7.841  0.00  0.00     0.149 HD
ATOM     21  OXT PRO d   1       4.966   1.556  -1.779  0.00  0.00    -0.548 OA
ATOM     22  C   UNK d   0       2.821  -1.255  -8.903  0.00  0.00     0.219 C 
ATOM     23  O   UNK d   0       2.979  -2.456  -8.939  0.00  0.00    -0.275 OA
ENDROOT
BRANCH   1  24
ATOM     24  CB  PRO d   1       5.505  -1.379  -7.186  0.00  0.00    -0.017 C 
ATOM     25  HB  PRO d   1       6.139  -1.136  -6.334  0.00  0.00     0.032 H 
BRANCH  24  26
ATOM     26  CG1 PRO d   1       5.761  -2.824  -7.617  0.00  0.00    -0.051 C 
ATOM     27 1HG1 PRO d   1       6.425  -3.305  -6.899  0.00  0.00     0.027 H 
ATOM     28 2HG1 PRO d   1       4.815  -3.365  -7.655  0.00  0.00     0.027 H 
BRANCH  26  29
ATOM     29  CD1 PRO d   1       6.410  -2.837  -9.003  0.00  0.00    -0.065 C 
ATOM     30 1HD1 PRO d   1       5.634  -2.860  -9.767  0.00  0.00     0.023 H 
ATOM     31 2HD1 PRO d   1       7.017  -1.940  -9.127  0.00  0.00     0.023 H 
ATOM     32 3HD1 PRO d   1       7.042  -3.720  -9.099  0.00  0.00     0.023 H 
ENDBRANCH  26  29
ENDBRANCH  24  26
BRANCH  24  33
ATOM     33  CG2 PRO d   1       5.827  -0.435  -8.347  0.00  0.00    -0.060 C 
ATOM     34 1HG2 PRO d   1       5.538  -0.903  -9.287  0.00  0.00     0.023 H 
ATOM     35 2HG2 PRO d   1       5.279   0.497  -8.220  0.00  0.00     0.023 H 
ATOM     36 3HG2 PRO d   1       6.898  -0.228  -8.359  0.00  0.00     0.023 H 
ENDBRANCH  24  33
ENDBRANCH   1  24
BRANCH  22  37
ATOM     37  C   UNK d   0       2.075  -0.559 -10.013  0.00  0.00     0.060 C 
ATOM     38  H   UNK d   0       1.368   0.166  -9.610  0.00  0.00     0.041 H 
ATOM     39  C   UNK d   0       3.056   0.112 -11.004  0.00  0.00     0.031 C 
ATOM     40  N   UNK d   0       3.290  -0.883 -12.058  0.00  0.00    -0.271 N 
ATOM     41  H   UNK d   0       3.992   0.356 -10.502  0.00  0.00     0.048 H 
ATOM     42  H   UNK d   0       2.610   1.012 -11.428  0.00  0.00     0.048 H 
ATOM     43  C   UNK d   0       2.349  -1.843 -12.040  0.00  0.00     0.221 C 
ATOM     44  C   UNK d   0       1.360  -1.582 -10.925  0.00  0.00     0.037 C 
ATOM     45  O   UNK d   0       2.301  -2.782 -12.807  0.00  0.00    -0.275 OA
ATOM     46  H   UNK d   0       0.439  -1.159 -11.324  0.00  0.00     0.037 H 
ATOM     47  H   UNK d   0       1.151  -2.501 -10.378  0.00  0.00     0.037 H 
BRANCH  40  48
ATOM     48  C   UNK d   0       4.356  -0.837 -12.965  0.00  0.00     0.036 A 
ATOM     49  C   UNK d   0       5.650  -1.089 -12.531  0.00  0.00    -0.037 A 
ATOM     50  C   UNK d   0       6.701  -1.044 -13.426  0.00  0.00    -0.018 A 
ATOM     51  H   UNK d   0       5.836  -1.321 -11.492  0.00  0.00     0.064 H 
ATOM     52  C   UNK d   0       6.463  -0.747 -14.760  0.00  0.00     0.120 A 
ATOM     53  H   UNK d   0       7.708  -1.240 -13.088  0.00  0.00     0.066 H 
ATOM     54  C   UNK d   0       5.170  -0.494 -15.195  0.00  0.00    -0.018 A 
ATOM     55  C   UNK d   0       4.118  -0.544 -14.302  0.00  0.00    -0.037 A 
ATOM     56  H   UNK d   0       4.985  -0.263 -16.234  0.00  0.00     0.066 H 
ATOM     57  H   UNK d   0       3.111  -0.353 -14.641  0.00  0.00     0.064 H 
BRANCH  52  58
ATOM     58  O   UNK d   0       7.497  -0.702 -15.641  0.00  0.00    -0.495 OA
BRANCH  58  59
ATOM     59  C   UNK d   0       8.116   0.569 -15.852  0.00  0.00     0.079 C 
ATOM     60  H   UNK d   0       7.785   1.266 -15.082  0.00  0.00     0.066 H 
ATOM     61  H   UNK d   0       9.199   0.459 -15.802  0.00  0.00     0.066 H 
ATOM     62  H   UNK d   0       7.834   0.952 -16.833  0.00  0.00     0.066 H 
ENDBRANCH  58  59
ENDBRANCH  52  58
ENDBRANCH  40  48
ENDBRANCH  22  37
TORSDOF 11
ENDMDL
MODEL 3
REMARK VINA RESULT:      -5.9      4.086      6.765
REMARK  8 active torsions:
REMARK  status: ('A' for Active; 'I' for Inactive)
REMARK    1  A    between atoms: CD1_1  and  CG1_2 
REMARK    2  A    between atoms: CG1_2  and  CB_3 
REMARK    3  A    between atoms: CB_3  and  CG2_5 
REMARK    4  A    between atoms: CB_3  and  CA_6 
REMARK       I    between atoms: CA_6  and  C_8 
REMARK       I    between atoms: CA_6  and  N_18 
REMARK       I    between atoms: C_8  and  N_10 
REMARK       I    between atoms: CA_14  and  C_16 
REMARK       I    between atoms: N_18  and  C_19 
REMARK    5  A    between atoms: C_19  and  C_21 
REMARK    6  A    between atoms: N_26  and  C_28 
REMARK    7  A    between atoms: C_31  and  O_34 
REMARK    8  A    between atoms: O_34  and  C_35 
ROOT
ATOM      1  CA  PRO d   1       7.229  -0.768  -5.088  0.00  0.00     0.102 C 
ATOM      2  HA  PRO d   1       7.677  -0.749  -4.095  0.00  0.00     0.060 H 
ATOM      3  C   PRO d   1       5.730  -0.857  -4.961  0.00  0.00     0.237 C 
ATOM      4  O   PRO d   1       5.095  -1.535  -5.740  0.00  0.00    -0.274 OA
ATOM      5  N   PRO d   1       5.096  -0.183  -3.981  0.00  0.00    -0.292 N 
ATOM      6  CD  PRO d   1       5.729   0.749  -3.030  0.00  0.00     0.015 C 
ATOM      7  CG  PRO d   1       4.791   0.760  -1.799  0.00  0.00    -0.035 C 
ATOM      8  CB  PRO d   1       3.395   0.656  -2.467  0.00  0.00    -0.028 C 
ATOM      9  CA  PRO d   1       3.659  -0.260  -3.680  0.00  0.00     0.066 C 
ATOM     10  HA  PRO d   1       3.385  -1.288  -3.438  0.00  0.00     0.056 H 
ATOM     11  C   PRO d   1       2.860   0.216  -4.867  0.00  0.00     0.062 C 
ATOM     12  O   PRO d   1       3.427   0.585  -5.868  0.00  0.00    -0.548 OA
ATOM     13  N   PRO d   1       7.728  -1.931  -5.826  0.00  0.00    -0.303 N 
ATOM     14  HD1 PRO d   1       6.719   0.391  -2.751  0.00  0.00     0.046 H 
ATOM     15  HD2 PRO d   1       5.793   1.747  -3.464  0.00  0.00     0.046 H 
ATOM     16  HG1 PRO d   1       4.889   1.691  -1.241  0.00  0.00     0.028 H 
ATOM     17  HG2 PRO d   1       4.983  -0.100  -1.159  0.00  0.00     0.028 H 
ATOM     18  HB1 PRO d   1       3.049   1.638  -2.794  0.00  0.00     0.029 H 
ATOM     19  HB2 PRO d   1       2.673   0.201  -1.789  0.00  0.00     0.029 H 
ATOM     20  H   PRO d   1       7.143  -2.400  -6.444  0.00  0.00     0.149 HD
ATOM     21  OXT PRO d   1       1.519   0.229  -4.810  0.00  0.00    -0.548 OA
ATOM     22  C   UNK d   0       8.996  -2.351  -5.648  0.00  0.00     0.219 C 
ATOM     23  O   UNK d   0       9.725  -1.765  -4.877  0.00  0.00    -0.275 OA
ENDROOT
BRANCH   1  24
ATOM     24  CB  PRO d   1       7.603   0.512  -5.840  0.00  0.00    -0.017 C 
ATOM     25  HB  PRO d   1       6.745   1.183  -5.860  0.00  0.00     0.032 H 
BRANCH  24  26
ATOM     26  CG1 PRO d   1       8.771   1.197  -5.130  0.00  0.00    -0.051 C 
ATOM     27 1HG1 PRO d   1       9.003   0.661  -4.210  0.00  0.00     0.027 H 
ATOM     28 2HG1 PRO d   1       9.645   1.193  -5.782  0.00  0.00     0.027 H 
BRANCH  26  29
ATOM     29  CD1 PRO d   1       8.390   2.642  -4.798  0.00  0.00    -0.065 C 
ATOM     30 1HD1 PRO d   1       8.859   3.315  -5.515  0.00  0.00     0.023 H 
ATOM     31 2HD1 PRO d   1       7.307   2.752  -4.848  0.00  0.00     0.023 H 
ATOM     32 3HD1 PRO d   1       8.735   2.885  -3.793  0.00  0.00     0.023 H 
ENDBRANCH  26  29
ENDBRANCH  24  26
BRANCH  24  33
ATOM     33  CG2 PRO d   1       8.010   0.161  -7.272  0.00  0.00    -0.060 C 
ATOM     34 1HG2 PRO d   1       8.612  -0.748  -7.267  0.00  0.00     0.023 H 
ATOM     35 2HG2 PRO d   1       7.118   0.002  -7.876  0.00  0.00     0.023 H 
ATOM     36 3HG2 PRO d   1       8.594   0.979  -7.695  0.00  0.00     0.023 H 
ENDBRANCH  24  33
ENDBRANCH   1  24
BRANCH  22  37
ATOM     37  C   UNK d   0       9.508  -3.547  -6.408  0.00  0.00     0.060 C 
ATOM     38  H   UNK d   0      10.047  -3.237  -7.303  0.00  0.00     0.041 H 
ATOM     39  C   UNK d   0      10.393  -4.439  -5.506  0.00  0.00     0.031 C 
ATOM     40  N   UNK d   0       9.486  -5.443  -4.936  0.00  0.00    -0.271 N 
ATOM     41  H   UNK d   0      10.843  -3.845  -4.712  0.00  0.00     0.048 H 
ATOM     42  H   UNK d   0      11.169  -4.926  -6.097  0.00  0.00     0.048 H 
ATOM     43  C   UNK d   0       8.334  -5.508  -5.627  0.00  0.00     0.221 C 
ATOM     44  C   UNK d   0       8.353  -4.512  -6.764  0.00  0.00     0.037 C 
ATOM     45  O   UNK d   0       7.415  -6.258  -5.374  0.00  0.00    -0.275 OA
ATOM     46  H   UNK d   0       8.555  -5.015  -7.710  0.00  0.00     0.037 H 
ATOM     47  H   UNK d   0       7.407  -3.973  -6.815  0.00  0.00     0.037 H 
BRANCH  40  48
ATOM     48  C   UNK d   0       9.782  -6.231  -3.816  0.00  0.00     0.036 A 
ATOM     49  C   UNK d   0       9.669  -5.697  -2.540  0.00  0.00    -0.037 A 
ATOM     50  C   UNK d   0       9.961  -6.475  -1.436  0.00  0.00    -0.018 A 
ATOM     51  H   UNK d   0       9.351  -4.672  -2.410  0.00  0.00     0.064 H 
ATOM     52  C   UNK d   0      10.367  -7.790  -1.604  0.00  0.00     0.120 A 
ATOM     53  H   UNK d   0       9.872  -6.059  -0.444  0.00  0.00     0.066 H 
ATOM     54  C   UNK d   0      10.482  -8.325  -2.879  0.00  0.00    -0.018 A 
ATOM     55  C   UNK d   0      10.185  -7.550  -3.982  0.00  0.00    -0.037 A 
ATOM     56  H   UNK d   0      10.799  -9.349  -3.009  0.00  0.00     0.066 H 
ATOM     57  H   UNK d   0      10.269  -7.967  -4.975  0.00  0.00     0.064 H 
BRANCH  52  58
ATOM     58  O   UNK d   0      10.655  -8.555  -0.518  0.00  0.00    -0.495 OA
BRANCH  58  59
ATOM     59  C   UNK d   0      11.471  -7.963   0.496  0.00  0.00     0.079 C 
ATOM     60  H   UNK d   0      10.934  -7.970   1.445  0.00  0.00     0.066 H 
ATOM     61  H   UNK d   0      12.395  -8.533   0.597  0.00  0.00     0.066 H 
ATOM     62  H   UNK d   0      11.706  -6.936   0.219  0.00  0.00     0.066 H 
ENDBRANCH  58  59
ENDBRANCH  52  58
ENDBRANCH  40  48
ENDBRANCH  22  37
TORSDOF 11
ENDMDL
MODEL 4
REMARK VINA RESULT:      -5.9      5.407      8.135
REMARK  8 active torsions:
REMARK  status: ('A' for Active; 'I' for Inactive)
REMARK    1  A    between atoms: CD1_1  and  CG1_2 
REMARK    2  A    between atoms: CG1_2  and  CB_3 
REMARK    3  A    between atoms: CB_3  and  CG2_5 
REMARK    4  A    between atoms: CB_3  and  CA_6 
REMARK       I    between atoms: CA_6  and  C_8 
REMARK       I    between atoms: CA_6  and  N_18 
REMARK       I    between atoms: C_8  and  N_10 
REMARK       I    between atoms: CA_14  and  C_16 
REMARK       I    between atoms: N_18  and  C_19 
REMARK    5  A    between atoms: C_19  and  C_21 
REMARK    6  A    between atoms: N_26  and  C_28 
REMARK    7  A    between atoms: C_31  and  O_34 
REMARK    8  A    between atoms: O_34  and  C_35 
ROOT
ATOM      1  CA  PRO d   1       6.302  -3.480  -4.898  0.00  0.00     0.102 C 
ATOM      2  HA  PRO d   1       6.440  -3.815  -3.870  0.00  0.00     0.060 H 
ATOM      3  C   PRO d   1       5.043  -2.657  -4.994  0.00  0.00     0.237 C 
ATOM      4  O   PRO d   1       4.331  -2.751  -5.971  0.00  0.00    -0.274 OA
ATOM      5  N   PRO d   1       4.710  -1.817  -3.994  0.00  0.00    -0.292 N 
ATOM      6  CD  PRO d   1       5.527  -1.535  -2.800  0.00  0.00     0.015 C 
ATOM      7  CG  PRO d   1       4.518  -1.059  -1.729  0.00  0.00    -0.035 C 
ATOM      8  CB  PRO d   1       3.511  -0.246  -2.585  0.00  0.00    -0.028 C 
ATOM      9  CA  PRO d   1       3.467  -1.036  -3.910  0.00  0.00     0.066 C 
ATOM     10  HA  PRO d   1       2.607  -1.706  -3.916  0.00  0.00     0.056 H 
ATOM     11  C   PRO d   1       3.382  -0.082  -5.074  0.00  0.00     0.062 C 
ATOM     12  O   PRO d   1       4.267  -0.051  -5.896  0.00  0.00    -0.548 OA
ATOM     13  N   PRO d   1       6.193  -4.645  -5.779  0.00  0.00    -0.303 N 
ATOM     14  HD1 PRO d   1       6.037  -2.439  -2.467  0.00  0.00     0.046 H 
ATOM     15  HD2 PRO d   1       6.250  -0.748  -3.013  0.00  0.00     0.046 H 
ATOM     16  HG1 PRO d   1       5.003  -0.423  -0.988  0.00  0.00     0.028 H 
ATOM     17  HG2 PRO d   1       4.029  -1.908  -1.253  0.00  0.00     0.028 H 
ATOM     18  HB1 PRO d   1       3.878   0.768  -2.753  0.00  0.00     0.029 H 
ATOM     19  HB2 PRO d   1       2.529  -0.226  -2.115  0.00  0.00     0.029 H 
ATOM     20  H   PRO d   1       5.604  -4.616  -6.551  0.00  0.00     0.149 HD
ATOM     21  OXT PRO d   1       2.323   0.733  -5.197  0.00  0.00    -0.548 OA
ATOM     22  C   UNK d   0       6.909  -5.757  -5.520  0.00  0.00     0.219 C 
ATOM     23  O   UNK d   0       7.644  -5.794  -4.556  0.00  0.00    -0.275 OA
ENDROOT
BRANCH   1  24
ATOM     24  CB  PRO d   1       7.502  -2.630  -5.322  0.00  0.00    -0.017 C 
ATOM     25  HB  PRO d   1       7.216  -1.579  -5.332  0.00  0.00     0.032 H 
BRANCH  24  26
ATOM     26  CG1 PRO d   1       8.649  -2.838  -4.334  0.00  0.00    -0.051 C 
ATOM     27 1HG1 PRO d   1       8.780  -1.937  -3.734  0.00  0.00     0.027 H 
ATOM     28 2HG1 PRO d   1       8.417  -3.678  -3.679  0.00  0.00     0.027 H 
BRANCH  26  29
ATOM     29  CD1 PRO d   1       9.940  -3.131  -5.102  0.00  0.00    -0.065 C 
ATOM     30 1HD1 PRO d   1       9.715  -3.230  -6.164  0.00  0.00     0.023 H 
ATOM     31 2HD1 PRO d   1      10.645  -2.313  -4.953  0.00  0.00     0.023 H 
ATOM     32 3HD1 PRO d   1      10.377  -4.060  -4.736  0.00  0.00     0.023 H 
ENDBRANCH  26  29
ENDBRANCH  24  26
BRANCH  24  33
ATOM     33  CG2 PRO d   1       7.953  -3.049  -6.723  0.00  0.00    -0.060 C 
ATOM     34 1HG2 PRO d   1       8.414  -4.035  -6.677  0.00  0.00     0.023 H 
ATOM     35 2HG2 PRO d   1       7.091  -3.082  -7.388  0.00  0.00     0.023 H 
ATOM     36 3HG2 PRO d   1       8.676  -2.327  -7.103  0.00  0.00     0.023 H 
ENDBRANCH  24  33
ENDBRANCH   1  24
BRANCH  22  37
ATOM     37  C   UNK d   0       6.796  -6.955  -6.427  0.00  0.00     0.060 C 
ATOM     38  H   UNK d   0       7.190  -6.730  -7.418  0.00  0.00     0.041 H 
ATOM     39  C   UNK d   0       7.505  -8.186  -5.812  0.00  0.00     0.031 C 
ATOM     40  N   UNK d   0       6.465  -8.905  -5.067  0.00  0.00    -0.271 N 
ATOM     41  H   UNK d   0       8.298  -7.866  -5.138  0.00  0.00     0.048 H 
ATOM     42  H   UNK d   0       7.913  -8.821  -6.599  0.00  0.00     0.048 H 
ATOM     43  C   UNK d   0       5.235  -8.515  -5.444  0.00  0.00     0.221 C 
ATOM     44  C   UNK d   0       5.333  -7.449  -6.513  0.00  0.00     0.037 C 
ATOM     45  O   UNK d   0       4.198  -8.954  -4.993  0.00  0.00    -0.275 OA
ATOM     46  H   UNK d   0       5.131  -7.874  -7.496  0.00  0.00     0.037 H 
ATOM     47  H   UNK d   0       4.642  -6.633  -6.302  0.00  0.00     0.037 H 
BRANCH  40  48
ATOM     48  C   UNK d   0       6.721  -9.874  -4.088  0.00  0.00     0.036 A 
ATOM     49  C   UNK d   0       6.832 -11.211  -4.446  0.00  0.00    -0.037 A 
ATOM     50  C   UNK d   0       7.086 -12.166  -3.481  0.00  0.00    -0.018 A 
ATOM     51  H   UNK d   0       6.721 -11.504  -5.480  0.00  0.00     0.064 H 
ATOM     52  C   UNK d   0       7.229 -11.789  -2.154  0.00  0.00     0.120 A 
ATOM     53  H   UNK d   0       7.172 -13.206  -3.759  0.00  0.00     0.066 H 
ATOM     54  C   UNK d   0       7.117 -10.454  -1.794  0.00  0.00    -0.018 A 
ATOM     55  C   UNK d   0       6.869  -9.497  -2.760  0.00  0.00    -0.037 A 
ATOM     56  H   UNK d   0       7.229 -10.161  -0.761  0.00  0.00     0.066 H 
ATOM     57  H   UNK d   0       6.788  -8.457  -2.481  0.00  0.00     0.064 H 
BRANCH  52  58
ATOM     58  O   UNK d   0       7.478 -12.729  -1.204  0.00  0.00    -0.495 OA
BRANCH  58  59
ATOM     59  C   UNK d   0       8.836 -13.147  -1.045  0.00  0.00     0.079 C 
ATOM     60  H   UNK d   0       9.176 -13.633  -1.960  0.00  0.00     0.066 H 
ATOM     61  H   UNK d   0       9.462 -12.279  -0.840  0.00  0.00     0.066 H 
ATOM     62  H   UNK d   0       8.905 -13.849  -0.214  0.00  0.00     0.066 H 
ENDBRANCH  58  59
ENDBRANCH  52  58
ENDBRANCH  40  48
ENDBRANCH  22  37
TORSDOF 11
ENDMDL
MODEL 5
REMARK VINA RESULT:      -5.8      2.409      7.584
REMARK  8 active torsions:
REMARK  status: ('A' for Active; 'I' for Inactive)
REMARK    1  A    between atoms: CD1_1  and  CG1_2 
REMARK    2  A    between atoms: CG1_2  and  CB_3 
REMARK    3  A    between atoms: CB_3  and  CG2_5 
REMARK    4  A    between atoms: CB_3  and  CA_6 
REMARK       I    between atoms: CA_6  and  C_8 
REMARK       I    between atoms: CA_6  and  N_18 
REMARK       I    between atoms: C_8  and  N_10 
REMARK       I    between atoms: CA_14  and  C_16 
REMARK       I    between atoms: N_18  and  C_19 
REMARK    5  A    between atoms: C_19  and  C_21 
REMARK    6  A    between atoms: N_26  and  C_28 
REMARK    7  A    between atoms: C_31  and  O_34 
REMARK    8  A    between atoms: O_34  and  C_35 
ROOT
ATOM      1  CA  PRO d   1       6.490  -1.264  -6.266  0.00  0.00     0.102 C 
ATOM      2  HA  PRO d   1       7.362  -0.781  -5.825  0.00  0.00     0.060 H 
ATOM      3  C   PRO d   1       6.752  -2.740  -6.413  0.00  0.00     0.237 C 
ATOM      4  O   PRO d   1       6.346  -3.334  -7.388  0.00  0.00    -0.274 OA
ATOM      5  N   PRO d   1       7.438  -3.400  -5.458  0.00  0.00    -0.292 N 
ATOM      6  CD  PRO d   1       7.904  -2.827  -4.182  0.00  0.00     0.015 C 
ATOM      7  CG  PRO d   1       9.100  -3.712  -3.760  0.00  0.00    -0.035 C 
ATOM      8  CB  PRO d   1       8.630  -5.116  -4.224  0.00  0.00    -0.028 C 
ATOM      9  CA  PRO d   1       7.851  -4.809  -5.520  0.00  0.00     0.066 C 
ATOM     10  HA  PRO d   1       8.493  -4.970  -6.388  0.00  0.00     0.056 H 
ATOM     11  C   PRO d   1       6.636  -5.697  -5.611  0.00  0.00     0.062 C 
ATOM     12  O   PRO d   1       5.531  -5.209  -5.623  0.00  0.00    -0.548 OA
ATOM     13  N   PRO d   1       6.225  -0.681  -7.584  0.00  0.00    -0.303 N 
ATOM     14  HD1 PRO d   1       8.226  -1.796  -4.325  0.00  0.00     0.046 H 
ATOM     15  HD2 PRO d   1       7.114  -2.878  -3.433  0.00  0.00     0.046 H 
ATOM     16  HG1 PRO d   1       9.245  -3.686  -2.680  0.00  0.00     0.028 H 
ATOM     17  HG2 PRO d   1      10.007  -3.412  -4.282  0.00  0.00     0.028 H 
ATOM     18  HB1 PRO d   1       7.976  -5.570  -3.479  0.00  0.00     0.029 H 
ATOM     19  HB2 PRO d   1       9.483  -5.763  -4.430  0.00  0.00     0.029 H 
ATOM     20  H   PRO d   1       5.883  -1.239  -8.301  0.00  0.00     0.149 HD
ATOM     21  OXT PRO d   1       6.782  -7.029  -5.679  0.00  0.00    -0.548 OA
ATOM     22  C   UNK d   0       6.457   0.629  -7.802  0.00  0.00     0.219 C 
ATOM     23  O   UNK d   0       6.885   1.325  -6.906  0.00  0.00    -0.275 OA
ENDROOT
BRANCH   1  24
ATOM     24  CB  PRO d   1       5.275  -1.048  -5.360  0.00  0.00    -0.017 C 
ATOM     25  HB  PRO d   1       4.995  -1.994  -4.898  0.00  0.00     0.032 H 
BRANCH  24  26
ATOM     26  CG1 PRO d   1       5.624  -0.032  -4.272  0.00  0.00    -0.051 C 
ATOM     27 1HG1 PRO d   1       6.702   0.133  -4.260  0.00  0.00     0.027 H 
ATOM     28 2HG1 PRO d   1       5.116   0.910  -4.478  0.00  0.00     0.027 H 
BRANCH  26  29
ATOM     29  CD1 PRO d   1       5.175  -0.567  -2.911  0.00  0.00    -0.065 C 
ATOM     30 1HD1 PRO d   1       5.502  -1.601  -2.800  0.00  0.00     0.023 H 
ATOM     31 2HD1 PRO d   1       5.614   0.041  -2.119  0.00  0.00     0.023 H 
ATOM     32 3HD1 PRO d   1       4.088  -0.521  -2.844  0.00  0.00     0.023 H 
ENDBRANCH  26  29
ENDBRANCH  24  26
BRANCH  24  33
ATOM     33  CG2 PRO d   1       4.105  -0.521  -6.194  0.00  0.00    -0.060 C 
ATOM     34 1HG2 PRO d   1       4.365   0.450  -6.613  0.00  0.00     0.023 H 
ATOM     35 2HG2 PRO d   1       3.890  -1.220  -7.001  0.00  0.00     0.023 H 
ATOM     36 3HG2 PRO d   1       3.225  -0.418  -5.559  0.00  0.00     0.023 H 
ENDBRANCH  24  33
ENDBRANCH   1  24
BRANCH  22  37
ATOM     37  C   UNK d   0       6.184   1.227  -9.158  0.00  0.00     0.060 C 
ATOM     38  H   UNK d   0       7.093   1.656  -9.582  0.00  0.00     0.041 H 
ATOM     39  C   UNK d   0       5.565   0.178 -10.113  0.00  0.00     0.031 C 
ATOM     40  N   UNK d   0       4.112   0.334  -9.976  0.00  0.00    -0.271 N 
ATOM     41  H   UNK d   0       5.866  -0.826  -9.816  0.00  0.00     0.048 H 
ATOM     42  H   UNK d   0       5.870   0.375 -11.141  0.00  0.00     0.048 H 
ATOM     43  C   UNK d   0       3.799   1.510  -9.404  0.00  0.00     0.221 C 
ATOM     44  C   UNK d   0       5.058   2.283  -9.081  0.00  0.00     0.037 C 
ATOM     45  O   UNK d   0       2.670   1.895  -9.181  0.00  0.00    -0.275 OA
ATOM     46  H   UNK d   0       5.222   3.070  -9.816  0.00  0.00     0.037 H 
ATOM     47  H   UNK d   0       4.999   2.706  -8.078  0.00  0.00     0.037 H 
BRANCH  40  48
ATOM     48  C   UNK d   0       3.172  -0.619 -10.388  0.00  0.00     0.036 A 
ATOM     49  C   UNK d   0       2.649  -0.569 -11.673  0.00  0.00    -0.037 A 
ATOM     50  C   UNK d   0       1.723  -1.510 -12.080  0.00  0.00    -0.018 A 
ATOM     51  H   UNK d   0       2.966   0.206 -12.356  0.00  0.00     0.064 H 
ATOM     52  C   UNK d   0       1.316  -2.506 -11.203  0.00  0.00     0.120 A 
ATOM     53  H   UNK d   0       1.316  -1.471 -13.079  0.00  0.00     0.066 H 
ATOM     54  C   UNK d   0       1.838  -2.557  -9.919  0.00  0.00    -0.018 A 
ATOM     55  C   UNK d   0       2.768  -1.619  -9.513  0.00  0.00    -0.037 A 
ATOM     56  H   UNK d   0       1.521  -3.332  -9.237  0.00  0.00     0.066 H 
ATOM     57  H   UNK d   0       3.178  -1.662  -8.515  0.00  0.00     0.064 H 
BRANCH  52  58
ATOM     58  O   UNK d   0       0.405  -3.432 -11.604  0.00  0.00    -0.495 OA
BRANCH  58  59
ATOM     59  C   UNK d   0      -0.024  -4.384 -10.627  0.00  0.00     0.079 C 
ATOM     60  H   UNK d   0      -0.838  -4.983 -11.038  0.00  0.00     0.066 H 
ATOM     61  H   UNK d   0       0.810  -5.035 -10.364  0.00  0.00     0.066 H 
ATOM     62  H   UNK d   0      -0.372  -3.860  -9.738  0.00  0.00     0.066 H 
ENDBRANCH  58  59
ENDBRANCH  52  58
ENDBRANCH  40  48
ENDBRANCH  22  37
TORSDOF 11
ENDMDL
MODEL 6
REMARK VINA RESULT:      -5.7      3.059      5.544
REMARK  8 active torsions:
REMARK  status: ('A' for Active; 'I' for Inactive)
REMARK    1  A    between atoms: CD1_1  and  CG1_2 
REMARK    2  A    between atoms: CG1_2  and  CB_3 
REMARK    3  A    between atoms: CB_3  and  CG2_5 
REMARK    4  A    between atoms: CB_3  and  CA_6 
REMARK       I    between atoms: CA_6  and  C_8 
REMARK       I    between atoms: CA_6  and  N_18 
REMARK       I    between atoms: C_8  and  N_10 
REMARK       I    between atoms: CA_14  and  C_16 
REMARK       I    between atoms: N_18  and  C_19 
REMARK    5  A    between atoms: C_19  and  C_21 
REMARK    6  A    between atoms: N_26  and  C_28 
REMARK    7  A    between atoms: C_31  and  O_34 
REMARK    8  A    between atoms: O_34  and  C_35 
ROOT
ATOM      1  CA  PRO d   1       4.252  -3.787 -10.166  0.00  0.00     0.102 C 
ATOM      2  HA  PRO d   1       3.985  -4.016 -11.197  0.00  0.00     0.060 H 
ATOM      3  C   PRO d   1       3.889  -4.951  -9.281  0.00  0.00     0.237 C 
ATOM      4  O   PRO d   1       3.442  -4.754  -8.171  0.00  0.00    -0.274 OA
ATOM      5  N   PRO d   1       4.060  -6.213  -9.724  0.00  0.00    -0.292 N 
ATOM      6  CD  PRO d   1       4.678  -6.596 -11.007  0.00  0.00     0.015 C 
ATOM      7  CG  PRO d   1       4.102  -7.997 -11.324  0.00  0.00    -0.035 C 
ATOM      8  CB  PRO d   1       4.025  -8.632  -9.911  0.00  0.00    -0.028 C 
ATOM      9  CA  PRO d   1       3.656  -7.433  -9.012  0.00  0.00     0.066 C 
ATOM     10  HA  PRO d   1       2.580  -7.419  -8.833  0.00  0.00     0.056 H 
ATOM     11  C   PRO d   1       4.392  -7.529  -7.700  0.00  0.00     0.062 C 
ATOM     12  O   PRO d   1       5.178  -6.668  -7.384  0.00  0.00    -0.548 OA
ATOM     13  N   PRO d   1       3.523  -2.594  -9.727  0.00  0.00    -0.303 N 
ATOM     14  HD1 PRO d   1       4.405  -5.887 -11.787  0.00  0.00     0.046 H 
ATOM     15  HD2 PRO d   1       5.762  -6.649 -10.904  0.00  0.00     0.046 H 
ATOM     16  HG1 PRO d   1       4.775  -8.561 -11.970  0.00  0.00     0.028 H 
ATOM     17  HG2 PRO d   1       3.112  -7.915 -11.770  0.00  0.00     0.028 H 
ATOM     18  HB1 PRO d   1       4.991  -9.047  -9.621  0.00  0.00     0.029 H 
ATOM     19  HB2 PRO d   1       3.251  -9.398  -9.871  0.00  0.00     0.029 H 
ATOM     20  H   PRO d   1       3.219  -2.522  -8.808  0.00  0.00     0.149 HD
ATOM     21  OXT PRO d   1       4.174  -8.571  -6.883  0.00  0.00    -0.548 OA
ATOM     22  C   UNK d   0       3.272  -1.597 -10.599  0.00  0.00     0.219 C 
ATOM     23  O   UNK d   0       3.651  -1.688 -11.748  0.00  0.00    -0.275 OA
ENDROOT
BRANCH   1  24
ATOM     24  CB  PRO d   1       5.757  -3.526 -10.075  0.00  0.00    -0.017 C 
ATOM     25  HB  PRO d   1       6.249  -4.394  -9.638  0.00  0.00     0.032 H 
BRANCH  24  26
ATOM     26  CG1 PRO d   1       6.317  -3.273 -11.475  0.00  0.00    -0.051 C 
ATOM     27 1HG1 PRO d   1       6.957  -4.106 -11.767  0.00  0.00     0.027 H 
ATOM     28 2HG1 PRO d   1       5.493  -3.183 -12.184  0.00  0.00     0.027 H 
BRANCH  26  29
ATOM     29  CD1 PRO d   1       7.132  -1.978 -11.474  0.00  0.00    -0.065 C 
ATOM     30 1HD1 PRO d   1       7.895  -2.030 -10.697  0.00  0.00     0.023 H 
ATOM     31 2HD1 PRO d   1       7.610  -1.849 -12.445  0.00  0.00     0.023 H 
ATOM     32 3HD1 PRO d   1       6.472  -1.133 -11.278  0.00  0.00     0.023 H 
ENDBRANCH  26  29
ENDBRANCH  24  26
BRANCH  24  33
ATOM     33  CG2 PRO d   1       6.010  -2.300  -9.195  0.00  0.00    -0.060 C 
ATOM     34 1HG2 PRO d   1       7.020  -1.930  -9.368  0.00  0.00     0.023 H 
ATOM     35 2HG2 PRO d   1       5.290  -1.520  -9.442  0.00  0.00     0.023 H 
ATOM     36 3HG2 PRO d   1       5.900  -2.576  -8.146  0.00  0.00     0.023 H 
ENDBRANCH  24  33
ENDBRANCH   1  24
BRANCH  22  37
ATOM     37  C   UNK d   0       2.522  -0.371 -10.147  0.00  0.00     0.060 C 
ATOM     38  H   UNK d   0       1.666  -0.179 -10.795  0.00  0.00     0.041 H 
ATOM     39  C   UNK d   0       2.082  -0.502  -8.669  0.00  0.00     0.031 C 
ATOM     40  N   UNK d   0       3.159   0.114  -7.885  0.00  0.00    -0.271 N 
ATOM     41  H   UNK d   0       1.974  -1.552  -8.400  0.00  0.00     0.048 H 
ATOM     42  H   UNK d   0       1.144   0.027  -8.504  0.00  0.00     0.048 H 
ATOM     43  C   UNK d   0       3.943   0.889  -8.655  0.00  0.00     0.221 C 
ATOM     44  C   UNK d   0       3.457   0.859 -10.087  0.00  0.00     0.037 C 
ATOM     45  O   UNK d   0       4.900   1.520  -8.258  0.00  0.00    -0.275 OA
ATOM     46  H   UNK d   0       2.905   1.769 -10.322  0.00  0.00     0.037 H 
ATOM     47  H   UNK d   0       4.295   0.735 -10.772  0.00  0.00     0.037 H 
BRANCH  40  48
ATOM     48  C   UNK d   0       3.345  -0.079  -6.510  0.00  0.00     0.036 A 
ATOM     49  C   UNK d   0       4.314  -0.963  -6.057  0.00  0.00    -0.037 A 
ATOM     50  C   UNK d   0       4.498  -1.153  -4.701  0.00  0.00    -0.018 A 
ATOM     51  H   UNK d   0       4.927  -1.503  -6.765  0.00  0.00     0.064 H 
ATOM     52  C   UNK d   0       3.712  -0.460  -3.792  0.00  0.00     0.120 A 
ATOM     53  H   UNK d   0       5.252  -1.841  -4.349  0.00  0.00     0.066 H 
ATOM     54  C   UNK d   0       2.742   0.423  -4.243  0.00  0.00    -0.018 A 
ATOM     55  C   UNK d   0       2.562   0.618  -5.598  0.00  0.00    -0.037 A 
ATOM     56  H   UNK d   0       2.131   0.962  -3.535  0.00  0.00     0.066 H 
ATOM     57  H   UNK d   0       1.811   1.309  -5.950  0.00  0.00     0.064 H 
BRANCH  52  58
ATOM     58  O   UNK d   0       3.892  -0.647  -2.457  0.00  0.00    -0.495 OA
BRANCH  58  59
ATOM     59  C   UNK d   0       4.564   0.392  -1.741  0.00  0.00     0.079 C 
ATOM     60  H   UNK d   0       3.980   1.311  -1.803  0.00  0.00     0.066 H 
ATOM     61  H   UNK d   0       4.673   0.101  -0.696  0.00  0.00     0.066 H 
ATOM     62  H   UNK d   0       5.548   0.557  -2.178  0.00  0.00     0.066 H 
ENDBRANCH  58  59
ENDBRANCH  52  58
ENDBRANCH  40  48
ENDBRANCH  22  37
TORSDOF 11
ENDMDL
MODEL 7
REMARK VINA RESULT:      -5.7      6.447      9.088
REMARK  8 active torsions:
REMARK  status: ('A' for Active; 'I' for Inactive)
REMARK    1  A    between atoms: CD1_1  and  CG1_2 
REMARK    2  A    between atoms: CG1_2  and  CB_3 
REMARK    3  A    between atoms: CB_3  and  CG2_5 
REMARK    4  A    between atoms: CB_3  and  CA_6 
REMARK       I    between atoms: CA_6  and  C_8 
REMARK       I    between atoms: CA_6  and  N_18 
REMARK       I    between atoms: C_8  and  N_10 
REMARK       I    between atoms: CA_14  and  C_16 
REMARK       I    between atoms: N_18  and  C_19 
REMARK    5  A    between atoms: C_19  and  C_21 
REMARK    6  A    between atoms: N_26  and  C_28 
REMARK    7  A    between atoms: C_31  and  O_34 
REMARK    8  A    between atoms: O_34  and  C_35 
ROOT
ATOM      1  CA  PRO d   1       9.340   2.242  -5.079  0.00  0.00     0.102 C 
ATOM      2  HA  PRO d   1       9.753   2.037  -6.066  0.00  0.00     0.060 H 
ATOM      3  C   PRO d   1       8.042   1.494  -4.912  0.00  0.00     0.237 C 
ATOM      4  O   PRO d   1       7.117   2.009  -4.321  0.00  0.00    -0.274 OA
ATOM      5  N   PRO d   1       7.910   0.252  -5.419  0.00  0.00    -0.292 N 
ATOM      6  CD  PRO d   1       8.978  -0.527  -6.073  0.00  0.00     0.015 C 
ATOM      7  CG  PRO d   1       8.236  -1.530  -6.988  0.00  0.00    -0.035 C 
ATOM      8  CB  PRO d   1       6.993  -1.880  -6.128  0.00  0.00    -0.028 C 
ATOM      9  CA  PRO d   1       6.676  -0.546  -5.420  0.00  0.00     0.066 C 
ATOM     10  HA  PRO d   1       5.890  -0.015  -5.959  0.00  0.00     0.056 H 
ATOM     11  C   PRO d   1       6.236  -0.810  -4.002  0.00  0.00     0.062 C 
ATOM     12  O   PRO d   1       6.884  -0.378  -3.078  0.00  0.00    -0.548 OA
ATOM     13  N   PRO d   1       9.097   3.680  -4.940  0.00  0.00    -0.303 N 
ATOM     14  HD1 PRO d   1       9.616   0.128  -6.665  0.00  0.00     0.046 H 
ATOM     15  HD2 PRO d   1       9.567  -1.061  -5.328  0.00  0.00     0.046 H 
ATOM     16  HG1 PRO d   1       8.844  -2.415  -7.174  0.00  0.00     0.028 H 
ATOM     17  HG2 PRO d   1       7.942  -1.055  -7.924  0.00  0.00     0.028 H 
ATOM     18  HB1 PRO d   1       7.234  -2.655  -5.400  0.00  0.00     0.029 H 
ATOM     19  HB2 PRO d   1       6.160  -2.190  -6.758  0.00  0.00     0.029 H 
ATOM     20  H   PRO d   1       8.334   3.996  -4.429  0.00  0.00     0.149 HD
ATOM     21  OXT PRO d   1       5.125  -1.525  -3.767  0.00  0.00    -0.548 OA
ATOM     22  C   UNK d   0       9.931   4.565  -5.521  0.00  0.00     0.219 C 
ATOM     23  O   UNK d   0      10.884   4.170  -6.159  0.00  0.00    -0.275 OA
ENDROOT
BRANCH   1  24
ATOM     24  CB  PRO d   1      10.333   1.787  -4.006  0.00  0.00    -0.017 C 
ATOM     25  HB  PRO d   1       9.988   0.852  -3.567  0.00  0.00     0.032 H 
BRANCH  24  26
ATOM     26  CG1 PRO d   1      11.708   1.577  -4.641  0.00  0.00    -0.051 C 
ATOM     27 1HG1 PRO d   1      11.624   1.652  -5.726  0.00  0.00     0.027 H 
ATOM     28 2HG1 PRO d   1      12.397   2.340  -4.278  0.00  0.00     0.027 H 
BRANCH  26  29
ATOM     29  CD1 PRO d   1      12.238   0.192  -4.265  0.00  0.00    -0.065 C 
ATOM     30 1HD1 PRO d   1      11.584  -0.257  -3.517  0.00  0.00     0.023 H 
ATOM     31 2HD1 PRO d   1      12.264  -0.441  -5.153  0.00  0.00     0.023 H 
ATOM     32 3HD1 PRO d   1      13.245   0.287  -3.857  0.00  0.00     0.023 H 
ENDBRANCH  26  29
ENDBRANCH  24  26
BRANCH  24  33
ATOM     33  CG2 PRO d   1      10.432   2.857  -2.916  0.00  0.00    -0.060 C 
ATOM     34 1HG2 PRO d   1       9.811   2.569  -2.068  0.00  0.00     0.023 H 
ATOM     35 2HG2 PRO d   1      11.467   2.952  -2.594  0.00  0.00     0.023 H 
ATOM     36 3HG2 PRO d   1      10.085   3.811  -3.312  0.00  0.00     0.023 H 
ENDBRANCH  24  33
ENDBRANCH   1  24
BRANCH  22  37
ATOM     37  C   UNK d   0       9.680   6.044  -5.378  0.00  0.00     0.060 C 
ATOM     38  H   UNK d   0       8.903   6.373  -6.067  0.00  0.00     0.041 H 
ATOM     39  C   UNK d   0       9.320   6.407  -3.917  0.00  0.00     0.031 C 
ATOM     40  N   UNK d   0      10.592   6.765  -3.278  0.00  0.00    -0.271 N 
ATOM     41  H   UNK d   0       8.875   5.549  -3.414  0.00  0.00     0.048 H 
ATOM     42  H   UNK d   0       8.635   7.254  -3.895  0.00  0.00     0.048 H 
ATOM     43  C   UNK d   0      11.542   7.024  -4.193  0.00  0.00     0.221 C 
ATOM     44  C   UNK d   0      10.984   6.849  -5.587  0.00  0.00     0.037 C 
ATOM     45  O   UNK d   0      12.682   7.351  -3.936  0.00  0.00    -0.275 OA
ATOM     46  H   UNK d   0      10.765   7.818  -6.036  0.00  0.00     0.037 H 
ATOM     47  H   UNK d   0      11.681   6.290  -6.210  0.00  0.00     0.037 H 
BRANCH  40  48
ATOM     48  C   UNK d   0      10.789   6.830  -1.892  0.00  0.00     0.036 A 
ATOM     49  C   UNK d   0      11.200   5.703  -1.195  0.00  0.00    -0.037 A 
ATOM     50  C   UNK d   0      11.395   5.768   0.171  0.00  0.00    -0.018 A 
ATOM     51  H   UNK d   0      11.368   4.774  -1.721  0.00  0.00     0.064 H 
ATOM     52  C   UNK d   0      11.179   6.960   0.846  0.00  0.00     0.120 A 
ATOM     53  H   UNK d   0      11.715   4.890   0.713  0.00  0.00     0.066 H 
ATOM     54  C   UNK d   0      10.767   8.088   0.150  0.00  0.00    -0.018 A 
ATOM     55  C   UNK d   0      10.578   8.025  -1.216  0.00  0.00    -0.037 A 
ATOM     56  H   UNK d   0      10.600   9.016   0.676  0.00  0.00     0.066 H 
ATOM     57  H   UNK d   0      10.263   8.904  -1.759  0.00  0.00     0.064 H 
BRANCH  52  58
ATOM     58  O   UNK d   0      11.371   7.024   2.190  0.00  0.00    -0.495 OA
BRANCH  58  59
ATOM     59  C   UNK d   0      10.870   5.935   2.969  0.00  0.00     0.079 C 
ATOM     60  H   UNK d   0      10.573   6.298   3.953  0.00  0.00     0.066 H 
ATOM     61  H   UNK d   0      10.007   5.496   2.468  0.00  0.00     0.066 H 
ATOM     62  H   UNK d   0      11.648   5.180   3.082  0.00  0.00     0.066 H 
ENDBRANCH  58  59
ENDBRANCH  52  58
ENDBRANCH  40  48
ENDBRANCH  22  37
TORSDOF 11
ENDMDL
MODEL 8
REMARK VINA RESULT:      -5.7     10.442     13.299
REMARK  8 active torsions:
REMARK  status: ('A' for Active; 'I' for Inactive)
REMARK    1  A    between atoms: CD1_1  and  CG1_2 
REMARK    2  A    between atoms: CG1_2  and  CB_3 
REMARK    3  A    between atoms: CB_3  and  CG2_5 
REMARK    4  A    between atoms: CB_3  and  CA_6 
REMARK       I    between atoms: CA_6  and  C_8 
REMARK       I    between atoms: CA_6  and  N_18 
REMARK       I    between atoms: C_8  and  N_10 
REMARK       I    between atoms: CA_14  and  C_16 
REMARK       I    between atoms: N_18  and  C_19 
REMARK    5  A    between atoms: C_19  and  C_21 
REMARK    6  A    between atoms: N_26  and  C_28 
REMARK    7  A    between atoms: C_31  and  O_34 
REMARK    8  A    between atoms: O_34  and  C_35 
ROOT
ATOM      1  CA  PRO d   1      11.026  10.750  -3.246  0.00  0.00     0.102 C 
ATOM      2  HA  PRO d   1      11.267  11.513  -2.507  0.00  0.00     0.060 H 
ATOM      3  C   PRO d   1      10.182  11.355  -4.337  0.00  0.00     0.237 C 
ATOM      4  O   PRO d   1       9.278  10.715  -4.831  0.00  0.00    -0.274 OA
ATOM      5  N   PRO d   1      10.431  12.609  -4.765  0.00  0.00    -0.292 N 
ATOM      6  CD  PRO d   1      11.551  13.461  -4.323  0.00  0.00     0.015 C 
ATOM      7  CG  PRO d   1      11.075  14.910  -4.579  0.00  0.00    -0.035 C 
ATOM      8  CB  PRO d   1      10.274  14.749  -5.898  0.00  0.00    -0.028 C 
ATOM      9  CA  PRO d   1       9.628  13.356  -5.743  0.00  0.00     0.066 C 
ATOM     10  HA  PRO d   1       8.604  13.459  -5.381  0.00  0.00     0.056 H 
ATOM     11  C   PRO d   1       9.634  12.637  -7.068  0.00  0.00     0.062 C 
ATOM     12  O   PRO d   1      10.246  11.603  -7.191  0.00  0.00    -0.548 OA
ATOM     13  N   PRO d   1      10.286   9.662  -2.602  0.00  0.00    -0.303 N 
ATOM     14  HD1 PRO d   1      11.749  13.307  -3.263  0.00  0.00     0.046 H 
ATOM     15  HD2 PRO d   1      12.443  13.248  -4.911  0.00  0.00     0.046 H 
ATOM     16  HG1 PRO d   1      11.921  15.583  -4.716  0.00  0.00     0.028 H 
ATOM     17  HG2 PRO d   1      10.431  15.254  -3.771  0.00  0.00     0.028 H 
ATOM     18  HB1 PRO d   1      10.942  14.770  -6.760  0.00  0.00     0.029 H 
ATOM     19  HB2 PRO d   1       9.510  15.521  -5.985  0.00  0.00     0.029 H 
ATOM     20  H   PRO d   1       9.587   9.196  -3.089  0.00  0.00     0.149 HD
ATOM     21  OXT PRO d   1       8.959  13.146  -8.110  0.00  0.00    -0.548 OA
ATOM     22  C   UNK d   0      10.574   9.308  -1.334  0.00  0.00     0.219 C 
ATOM     23  O   UNK d   0      11.447   9.890  -0.726  0.00  0.00    -0.275 OA
ENDROOT
BRANCH   1  24
ATOM     24  CB  PRO d   1      12.321  10.198  -3.849  0.00  0.00    -0.017 C 
ATOM     25  HB  PRO d   1      12.445  10.587  -4.859  0.00  0.00     0.032 H 
BRANCH  24  26
ATOM     26  CG1 PRO d   1      13.508  10.628  -2.987  0.00  0.00    -0.051 C 
ATOM     27 1HG1 PRO d   1      14.112  11.353  -3.535  0.00  0.00     0.027 H 
ATOM     28 2HG1 PRO d   1      13.143  11.083  -2.066  0.00  0.00     0.027 H 
BRANCH  26  29
ATOM     29  CD1 PRO d   1      14.363   9.405  -2.647  0.00  0.00    -0.065 C 
ATOM     30 1HD1 PRO d   1      15.000   9.633  -1.793  0.00  0.00     0.023 H 
ATOM     31 2HD1 PRO d   1      13.713   8.565  -2.403  0.00  0.00     0.023 H 
ATOM     32 3HD1 PRO d   1      14.984   9.147  -3.505  0.00  0.00     0.023 H 
ENDBRANCH  26  29
ENDBRANCH  24  26
BRANCH  24  33
ATOM     33  CG2 PRO d   1      12.251   8.670  -3.896  0.00  0.00    -0.060 C 
ATOM     34 1HG2 PRO d   1      13.259   8.259  -3.861  0.00  0.00     0.023 H 
ATOM     35 2HG2 PRO d   1      11.679   8.306  -3.044  0.00  0.00     0.023 H 
ATOM     36 3HG2 PRO d   1      11.764   8.358  -4.820  0.00  0.00     0.023 H 
ENDBRANCH  24  33
ENDBRANCH   1  24
BRANCH  22  37
ATOM     37  C   UNK d   0       9.812   8.189  -0.672  0.00  0.00     0.060 C 
ATOM     38  H   UNK d   0       9.130   8.579   0.084  0.00  0.00     0.041 H 
ATOM     39  C   UNK d   0       9.055   7.338  -1.719  0.00  0.00     0.031 C 
ATOM     40  N   UNK d   0       9.967   6.240  -2.065  0.00  0.00    -0.271 N 
ATOM     41  H   UNK d   0       8.833   7.935  -2.602  0.00  0.00     0.048 H 
ATOM     42  H   UNK d   0       8.134   6.941  -1.292  0.00  0.00     0.048 H 
ATOM     43  C   UNK d   0      10.941   6.108  -1.148  0.00  0.00     0.221 C 
ATOM     44  C   UNK d   0      10.778   7.147  -0.061  0.00  0.00     0.037 C 
ATOM     45  O   UNK d   0      11.823   5.275  -1.186  0.00  0.00    -0.275 OA
ATOM     46  H   UNK d   0      10.341   6.700   0.832  0.00  0.00     0.037 H 
ATOM     47  H   UNK d   0      11.737   7.608   0.174  0.00  0.00     0.037 H 
BRANCH  40  48
ATOM     48  C   UNK d   0       9.839   5.435  -3.204  0.00  0.00     0.036 A 
ATOM     49  C   UNK d   0       9.869   6.009  -4.468  0.00  0.00    -0.037 A 
ATOM     50  C   UNK d   0       9.743   5.214  -5.591  0.00  0.00    -0.018 A 
ATOM     51  H   UNK d   0       9.993   7.077  -4.573  0.00  0.00     0.064 H 
ATOM     52  C   UNK d   0       9.585   3.843  -5.455  0.00  0.00     0.120 A 
ATOM     53  H   UNK d   0       9.767   5.661  -6.574  0.00  0.00     0.066 H 
ATOM     54  C   UNK d   0       9.553   3.269  -4.193  0.00  0.00    -0.018 A 
ATOM     55  C   UNK d   0       9.685   4.061  -3.070  0.00  0.00    -0.037 A 
ATOM     56  H   UNK d   0       9.430   2.201  -4.088  0.00  0.00     0.066 H 
ATOM     57  H   UNK d   0       9.666   3.614  -2.087  0.00  0.00     0.064 H 
BRANCH  52  58
ATOM     58  O   UNK d   0       9.461   3.061  -6.560  0.00  0.00    -0.495 OA
BRANCH  58  59
ATOM     59  C   UNK d   0       9.479   3.721  -7.828  0.00  0.00     0.079 C 
ATOM     60  H   UNK d   0       9.931   3.066  -8.573  0.00  0.00     0.066 H 
ATOM     61  H   UNK d   0       8.459   3.962  -8.127  0.00  0.00     0.066 H 
ATOM     62  H   UNK d   0      10.061   4.639  -7.751  0.00  0.00     0.066 H 
ENDBRANCH  58  59
ENDBRANCH  52  58
ENDBRANCH  40  48
ENDBRANCH  22  37
TORSDOF 11
ENDMDL
MODEL 9
REMARK VINA RESULT:      -5.7      3.907      6.565
REMARK  8 active torsions:
REMARK  status: ('A' for Active; 'I' for Inactive)
REMARK    1  A    between atoms: CD1_1  and  CG1_2 
REMARK    2  A    between atoms: CG1_2  and  CB_3 
REMARK    3  A    between atoms: CB_3  and  CG2_5 
REMARK    4  A    between atoms: CB_3  and  CA_6 
REMARK       I    between atoms: CA_6  and  C_8 
REMARK       I    between atoms: CA_6  and  N_18 
REMARK       I    between atoms: C_8  and  N_10 
REMARK       I    between atoms: CA_14  and  C_16 
REMARK       I    between atoms: N_18  and  C_19 
REMARK    5  A    between atoms: C_19  and  C_21 
REMARK    6  A    between atoms: N_26  and  C_28 
REMARK    7  A    between atoms: C_31  and  O_34 
REMARK    8  A    between atoms: O_34  and  C_35 
ROOT
ATOM      1  CA  PRO d   1       6.680  -0.593  -5.715  0.00  0.00     0.102 C 
ATOM      2  HA  PRO d   1       6.958  -1.638  -5.854  0.00  0.00     0.060 H 
ATOM      3  C   PRO d   1       5.806  -0.149  -6.859  0.00  0.00     0.237 C 
ATOM      4  O   PRO d   1       5.924   0.969  -7.313  0.00  0.00    -0.274 OA
ATOM      5  N   PRO d   1       4.893  -0.994  -7.377  0.00  0.00    -0.292 N 
ATOM      6  CD  PRO d   1       4.578  -2.340  -6.863  0.00  0.00     0.015 C 
ATOM      7  CG  PRO d   1       3.992  -3.102  -8.074  0.00  0.00    -0.035 C 
ATOM      8  CB  PRO d   1       3.186  -1.986  -8.788  0.00  0.00    -0.028 C 
ATOM      9  CA  PRO d   1       4.051  -0.730  -8.553  0.00  0.00     0.066 C 
ATOM     10  HA  PRO d   1       4.679  -0.541  -9.424  0.00  0.00     0.056 H 
ATOM     11  C   PRO d   1       3.166   0.462  -8.291  0.00  0.00     0.062 C 
ATOM     12  O   PRO d   1       3.225   1.038  -7.231  0.00  0.00    -0.548 OA
ATOM     13  N   PRO d   1       7.889   0.232  -5.673  0.00  0.00    -0.303 N 
ATOM     14  HD1 PRO d   1       5.483  -2.831  -6.506  0.00  0.00     0.046 H 
ATOM     15  HD2 PRO d   1       3.840  -2.276  -6.064  0.00  0.00     0.046 H 
ATOM     16  HG1 PRO d   1       3.336  -3.910  -7.749  0.00  0.00     0.028 H 
ATOM     17  HG2 PRO d   1       4.787  -3.480  -8.716  0.00  0.00     0.028 H 
ATOM     18  HB1 PRO d   1       2.202  -1.867  -8.332  0.00  0.00     0.029 H 
ATOM     19  HB2 PRO d   1       3.091  -2.195  -9.854  0.00  0.00     0.029 H 
ATOM     20  H   PRO d   1       7.879   1.127  -6.051  0.00  0.00     0.149 HD
ATOM     21  OXT PRO d   1       2.311   0.882  -9.237  0.00  0.00    -0.548 OA
ATOM     22  C   UNK d   0       9.016  -0.248  -5.111  0.00  0.00     0.219 C 
ATOM     23  O   UNK d   0       9.029  -1.365  -4.640  0.00  0.00    -0.275 OA
ENDROOT
BRANCH   1  24
ATOM     24  CB  PRO d   1       5.914  -0.442  -4.398  0.00  0.00    -0.017 C 
ATOM     25  HB  PRO d   1       4.864  -0.245  -4.611  0.00  0.00     0.032 H 
BRANCH  24  26
ATOM     26  CG1 PRO d   1       6.038  -1.730  -3.584  0.00  0.00    -0.051 C 
ATOM     27 1HG1 PRO d   1       6.221  -2.569  -4.257  0.00  0.00     0.027 H 
ATOM     28 2HG1 PRO d   1       6.869  -1.639  -2.884  0.00  0.00     0.027 H 
BRANCH  26  29
ATOM     29  CD1 PRO d   1       4.741  -1.972  -2.809  0.00  0.00    -0.065 C 
ATOM     30 1HD1 PRO d   1       4.620  -3.039  -2.626  0.00  0.00     0.023 H 
ATOM     31 2HD1 PRO d   1       4.784  -1.442  -1.857  0.00  0.00     0.023 H 
ATOM     32 3HD1 PRO d   1       3.896  -1.604  -3.391  0.00  0.00     0.023 H 
ENDBRANCH  26  29
ENDBRANCH  24  26
BRANCH  24  33
ATOM     33  CG2 PRO d   1       6.499   0.725  -3.599  0.00  0.00    -0.060 C 
ATOM     34 1HG2 PRO d   1       7.095   1.355  -4.260  0.00  0.00     0.023 H 
ATOM     35 2HG2 PRO d   1       5.690   1.313  -3.168  0.00  0.00     0.023 H 
ATOM     36 3HG2 PRO d   1       7.132   0.337  -2.801  0.00  0.00     0.023 H 
ENDBRANCH  24  33
ENDBRANCH   1  24
BRANCH  22  37
ATOM     37  C   UNK d   0      10.260   0.602  -5.070  0.00  0.00     0.060 C 
ATOM     38  H   UNK d   0      11.127   0.006  -4.785  0.00  0.00     0.041 H 
ATOM     39  C   UNK d   0      10.492   1.311  -6.425  0.00  0.00     0.031 C 
ATOM     40  N   UNK d   0       9.838   2.619  -6.300  0.00  0.00    -0.271 N 
ATOM     41  H   UNK d   0      10.038   0.739  -7.234  0.00  0.00     0.048 H 
ATOM     42  H   UNK d   0      11.559   1.440  -6.608  0.00  0.00     0.048 H 
ATOM     43  C   UNK d   0       9.598   2.924  -5.013  0.00  0.00     0.221 C 
ATOM     44  C   UNK d   0      10.076   1.804  -4.115  0.00  0.00     0.037 C 
ATOM     45  O   UNK d   0       9.073   3.948  -4.627  0.00  0.00    -0.275 OA
ATOM     46  H   UNK d   0      11.025   2.068  -3.648  0.00  0.00     0.037 H 
ATOM     47  H   UNK d   0       9.329   1.578  -3.356  0.00  0.00     0.037 H 
BRANCH  40  48
ATOM     48  C   UNK d   0       9.507   3.444  -7.383  0.00  0.00     0.036 A 
ATOM     49  C   UNK d   0       8.633   2.991  -8.361  0.00  0.00    -0.037 A 
ATOM     50  C   UNK d   0       8.306   3.805  -9.428  0.00  0.00    -0.018 A 
ATOM     51  H   UNK d   0       8.207   2.000  -8.287  0.00  0.00     0.064 H 
ATOM     52  C   UNK d   0       8.853   5.076  -9.522  0.00  0.00     0.120 A 
ATOM     53  H   UNK d   0       7.626   3.451 -10.189  0.00  0.00     0.066 H 
ATOM     54  C   UNK d   0       9.727   5.531  -8.546  0.00  0.00    -0.018 A 
ATOM     55  C   UNK d   0      10.050   4.719  -7.476  0.00  0.00    -0.037 A 
ATOM     56  H   UNK d   0      10.152   6.520  -8.619  0.00  0.00     0.066 H 
ATOM     57  H   UNK d   0      10.726   5.075  -6.713  0.00  0.00     0.064 H 
BRANCH  52  58
ATOM     58  O   UNK d   0       8.532   5.877 -10.573  0.00  0.00    -0.495 OA
BRANCH  58  59
ATOM     59  C   UNK d   0       9.589   6.648 -11.148  0.00  0.00     0.079 C 
ATOM     60  H   UNK d   0      10.073   6.069 -11.935  0.00  0.00     0.066 H 
ATOM     61  H   UNK d   0       9.181   7.566 -11.570  0.00  0.00     0.066 H 
ATOM     62  H   UNK d   0      10.320   6.894 -10.378  0.00  0.00     0.066 H 
ENDBRANCH  58  59
ENDBRANCH  52  58
ENDBRANCH  40  48
ENDBRANCH  22  37
TORSDOF 11
ENDMDL
