MODEL 1
REMARK VINA RESULT:      -7.5      0.000      0.000
REMARK  7 active torsions:
REMARK  status: ('A' for Active; 'I' for Inactive)
REMARK    1  A    between atoms: C_1  and  C_2 
REMARK    2  A    between atoms: C_8  and  C_36 
REMARK    3  A    between atoms: C_9  and  O_35 
REMARK    4  A    between atoms: C_19  and  C_21 
REMARK    5  A    between atoms: C_21  and  N_66 
REMARK    6  A    between atoms: C_24  and  C_27 
REMARK    7  A    between atoms: C_24  and  O_34 
ROOT
ATOM      1  C   LIG d   1       4.484  -1.222  -2.464  0.00  0.00    -0.032 C 
ATOM      2  H   LIG d   1       5.132  -1.493  -1.616  0.00  0.00     0.031 H 
ATOM      3  C   LIG d   1       3.868   0.142  -2.159  0.00  0.00    -0.046 C 
ATOM      4  C   LIG d   1       5.020   1.100  -1.827  0.00  0.00    -0.034 C 
ATOM      5  C   LIG d   1       5.919   1.151  -3.032  0.00  0.00    -0.084 C 
ATOM      6  C   LIG d   1       6.049   0.149  -3.850  0.00  0.00    -0.061 C 
ATOM      7  C   LIG d   1       5.360  -1.184  -3.705  0.00  0.00     0.018 C 
ATOM      8  C   LIG d   1       4.603  -1.504  -4.980  0.00  0.00     0.072 C 
ATOM      9  H   LIG d   1       3.613  -1.028  -4.939  0.00  0.00     0.061 H 
ATOM     10  C   LIG d   1       5.247  -1.096  -6.273  0.00  0.00     0.041 C 
ATOM     11  H   LIG d   1       4.420  -0.967  -7.002  0.00  0.00     0.037 H 
ATOM     12  C   LIG d   1       6.069   0.195  -6.304  0.00  0.00     0.113 C 
ATOM     13  H   LIG d   1       5.450   1.084  -6.456  0.00  0.00     0.074 H 
ATOM     14  C   LIG d   1       6.951   0.323  -5.054  0.00  0.00     0.006 C 
ATOM     15  O   LIG d   1       6.999  -0.040  -7.427  0.00  0.00    -0.460 OA
ATOM     16  C   LIG d   1       7.397  -1.329  -7.326  0.00  0.00     0.316 C 
ATOM     17  O   LIG d   1       8.501  -1.756  -7.548  0.00  0.00    -0.250 OA
ATOM     18  C   LIG d   1       6.196  -2.144  -6.872  0.00  0.00     0.105 C 
ATOM     19  H   LIG d   1       6.495  -2.886  -6.136  0.00  0.00     0.047 H 
ATOM     20  H   LIG d   1       3.328   0.506  -3.028  0.00  0.00     0.027 H 
ATOM     21  H   LIG d   1       3.197   0.065  -1.305  0.00  0.00     0.027 H 
ATOM     22  H   LIG d   1       4.631   2.094  -1.619  0.00  0.00     0.031 H 
ATOM     23  H   LIG d   1       5.574   0.725  -0.969  0.00  0.00     0.031 H 
ATOM     24  H   LIG d   1       6.477   2.053  -3.226  0.00  0.00     0.057 H 
ATOM     25  H   LIG d   1       7.729  -0.430  -5.066  0.00  0.00     0.035 H 
ATOM     26  H   LIG d   1       7.395   1.318  -5.032  0.00  0.00     0.035 H 
ENDROOT
BRANCH  18  27
ATOM     27  C   LIG d   1       5.539  -2.828  -8.079  0.00  0.00    -0.018 C 
ATOM     28  H   LIG d   1       4.547  -2.406  -8.239  0.00  0.00     0.082 H 
ATOM     29  H   LIG d   1       6.152  -2.666  -8.966  0.00  0.00     0.082 H 
BRANCH  27  30
ATOM     30  N   LIG d   1       5.449  -4.278  -7.808  0.00  0.00     0.236 N 
ATOM     31  C   LIG d   1       4.034  -4.676  -7.656  0.00  0.00    -0.029 C 
ATOM     32  C   LIG d   1       3.959  -6.195  -7.495  0.00  0.00     0.021 C 
ATOM     33  H   LIG d   1       3.593  -4.195  -6.782  0.00  0.00     0.082 H 
ATOM     34  H   LIG d   1       3.485  -4.378  -8.549  0.00  0.00     0.082 H 
ATOM     35  C   LIG d   1       4.748  -6.611  -6.250  0.00  0.00     0.101 C 
ATOM     36  H   LIG d   1       4.388  -6.676  -8.374  0.00  0.00     0.035 H 
ATOM     37  H   LIG d   1       2.918  -6.499  -7.384  0.00  0.00     0.035 H 
ATOM     38  C   LIG d   1       6.195  -6.128  -6.387  0.00  0.00     0.021 C 
ATOM     39  C   LIG d   1       6.204  -4.609  -6.581  0.00  0.00    -0.029 C 
ATOM     40  H   LIG d   1       6.658  -6.607  -7.249  0.00  0.00     0.035 H 
ATOM     41  H   LIG d   1       6.751  -6.384  -5.485  0.00  0.00     0.035 H 
ATOM     42  H   LIG d   1       7.232  -4.264  -6.692  0.00  0.00     0.082 H 
ATOM     43  H   LIG d   1       5.753  -4.130  -5.711  0.00  0.00     0.082 H 
ATOM     44  H   LIG d   1       5.856  -4.790  -8.598  0.00  0.00     0.203 HD
BRANCH  35  45
ATOM     45  C   LIG d   1       4.729  -8.112  -6.119  0.00  0.00    -0.016 A 
ATOM     46  C   LIG d   1       4.840  -8.699  -4.872  0.00  0.00    -0.054 A 
ATOM     47  C   LIG d   1       4.823 -10.075  -4.752  0.00  0.00    -0.043 A 
ATOM     48  H   LIG d   1       4.942  -8.080  -3.992  0.00  0.00     0.062 H 
ATOM     49  C   LIG d   1       4.693 -10.867  -5.879  0.00  0.00     0.041 A 
ATOM     50  H   LIG d   1       4.909 -10.533  -3.778  0.00  0.00     0.063 H 
ATOM     51  C   LIG d   1       4.582 -10.279  -7.128  0.00  0.00    -0.043 A 
ATOM     52 CL   LIG d   1       4.671 -12.596  -5.729  0.00  0.00    -0.084 Cl
ATOM     53  C   LIG d   1       4.595  -8.902  -7.246  0.00  0.00    -0.054 A 
ATOM     54  H   LIG d   1       4.481 -10.896  -8.008  0.00  0.00     0.063 H 
ATOM     55  H   LIG d   1       4.503  -8.443  -8.219  0.00  0.00     0.062 H 
ENDBRANCH  35  45
BRANCH  35  56
ATOM     56  O   LIG d   1       4.156  -6.023  -5.090  0.00  0.00    -0.384 OA
ATOM     57  H   LIG d   1       4.010  -6.645  -4.364  0.00  0.00     0.211 HD
ENDBRANCH  35  56
ENDBRANCH  27  30
ENDBRANCH  18  27
BRANCH   8  58
ATOM     58  O   LIG d   1       4.396  -2.927  -5.059  0.00  0.00    -0.391 OA
ATOM     59  H   LIG d   1       3.475  -3.199  -4.944  0.00  0.00     0.210 HD
ENDBRANCH   8  58
BRANCH   7  60
ATOM     60  C   LIG d   1       6.448  -2.249  -3.500  0.00  0.00    -0.053 C 
ATOM     61  H   LIG d   1       6.329  -3.039  -4.241  0.00  0.00     0.024 H 
ATOM     62  H   LIG d   1       7.431  -1.791  -3.611  0.00  0.00     0.024 H 
ATOM     63  H   LIG d   1       6.357  -2.674  -2.500  0.00  0.00     0.024 H 
ENDBRANCH   7  60
BRANCH   1  64
ATOM     64  C   LIG d   1       3.380  -2.267  -2.562  0.00  0.00    -0.061 C 
ATOM     65  H   LIG d   1       2.596  -2.036  -1.841  0.00  0.00     0.023 H 
ATOM     66  H   LIG d   1       2.962  -2.259  -3.569  0.00  0.00     0.023 H 
ATOM     67  H   LIG d   1       3.792  -3.252  -2.347  0.00  0.00     0.023 H 
ENDBRANCH   1  64
TORSDOF 7
ENDMDL
MODEL 2
REMARK VINA RESULT:      -7.5      5.584      9.899
REMARK  7 active torsions:
REMARK  status: ('A' for Active; 'I' for Inactive)
REMARK    1  A    between atoms: C_1  and  C_2 
REMARK    2  A    between atoms: C_8  and  C_36 
REMARK    3  A    between atoms: C_9  and  O_35 
REMARK    4  A    between atoms: C_19  and  C_21 
REMARK    5  A    between atoms: C_21  and  N_66 
REMARK    6  A    between atoms: C_24  and  C_27 
REMARK    7  A    between atoms: C_24  and  O_34 
ROOT
ATOM      1  C   LIG d   1       4.413   0.018  -3.099  0.00  0.00    -0.032 C 
ATOM      2  H   LIG d   1       3.413   0.094  -3.555  0.00  0.00     0.031 H 
ATOM      3  C   LIG d   1       4.293  -0.876  -1.866  0.00  0.00    -0.046 C 
ATOM      4  C   LIG d   1       3.628  -2.185  -2.314  0.00  0.00    -0.034 C 
ATOM      5  C   LIG d   1       4.514  -2.799  -3.363  0.00  0.00    -0.084 C 
ATOM      6  C   LIG d   1       5.264  -2.085  -4.148  0.00  0.00    -0.061 C 
ATOM      7  C   LIG d   1       5.340  -0.580  -4.144  0.00  0.00     0.018 C 
ATOM      8  C   LIG d   1       6.784  -0.145  -3.980  0.00  0.00     0.072 C 
ATOM      9  H   LIG d   1       7.033  -0.125  -2.910  0.00  0.00     0.061 H 
ATOM     10  C   LIG d   1       7.826  -0.976  -4.671  0.00  0.00     0.041 C 
ATOM     11  H   LIG d   1       8.766  -0.830  -4.099  0.00  0.00     0.037 H 
ATOM     12  C   LIG d   1       7.603  -2.487  -4.778  0.00  0.00     0.113 C 
ATOM     13  H   LIG d   1       7.924  -3.023  -3.880  0.00  0.00     0.074 H 
ATOM     14  C   LIG d   1       6.147  -2.809  -5.143  0.00  0.00     0.006 C 
ATOM     15  O   LIG d   1       8.403  -2.849  -5.965  0.00  0.00    -0.460 OA
ATOM     16  C   LIG d   1       8.199  -1.868  -6.873  0.00  0.00     0.316 C 
ATOM     17  O   LIG d   1       8.088  -2.007  -8.065  0.00  0.00    -0.250 OA
ATOM     18  C   LIG d   1       8.126  -0.551  -6.116  0.00  0.00     0.105 C 
ATOM     19  H   LIG d   1       7.341   0.080  -6.523  0.00  0.00     0.047 H 
ATOM     20  H   LIG d   1       5.280  -1.084  -1.464  0.00  0.00     0.027 H 
ATOM     21  H   LIG d   1       3.676  -0.390  -1.113  0.00  0.00     0.027 H 
ATOM     22  H   LIG d   1       3.536  -2.864  -1.469  0.00  0.00     0.031 H 
ATOM     23  H   LIG d   1       2.648  -1.973  -2.735  0.00  0.00     0.031 H 
ATOM     24  H   LIG d   1       4.528  -3.872  -3.468  0.00  0.00     0.057 H 
ATOM     25  H   LIG d   1       5.935  -2.486  -6.155  0.00  0.00     0.035 H 
ATOM     26  H   LIG d   1       5.987  -3.884  -5.053  0.00  0.00     0.035 H 
ENDROOT
BRANCH  18  27
ATOM     27  C   LIG d   1       9.478   0.171  -6.187  0.00  0.00    -0.018 C 
ATOM     28  H   LIG d   1      10.266  -0.499  -5.846  0.00  0.00     0.082 H 
ATOM     29  H   LIG d   1       9.675   0.472  -7.217  0.00  0.00     0.082 H 
BRANCH  27  30
ATOM     30  N   LIG d   1       9.415   1.375  -5.333  0.00  0.00     0.236 N 
ATOM     31  C   LIG d   1       9.514   2.591  -6.166  0.00  0.00    -0.029 C 
ATOM     32  C   LIG d   1       9.329   3.822  -5.276  0.00  0.00     0.021 C 
ATOM     33  H   LIG d   1      10.488   2.641  -6.657  0.00  0.00     0.082 H 
ATOM     34  H   LIG d   1       8.729   2.568  -6.921  0.00  0.00     0.082 H 
ATOM     35  C   LIG d   1      10.423   3.840  -4.205  0.00  0.00     0.101 C 
ATOM     36  H   LIG d   1       8.351   3.779  -4.796  0.00  0.00     0.035 H 
ATOM     37  H   LIG d   1       9.398   4.725  -5.882  0.00  0.00     0.035 H 
ATOM     38  C   LIG d   1      10.356   2.541  -3.396  0.00  0.00     0.021 C 
ATOM     39  C   LIG d   1      10.512   1.348  -4.342  0.00  0.00    -0.029 C 
ATOM     40  H   LIG d   1       9.395   2.479  -2.887  0.00  0.00     0.035 H 
ATOM     41  H   LIG d   1      11.160   2.530  -2.659  0.00  0.00     0.035 H 
ATOM     42  H   LIG d   1      10.451   0.421  -3.771  0.00  0.00     0.082 H 
ATOM     43  H   LIG d   1      11.481   1.404  -4.840  0.00  0.00     0.082 H 
ATOM     44  H   LIG d   1       8.517   1.385  -4.836  0.00  0.00     0.203 HD
BRANCH  35  45
ATOM     45  C   LIG d   1      10.210   5.016  -3.287  0.00  0.00    -0.016 A 
ATOM     46  C   LIG d   1      10.488   4.899  -1.937  0.00  0.00    -0.054 A 
ATOM     47  C   LIG d   1      10.293   5.977  -1.095  0.00  0.00    -0.043 A 
ATOM     48  H   LIG d   1      10.856   3.963  -1.541  0.00  0.00     0.062 H 
ATOM     49  C   LIG d   1       9.821   7.174  -1.603  0.00  0.00     0.041 A 
ATOM     50  H   LIG d   1      10.511   5.886  -0.042  0.00  0.00     0.063 H 
ATOM     51  C   LIG d   1       9.543   7.291  -2.954  0.00  0.00    -0.043 A 
ATOM     52 CL   LIG d   1       9.576   8.529  -0.546  0.00  0.00    -0.084 Cl
ATOM     53  C   LIG d   1       9.743   6.213  -3.795  0.00  0.00    -0.054 A 
ATOM     54  H   LIG d   1       9.174   8.225  -3.350  0.00  0.00     0.063 H 
ATOM     55  H   LIG d   1       9.531   6.305  -4.850  0.00  0.00     0.062 H 
ENDBRANCH  35  45
BRANCH  35  56
ATOM     56  O   LIG d   1      11.703   3.948  -4.830  0.00  0.00    -0.384 OA
ATOM     57  H   LIG d   1      11.983   4.857  -5.001  0.00  0.00     0.211 HD
ENDBRANCH  35  56
ENDBRANCH  27  30
ENDBRANCH  18  27
BRANCH   8  58
ATOM     58  O   LIG d   1       6.931   1.196  -4.485  0.00  0.00    -0.391 OA
ATOM     59  H   LIG d   1       7.205   1.240  -5.412  0.00  0.00     0.210 HD
ENDBRANCH   8  58
BRANCH   7  60
ATOM     60  C   LIG d   1       4.831  -0.086  -5.508  0.00  0.00    -0.053 C 
ATOM     61  H   LIG d   1       5.249  -0.706  -6.300  0.00  0.00     0.024 H 
ATOM     62  H   LIG d   1       3.742  -0.149  -5.533  0.00  0.00     0.024 H 
ATOM     63  H   LIG d   1       5.137   0.949  -5.657  0.00  0.00     0.024 H 
ENDBRANCH   7  60
BRANCH   1  64
ATOM     64  C   LIG d   1       4.841   1.416  -2.673  0.00  0.00    -0.061 C 
ATOM     65  H   LIG d   1       4.019   1.902  -2.146  0.00  0.00     0.023 H 
ATOM     66  H   LIG d   1       5.705   1.346  -2.013  0.00  0.00     0.023 H 
ATOM     67  H   LIG d   1       5.103   2.000  -3.554  0.00  0.00     0.023 H 
ENDBRANCH   1  64
TORSDOF 7
ENDMDL
MODEL 3
REMARK VINA RESULT:      -7.2      1.659      2.037
REMARK  7 active torsions:
REMARK  status: ('A' for Active; 'I' for Inactive)
REMARK    1  A    between atoms: C_1  and  C_2 
REMARK    2  A    between atoms: C_8  and  C_36 
REMARK    3  A    between atoms: C_9  and  O_35 
REMARK    4  A    between atoms: C_19  and  C_21 
REMARK    5  A    between atoms: C_21  and  N_66 
REMARK    6  A    between atoms: C_24  and  C_27 
REMARK    7  A    between atoms: C_24  and  O_34 
ROOT
ATOM      1  C   LIG d   1       3.043  -0.140  -3.468  0.00  0.00    -0.032 C 
ATOM      2  H   LIG d   1       2.602  -0.436  -2.504  0.00  0.00     0.031 H 
ATOM      3  C   LIG d   1       3.305   1.364  -3.416  0.00  0.00    -0.046 C 
ATOM      4  C   LIG d   1       4.136   1.640  -2.155  0.00  0.00    -0.034 C 
ATOM      5  C   LIG d   1       5.413   0.855  -2.282  0.00  0.00    -0.084 C 
ATOM      6  C   LIG d   1       5.484  -0.262  -2.943  0.00  0.00    -0.061 C 
ATOM      7  C   LIG d   1       4.328  -0.933  -3.639  0.00  0.00     0.018 C 
ATOM      8  C   LIG d   1       4.686  -1.184  -5.091  0.00  0.00     0.072 C 
ATOM      9  H   LIG d   1       4.466  -0.280  -5.676  0.00  0.00     0.061 H 
ATOM     10  C   LIG d   1       6.105  -1.577  -5.382  0.00  0.00     0.041 C 
ATOM     11  H   LIG d   1       6.303  -1.267  -6.429  0.00  0.00     0.037 H 
ATOM     12  C   LIG d   1       7.221  -0.974  -4.525  0.00  0.00     0.113 C 
ATOM     13  H   LIG d   1       7.535   0.014  -4.878  0.00  0.00     0.074 H 
ATOM     14  C   LIG d   1       6.830  -0.949  -3.040  0.00  0.00     0.006 C 
ATOM     15  O   LIG d   1       8.297  -1.979  -4.639  0.00  0.00    -0.460 OA
ATOM     16  C   LIG d   1       7.694  -3.188  -4.567  0.00  0.00     0.316 C 
ATOM     17  O   LIG d   1       8.118  -4.166  -4.007  0.00  0.00    -0.250 OA
ATOM     18  C   LIG d   1       6.376  -3.087  -5.317  0.00  0.00     0.105 C 
ATOM     19  H   LIG d   1       5.591  -3.615  -4.781  0.00  0.00     0.047 H 
ATOM     20  H   LIG d   1       3.861   1.673  -4.296  0.00  0.00     0.027 H 
ATOM     21  H   LIG d   1       2.362   1.904  -3.359  0.00  0.00     0.027 H 
ATOM     22  H   LIG d   1       4.364   2.701  -2.083  0.00  0.00     0.031 H 
ATOM     23  H   LIG d   1       3.587   1.311  -1.275  0.00  0.00     0.031 H 
ATOM     24  H   LIG d   1       6.304   1.234  -1.808  0.00  0.00     0.057 H 
ATOM     25  H   LIG d   1       6.778  -1.958  -2.650  0.00  0.00     0.035 H 
ATOM     26  H   LIG d   1       7.571  -0.372  -2.487  0.00  0.00     0.035 H 
ENDROOT
BRANCH  18  27
ATOM     27  C   LIG d   1       6.531  -3.661  -6.732  0.00  0.00    -0.018 C 
ATOM     28  H   LIG d   1       5.821  -3.175  -7.400  0.00  0.00     0.082 H 
ATOM     29  H   LIG d   1       7.547  -3.482  -7.086  0.00  0.00     0.082 H 
BRANCH  27  30
ATOM     30  N   LIG d   1       6.282  -5.116  -6.681  0.00  0.00     0.236 N 
ATOM     31  C   LIG d   1       6.157  -5.655  -8.051  0.00  0.00    -0.029 C 
ATOM     32  C   LIG d   1       6.019  -7.177  -7.977  0.00  0.00     0.021 C 
ATOM     33  H   LIG d   1       5.283  -5.235  -8.550  0.00  0.00     0.082 H 
ATOM     34  H   LIG d   1       7.054  -5.400  -8.615  0.00  0.00     0.082 H 
ATOM     35  C   LIG d   1       4.769  -7.532  -7.167  0.00  0.00     0.101 C 
ATOM     36  H   LIG d   1       6.898  -7.599  -7.490  0.00  0.00     0.035 H 
ATOM     37  H   LIG d   1       5.928  -7.585  -8.983  0.00  0.00     0.035 H 
ATOM     38  C   LIG d   1       4.877  -6.905  -5.774  0.00  0.00     0.021 C 
ATOM     39  C   LIG d   1       5.049  -5.390  -5.913  0.00  0.00    -0.029 C 
ATOM     40  H   LIG d   1       5.738  -7.323  -5.254  0.00  0.00     0.035 H 
ATOM     41  H   LIG d   1       3.970  -7.118  -5.208  0.00  0.00     0.035 H 
ATOM     42  H   LIG d   1       5.140  -4.943  -4.923  0.00  0.00     0.082 H 
ATOM     43  H   LIG d   1       4.179  -4.972  -6.422  0.00  0.00     0.082 H 
ATOM     44  H   LIG d   1       7.073  -5.574  -6.214  0.00  0.00     0.203 HD
BRANCH  35  45
ATOM     45  C   LIG d   1       4.659  -9.029  -7.038  0.00  0.00    -0.016 A 
ATOM     46  C   LIG d   1       4.694  -9.620  -5.789  0.00  0.00    -0.054 A 
ATOM     47  C   LIG d   1       4.593 -10.993  -5.670  0.00  0.00    -0.043 A 
ATOM     48  H   LIG d   1       4.801  -9.008  -4.905  0.00  0.00     0.062 H 
ATOM     49  C   LIG d   1       4.457 -11.777  -6.802  0.00  0.00     0.041 A 
ATOM     50  H   LIG d   1       4.620 -11.454  -4.695  0.00  0.00     0.063 H 
ATOM     51  C   LIG d   1       4.422 -11.185  -8.053  0.00  0.00    -0.043 A 
ATOM     52 CL   LIG d   1       4.331 -13.502  -6.655  0.00  0.00    -0.084 Cl
ATOM     53  C   LIG d   1       4.518  -9.811  -8.169  0.00  0.00    -0.054 A 
ATOM     54  H   LIG d   1       4.317 -11.796  -8.937  0.00  0.00     0.063 H 
ATOM     55  H   LIG d   1       4.486  -9.348  -9.145  0.00  0.00     0.062 H 
ENDBRANCH  35  45
BRANCH  35  56
ATOM     56  O   LIG d   1       3.609  -7.024  -7.831  0.00  0.00    -0.384 OA
ATOM     57  H   LIG d   1       2.773  -7.322  -7.447  0.00  0.00     0.211 HD
ENDBRANCH  35  56
ENDBRANCH  27  30
ENDBRANCH  18  27
BRANCH   8  58
ATOM     58  O   LIG d   1       3.856  -2.244  -5.604  0.00  0.00    -0.391 OA
ATOM     59  H   LIG d   1       3.739  -2.223  -6.564  0.00  0.00     0.210 HD
ENDBRANCH   8  58
BRANCH   7  60
ATOM     60  C   LIG d   1       4.094  -2.287  -2.950  0.00  0.00    -0.053 C 
ATOM     61  H   LIG d   1       3.179  -2.242  -2.359  0.00  0.00     0.024 H 
ATOM     62  H   LIG d   1       4.000  -3.068  -3.706  0.00  0.00     0.024 H 
ATOM     63  H   LIG d   1       4.937  -2.514  -2.298  0.00  0.00     0.024 H 
ENDBRANCH   7  60
BRANCH   1  64
ATOM     64  C   LIG d   1       2.024  -0.439  -4.560  0.00  0.00    -0.061 C 
ATOM     65  H   LIG d   1       1.742  -1.492  -4.515  0.00  0.00     0.023 H 
ATOM     66  H   LIG d   1       1.140   0.180  -4.411  0.00  0.00     0.023 H 
ATOM     67  H   LIG d   1       2.460  -0.222  -5.534  0.00  0.00     0.023 H 
ENDBRANCH   1  64
TORSDOF 7
ENDMDL
MODEL 4
REMARK VINA RESULT:      -7.1      5.699      9.888
REMARK  7 active torsions:
REMARK  status: ('A' for Active; 'I' for Inactive)
REMARK    1  A    between atoms: C_1  and  C_2 
REMARK    2  A    between atoms: C_8  and  C_36 
REMARK    3  A    between atoms: C_9  and  O_35 
REMARK    4  A    between atoms: C_19  and  C_21 
REMARK    5  A    between atoms: C_21  and  N_66 
REMARK    6  A    between atoms: C_24  and  C_27 
REMARK    7  A    between atoms: C_24  and  O_34 
ROOT
ATOM      1  C   LIG d   1       4.508  -0.004  -3.130  0.00  0.00    -0.032 C 
ATOM      2  H   LIG d   1       3.507   0.121  -3.572  0.00  0.00     0.031 H 
ATOM      3  C   LIG d   1       4.351  -0.825  -1.852  0.00  0.00    -0.046 C 
ATOM      4  C   LIG d   1       3.587  -2.104  -2.221  0.00  0.00    -0.034 C 
ATOM      5  C   LIG d   1       4.405  -2.830  -3.253  0.00  0.00    -0.084 C 
ATOM      6  C   LIG d   1       5.188  -2.211  -4.086  0.00  0.00    -0.061 C 
ATOM      7  C   LIG d   1       5.369  -0.717  -4.159  0.00  0.00     0.018 C 
ATOM      8  C   LIG d   1       6.843  -0.378  -4.041  0.00  0.00     0.072 C 
ATOM      9  H   LIG d   1       7.115  -0.323  -2.978  0.00  0.00     0.061 H 
ATOM     10  C   LIG d   1       7.810  -1.314  -4.707  0.00  0.00     0.041 C 
ATOM     11  H   LIG d   1       8.769  -1.207  -4.158  0.00  0.00     0.037 H 
ATOM     12  C   LIG d   1       7.479  -2.808  -4.734  0.00  0.00     0.113 C 
ATOM     13  H   LIG d   1       7.780  -3.321  -3.815  0.00  0.00     0.074 H 
ATOM     14  C   LIG d   1       5.998  -3.044  -5.058  0.00  0.00     0.006 C 
ATOM     15  O   LIG d   1       8.229  -3.284  -5.914  0.00  0.00    -0.460 OA
ATOM     16  C   LIG d   1       8.075  -2.337  -6.867  0.00  0.00     0.316 C 
ATOM     17  O   LIG d   1       7.931  -2.526  -8.048  0.00  0.00    -0.250 OA
ATOM     18  C   LIG d   1       8.110  -0.983  -6.176  0.00  0.00     0.105 C 
ATOM     19  H   LIG d   1       7.363  -0.319  -6.601  0.00  0.00     0.047 H 
ATOM     20  H   LIG d   1       5.328  -1.083  -1.456  0.00  0.00     0.027 H 
ATOM     21  H   LIG d   1       3.784  -0.260  -1.114  0.00  0.00     0.027 H 
ATOM     22  H   LIG d   1       3.464  -2.733  -1.342  0.00  0.00     0.031 H 
ATOM     23  H   LIG d   1       2.615  -1.844  -2.637  0.00  0.00     0.031 H 
ATOM     24  H   LIG d   1       4.342  -3.906  -3.304  0.00  0.00     0.057 H 
ATOM     25  H   LIG d   1       5.788  -2.757  -6.081  0.00  0.00     0.035 H 
ATOM     26  H   LIG d   1       5.765  -4.099  -4.911  0.00  0.00     0.035 H 
ENDROOT
BRANCH  18  27
ATOM     27  C   LIG d   1       9.507  -0.363  -6.306  0.00  0.00    -0.018 C 
ATOM     28  H   LIG d   1      10.157  -0.763  -5.529  0.00  0.00     0.082 H 
ATOM     29  H   LIG d   1       9.921  -0.603  -7.286  0.00  0.00     0.082 H 
BRANCH  27  30
ATOM     30  N   LIG d   1       9.386   1.105  -6.176  0.00  0.00     0.236 N 
ATOM     31  C   LIG d   1       9.554   1.744  -7.498  0.00  0.00    -0.029 C 
ATOM     32  C   LIG d   1       9.308   3.248  -7.357  0.00  0.00     0.021 C 
ATOM     33  H   LIG d   1      10.561   1.575  -7.881  0.00  0.00     0.082 H 
ATOM     34  H   LIG d   1       8.827   1.321  -8.190  0.00  0.00     0.082 H 
ATOM     35  C   LIG d   1      10.318   3.835  -6.369  0.00  0.00     0.101 C 
ATOM     36  H   LIG d   1       8.297   3.418  -6.987  0.00  0.00     0.035 H 
ATOM     37  H   LIG d   1       9.427   3.729  -8.328  0.00  0.00     0.035 H 
ATOM     38  C   LIG d   1      10.185   3.113  -5.025  0.00  0.00     0.021 C 
ATOM     39  C   LIG d   1      10.406   1.612  -5.233  0.00  0.00    -0.029 C 
ATOM     40  H   LIG d   1       9.188   3.281  -4.619  0.00  0.00     0.035 H 
ATOM     41  H   LIG d   1      10.931   3.498  -4.330  0.00  0.00     0.035 H 
ATOM     42  H   LIG d   1      10.298   1.094  -4.281  0.00  0.00     0.082 H 
ATOM     43  H   LIG d   1      11.409   1.445  -5.627  0.00  0.00     0.082 H 
ATOM     44  H   LIG d   1       8.454   1.331  -5.812  0.00  0.00     0.203 HD
BRANCH  35  45
ATOM     45  C   LIG d   1      10.043   5.305  -6.180  0.00  0.00    -0.016 A 
ATOM     46  C   LIG d   1       9.846   5.813  -4.909  0.00  0.00    -0.054 A 
ATOM     47  C   LIG d   1       9.594   7.161  -4.735  0.00  0.00    -0.043 A 
ATOM     48  H   LIG d   1       9.889   5.157  -4.052  0.00  0.00     0.062 H 
ATOM     49  C   LIG d   1       9.539   8.001  -5.833  0.00  0.00     0.041 A 
ATOM     50  H   LIG d   1       9.441   7.558  -3.743  0.00  0.00     0.063 H 
ATOM     51  C   LIG d   1       9.736   7.492  -7.105  0.00  0.00    -0.043 A 
ATOM     52 CL   LIG d   1       9.222   9.694  -5.616  0.00  0.00    -0.084 Cl
ATOM     53  C   LIG d   1       9.993   6.144  -7.276  0.00  0.00    -0.054 A 
ATOM     54  H   LIG d   1       9.692   8.147  -7.962  0.00  0.00     0.063 H 
ATOM     55  H   LIG d   1      10.151   5.747  -8.268  0.00  0.00     0.062 H 
ENDBRANCH  35  45
BRANCH  35  56
ATOM     56  O   LIG d   1      11.643   3.659  -6.877  0.00  0.00    -0.384 OA
ATOM     57  H   LIG d   1      11.830   2.762  -7.185  0.00  0.00     0.211 HD
ENDBRANCH  35  56
ENDBRANCH  27  30
ENDBRANCH  18  27
BRANCH   8  58
ATOM     58  O   LIG d   1       7.074   0.923  -4.616  0.00  0.00    -0.391 OA
ATOM     59  H   LIG d   1       6.553   1.630  -4.211  0.00  0.00     0.210 HD
ENDBRANCH   8  58
BRANCH   7  60
ATOM     60  C   LIG d   1       4.868  -0.255  -5.537  0.00  0.00    -0.053 C 
ATOM     61  H   LIG d   1       4.021  -0.870  -5.841  0.00  0.00     0.024 H 
ATOM     62  H   LIG d   1       4.558   0.789  -5.479  0.00  0.00     0.024 H 
ATOM     63  H   LIG d   1       5.670  -0.355  -6.268  0.00  0.00     0.024 H 
ENDBRANCH   7  60
BRANCH   1  64
ATOM     64  C   LIG d   1       5.041   1.380  -2.782  0.00  0.00    -0.061 C 
ATOM     65  H   LIG d   1       4.665   2.106  -3.503  0.00  0.00     0.023 H 
ATOM     66  H   LIG d   1       4.709   1.655  -1.781  0.00  0.00     0.023 H 
ATOM     67  H   LIG d   1       6.129   1.368  -2.813  0.00  0.00     0.023 H 
ENDBRANCH   1  64
TORSDOF 7
ENDMDL
MODEL 5
REMARK VINA RESULT:      -7.1      3.368      4.548
REMARK  7 active torsions:
REMARK  status: ('A' for Active; 'I' for Inactive)
REMARK    1  A    between atoms: C_1  and  C_2 
REMARK    2  A    between atoms: C_8  and  C_36 
REMARK    3  A    between atoms: C_9  and  O_35 
REMARK    4  A    between atoms: C_19  and  C_21 
REMARK    5  A    between atoms: C_21  and  N_66 
REMARK    6  A    between atoms: C_24  and  C_27 
REMARK    7  A    between atoms: C_24  and  O_34 
ROOT
ATOM      1  C   LIG d   1       3.035  -0.041  -3.513  0.00  0.00    -0.032 C 
ATOM      2  H   LIG d   1       2.538  -0.456  -2.622  0.00  0.00     0.031 H 
ATOM      3  C   LIG d   1       3.396   1.411  -3.206  0.00  0.00    -0.046 C 
ATOM      4  C   LIG d   1       4.193   1.417  -1.894  0.00  0.00    -0.034 C 
ATOM      5  C   LIG d   1       5.418   0.573  -2.113  0.00  0.00    -0.084 C 
ATOM      6  C   LIG d   1       5.440  -0.425  -2.946  0.00  0.00    -0.061 C 
ATOM      7  C   LIG d   1       4.270  -0.888  -3.775  0.00  0.00     0.018 C 
ATOM      8  C   LIG d   1       4.667  -0.926  -5.238  0.00  0.00     0.072 C 
ATOM      9  H   LIG d   1       4.533   0.074  -5.673  0.00  0.00     0.061 H 
ATOM     10  C   LIG d   1       6.068  -1.369  -5.549  0.00  0.00     0.041 C 
ATOM     11  H   LIG d   1       6.326  -0.909  -6.526  0.00  0.00     0.037 H 
ATOM     12  C   LIG d   1       7.186  -0.996  -4.574  0.00  0.00     0.113 C 
ATOM     13  H   LIG d   1       7.579   0.010  -4.751  0.00  0.00     0.074 H 
ATOM     14  C   LIG d   1       6.739  -1.183  -3.117  0.00  0.00     0.006 C 
ATOM     15  O   LIG d   1       8.196  -2.045  -4.821  0.00  0.00    -0.460 OA
ATOM     16  C   LIG d   1       7.511  -3.203  -4.965  0.00  0.00     0.316 C 
ATOM     17  O   LIG d   1       7.845  -4.287  -4.562  0.00  0.00    -0.250 OA
ATOM     18  C   LIG d   1       6.233  -2.886  -5.726  0.00  0.00     0.105 C 
ATOM     19  H   LIG d   1       5.394  -3.435  -5.306  0.00  0.00     0.047 H 
ATOM     20  H   LIG d   1       4.006   1.817  -4.008  0.00  0.00     0.027 H 
ATOM     21  H   LIG d   1       2.490   2.002  -3.088  0.00  0.00     0.027 H 
ATOM     22  H   LIG d   1       4.489   2.434  -1.642  0.00  0.00     0.031 H 
ATOM     23  H   LIG d   1       3.589   0.992  -1.096  0.00  0.00     0.031 H 
ATOM     24  H   LIG d   1       6.314   0.804  -1.558  0.00  0.00     0.057 H 
ATOM     25  H   LIG d   1       6.604  -2.235  -2.900  0.00  0.00     0.035 H 
ATOM     26  H   LIG d   1       7.495  -0.759  -2.456  0.00  0.00     0.035 H 
ENDROOT
BRANCH  18  27
ATOM     27  C   LIG d   1       6.405  -3.233  -7.210  0.00  0.00    -0.018 C 
ATOM     28  H   LIG d   1       6.827  -2.377  -7.737  0.00  0.00     0.082 H 
ATOM     29  H   LIG d   1       7.075  -4.087  -7.308  0.00  0.00     0.082 H 
BRANCH  27  30
ATOM     30  N   LIG d   1       5.083  -3.584  -7.770  0.00  0.00     0.236 N 
ATOM     31  C   LIG d   1       4.987  -5.046  -7.959  0.00  0.00    -0.029 C 
ATOM     32  C   LIG d   1       3.573  -5.396  -8.425  0.00  0.00     0.021 C 
ATOM     33  H   LIG d   1       5.710  -5.384  -8.703  0.00  0.00     0.082 H 
ATOM     34  H   LIG d   1       5.188  -5.540  -7.008  0.00  0.00     0.082 H 
ATOM     35  C   LIG d   1       3.287  -4.685  -9.751  0.00  0.00     0.101 C 
ATOM     36  H   LIG d   1       2.852  -5.071  -7.676  0.00  0.00     0.035 H 
ATOM     37  H   LIG d   1       3.491  -6.474  -8.566  0.00  0.00     0.035 H 
ATOM     38  C   LIG d   1       3.462  -3.176  -9.560  0.00  0.00     0.021 C 
ATOM     39  C   LIG d   1       4.881  -2.891  -9.060  0.00  0.00    -0.029 C 
ATOM     40  H   LIG d   1       2.740  -2.816  -8.828  0.00  0.00     0.035 H 
ATOM     41  H   LIG d   1       3.302  -2.668 -10.511  0.00  0.00     0.035 H 
ATOM     42  H   LIG d   1       5.004  -1.818  -8.910  0.00  0.00     0.082 H 
ATOM     43  H   LIG d   1       5.603  -3.239  -9.799  0.00  0.00     0.082 H 
ATOM     44  H   LIG d   1       4.353  -3.285  -7.113  0.00  0.00     0.203 HD
BRANCH  35  45
ATOM     45  C   LIG d   1       1.874  -4.977 -10.186  0.00  0.00    -0.016 A 
ATOM     46  C   LIG d   1       1.407  -6.278 -10.187  0.00  0.00    -0.054 A 
ATOM     47  C   LIG d   1       0.111  -6.546 -10.586  0.00  0.00    -0.043 A 
ATOM     48  H   LIG d   1       2.055  -7.085  -9.877  0.00  0.00     0.062 H 
ATOM     49  C   LIG d   1      -0.719  -5.513 -10.983  0.00  0.00     0.041 A 
ATOM     50  H   LIG d   1      -0.255  -7.562 -10.586  0.00  0.00     0.063 H 
ATOM     51  C   LIG d   1      -0.250  -4.210 -10.981  0.00  0.00    -0.043 A 
ATOM     52 CL   LIG d   1      -2.346  -5.848 -11.484  0.00  0.00    -0.084 Cl
ATOM     53  C   LIG d   1       1.045  -3.943 -10.578  0.00  0.00    -0.054 A 
ATOM     54  H   LIG d   1      -0.896  -3.403 -11.292  0.00  0.00     0.063 H 
ATOM     55  H   LIG d   1       1.410  -2.927 -10.572  0.00  0.00     0.062 H 
ENDBRANCH  35  45
BRANCH  35  56
ATOM     56  O   LIG d   1       4.200  -5.149 -10.749  0.00  0.00    -0.384 OA
ATOM     57  H   LIG d   1       4.627  -4.442 -11.251  0.00  0.00     0.211 HD
ENDBRANCH  35  56
ENDBRANCH  27  30
ENDBRANCH  18  27
BRANCH   8  58
ATOM     58  O   LIG d   1       3.789  -1.826  -5.941  0.00  0.00    -0.391 OA
ATOM     59  H   LIG d   1       4.249  -2.494  -6.467  0.00  0.00     0.210 HD
ENDBRANCH   8  58
BRANCH   7  60
ATOM     60  C   LIG d   1       3.918  -2.315  -3.325  0.00  0.00    -0.053 C 
ATOM     61  H   LIG d   1       4.833  -2.893  -3.197  0.00  0.00     0.024 H 
ATOM     62  H   LIG d   1       3.379  -2.275  -2.378  0.00  0.00     0.024 H 
ATOM     63  H   LIG d   1       3.291  -2.791  -4.079  0.00  0.00     0.024 H 
ENDBRANCH   7  60
BRANCH   1  64
ATOM     64  C   LIG d   1       2.043  -0.085  -4.667  0.00  0.00    -0.061 C 
ATOM     65  H   LIG d   1       1.143   0.466  -4.393  0.00  0.00     0.023 H 
ATOM     66  H   LIG d   1       2.493   0.369  -5.550  0.00  0.00     0.023 H 
ATOM     67  H   LIG d   1       1.782  -1.120  -4.883  0.00  0.00     0.023 H 
ENDBRANCH   1  64
TORSDOF 7
ENDMDL
MODEL 6
REMARK VINA RESULT:      -7.0      3.515      8.123
REMARK  7 active torsions:
REMARK  status: ('A' for Active; 'I' for Inactive)
REMARK    1  A    between atoms: C_1  and  C_2 
REMARK    2  A    between atoms: C_8  and  C_36 
REMARK    3  A    between atoms: C_9  and  O_35 
REMARK    4  A    between atoms: C_19  and  C_21 
REMARK    5  A    between atoms: C_21  and  N_66 
REMARK    6  A    between atoms: C_24  and  C_27 
REMARK    7  A    between atoms: C_24  and  O_34 
ROOT
ATOM      1  C   LIG d   1       5.111 -10.997  -3.164  0.00  0.00    -0.032 C 
ATOM      2  H   LIG d   1       5.253 -12.081  -3.298  0.00  0.00     0.031 H 
ATOM      3  C   LIG d   1       5.481 -10.655  -1.722  0.00  0.00    -0.046 C 
ATOM      4  C   LIG d   1       6.889 -11.212  -1.468  0.00  0.00    -0.034 C 
ATOM      5  C   LIG d   1       7.814 -10.551  -2.452  0.00  0.00    -0.084 C 
ATOM      6  C   LIG d   1       7.417 -10.147  -3.622  0.00  0.00    -0.061 C 
ATOM      7  C   LIG d   1       6.018 -10.298  -4.163  0.00  0.00     0.018 C 
ATOM      8  C   LIG d   1       5.494  -8.943  -4.598  0.00  0.00     0.072 C 
ATOM      9  H   LIG d   1       5.063  -8.428  -3.728  0.00  0.00     0.061 H 
ATOM     10  C   LIG d   1       6.480  -8.006  -5.235  0.00  0.00     0.041 C 
ATOM     11  H   LIG d   1       6.091  -6.982  -5.057  0.00  0.00     0.037 H 
ATOM     12  C   LIG d   1       7.928  -8.023  -4.740  0.00  0.00     0.113 C 
ATOM     13  H   LIG d   1       8.075  -7.401  -3.851  0.00  0.00     0.074 H 
ATOM     14  C   LIG d   1       8.424  -9.458  -4.519  0.00  0.00     0.006 C 
ATOM     15  O   LIG d   1       8.675  -7.516  -5.909  0.00  0.00    -0.460 OA
ATOM     16  C   LIG d   1       8.116  -8.095  -6.996  0.00  0.00     0.316 C 
ATOM     17  O   LIG d   1       8.696  -8.492  -7.974  0.00  0.00    -0.250 OA
ATOM     18  C   LIG d   1       6.615  -8.161  -6.757  0.00  0.00     0.105 C 
ATOM     19  H   LIG d   1       6.216  -9.111  -7.104  0.00  0.00     0.047 H 
ATOM     20  H   LIG d   1       5.483  -9.578  -1.586  0.00  0.00     0.027 H 
ATOM     21  H   LIG d   1       4.774 -11.119  -1.037  0.00  0.00     0.027 H 
ATOM     22  H   LIG d   1       7.205 -10.977  -0.453  0.00  0.00     0.031 H 
ATOM     23  H   LIG d   1       6.892 -12.289  -1.624  0.00  0.00     0.031 H 
ATOM     24  H   LIG d   1       8.847 -10.406  -2.177  0.00  0.00     0.057 H 
ATOM     25  H   LIG d   1       8.513  -9.974  -5.467  0.00  0.00     0.035 H 
ATOM     26  H   LIG d   1       9.392  -9.427  -4.019  0.00  0.00     0.035 H 
ENDROOT
BRANCH  18  27
ATOM     27  C   LIG d   1       5.917  -6.999  -7.474  0.00  0.00    -0.018 C 
ATOM     28  H   LIG d   1       6.507  -6.700  -8.340  0.00  0.00     0.082 H 
ATOM     29  H   LIG d   1       4.926  -7.316  -7.800  0.00  0.00     0.082 H 
BRANCH  27  30
ATOM     30  N   LIG d   1       5.780  -5.873  -6.527  0.00  0.00     0.236 N 
ATOM     31  C   LIG d   1       4.357  -5.675  -6.180  0.00  0.00    -0.029 C 
ATOM     32  C   LIG d   1       4.252  -4.586  -5.111  0.00  0.00     0.021 C 
ATOM     33  H   LIG d   1       3.787  -5.377  -7.060  0.00  0.00     0.082 H 
ATOM     34  H   LIG d   1       3.955  -6.609  -5.787  0.00  0.00     0.082 H 
ATOM     35  C   LIG d   1       4.836  -3.281  -5.659  0.00  0.00     0.101 C 
ATOM     36  H   LIG d   1       4.811  -4.890  -4.226  0.00  0.00     0.035 H 
ATOM     37  H   LIG d   1       3.206  -4.434  -4.847  0.00  0.00     0.035 H 
ATOM     38  C   LIG d   1       6.288  -3.519  -6.084  0.00  0.00     0.021 C 
ATOM     39  C   LIG d   1       6.333  -4.640  -7.126  0.00  0.00    -0.029 C 
ATOM     40  H   LIG d   1       6.878  -3.806  -5.214  0.00  0.00     0.035 H 
ATOM     41  H   LIG d   1       6.695  -2.604  -6.515  0.00  0.00     0.035 H 
ATOM     42  H   LIG d   1       7.367  -4.821  -7.419  0.00  0.00     0.082 H 
ATOM     43  H   LIG d   1       5.753  -4.345  -8.001  0.00  0.00     0.082 H 
ATOM     44  H   LIG d   1       6.303  -6.092  -5.671  0.00  0.00     0.203 HD
BRANCH  35  45
ATOM     45  C   LIG d   1       4.791  -2.220  -4.590  0.00  0.00    -0.016 A 
ATOM     46  C   LIG d   1       5.261  -0.948  -4.860  0.00  0.00    -0.054 A 
ATOM     47  C   LIG d   1       5.220   0.026  -3.880  0.00  0.00    -0.043 A 
ATOM     48  H   LIG d   1       5.661  -0.715  -5.836  0.00  0.00     0.062 H 
ATOM     49  C   LIG d   1       4.708  -0.272  -2.629  0.00  0.00     0.041 A 
ATOM     50  H   LIG d   1       5.585   1.020  -4.090  0.00  0.00     0.063 H 
ATOM     51  C   LIG d   1       4.238  -1.546  -2.360  0.00  0.00    -0.043 A 
ATOM     52 CL   LIG d   1       4.656   0.949  -1.398  0.00  0.00    -0.084 Cl
ATOM     53  C   LIG d   1       4.275  -2.518  -3.343  0.00  0.00    -0.054 A 
ATOM     54  H   LIG d   1       3.839  -1.780  -1.385  0.00  0.00     0.063 H 
ATOM     55  H   LIG d   1       3.904  -3.510  -3.135  0.00  0.00     0.062 H 
ENDBRANCH  35  45
BRANCH  35  56
ATOM     56  O   LIG d   1       4.072  -2.854  -6.789  0.00  0.00    -0.384 OA
ATOM     57  H   LIG d   1       3.538  -3.552  -7.191  0.00  0.00     0.211 HD
ENDBRANCH  35  56
ENDBRANCH  27  30
ENDBRANCH  18  27
BRANCH   8  58
ATOM     58  O   LIG d   1       4.435  -9.134  -5.556  0.00  0.00    -0.391 OA
ATOM     59  H   LIG d   1       4.219  -8.341  -6.067  0.00  0.00     0.210 HD
ENDBRANCH   8  58
BRANCH   7  60
ATOM     60  C   LIG d   1       6.092 -11.214  -5.395  0.00  0.00    -0.053 C 
ATOM     61  H   LIG d   1       7.075 -11.122  -5.858  0.00  0.00     0.024 H 
ATOM     62  H   LIG d   1       5.930 -12.248  -5.088  0.00  0.00     0.024 H 
ATOM     63  H   LIG d   1       5.324 -10.924  -6.111  0.00  0.00     0.024 H 
ENDBRANCH   7  60
BRANCH   1  64
ATOM     64  C   LIG d   1       3.639 -10.685  -3.397  0.00  0.00    -0.061 C 
ATOM     65  H   LIG d   1       3.250 -11.333  -4.184  0.00  0.00     0.023 H 
ATOM     66  H   LIG d   1       3.081 -10.857  -2.477  0.00  0.00     0.023 H 
ATOM     67  H   LIG d   1       3.530  -9.644  -3.698  0.00  0.00     0.023 H 
ENDBRANCH   1  64
TORSDOF 7
ENDMDL
MODEL 7
REMARK VINA RESULT:      -6.9      4.617      6.128
REMARK  7 active torsions:
REMARK  status: ('A' for Active; 'I' for Inactive)
REMARK    1  A    between atoms: C_1  and  C_2 
REMARK    2  A    between atoms: C_8  and  C_36 
REMARK    3  A    between atoms: C_9  and  O_35 
REMARK    4  A    between atoms: C_19  and  C_21 
REMARK    5  A    between atoms: C_21  and  N_66 
REMARK    6  A    between atoms: C_24  and  C_27 
REMARK    7  A    between atoms: C_24  and  O_34 
ROOT
ATOM      1  C   LIG d   1       5.456  -2.036  -3.990  0.00  0.00    -0.032 C 
ATOM      2  H   LIG d   1       6.118  -1.471  -3.316  0.00  0.00     0.031 H 
ATOM      3  C   LIG d   1       4.293  -2.570  -3.156  0.00  0.00    -0.046 C 
ATOM      4  C   LIG d   1       3.678  -1.377  -2.412  0.00  0.00    -0.034 C 
ATOM      5  C   LIG d   1       3.214  -0.394  -3.451  0.00  0.00    -0.084 C 
ATOM      6  C   LIG d   1       3.788  -0.281  -4.612  0.00  0.00    -0.061 C 
ATOM      7  C   LIG d   1       4.985  -1.075  -5.069  0.00  0.00     0.018 C 
ATOM      8  C   LIG d   1       4.667  -1.762  -6.383  0.00  0.00     0.072 C 
ATOM      9  H   LIG d   1       4.159  -2.715  -6.176  0.00  0.00     0.061 H 
ATOM     10  C   LIG d   1       3.818  -1.000  -7.359  0.00  0.00     0.041 C 
ATOM     11  H   LIG d   1       3.316  -1.762  -7.992  0.00  0.00     0.037 H 
ATOM     12  C   LIG d   1       2.719  -0.085  -6.813  0.00  0.00     0.113 C 
ATOM     13  H   LIG d   1       1.793  -0.626  -6.594  0.00  0.00     0.074 H 
ATOM     14  C   LIG d   1       3.213   0.713  -5.598  0.00  0.00     0.006 C 
ATOM     15  O   LIG d   1       2.550   0.901  -7.899  0.00  0.00    -0.460 OA
ATOM     16  C   LIG d   1       3.794   1.196  -8.341  0.00  0.00     0.316 C 
ATOM     17  O   LIG d   1       4.194   2.278  -8.687  0.00  0.00    -0.250 OA
ATOM     18  C   LIG d   1       4.604  -0.091  -8.315  0.00  0.00     0.105 C 
ATOM     19  H   LIG d   1       5.611   0.100  -7.954  0.00  0.00     0.047 H 
ATOM     20  H   LIG d   1       3.548  -3.020  -3.806  0.00  0.00     0.027 H 
ATOM     21  H   LIG d   1       4.656  -3.303  -2.438  0.00  0.00     0.027 H 
ATOM     22  H   LIG d   1       2.831  -1.706  -1.814  0.00  0.00     0.031 H 
ATOM     23  H   LIG d   1       4.430  -0.914  -1.776  0.00  0.00     0.031 H 
ATOM     24  H   LIG d   1       2.372   0.241  -3.226  0.00  0.00     0.057 H 
ATOM     25  H   LIG d   1       3.963   1.433  -5.904  0.00  0.00     0.035 H 
ATOM     26  H   LIG d   1       2.367   1.227  -5.142  0.00  0.00     0.035 H 
ENDROOT
BRANCH  18  27
ATOM     27  C   LIG d   1       4.652  -0.710  -9.718  0.00  0.00    -0.018 C 
ATOM     28  H   LIG d   1       4.777   0.079 -10.459  0.00  0.00     0.082 H 
ATOM     29  H   LIG d   1       5.491  -1.403  -9.780  0.00  0.00     0.082 H 
BRANCH  27  30
ATOM     30  N   LIG d   1       3.393  -1.447  -9.952  0.00  0.00     0.236 N 
ATOM     31  C   LIG d   1       3.688  -2.861 -10.268  0.00  0.00    -0.029 C 
ATOM     32  C   LIG d   1       2.369  -3.628 -10.389  0.00  0.00     0.021 C 
ATOM     33  H   LIG d   1       4.240  -2.937 -11.205  0.00  0.00     0.082 H 
ATOM     34  H   LIG d   1       4.283  -3.287  -9.460  0.00  0.00     0.082 H 
ATOM     35  C   LIG d   1       1.528  -3.013 -11.511  0.00  0.00     0.101 C 
ATOM     36  H   LIG d   1       1.823  -3.563  -9.449  0.00  0.00     0.035 H 
ATOM     37  H   LIG d   1       2.576  -4.673 -10.620  0.00  0.00     0.035 H 
ATOM     38  C   LIG d   1       1.293  -1.531 -11.209  0.00  0.00     0.021 C 
ATOM     39  C   LIG d   1       2.644  -0.824 -11.064  0.00  0.00    -0.029 C 
ATOM     40  H   LIG d   1       0.730  -1.434 -10.281  0.00  0.00     0.035 H 
ATOM     41  H   LIG d   1       0.731  -1.078 -12.026  0.00  0.00     0.035 H 
ATOM     42  H   LIG d   1       2.480   0.229 -10.835  0.00  0.00     0.082 H 
ATOM     43  H   LIG d   1       3.200  -0.910 -11.998  0.00  0.00     0.082 H 
ATOM     44  H   LIG d   1       2.821  -1.409  -9.101  0.00  0.00     0.203 HD
BRANCH  35  45
ATOM     45  C   LIG d   1       0.203  -3.726 -11.596  0.00  0.00    -0.016 A 
ATOM     46  C   LIG d   1      -0.599  -3.564 -12.711  0.00  0.00    -0.054 A 
ATOM     47  C   LIG d   1      -1.814  -4.217 -12.789  0.00  0.00    -0.043 A 
ATOM     48  H   LIG d   1      -0.276  -2.925 -13.520  0.00  0.00     0.062 H 
ATOM     49  C   LIG d   1      -2.228  -5.034 -11.752  0.00  0.00     0.041 A 
ATOM     50  H   LIG d   1      -2.440  -4.091 -13.660  0.00  0.00     0.063 H 
ATOM     51  C   LIG d   1      -1.425  -5.197 -10.637  0.00  0.00    -0.043 A 
ATOM     52 CL   LIG d   1      -3.754  -5.855 -11.850  0.00  0.00    -0.084 Cl
ATOM     53  C   LIG d   1      -0.207  -4.546 -10.562  0.00  0.00    -0.054 A 
ATOM     54  H   LIG d   1      -1.748  -5.834  -9.827  0.00  0.00     0.063 H 
ATOM     55  H   LIG d   1       0.422  -4.676  -9.694  0.00  0.00     0.062 H 
ENDBRANCH  35  45
BRANCH  35  56
ATOM     56  O   LIG d   1       2.221  -3.144 -12.755  0.00  0.00    -0.384 OA
ATOM     57  H   LIG d   1       3.136  -3.443 -12.666  0.00  0.00     0.211 HD
ENDBRANCH  35  56
ENDBRANCH  27  30
ENDBRANCH  18  27
BRANCH   8  58
ATOM     58  O   LIG d   1       5.898  -2.067  -7.065  0.00  0.00    -0.391 OA
ATOM     59  H   LIG d   1       6.643  -1.507  -6.803  0.00  0.00     0.210 HD
ENDBRANCH   8  58
BRANCH   7  60
ATOM     60  C   LIG d   1       6.138  -0.085  -5.299  0.00  0.00    -0.053 C 
ATOM     61  H   LIG d   1       6.643  -0.325  -6.235  0.00  0.00     0.024 H 
ATOM     62  H   LIG d   1       5.742   0.929  -5.350  0.00  0.00     0.024 H 
ATOM     63  H   LIG d   1       6.848  -0.156  -4.475  0.00  0.00     0.024 H 
ENDBRANCH   7  60
BRANCH   1  64
ATOM     64  C   LIG d   1       6.251  -3.204  -4.558  0.00  0.00    -0.061 C 
ATOM     65  H   LIG d   1       6.918  -3.597  -3.790  0.00  0.00     0.023 H 
ATOM     66  H   LIG d   1       5.566  -3.988  -4.880  0.00  0.00     0.023 H 
ATOM     67  H   LIG d   1       6.839  -2.864  -5.410  0.00  0.00     0.023 H 
ENDBRANCH   1  64
TORSDOF 7
ENDMDL
MODEL 8
REMARK VINA RESULT:      -6.8      4.355      8.639
REMARK  7 active torsions:
REMARK  status: ('A' for Active; 'I' for Inactive)
REMARK    1  A    between atoms: C_1  and  C_2 
REMARK    2  A    between atoms: C_8  and  C_36 
REMARK    3  A    between atoms: C_9  and  O_35 
REMARK    4  A    between atoms: C_19  and  C_21 
REMARK    5  A    between atoms: C_21  and  N_66 
REMARK    6  A    between atoms: C_24  and  C_27 
REMARK    7  A    between atoms: C_24  and  O_34 
ROOT
ATOM      1  C   LIG d   1       6.143 -10.942  -3.456  0.00  0.00    -0.032 C 
ATOM      2  H   LIG d   1       6.416 -12.008  -3.503  0.00  0.00     0.031 H 
ATOM      3  C   LIG d   1       5.363 -10.721  -2.161  0.00  0.00    -0.046 C 
ATOM      4  C   LIG d   1       6.219 -11.274  -1.012  0.00  0.00    -0.034 C 
ATOM      5  C   LIG d   1       7.517 -10.515  -1.018  0.00  0.00    -0.084 C 
ATOM      6  C   LIG d   1       8.031 -10.018  -2.103  0.00  0.00    -0.061 C 
ATOM      7  C   LIG d   1       7.436 -10.144  -3.482  0.00  0.00     0.018 C 
ATOM      8  C   LIG d   1       7.273  -8.765  -4.092  0.00  0.00     0.072 C 
ATOM      9  H   LIG d   1       6.318  -8.335  -3.759  0.00  0.00     0.061 H 
ATOM     10  C   LIG d   1       8.349  -7.761  -3.797  0.00  0.00     0.041 C 
ATOM     11  H   LIG d   1       7.874  -6.762  -3.896  0.00  0.00     0.037 H 
ATOM     12  C   LIG d   1       9.023  -7.796  -2.424  0.00  0.00     0.113 C 
ATOM     13  H   LIG d   1       8.455  -7.252  -1.662  0.00  0.00     0.074 H 
ATOM     14  C   LIG d   1       9.323  -9.237  -1.988  0.00  0.00     0.006 C 
ATOM     15  O   LIG d   1      10.338  -7.177  -2.692  0.00  0.00    -0.460 OA
ATOM     16  C   LIG d   1      10.751  -7.668  -3.883  0.00  0.00     0.316 C 
ATOM     17  O   LIG d   1      11.878  -7.969  -4.181  0.00  0.00    -0.250 OA
ATOM     18  C   LIG d   1       9.528  -7.780  -4.780  0.00  0.00     0.105 C 
ATOM     19  H   LIG d   1       9.560  -8.703  -5.354  0.00  0.00     0.047 H 
ATOM     20  H   LIG d   1       5.190  -9.660  -2.010  0.00  0.00     0.027 H 
ATOM     21  H   LIG d   1       4.415 -11.255  -2.202  0.00  0.00     0.027 H 
ATOM     22  H   LIG d   1       5.710 -11.124  -0.062  0.00  0.00     0.031 H 
ATOM     23  H   LIG d   1       6.409 -12.333  -1.174  0.00  0.00     0.031 H 
ATOM     24  H   LIG d   1       8.042 -10.377  -0.086  0.00  0.00     0.057 H 
ATOM     25  H   LIG d   1      10.092  -9.666  -2.618  0.00  0.00     0.035 H 
ATOM     26  H   LIG d   1       9.652  -9.233  -0.948  0.00  0.00     0.035 H 
ENDROOT
BRANCH  18  27
ATOM     27  C   LIG d   1       9.455  -6.572  -5.722  0.00  0.00    -0.018 C 
ATOM     28  H   LIG d   1      10.464  -6.229  -5.952  0.00  0.00     0.082 H 
ATOM     29  H   LIG d   1       8.950  -6.860  -6.644  0.00  0.00     0.082 H 
BRANCH  27  30
ATOM     30  N   LIG d   1       8.683  -5.501  -5.058  0.00  0.00     0.236 N 
ATOM     31  C   LIG d   1       7.563  -5.075  -5.924  0.00  0.00    -0.029 C 
ATOM     32  C   LIG d   1       6.711  -4.054  -5.168  0.00  0.00     0.021 C 
ATOM     33  H   LIG d   1       7.940  -4.625  -6.843  0.00  0.00     0.082 H 
ATOM     34  H   LIG d   1       6.954  -5.945  -6.169  0.00  0.00     0.082 H 
ATOM     35  C   LIG d   1       7.574  -2.842  -4.808  0.00  0.00     0.101 C 
ATOM     36  H   LIG d   1       6.323  -4.507  -4.256  0.00  0.00     0.035 H 
ATOM     37  H   LIG d   1       5.881  -3.734  -5.798  0.00  0.00     0.035 H 
ATOM     38  C   LIG d   1       8.771  -3.307  -3.973  0.00  0.00     0.021 C 
ATOM     39  C   LIG d   1       9.564  -4.351  -4.764  0.00  0.00    -0.029 C 
ATOM     40  H   LIG d   1       8.415  -3.749  -3.043  0.00  0.00     0.035 H 
ATOM     41  H   LIG d   1       9.413  -2.455  -3.750  0.00  0.00     0.035 H 
ATOM     42  H   LIG d   1      10.409  -4.695  -4.167  0.00  0.00     0.082 H 
ATOM     43  H   LIG d   1       9.931  -3.903  -5.689  0.00  0.00     0.082 H 
ATOM     44  H   LIG d   1       8.302  -5.863  -4.176  0.00  0.00     0.203 HD
BRANCH  35  45
ATOM     45  C   LIG d   1       6.757  -1.859  -4.011  0.00  0.00    -0.016 A 
ATOM     46  C   LIG d   1       7.152  -0.536  -3.929  0.00  0.00    -0.054 A 
ATOM     47  C   LIG d   1       6.402   0.366  -3.198  0.00  0.00    -0.043 A 
ATOM     48  H   LIG d   1       8.048  -0.209  -4.436  0.00  0.00     0.062 H 
ATOM     49  C   LIG d   1       5.256  -0.055  -2.548  0.00  0.00     0.041 A 
ATOM     50  H   LIG d   1       6.711   1.398  -3.136  0.00  0.00     0.063 H 
ATOM     51  C   LIG d   1       4.860  -1.379  -2.630  0.00  0.00    -0.043 A 
ATOM     52 CL   LIG d   1       4.313   1.077  -1.630  0.00  0.00    -0.084 Cl
ATOM     53  C   LIG d   1       5.609  -2.279  -3.366  0.00  0.00    -0.054 A 
ATOM     54  H   LIG d   1       3.966  -1.707  -2.123  0.00  0.00     0.063 H 
ATOM     55  H   LIG d   1       5.298  -3.310  -3.433  0.00  0.00     0.062 H 
ENDBRANCH  35  45
BRANCH  35  56
ATOM     56  O   LIG d   1       8.042  -2.215  -6.004  0.00  0.00    -0.384 OA
ATOM     57  H   LIG d   1       7.384  -2.178  -6.712  0.00  0.00     0.211 HD
ENDBRANCH  35  56
ENDBRANCH  27  30
ENDBRANCH  18  27
BRANCH   8  58
ATOM     58  O   LIG d   1       7.214  -8.890  -5.526  0.00  0.00    -0.391 OA
ATOM     59  H   LIG d   1       7.147  -8.045  -5.993  0.00  0.00     0.210 HD
ENDBRANCH   8  58
BRANCH   7  60
ATOM     60  C   LIG d   1       8.423 -10.948  -4.343  0.00  0.00    -0.053 C 
ATOM     61  H   LIG d   1       7.875 -11.495  -5.110  0.00  0.00     0.024 H 
ATOM     62  H   LIG d   1       9.130 -10.267  -4.817  0.00  0.00     0.024 H 
ATOM     63  H   LIG d   1       8.965 -11.652  -3.712  0.00  0.00     0.024 H 
ENDBRANCH   7  60
BRANCH   1  64
ATOM     64  C   LIG d   1       5.245 -10.636  -4.647  0.00  0.00    -0.061 C 
ATOM     65  H   LIG d   1       5.402 -11.386  -5.423  0.00  0.00     0.023 H 
ATOM     66  H   LIG d   1       4.202 -10.654  -4.330  0.00  0.00     0.023 H 
ATOM     67  H   LIG d   1       5.487  -9.650  -5.041  0.00  0.00     0.023 H 
ENDBRANCH   1  64
TORSDOF 7
ENDMDL
MODEL 9
REMARK VINA RESULT:      -6.7      5.559      9.149
REMARK  7 active torsions:
REMARK  status: ('A' for Active; 'I' for Inactive)
REMARK    1  A    between atoms: C_1  and  C_2 
REMARK    2  A    between atoms: C_8  and  C_36 
REMARK    3  A    between atoms: C_9  and  O_35 
REMARK    4  A    between atoms: C_19  and  C_21 
REMARK    5  A    between atoms: C_21  and  N_66 
REMARK    6  A    between atoms: C_24  and  C_27 
REMARK    7  A    between atoms: C_24  and  O_34 
ROOT
ATOM      1  C   LIG d   1       3.370  -0.303  -4.414  0.00  0.00    -0.032 C 
ATOM      2  H   LIG d   1       2.697  -1.100  -4.062  0.00  0.00     0.031 H 
ATOM      3  C   LIG d   1       3.437   0.763  -3.321  0.00  0.00    -0.046 C 
ATOM      4  C   LIG d   1       3.817   0.054  -2.014  0.00  0.00    -0.034 C 
ATOM      5  C   LIG d   1       5.152  -0.603  -2.234  0.00  0.00    -0.084 C 
ATOM      6  C   LIG d   1       5.540  -1.022  -3.402  0.00  0.00    -0.061 C 
ATOM      7  C   LIG d   1       4.727  -0.940  -4.668  0.00  0.00     0.018 C 
ATOM      8  C   LIG d   1       5.528  -0.227  -5.740  0.00  0.00     0.072 C 
ATOM      9  H   LIG d   1       5.396   0.858  -5.627  0.00  0.00     0.061 H 
ATOM     10  C   LIG d   1       7.004  -0.501  -5.778  0.00  0.00     0.041 C 
ATOM     11  H   LIG d   1       7.470   0.389  -6.251  0.00  0.00     0.037 H 
ATOM     12  C   LIG d   1       7.738  -0.734  -4.456  0.00  0.00     0.113 C 
ATOM     13  H   LIG d   1       8.032   0.200  -3.967  0.00  0.00     0.074 H 
ATOM     14  C   LIG d   1       6.921  -1.633  -3.517  0.00  0.00     0.006 C 
ATOM     15  O   LIG d   1       8.903  -1.542  -4.870  0.00  0.00    -0.460 OA
ATOM     16  C   LIG d   1       8.444  -2.427  -5.785  0.00  0.00     0.316 C 
ATOM     17  O   LIG d   1       8.786  -3.576  -5.904  0.00  0.00    -0.250 OA
ATOM     18  C   LIG d   1       7.408  -1.709  -6.635  0.00  0.00     0.105 C 
ATOM     19  H   LIG d   1       6.562  -2.362  -6.836  0.00  0.00     0.047 H 
ATOM     20  H   LIG d   1       4.193   1.501  -3.571  0.00  0.00     0.027 H 
ATOM     21  H   LIG d   1       2.467   1.243  -3.210  0.00  0.00     0.027 H 
ATOM     22  H   LIG d   1       3.894   0.778  -1.205  0.00  0.00     0.031 H 
ATOM     23  H   LIG d   1       3.069  -0.700  -1.774  0.00  0.00     0.031 H 
ATOM     24  H   LIG d   1       5.813  -0.731  -1.392  0.00  0.00     0.057 H 
ATOM     25  H   LIG d   1       6.866  -2.639  -3.916  0.00  0.00     0.035 H 
ATOM     26  H   LIG d   1       7.394  -1.646  -2.536  0.00  0.00     0.035 H 
ENDROOT
BRANCH  18  27
ATOM     27  C   LIG d   1       8.041  -1.241  -7.951  0.00  0.00    -0.018 C 
ATOM     28  H   LIG d   1       9.001  -1.737  -8.089  0.00  0.00     0.082 H 
ATOM     29  H   LIG d   1       7.380  -1.489  -8.781  0.00  0.00     0.082 H 
BRANCH  27  30
ATOM     30  N   LIG d   1       8.220   0.225  -7.893  0.00  0.00     0.236 N 
ATOM     31  C   LIG d   1       7.559   0.860  -9.052  0.00  0.00    -0.029 C 
ATOM     32  C   LIG d   1       7.655   2.380  -8.909  0.00  0.00     0.021 C 
ATOM     33  H   LIG d   1       8.038   0.552  -9.983  0.00  0.00     0.082 H 
ATOM     34  H   LIG d   1       6.510   0.563  -9.069  0.00  0.00     0.082 H 
ATOM     35  C   LIG d   1       9.129   2.792  -8.866  0.00  0.00     0.101 C 
ATOM     36  H   LIG d   1       7.165   2.690  -7.986  0.00  0.00     0.035 H 
ATOM     37  H   LIG d   1       7.168   2.858  -9.759  0.00  0.00     0.035 H 
ATOM     38  C   LIG d   1       9.820   2.070  -7.706  0.00  0.00     0.021 C 
ATOM     39  C   LIG d   1       9.660   0.558  -7.885  0.00  0.00    -0.029 C 
ATOM     40  H   LIG d   1       9.363   2.375  -6.765  0.00  0.00     0.035 H 
ATOM     41  H   LIG d   1      10.879   2.326  -7.697  0.00  0.00     0.035 H 
ATOM     42  H   LIG d   1      10.139   0.041  -7.053  0.00  0.00     0.082 H 
ATOM     43  H   LIG d   1      10.130   0.252  -8.821  0.00  0.00     0.082 H 
ATOM     44  H   LIG d   1       7.791   0.580  -7.031  0.00  0.00     0.203 HD
BRANCH  35  45
ATOM     45  C   LIG d   1       9.231   4.282  -8.664  0.00  0.00    -0.016 A 
ATOM     46  C   LIG d   1       9.770   4.785  -7.495  0.00  0.00    -0.054 A 
ATOM     47  C   LIG d   1       9.864   6.152  -7.309  0.00  0.00    -0.043 A 
ATOM     48  H   LIG d   1      10.117   4.110  -6.726  0.00  0.00     0.062 H 
ATOM     49  C   LIG d   1       9.418   7.016  -8.294  0.00  0.00     0.041 A 
ATOM     50  H   LIG d   1      10.285   6.545  -6.396  0.00  0.00     0.063 H 
ATOM     51  C   LIG d   1       8.879   6.511  -9.464  0.00  0.00    -0.043 A 
ATOM     52 CL   LIG d   1       9.536   8.732  -8.061  0.00  0.00    -0.084 Cl
ATOM     53  C   LIG d   1       8.791   5.144  -9.650  0.00  0.00    -0.054 A 
ATOM     54  H   LIG d   1       8.531   7.185 -10.233  0.00  0.00     0.063 H 
ATOM     55  H   LIG d   1       8.374   4.750 -10.565  0.00  0.00     0.062 H 
ENDBRANCH  35  45
BRANCH  35  56
ATOM     56  O   LIG d   1       9.762   2.433 -10.097  0.00  0.00    -0.384 OA
ATOM     57  H   LIG d   1      10.546   1.879  -9.989  0.00  0.00     0.211 HD
ENDBRANCH  35  56
ENDBRANCH  27  30
ENDBRANCH  18  27
BRANCH   8  58
ATOM     58  O   LIG d   1       5.013  -0.594  -7.034  0.00  0.00    -0.391 OA
ATOM     59  H   LIG d   1       4.076  -0.384  -7.159  0.00  0.00     0.210 HD
ENDBRANCH   8  58
BRANCH   7  60
ATOM     60  C   LIG d   1       4.448  -2.377  -5.136  0.00  0.00    -0.053 C 
ATOM     61  H   LIG d   1       5.393  -2.900  -5.286  0.00  0.00     0.024 H 
ATOM     62  H   LIG d   1       3.860  -2.898  -4.380  0.00  0.00     0.024 H 
ATOM     63  H   LIG d   1       3.894  -2.353  -6.074  0.00  0.00     0.024 H 
ENDBRANCH   7  60
BRANCH   1  64
ATOM     64  C   LIG d   1       2.765   0.300  -5.674  0.00  0.00    -0.061 C 
ATOM     65  H   LIG d   1       1.967   0.991  -5.400  0.00  0.00     0.023 H 
ATOM     66  H   LIG d   1       3.536   0.837  -6.227  0.00  0.00     0.023 H 
ATOM     67  H   LIG d   1       2.357  -0.494  -6.298  0.00  0.00     0.023 H 
ENDBRANCH   1  64
TORSDOF 7
ENDMDL
