MODEL 1
REMARK VINA RESULT:      -6.8      0.000      0.000
REMARK  14 active torsions:
REMARK  status: ('A' for Active; 'I' for Inactive)
REMARK    1  A    between atoms: C_1  and  C_2 
REMARK    2  A    between atoms: C_2  and  C_3 
REMARK    3  A    between atoms: C_2  and  C_4 
REMARK    4  A    between atoms: C_4  and  C_6 
REMARK    5  A    between atoms: C_4  and  N_26 
REMARK       I    between atoms: C_6  and  N_8 
REMARK    6  A    between atoms: N_8  and  C_9 
REMARK    7  A    between atoms: C_9  and  C_11 
REMARK    8  A    between atoms: C_9  and  C_22 
REMARK    9  A    between atoms: C_11  and  C_12 
REMARK   10  A    between atoms: C_22  and  O_24 
REMARK   11  A    between atoms: O_24  and  C_25 
REMARK       I    between atoms: N_26  and  C_27 
REMARK   12  A    between atoms: C_27  and  O_29 
REMARK   13  A    between atoms: O_29  and  C_30 
REMARK   14  A    between atoms: C_30  and  C_31 
ROOT
ATOM      1  C   LIG d   1       4.720   0.565  -8.888  0.00  0.00     0.105 C 
ATOM      2  H   LIG d   1       4.422  -0.481  -8.948  0.00  0.00     0.060 H 
ENDROOT
BRANCH   1   3
ATOM      3  C   LIG d   1       4.352   1.274 -10.194  0.00  0.00    -0.020 C 
ATOM      4  H   LIG d   1       5.261   1.540 -10.732  0.00  0.00     0.032 H 
BRANCH   3   5
ATOM      5  C   LIG d   1       3.502   0.342 -11.058  0.00  0.00    -0.060 C 
ATOM      6  H   LIG d   1       3.128   0.887 -11.924  0.00  0.00     0.023 H 
ATOM      7  H   LIG d   1       4.111  -0.498 -11.393  0.00  0.00     0.023 H 
ATOM      8  H   LIG d   1       2.661  -0.031 -10.473  0.00  0.00     0.023 H 
ENDBRANCH   3   5
BRANCH   3   9
ATOM      9  C   LIG d   1       3.556   2.543  -9.877  0.00  0.00    -0.060 C 
ATOM     10  H   LIG d   1       2.607   2.271  -9.416  0.00  0.00     0.023 H 
ATOM     11  H   LIG d   1       4.128   3.167  -9.191  0.00  0.00     0.023 H 
ATOM     12  H   LIG d   1       3.369   3.093 -10.799  0.00  0.00     0.023 H 
ENDBRANCH   3   9
ENDBRANCH   1   3
BRANCH   1  13
ATOM     13  C   LIG d   1       6.209   0.652  -8.672  0.00  0.00     0.234 C 
ATOM     14  O   LIG d   1       6.929  -0.250  -9.047  0.00  0.00    -0.274 OA
ATOM     15  N   LIG d   1       6.740   1.729  -8.062  0.00  0.00    -0.301 N 
ATOM     16  H   LIG d   1       6.175   2.482  -7.828  0.00  0.00     0.150 HD
BRANCH  15  17
ATOM     17  C   LIG d   1       8.173   1.766  -7.756  0.00  0.00     0.124 C 
ATOM     18  H   LIG d   1       8.643   0.846  -8.104  0.00  0.00     0.062 H 
BRANCH  17  19
ATOM     19  C   LIG d   1       8.367   1.896  -6.243  0.00  0.00     0.003 C 
ATOM     20  H   LIG d   1       9.152   2.623  -6.040  0.00  0.00     0.034 H 
ATOM     21  H   LIG d   1       7.436   2.228  -5.785  0.00  0.00     0.034 H 
BRANCH  19  22
ATOM     22  C   LIG d   1       8.760   0.559  -5.670  0.00  0.00    -0.020 A 
ATOM     23  C   LIG d   1       7.859  -0.547  -5.338  0.00  0.00     0.003 A 
ATOM     24  C   LIG d   1       8.676  -1.577  -4.838  0.00  0.00     0.047 A 
ATOM     25  C   LIG d   1       6.478  -0.731  -5.423  0.00  0.00    -0.052 A 
ATOM     26  N   LIG d   1       9.973  -1.119  -4.870  0.00  0.00    -0.360 N 
ATOM     27  C   LIG d   1       8.092  -2.773  -4.434  0.00  0.00    -0.038 A 
ATOM     28  C   LIG d   1      10.005   0.153  -5.373  0.00  0.00     0.006 A 
ATOM     29  H   LIG d   1      10.750  -1.624  -4.582  0.00  0.00     0.165 HD
ATOM     30  H   LIG d   1      10.899   0.743  -5.509  0.00  0.00     0.081 H 
ATOM     31  C   LIG d   1       6.727  -2.934  -4.526  0.00  0.00    -0.060 A 
ATOM     32  H   LIG d   1       8.707  -3.573  -4.047  0.00  0.00     0.064 H 
ATOM     33  C   LIG d   1       5.925  -1.914  -5.019  0.00  0.00    -0.061 A 
ATOM     34  H   LIG d   1       6.275  -3.863  -4.211  0.00  0.00     0.062 H 
ATOM     35  H   LIG d   1       4.857  -2.057  -5.085  0.00  0.00     0.062 H 
ATOM     36  H   LIG d   1       5.848   0.057  -5.806  0.00  0.00     0.062 H 
ENDBRANCH  19  22
ENDBRANCH  17  19
BRANCH  17  37
ATOM     37  C   LIG d   1       8.805   2.947  -8.447  0.00  0.00     0.328 C 
ATOM     38  O   LIG d   1       8.542   3.181  -9.602  0.00  0.00    -0.249 OA
BRANCH  37  39
ATOM     39  O   LIG d   1       9.659   3.737  -7.778  0.00  0.00    -0.467 OA
BRANCH  39  40
ATOM     40  C   LIG d   1       9.707   5.134  -8.167  0.00  0.00     0.082 C 
ATOM     41  H   LIG d   1      10.216   5.710  -7.394  0.00  0.00     0.066 H 
ATOM     42  H   LIG d   1      10.248   5.231  -9.107  0.00  0.00     0.066 H 
ATOM     43  H   LIG d   1       8.692   5.512  -8.291  0.00  0.00     0.066 H 
ENDBRANCH  39  40
ENDBRANCH  37  39
ENDBRANCH  17  37
ENDBRANCH  15  17
ENDBRANCH   1  13
BRANCH   1  44
ATOM     44  N   LIG d   1       4.025   1.208  -7.770  0.00  0.00    -0.270 N 
ATOM     45  C   LIG d   1       3.307   0.465  -6.905  0.00  0.00     0.401 C 
ATOM     46  O   LIG d   1       3.235  -0.739  -7.054  0.00  0.00    -0.227 OA
ATOM     47  H   LIG d   1       4.083   2.169  -7.652  0.00  0.00     0.153 HD
BRANCH  45  48
ATOM     48  O   LIG d   1       2.668   1.056  -5.878  0.00  0.00    -0.446 OA
BRANCH  48  49
ATOM     49  C   LIG d   1       2.021   0.184  -4.914  0.00  0.00     0.119 C 
ATOM     50  H   LIG d   1       1.086   0.637  -4.586  0.00  0.00     0.075 H 
ATOM     51  H   LIG d   1       1.814  -0.781  -5.379  0.00  0.00     0.075 H 
BRANCH  49  52
ATOM     52  C   LIG d   1       2.928  -0.015  -3.729  0.00  0.00    -0.010 A 
ATOM     53  C   LIG d   1       3.104  -1.279  -3.198  0.00  0.00    -0.055 A 
ATOM     54  C   LIG d   1       3.937  -1.462  -2.109  0.00  0.00    -0.061 A 
ATOM     55  H   LIG d   1       2.593  -2.124  -3.633  0.00  0.00     0.062 H 
ATOM     56  C   LIG d   1       4.592  -0.380  -1.551  0.00  0.00    -0.062 A 
ATOM     57  H   LIG d   1       4.075  -2.450  -1.695  0.00  0.00     0.062 H 
ATOM     58  C   LIG d   1       4.416   0.883  -2.082  0.00  0.00    -0.061 A 
ATOM     59  H   LIG d   1       5.242  -0.524  -0.700  0.00  0.00     0.062 H 
ATOM     60  C   LIG d   1       3.588   1.065  -3.173  0.00  0.00    -0.055 A 
ATOM     61  H   LIG d   1       4.929   1.729  -1.646  0.00  0.00     0.062 H 
ATOM     62  H   LIG d   1       3.454   2.053  -3.590  0.00  0.00     0.062 H 
ENDBRANCH  49  52
ENDBRANCH  48  49
ENDBRANCH  45  48
ENDBRANCH   1  44
TORSDOF 14
ENDMDL
MODEL 2
REMARK VINA RESULT:      -6.6      1.594      2.320
REMARK  14 active torsions:
REMARK  status: ('A' for Active; 'I' for Inactive)
REMARK    1  A    between atoms: C_1  and  C_2 
REMARK    2  A    between atoms: C_2  and  C_3 
REMARK    3  A    between atoms: C_2  and  C_4 
REMARK    4  A    between atoms: C_4  and  C_6 
REMARK    5  A    between atoms: C_4  and  N_26 
REMARK       I    between atoms: C_6  and  N_8 
REMARK    6  A    between atoms: N_8  and  C_9 
REMARK    7  A    between atoms: C_9  and  C_11 
REMARK    8  A    between atoms: C_9  and  C_22 
REMARK    9  A    between atoms: C_11  and  C_12 
REMARK   10  A    between atoms: C_22  and  O_24 
REMARK   11  A    between atoms: O_24  and  C_25 
REMARK       I    between atoms: N_26  and  C_27 
REMARK   12  A    between atoms: C_27  and  O_29 
REMARK   13  A    between atoms: O_29  and  C_30 
REMARK   14  A    between atoms: C_30  and  C_31 
ROOT
ATOM      1  C   LIG d   1       4.779   0.540  -8.596  0.00  0.00     0.105 C 
ATOM      2  H   LIG d   1       4.559  -0.420  -9.062  0.00  0.00     0.060 H 
ENDROOT
BRANCH   1   3
ATOM      3  C   LIG d   1       4.772   1.638  -9.663  0.00  0.00    -0.020 C 
ATOM      4  H   LIG d   1       5.793   1.970  -9.848  0.00  0.00     0.032 H 
BRANCH   3   5
ATOM      5  C   LIG d   1       4.171   1.087 -10.956  0.00  0.00    -0.060 C 
ATOM      6  H   LIG d   1       3.766   1.907 -11.549  0.00  0.00     0.023 H 
ATOM      7  H   LIG d   1       4.946   0.575 -11.528  0.00  0.00     0.023 H 
ATOM      8  H   LIG d   1       3.373   0.384 -10.717  0.00  0.00     0.023 H 
ENDBRANCH   3   5
BRANCH   3   9
ATOM      9  C   LIG d   1       3.932   2.819  -9.173  0.00  0.00    -0.060 C 
ATOM     10  H   LIG d   1       4.521   3.734  -9.234  0.00  0.00     0.023 H 
ATOM     11  H   LIG d   1       3.044   2.916  -9.797  0.00  0.00     0.023 H 
ATOM     12  H   LIG d   1       3.632   2.648  -8.139  0.00  0.00     0.023 H 
ENDBRANCH   3   9
ENDBRANCH   1   3
BRANCH   1  13
ATOM     13  C   LIG d   1       6.135   0.483  -7.943  0.00  0.00     0.234 C 
ATOM     14  O   LIG d   1       7.133   0.384  -8.627  0.00  0.00    -0.274 OA
ATOM     15  N   LIG d   1       6.241   0.540  -6.601  0.00  0.00    -0.301 N 
ATOM     16  H   LIG d   1       5.452   0.692  -6.059  0.00  0.00     0.150 HD
BRANCH  15  17
ATOM     17  C   LIG d   1       7.549   0.376  -5.961  0.00  0.00     0.124 C 
ATOM     18  H   LIG d   1       8.216  -0.166  -6.632  0.00  0.00     0.062 H 
BRANCH  17  19
ATOM     19  C   LIG d   1       7.384  -0.411  -4.659  0.00  0.00     0.003 C 
ATOM     20  H   LIG d   1       8.012   0.032  -3.886  0.00  0.00     0.034 H 
ATOM     21  H   LIG d   1       6.342  -0.378  -4.345  0.00  0.00     0.034 H 
BRANCH  19  22
ATOM     22  C   LIG d   1       7.798  -1.843  -4.882  0.00  0.00    -0.020 A 
ATOM     23  C   LIG d   1       6.906  -2.991  -5.055  0.00  0.00     0.003 A 
ATOM     24  C   LIG d   1       7.741  -4.109  -5.232  0.00  0.00     0.047 A 
ATOM     25  C   LIG d   1       5.519  -3.148  -5.071  0.00  0.00    -0.052 A 
ATOM     26  N   LIG d   1       9.041  -3.660  -5.169  0.00  0.00    -0.360 N 
ATOM     27  C   LIG d   1       7.170  -5.363  -5.423  0.00  0.00    -0.038 A 
ATOM     28  C   LIG d   1       9.056  -2.306  -4.966  0.00  0.00     0.006 A 
ATOM     29  H   LIG d   1       9.829  -4.218  -5.260  0.00  0.00     0.165 HD
ATOM     30  H   LIG d   1       9.947  -1.702  -4.882  0.00  0.00     0.081 H 
ATOM     31  C   LIG d   1       5.799  -5.495  -5.435  0.00  0.00    -0.060 A 
ATOM     32  H   LIG d   1       7.799  -6.230  -5.559  0.00  0.00     0.064 H 
ATOM     33  C   LIG d   1       4.978  -4.389  -5.259  0.00  0.00    -0.061 A 
ATOM     34  H   LIG d   1       5.357  -6.470  -5.583  0.00  0.00     0.062 H 
ATOM     35  H   LIG d   1       3.906  -4.511  -5.272  0.00  0.00     0.062 H 
ATOM     36  H   LIG d   1       4.875  -2.293  -4.935  0.00  0.00     0.062 H 
ENDBRANCH  19  22
ENDBRANCH  17  19
BRANCH  17  37
ATOM     37  C   LIG d   1       8.135   1.732  -5.659  0.00  0.00     0.328 C 
ATOM     38  O   LIG d   1       8.901   2.246  -6.438  0.00  0.00    -0.249 OA
BRANCH  37  39
ATOM     39  O   LIG d   1       7.804   2.367  -4.523  0.00  0.00    -0.467 OA
BRANCH  39  40
ATOM     40  C   LIG d   1       8.894   2.843  -3.693  0.00  0.00     0.082 C 
ATOM     41  H   LIG d   1       9.758   3.064  -4.318  0.00  0.00     0.066 H 
ATOM     42  H   LIG d   1       8.584   3.747  -3.169  0.00  0.00     0.066 H 
ATOM     43  H   LIG d   1       9.160   2.075  -2.966  0.00  0.00     0.066 H 
ENDBRANCH  39  40
ENDBRANCH  37  39
ENDBRANCH  17  37
ENDBRANCH  15  17
ENDBRANCH   1  13
BRANCH   1  44
ATOM     44  N   LIG d   1       3.761   0.837  -7.584  0.00  0.00    -0.270 N 
ATOM     45  C   LIG d   1       3.185  -0.167  -6.893  0.00  0.00     0.401 C 
ATOM     46  O   LIG d   1       3.510  -1.318  -7.110  0.00  0.00    -0.227 OA
ATOM     47  H   LIG d   1       3.502   1.755  -7.411  0.00  0.00     0.153 HD
BRANCH  45  48
ATOM     48  O   LIG d   1       2.250   0.105  -5.964  0.00  0.00    -0.446 OA
BRANCH  48  49
ATOM     49  C   LIG d   1       2.601   1.071  -4.938  0.00  0.00     0.119 C 
ATOM     50  H   LIG d   1       3.291   1.806  -5.352  0.00  0.00     0.075 H 
ATOM     51  H   LIG d   1       1.700   1.575  -4.589  0.00  0.00     0.075 H 
BRANCH  49  52
ATOM     52  C   LIG d   1       3.258   0.360  -3.784  0.00  0.00    -0.010 A 
ATOM     53  C   LIG d   1       4.127   1.046  -2.955  0.00  0.00    -0.055 A 
ATOM     54  C   LIG d   1       4.730   0.394  -1.895  0.00  0.00    -0.061 A 
ATOM     55  H   LIG d   1       4.334   2.090  -3.134  0.00  0.00     0.062 H 
ATOM     56  C   LIG d   1       4.465  -0.943  -1.665  0.00  0.00    -0.062 A 
ATOM     57  H   LIG d   1       5.408   0.930  -1.247  0.00  0.00     0.062 H 
ATOM     58  C   LIG d   1       3.596  -1.628  -2.493  0.00  0.00    -0.061 A 
ATOM     59  H   LIG d   1       4.937  -1.452  -0.837  0.00  0.00     0.062 H 
ATOM     60  C   LIG d   1       2.990  -0.975  -3.550  0.00  0.00    -0.055 A 
ATOM     61  H   LIG d   1       3.388  -2.672  -2.313  0.00  0.00     0.062 H 
ATOM     62  H   LIG d   1       2.307  -1.510  -4.195  0.00  0.00     0.062 H 
ENDBRANCH  49  52
ENDBRANCH  48  49
ENDBRANCH  45  48
ENDBRANCH   1  44
TORSDOF 14
ENDMDL
MODEL 3
REMARK VINA RESULT:      -6.6      3.492      7.101
REMARK  14 active torsions:
REMARK  status: ('A' for Active; 'I' for Inactive)
REMARK    1  A    between atoms: C_1  and  C_2 
REMARK    2  A    between atoms: C_2  and  C_3 
REMARK    3  A    between atoms: C_2  and  C_4 
REMARK    4  A    between atoms: C_4  and  C_6 
REMARK    5  A    between atoms: C_4  and  N_26 
REMARK       I    between atoms: C_6  and  N_8 
REMARK    6  A    between atoms: N_8  and  C_9 
REMARK    7  A    between atoms: C_9  and  C_11 
REMARK    8  A    between atoms: C_9  and  C_22 
REMARK    9  A    between atoms: C_11  and  C_12 
REMARK   10  A    between atoms: C_22  and  O_24 
REMARK   11  A    between atoms: O_24  and  C_25 
REMARK       I    between atoms: N_26  and  C_27 
REMARK   12  A    between atoms: C_27  and  O_29 
REMARK   13  A    between atoms: O_29  and  C_30 
REMARK   14  A    between atoms: C_30  and  C_31 
ROOT
ATOM      1  C   LIG d   1       4.670  -2.601  -6.971  0.00  0.00     0.105 C 
ATOM      2  H   LIG d   1       5.666  -2.158  -6.993  0.00  0.00     0.060 H 
ENDROOT
BRANCH   1   3
ATOM      3  C   LIG d   1       4.640  -3.734  -5.942  0.00  0.00    -0.020 C 
ATOM      4  H   LIG d   1       3.627  -3.849  -5.558  0.00  0.00     0.032 H 
BRANCH   3   5
ATOM      5  C   LIG d   1       5.085  -5.037  -6.606  0.00  0.00    -0.060 C 
ATOM      6  H   LIG d   1       4.212  -5.652  -6.825  0.00  0.00     0.023 H 
ATOM      7  H   LIG d   1       5.612  -4.811  -7.534  0.00  0.00     0.023 H 
ATOM      8  H   LIG d   1       5.751  -5.579  -5.935  0.00  0.00     0.023 H 
ENDBRANCH   3   5
BRANCH   3   9
ATOM      9  C   LIG d   1       5.588  -3.399  -4.788  0.00  0.00    -0.060 C 
ATOM     10  H   LIG d   1       5.083  -3.578  -3.839  0.00  0.00     0.023 H 
ATOM     11  H   LIG d   1       6.474  -4.030  -4.853  0.00  0.00     0.023 H 
ATOM     12  H   LIG d   1       5.883  -2.351  -4.853  0.00  0.00     0.023 H 
ENDBRANCH   3   9
ENDBRANCH   1   3
BRANCH   1  13
ATOM     13  C   LIG d   1       4.335  -3.150  -8.334  0.00  0.00     0.234 C 
ATOM     14  O   LIG d   1       5.209  -3.283  -9.165  0.00  0.00    -0.274 OA
ATOM     15  N   LIG d   1       3.067  -3.493  -8.629  0.00  0.00    -0.301 N 
ATOM     16  H   LIG d   1       2.382  -3.456  -7.943  0.00  0.00     0.150 HD
BRANCH  15  17
ATOM     17  C   LIG d   1       2.721  -3.925  -9.986  0.00  0.00     0.124 C 
ATOM     18  H   LIG d   1       3.632  -4.046 -10.572  0.00  0.00     0.062 H 
BRANCH  17  19
ATOM     19  C   LIG d   1       1.828  -2.871 -10.644  0.00  0.00     0.003 C 
ATOM     20  H   LIG d   1       1.323  -3.309 -11.505  0.00  0.00     0.034 H 
ATOM     21  H   LIG d   1       1.087  -2.523  -9.926  0.00  0.00     0.034 H 
BRANCH  19  22
ATOM     22  C   LIG d   1       2.673  -1.708 -11.097  0.00  0.00    -0.020 A 
ATOM     23  C   LIG d   1       2.772  -0.398 -10.450  0.00  0.00     0.003 A 
ATOM     24  C   LIG d   1       3.675   0.352 -11.226  0.00  0.00     0.047 A 
ATOM     25  C   LIG d   1       2.186   0.171  -9.318  0.00  0.00    -0.052 A 
ATOM     26  N   LIG d   1       4.086  -0.454 -12.263  0.00  0.00    -0.360 N 
ATOM     27  C   LIG d   1       3.974   1.657 -10.851  0.00  0.00    -0.038 A 
ATOM     28  C   LIG d   1       3.484  -1.679 -12.167  0.00  0.00     0.006 A 
ATOM     29  H   LIG d   1       4.714  -0.195 -12.956  0.00  0.00     0.165 HD
ATOM     30  H   LIG d   1       3.636  -2.500 -12.853  0.00  0.00     0.081 H 
ATOM     31  C   LIG d   1       3.384   2.200  -9.730  0.00  0.00    -0.060 A 
ATOM     32  H   LIG d   1       4.665   2.245 -11.438  0.00  0.00     0.064 H 
ATOM     33  C   LIG d   1       2.493   1.457  -8.968  0.00  0.00    -0.061 A 
ATOM     34  H   LIG d   1       3.616   3.214  -9.442  0.00  0.00     0.062 H 
ATOM     35  H   LIG d   1       2.039   1.897  -8.094  0.00  0.00     0.062 H 
ATOM     36  H   LIG d   1       1.493  -0.401  -8.721  0.00  0.00     0.062 H 
ENDBRANCH  19  22
ENDBRANCH  17  19
BRANCH  17  37
ATOM     37  C   LIG d   1       1.986  -5.239  -9.924  0.00  0.00     0.328 C 
ATOM     38  O   LIG d   1       2.318  -6.079  -9.122  0.00  0.00    -0.249 OA
BRANCH  37  39
ATOM     39  O   LIG d   1       0.961  -5.474 -10.759  0.00  0.00    -0.467 OA
BRANCH  39  40
ATOM     40  C   LIG d   1      -0.268  -5.973 -10.170  0.00  0.00     0.082 C 
ATOM     41  H   LIG d   1      -0.065  -6.345  -9.166  0.00  0.00     0.066 H 
ATOM     42  H   LIG d   1      -0.999  -5.167 -10.117  0.00  0.00     0.066 H 
ATOM     43  H   LIG d   1      -0.663  -6.782 -10.783  0.00  0.00     0.066 H 
ENDBRANCH  39  40
ENDBRANCH  37  39
ENDBRANCH  17  37
ENDBRANCH  15  17
ENDBRANCH   1  13
BRANCH   1  44
ATOM     44  N   LIG d   1       3.688  -1.578  -6.601  0.00  0.00    -0.270 N 
ATOM     45  C   LIG d   1       4.098  -0.336  -6.277  0.00  0.00     0.401 C 
ATOM     46  O   LIG d   1       5.283  -0.064  -6.291  0.00  0.00    -0.227 OA
ATOM     47  H   LIG d   1       2.743  -1.795  -6.589  0.00  0.00     0.153 HD
BRANCH  45  48
ATOM     48  O   LIG d   1       3.196   0.603  -5.936  0.00  0.00    -0.446 OA
BRANCH  48  49
ATOM     49  C   LIG d   1       2.317   0.299  -4.821  0.00  0.00     0.119 C 
ATOM     50  H   LIG d   1       1.656   1.146  -4.638  0.00  0.00     0.075 H 
ATOM     51  H   LIG d   1       1.720  -0.583  -5.058  0.00  0.00     0.075 H 
BRANCH  49  52
ATOM     52  C   LIG d   1       3.142   0.030  -3.590  0.00  0.00    -0.010 A 
ATOM     53  C   LIG d   1       3.765   1.076  -2.934  0.00  0.00    -0.055 A 
ATOM     54  C   LIG d   1       4.523   0.829  -1.804  0.00  0.00    -0.061 A 
ATOM     55  H   LIG d   1       3.659   2.084  -3.303  0.00  0.00     0.062 H 
ATOM     56  C   LIG d   1       4.658  -0.462  -1.331  0.00  0.00    -0.062 A 
ATOM     57  H   LIG d   1       5.008   1.647  -1.290  0.00  0.00     0.062 H 
ATOM     58  C   LIG d   1       4.035  -1.507  -1.986  0.00  0.00    -0.061 A 
ATOM     59  H   LIG d   1       5.251  -0.654  -0.448  0.00  0.00     0.062 H 
ATOM     60  C   LIG d   1       3.274  -1.260  -3.114  0.00  0.00    -0.055 A 
ATOM     61  H   LIG d   1       4.141  -2.517  -1.617  0.00  0.00     0.062 H 
ATOM     62  H   LIG d   1       2.784  -2.078  -3.624  0.00  0.00     0.062 H 
ENDBRANCH  49  52
ENDBRANCH  48  49
ENDBRANCH  45  48
ENDBRANCH   1  44
TORSDOF 14
ENDMDL
MODEL 4
REMARK VINA RESULT:      -6.3      2.851      7.214
REMARK  14 active torsions:
REMARK  status: ('A' for Active; 'I' for Inactive)
REMARK    1  A    between atoms: C_1  and  C_2 
REMARK    2  A    between atoms: C_2  and  C_3 
REMARK    3  A    between atoms: C_2  and  C_4 
REMARK    4  A    between atoms: C_4  and  C_6 
REMARK    5  A    between atoms: C_4  and  N_26 
REMARK       I    between atoms: C_6  and  N_8 
REMARK    6  A    between atoms: N_8  and  C_9 
REMARK    7  A    between atoms: C_9  and  C_11 
REMARK    8  A    between atoms: C_9  and  C_22 
REMARK    9  A    between atoms: C_11  and  C_12 
REMARK   10  A    between atoms: C_22  and  O_24 
REMARK   11  A    between atoms: O_24  and  C_25 
REMARK       I    between atoms: N_26  and  C_27 
REMARK   12  A    between atoms: C_27  and  O_29 
REMARK   13  A    between atoms: O_29  and  C_30 
REMARK   14  A    between atoms: C_30  and  C_31 
ROOT
ATOM      1  C   LIG d   1       5.101  -1.423  -4.387  0.00  0.00     0.105 C 
ATOM      2  H   LIG d   1       5.740  -1.836  -3.607  0.00  0.00     0.060 H 
ENDROOT
BRANCH   1   3
ATOM      3  C   LIG d   1       3.646  -1.437  -3.912  0.00  0.00    -0.020 C 
ATOM      4  H   LIG d   1       3.085  -2.178  -4.480  0.00  0.00     0.032 H 
BRANCH   3   5
ATOM      5  C   LIG d   1       3.598  -1.791  -2.425  0.00  0.00    -0.060 C 
ATOM      6  H   LIG d   1       3.925  -2.822  -2.285  0.00  0.00     0.023 H 
ATOM      7  H   LIG d   1       4.258  -1.123  -1.871  0.00  0.00     0.023 H 
ATOM      8  H   LIG d   1       2.578  -1.682  -2.057  0.00  0.00     0.023 H 
ENDBRANCH   3   5
BRANCH   3   9
ATOM      9  C   LIG d   1       3.027  -0.054  -4.126  0.00  0.00    -0.060 C 
ATOM     10  H   LIG d   1       1.943  -0.147  -4.196  0.00  0.00     0.023 H 
ATOM     11  H   LIG d   1       3.282   0.592  -3.286  0.00  0.00     0.023 H 
ATOM     12  H   LIG d   1       3.416   0.379  -5.048  0.00  0.00     0.023 H 
ENDBRANCH   3   9
ENDBRANCH   1   3
BRANCH   1  13
ATOM     13  C   LIG d   1       5.229  -2.256  -5.636  0.00  0.00     0.234 C 
ATOM     14  O   LIG d   1       6.320  -2.427  -6.140  0.00  0.00    -0.274 OA
ATOM     15  N   LIG d   1       4.135  -2.808  -6.193  0.00  0.00    -0.301 N 
ATOM     16  H   LIG d   1       3.275  -2.733  -5.751  0.00  0.00     0.150 HD
BRANCH  15  17
ATOM     17  C   LIG d   1       4.244  -3.527  -7.466  0.00  0.00     0.124 C 
ATOM     18  H   LIG d   1       5.293  -3.608  -7.749  0.00  0.00     0.062 H 
BRANCH  17  19
ATOM     19  C   LIG d   1       3.481  -2.762  -8.550  0.00  0.00     0.003 C 
ATOM     20  H   LIG d   1       3.296  -3.422  -9.397  0.00  0.00     0.034 H 
ATOM     21  H   LIG d   1       2.531  -2.413  -8.147  0.00  0.00     0.034 H 
BRANCH  19  22
ATOM     22  C   LIG d   1       4.300  -1.581  -9.001  0.00  0.00    -0.020 A 
ATOM     23  C   LIG d   1       3.914  -0.170  -8.923  0.00  0.00     0.003 A 
ATOM     24  C   LIG d   1       4.990   0.559  -9.460  0.00  0.00     0.047 A 
ATOM     25  C   LIG d   1       2.781   0.500  -8.457  0.00  0.00    -0.052 A 
ATOM     26  N   LIG d   1       5.952  -0.353  -9.833  0.00  0.00    -0.360 N 
ATOM     27  C   LIG d   1       4.911   1.946  -9.519  0.00  0.00    -0.038 A 
ATOM     28  C   LIG d   1       5.526  -1.622  -9.548  0.00  0.00     0.006 A 
ATOM     29  H   LIG d   1       6.806  -0.129 -10.234  0.00  0.00     0.165 HD
ATOM     30  H   LIG d   1       6.091  -2.522  -9.736  0.00  0.00     0.081 H 
ATOM     31  C   LIG d   1       3.784   2.588  -9.053  0.00  0.00    -0.060 A 
ATOM     32  H   LIG d   1       5.730   2.519  -9.929  0.00  0.00     0.064 H 
ATOM     33  C   LIG d   1       2.724   1.864  -8.525  0.00  0.00    -0.061 A 
ATOM     34  H   LIG d   1       3.725   3.665  -9.100  0.00  0.00     0.062 H 
ATOM     35  H   LIG d   1       1.849   2.383  -8.165  0.00  0.00     0.062 H 
ATOM     36  H   LIG d   1       1.953  -0.056  -8.045  0.00  0.00     0.062 H 
ENDBRANCH  19  22
ENDBRANCH  17  19
BRANCH  17  37
ATOM     37  C   LIG d   1       3.656  -4.907  -7.316  0.00  0.00     0.328 C 
ATOM     38  O   LIG d   1       3.256  -5.501  -8.288  0.00  0.00    -0.249 OA
BRANCH  37  39
ATOM     39  O   LIG d   1       3.578  -5.474  -6.102  0.00  0.00    -0.467 OA
BRANCH  39  40
ATOM     40  C   LIG d   1       4.690  -6.313  -5.694  0.00  0.00     0.082 C 
ATOM     41  H   LIG d   1       5.487  -5.689  -5.290  0.00  0.00     0.066 H 
ATOM     42  H   LIG d   1       4.355  -7.013  -4.928  0.00  0.00     0.066 H 
ATOM     43  H   LIG d   1       5.063  -6.867  -6.555  0.00  0.00     0.066 H 
ENDBRANCH  39  40
ENDBRANCH  37  39
ENDBRANCH  17  37
ENDBRANCH  15  17
ENDBRANCH   1  13
BRANCH   1  44
ATOM     44  N   LIG d   1       5.508  -0.045  -4.673  0.00  0.00    -0.270 N 
ATOM     45  C   LIG d   1       6.596   0.475  -4.073  0.00  0.00     0.401 C 
ATOM     46  O   LIG d   1       7.240  -0.198  -3.292  0.00  0.00    -0.227 OA
ATOM     47  H   LIG d   1       4.994   0.493  -5.296  0.00  0.00     0.153 HD
BRANCH  45  48
ATOM     48  O   LIG d   1       6.970   1.742  -4.336  0.00  0.00    -0.446 OA
BRANCH  48  49
ATOM     49  C   LIG d   1       8.315   2.127  -3.948  0.00  0.00     0.119 C 
ATOM     50  H   LIG d   1       8.284   2.636  -2.985  0.00  0.00     0.075 H 
ATOM     51  H   LIG d   1       8.939   1.236  -3.867  0.00  0.00     0.075 H 
BRANCH  49  52
ATOM     52  C   LIG d   1       8.893   3.051  -4.988  0.00  0.00    -0.010 A 
ATOM     53  C   LIG d   1       9.280   4.330  -4.636  0.00  0.00    -0.055 A 
ATOM     54  C   LIG d   1       9.811   5.179  -5.590  0.00  0.00    -0.061 A 
ATOM     55  H   LIG d   1       9.170   4.667  -3.617  0.00  0.00     0.062 H 
ATOM     56  C   LIG d   1       9.953   4.748  -6.896  0.00  0.00    -0.062 A 
ATOM     57  H   LIG d   1      10.114   6.179  -5.315  0.00  0.00     0.062 H 
ATOM     58  C   LIG d   1       9.566   3.469  -7.248  0.00  0.00    -0.061 A 
ATOM     59  H   LIG d   1      10.367   5.411  -7.641  0.00  0.00     0.062 H 
ATOM     60  C   LIG d   1       9.040   2.619  -6.292  0.00  0.00    -0.055 A 
ATOM     61  H   LIG d   1       9.677   3.132  -8.267  0.00  0.00     0.062 H 
ATOM     62  H   LIG d   1       8.741   1.617  -6.567  0.00  0.00     0.062 H 
ENDBRANCH  49  52
ENDBRANCH  48  49
ENDBRANCH  45  48
ENDBRANCH   1  44
TORSDOF 14
ENDMDL
MODEL 5
REMARK VINA RESULT:      -6.3      1.784      3.047
REMARK  14 active torsions:
REMARK  status: ('A' for Active; 'I' for Inactive)
REMARK    1  A    between atoms: C_1  and  C_2 
REMARK    2  A    between atoms: C_2  and  C_3 
REMARK    3  A    between atoms: C_2  and  C_4 
REMARK    4  A    between atoms: C_4  and  C_6 
REMARK    5  A    between atoms: C_4  and  N_26 
REMARK       I    between atoms: C_6  and  N_8 
REMARK    6  A    between atoms: N_8  and  C_9 
REMARK    7  A    between atoms: C_9  and  C_11 
REMARK    8  A    between atoms: C_9  and  C_22 
REMARK    9  A    between atoms: C_11  and  C_12 
REMARK   10  A    between atoms: C_22  and  O_24 
REMARK   11  A    between atoms: O_24  and  C_25 
REMARK       I    between atoms: N_26  and  C_27 
REMARK   12  A    between atoms: C_27  and  O_29 
REMARK   13  A    between atoms: O_29  and  C_30 
REMARK   14  A    between atoms: C_30  and  C_31 
ROOT
ATOM      1  C   LIG d   1       4.732   0.483  -8.964  0.00  0.00     0.105 C 
ATOM      2  H   LIG d   1       4.354  -0.536  -9.045  0.00  0.00     0.060 H 
ENDROOT
BRANCH   1   3
ATOM      3  C   LIG d   1       4.419   1.245 -10.254  0.00  0.00    -0.020 C 
ATOM      4  H   LIG d   1       5.349   1.563 -10.724  0.00  0.00     0.032 H 
BRANCH   3   5
ATOM      5  C   LIG d   1       3.650   0.333 -11.211  0.00  0.00    -0.060 C 
ATOM      6  H   LIG d   1       3.246   0.925 -12.032  0.00  0.00     0.023 H 
ATOM      7  H   LIG d   1       4.323  -0.427 -11.608  0.00  0.00     0.023 H 
ATOM      8  H   LIG d   1       2.833  -0.150 -10.676  0.00  0.00     0.023 H 
ENDBRANCH   3   5
BRANCH   3   9
ATOM      9  C   LIG d   1       3.568   2.474  -9.926  0.00  0.00    -0.060 C 
ATOM     10  H   LIG d   1       4.066   3.370 -10.293  0.00  0.00     0.023 H 
ATOM     11  H   LIG d   1       2.593   2.378 -10.404  0.00  0.00     0.023 H 
ATOM     12  H   LIG d   1       3.436   2.546  -8.846  0.00  0.00     0.023 H 
ENDBRANCH   3   9
ENDBRANCH   1   3
BRANCH   1  13
ATOM     13  C   LIG d   1       6.223   0.450  -8.750  0.00  0.00     0.234 C 
ATOM     14  O   LIG d   1       6.755  -0.565  -8.350  0.00  0.00    -0.274 OA
ATOM     15  N   LIG d   1       6.965   1.546  -9.001  0.00  0.00    -0.301 N 
ATOM     16  H   LIG d   1       6.552   2.332  -9.390  0.00  0.00     0.150 HD
BRANCH  15  17
ATOM     17  C   LIG d   1       8.397   1.548  -8.691  0.00  0.00     0.124 C 
ATOM     18  H   LIG d   1       8.657   0.629  -8.165  0.00  0.00     0.062 H 
BRANCH  17  19
ATOM     19  C   LIG d   1       8.725   2.753  -7.805  0.00  0.00     0.003 C 
ATOM     20  H   LIG d   1       9.553   3.310  -8.243  0.00  0.00     0.034 H 
ATOM     21  H   LIG d   1       7.850   3.398  -7.733  0.00  0.00     0.034 H 
BRANCH  19  22
ATOM     22  C   LIG d   1       9.113   2.274  -6.430  0.00  0.00    -0.020 A 
ATOM     23  C   LIG d   1       9.416   3.112  -5.269  0.00  0.00     0.003 A 
ATOM     24  C   LIG d   1       9.721   2.227  -4.219  0.00  0.00     0.047 A 
ATOM     25  C   LIG d   1       9.450   4.491  -5.050  0.00  0.00    -0.052 A 
ATOM     26  N   LIG d   1       9.608   0.950  -4.719  0.00  0.00    -0.360 N 
ATOM     27  C   LIG d   1      10.055   2.741  -2.970  0.00  0.00    -0.038 A 
ATOM     28  C   LIG d   1       9.240   0.997  -6.036  0.00  0.00     0.006 A 
ATOM     29  H   LIG d   1       9.762   0.137  -4.212  0.00  0.00     0.165 HD
ATOM     30  H   LIG d   1       9.078   0.134  -6.665  0.00  0.00     0.081 H 
ATOM     31  C   LIG d   1      10.083   4.105  -2.776  0.00  0.00    -0.060 A 
ATOM     32  H   LIG d   1      10.292   2.073  -2.155  0.00  0.00     0.064 H 
ATOM     33  C   LIG d   1       9.781   4.975  -3.815  0.00  0.00    -0.061 A 
ATOM     34  H   LIG d   1      10.342   4.501  -1.806  0.00  0.00     0.062 H 
ATOM     35  H   LIG d   1       9.808   6.040  -3.646  0.00  0.00     0.062 H 
ATOM     36  H   LIG d   1       9.217   5.173  -5.853  0.00  0.00     0.062 H 
ENDBRANCH  19  22
ENDBRANCH  17  19
BRANCH  17  37
ATOM     37  C   LIG d   1       9.189   1.635  -9.971  0.00  0.00     0.328 C 
ATOM     38  O   LIG d   1       9.377   2.708 -10.493  0.00  0.00    -0.249 OA
BRANCH  37  39
ATOM     39  O   LIG d   1       9.685   0.520 -10.530  0.00  0.00    -0.467 OA
BRANCH  39  40
ATOM     40  C   LIG d   1      10.094  -0.542  -9.630  0.00  0.00     0.082 C 
ATOM     41  H   LIG d   1       9.783  -0.298  -8.614  0.00  0.00     0.066 H 
ATOM     42  H   LIG d   1       9.627  -1.478  -9.936  0.00  0.00     0.066 H 
ATOM     43  H   LIG d   1      11.178  -0.649  -9.662  0.00  0.00     0.066 H 
ENDBRANCH  39  40
ENDBRANCH  37  39
ENDBRANCH  17  37
ENDBRANCH  15  17
ENDBRANCH   1  13
BRANCH   1  44
ATOM     44  N   LIG d   1       4.090   1.155  -7.832  0.00  0.00    -0.270 N 
ATOM     45  C   LIG d   1       3.420   0.433  -6.912  0.00  0.00     0.401 C 
ATOM     46  O   LIG d   1       3.347  -0.775  -7.022  0.00  0.00    -0.227 OA
ATOM     47  H   LIG d   1       4.148   2.119  -7.744  0.00  0.00     0.153 HD
BRANCH  45  48
ATOM     48  O   LIG d   1       2.830   1.051  -5.871  0.00  0.00    -0.446 OA
BRANCH  48  49
ATOM     49  C   LIG d   1       2.110   0.212  -4.929  0.00  0.00     0.119 C 
ATOM     50  H   LIG d   1       1.197   0.719  -4.616  0.00  0.00     0.075 H 
ATOM     51  H   LIG d   1       1.853  -0.734  -5.407  0.00  0.00     0.075 H 
BRANCH  49  52
ATOM     52  C   LIG d   1       2.976  -0.051  -3.726  0.00  0.00    -0.010 A 
ATOM     53  C   LIG d   1       3.219  -1.350  -3.320  0.00  0.00    -0.055 A 
ATOM     54  C   LIG d   1       4.014  -1.592  -2.215  0.00  0.00    -0.061 A 
ATOM     55  H   LIG d   1       2.788  -2.175  -3.866  0.00  0.00     0.062 H 
ATOM     56  C   LIG d   1       4.567  -0.535  -1.517  0.00  0.00    -0.062 A 
ATOM     57  H   LIG d   1       4.204  -2.608  -1.899  0.00  0.00     0.062 H 
ATOM     58  C   LIG d   1       4.325   0.763  -1.923  0.00  0.00    -0.061 A 
ATOM     59  H   LIG d   1       5.188  -0.725  -0.654  0.00  0.00     0.062 H 
ATOM     60  C   LIG d   1       3.533   1.005  -3.030  0.00  0.00    -0.055 A 
ATOM     61  H   LIG d   1       4.757   1.589  -1.377  0.00  0.00     0.062 H 
ATOM     62  H   LIG d   1       3.348   2.021  -3.349  0.00  0.00     0.062 H 
ENDBRANCH  49  52
ENDBRANCH  48  49
ENDBRANCH  45  48
ENDBRANCH   1  44
TORSDOF 14
ENDMDL
MODEL 6
REMARK VINA RESULT:      -6.2      3.315      6.060
REMARK  14 active torsions:
REMARK  status: ('A' for Active; 'I' for Inactive)
REMARK    1  A    between atoms: C_1  and  C_2 
REMARK    2  A    between atoms: C_2  and  C_3 
REMARK    3  A    between atoms: C_2  and  C_4 
REMARK    4  A    between atoms: C_4  and  C_6 
REMARK    5  A    between atoms: C_4  and  N_26 
REMARK       I    between atoms: C_6  and  N_8 
REMARK    6  A    between atoms: N_8  and  C_9 
REMARK    7  A    between atoms: C_9  and  C_11 
REMARK    8  A    between atoms: C_9  and  C_22 
REMARK    9  A    between atoms: C_11  and  C_12 
REMARK   10  A    between atoms: C_22  and  O_24 
REMARK   11  A    between atoms: O_24  and  C_25 
REMARK       I    between atoms: N_26  and  C_27 
REMARK   12  A    between atoms: C_27  and  O_29 
REMARK   13  A    between atoms: O_29  and  C_30 
REMARK   14  A    between atoms: C_30  and  C_31 
ROOT
ATOM      1  C   LIG d   1       5.344  -0.115  -3.700  0.00  0.00     0.105 C 
ATOM      2  H   LIG d   1       5.027   0.588  -2.930  0.00  0.00     0.060 H 
ENDROOT
BRANCH   1   3
ATOM      3  C   LIG d   1       5.266  -1.542  -3.150  0.00  0.00    -0.020 C 
ATOM      4  H   LIG d   1       6.260  -1.868  -2.844  0.00  0.00     0.032 H 
BRANCH   3   5
ATOM      5  C   LIG d   1       4.326  -1.572  -1.945  0.00  0.00    -0.060 C 
ATOM      6  H   LIG d   1       3.608  -2.384  -2.062  0.00  0.00     0.023 H 
ATOM      7  H   LIG d   1       4.906  -1.729  -1.035  0.00  0.00     0.023 H 
ATOM      8  H   LIG d   1       3.792  -0.624  -1.875  0.00  0.00     0.023 H 
ENDBRANCH   3   5
BRANCH   3   9
ATOM      9  C   LIG d   1       4.734  -2.478  -4.236  0.00  0.00    -0.060 C 
ATOM     10  H   LIG d   1       3.651  -2.379  -4.303  0.00  0.00     0.023 H 
ATOM     11  H   LIG d   1       5.183  -2.215  -5.194  0.00  0.00     0.023 H 
ATOM     12  H   LIG d   1       4.991  -3.508  -3.986  0.00  0.00     0.023 H 
ENDBRANCH   3   9
ENDBRANCH   1   3
BRANCH   1  13
ATOM     13  C   LIG d   1       6.762   0.190  -4.106  0.00  0.00     0.234 C 
ATOM     14  O   LIG d   1       7.646  -0.606  -3.865  0.00  0.00    -0.274 OA
ATOM     15  N   LIG d   1       7.050   1.345  -4.735  0.00  0.00    -0.301 N 
ATOM     16  H   LIG d   1       6.335   1.948  -4.993  0.00  0.00     0.150 HD
BRANCH  15  17
ATOM     17  C   LIG d   1       8.443   1.691  -5.033  0.00  0.00     0.124 C 
ATOM     18  H   LIG d   1       9.104   1.144  -4.361  0.00  0.00     0.062 H 
BRANCH  17  19
ATOM     19  C   LIG d   1       8.648   3.195  -4.839  0.00  0.00     0.003 C 
ATOM     20  H   LIG d   1       9.076   3.623  -5.745  0.00  0.00     0.034 H 
ATOM     21  H   LIG d   1       7.688   3.668  -4.632  0.00  0.00     0.034 H 
BRANCH  19  22
ATOM     22  C   LIG d   1       9.584   3.429  -3.682  0.00  0.00    -0.020 A 
ATOM     23  C   LIG d   1       9.841   4.705  -3.012  0.00  0.00     0.003 A 
ATOM     24  C   LIG d   1      10.779   4.432  -2.000  0.00  0.00     0.047 A 
ATOM     25  C   LIG d   1       9.365   6.006  -3.189  0.00  0.00    -0.052 A 
ATOM     26  N   LIG d   1      11.062   3.087  -2.061  0.00  0.00    -0.360 N 
ATOM     27  C   LIG d   1      11.221   5.468  -1.184  0.00  0.00    -0.038 A 
ATOM     28  C   LIG d   1      10.337   2.504  -3.065  0.00  0.00     0.006 A 
ATOM     29  H   LIG d   1      11.679   2.620  -1.476  0.00  0.00     0.165 HD
ATOM     30  H   LIG d   1      10.369   1.456  -3.324  0.00  0.00     0.081 H 
ATOM     31  C   LIG d   1      10.739   6.744  -1.376  0.00  0.00    -0.060 A 
ATOM     32  H   LIG d   1      11.942   5.273  -0.403  0.00  0.00     0.064 H 
ATOM     33  C   LIG d   1       9.814   7.009  -2.376  0.00  0.00    -0.061 A 
ATOM     34  H   LIG d   1      11.085   7.547  -0.741  0.00  0.00     0.062 H 
ATOM     35  H   LIG d   1       9.448   8.015  -2.513  0.00  0.00     0.062 H 
ATOM     36  H   LIG d   1       8.646   6.220  -3.965  0.00  0.00     0.062 H 
ENDBRANCH  19  22
ENDBRANCH  17  19
BRANCH  17  37
ATOM     37  C   LIG d   1       8.758   1.321  -6.460  0.00  0.00     0.328 C 
ATOM     38  O   LIG d   1       8.001   1.635  -7.347  0.00  0.00    -0.249 OA
BRANCH  37  39
ATOM     39  O   LIG d   1       9.882   0.643  -6.744  0.00  0.00    -0.467 OA
BRANCH  39  40
ATOM     40  C   LIG d   1       9.755  -0.789  -6.943  0.00  0.00     0.082 C 
ATOM     41  H   LIG d   1      10.743  -1.248  -6.924  0.00  0.00     0.066 H 
ATOM     42  H   LIG d   1       9.142  -1.213  -6.148  0.00  0.00     0.066 H 
ATOM     43  H   LIG d   1       9.283  -0.982  -7.907  0.00  0.00     0.066 H 
ENDBRANCH  39  40
ENDBRANCH  37  39
ENDBRANCH  17  37
ENDBRANCH  15  17
ENDBRANCH   1  13
BRANCH   1  44
ATOM     44  N   LIG d   1       4.464   0.007  -4.866  0.00  0.00    -0.270 N 
ATOM     45  C   LIG d   1       3.431   0.872  -4.842  0.00  0.00     0.401 C 
ATOM     46  O   LIG d   1       3.228   1.550  -3.854  0.00  0.00    -0.227 OA
ATOM     47  H   LIG d   1       4.626  -0.534  -5.654  0.00  0.00     0.153 HD
BRANCH  45  48
ATOM     48  O   LIG d   1       2.622   0.984  -5.913  0.00  0.00    -0.446 OA
BRANCH  48  49
ATOM     49  C   LIG d   1       2.679  -0.084  -6.895  0.00  0.00     0.119 C 
ATOM     50  H   LIG d   1       3.414  -0.826  -6.584  0.00  0.00     0.075 H 
ATOM     51  H   LIG d   1       1.699  -0.556  -6.976  0.00  0.00     0.075 H 
BRANCH  49  52
ATOM     52  C   LIG d   1       3.073   0.485  -8.233  0.00  0.00    -0.010 A 
ATOM     53  C   LIG d   1       3.379  -0.364  -9.281  0.00  0.00    -0.055 A 
ATOM     54  C   LIG d   1       3.741   0.158 -10.510  0.00  0.00    -0.061 A 
ATOM     55  H   LIG d   1       3.334  -1.433  -9.141  0.00  0.00     0.062 H 
ATOM     56  C   LIG d   1       3.798   1.527 -10.689  0.00  0.00    -0.062 A 
ATOM     57  H   LIG d   1       3.979  -0.505 -11.329  0.00  0.00     0.062 H 
ATOM     58  C   LIG d   1       3.492   2.375  -9.642  0.00  0.00    -0.061 A 
ATOM     59  H   LIG d   1       4.082   1.934 -11.649  0.00  0.00     0.062 H 
ATOM     60  C   LIG d   1       3.125   1.853  -8.415  0.00  0.00    -0.055 A 
ATOM     61  H   LIG d   1       3.536   3.445  -9.782  0.00  0.00     0.062 H 
ATOM     62  H   LIG d   1       2.882   2.517  -7.597  0.00  0.00     0.062 H 
ENDBRANCH  49  52
ENDBRANCH  48  49
ENDBRANCH  45  48
ENDBRANCH   1  44
TORSDOF 14
ENDMDL
MODEL 7
REMARK VINA RESULT:      -6.1      2.292      6.253
REMARK  14 active torsions:
REMARK  status: ('A' for Active; 'I' for Inactive)
REMARK    1  A    between atoms: C_1  and  C_2 
REMARK    2  A    between atoms: C_2  and  C_3 
REMARK    3  A    between atoms: C_2  and  C_4 
REMARK    4  A    between atoms: C_4  and  C_6 
REMARK    5  A    between atoms: C_4  and  N_26 
REMARK       I    between atoms: C_6  and  N_8 
REMARK    6  A    between atoms: N_8  and  C_9 
REMARK    7  A    between atoms: C_9  and  C_11 
REMARK    8  A    between atoms: C_9  and  C_22 
REMARK    9  A    between atoms: C_11  and  C_12 
REMARK   10  A    between atoms: C_22  and  O_24 
REMARK   11  A    between atoms: O_24  and  C_25 
REMARK       I    between atoms: N_26  and  C_27 
REMARK   12  A    between atoms: C_27  and  O_29 
REMARK   13  A    between atoms: O_29  and  C_30 
REMARK   14  A    between atoms: C_30  and  C_31 
ROOT
ATOM      1  C   LIG d   1       7.956   0.634  -7.267  0.00  0.00     0.105 C 
ATOM      2  H   LIG d   1       8.632   0.477  -8.107  0.00  0.00     0.060 H 
ENDROOT
BRANCH   1   3
ATOM      3  C   LIG d   1       8.680   1.419  -6.170  0.00  0.00    -0.020 C 
ATOM      4  H   LIG d   1       9.474   0.804  -5.748  0.00  0.00     0.032 H 
BRANCH   3   5
ATOM      5  C   LIG d   1       9.281   2.692  -6.767  0.00  0.00    -0.060 C 
ATOM      6  H   LIG d   1      10.244   2.895  -6.298  0.00  0.00     0.023 H 
ATOM      7  H   LIG d   1       9.421   2.560  -7.840  0.00  0.00     0.023 H 
ATOM      8  H   LIG d   1       8.607   3.530  -6.589  0.00  0.00     0.023 H 
ENDBRANCH   3   5
BRANCH   3   9
ATOM      9  C   LIG d   1       7.684   1.792  -5.070  0.00  0.00    -0.060 C 
ATOM     10  H   LIG d   1       6.866   1.072  -5.060  0.00  0.00     0.023 H 
ATOM     11  H   LIG d   1       8.190   1.780  -4.104  0.00  0.00     0.023 H 
ATOM     12  H   LIG d   1       7.289   2.790  -5.260  0.00  0.00     0.023 H 
ENDBRANCH   3   9
ENDBRANCH   1   3
BRANCH   1  13
ATOM     13  C   LIG d   1       7.514  -0.700  -6.722  0.00  0.00     0.234 C 
ATOM     14  O   LIG d   1       6.432  -1.152  -7.033  0.00  0.00    -0.274 OA
ATOM     15  N   LIG d   1       8.318  -1.388  -5.889  0.00  0.00    -0.301 N 
ATOM     16  H   LIG d   1       9.212  -1.062  -5.699  0.00  0.00     0.150 HD
BRANCH  15  17
ATOM     17  C   LIG d   1       7.845  -2.631  -5.274  0.00  0.00     0.124 C 
ATOM     18  H   LIG d   1       6.994  -3.014  -5.837  0.00  0.00     0.062 H 
BRANCH  17  19
ATOM     19  C   LIG d   1       7.420  -2.355  -3.830  0.00  0.00     0.003 C 
ATOM     20  H   LIG d   1       7.694  -3.204  -3.203  0.00  0.00     0.034 H 
ATOM     21  H   LIG d   1       7.923  -1.459  -3.469  0.00  0.00     0.034 H 
BRANCH  19  22
ATOM     22  C   LIG d   1       5.928  -2.152  -3.776  0.00  0.00    -0.020 A 
ATOM     23  C   LIG d   1       5.225  -0.991  -3.225  0.00  0.00     0.003 A 
ATOM     24  C   LIG d   1       3.853  -1.250  -3.396  0.00  0.00     0.047 A 
ATOM     25  C   LIG d   1       5.641   0.198  -2.622  0.00  0.00    -0.052 A 
ATOM     26  N   LIG d   1       3.744  -2.478  -4.007  0.00  0.00    -0.360 N 
ATOM     27  C   LIG d   1       2.924  -0.311  -2.961  0.00  0.00    -0.038 A 
ATOM     28  C   LIG d   1       4.990  -2.999  -4.231  0.00  0.00     0.006 A 
ATOM     29  H   LIG d   1       2.909  -2.909  -4.247  0.00  0.00     0.165 HD
ATOM     30  H   LIG d   1       5.189  -3.950  -4.701  0.00  0.00     0.081 H 
ATOM     31  C   LIG d   1       3.356   0.856  -2.369  0.00  0.00    -0.060 A 
ATOM     32  H   LIG d   1       1.867  -0.496  -3.085  0.00  0.00     0.064 H 
ATOM     33  C   LIG d   1       4.711   1.107  -2.201  0.00  0.00    -0.061 A 
ATOM     34  H   LIG d   1       2.633   1.584  -2.032  0.00  0.00     0.062 H 
ATOM     35  H   LIG d   1       5.032   2.026  -1.735  0.00  0.00     0.062 H 
ATOM     36  H   LIG d   1       6.693   0.399  -2.489  0.00  0.00     0.062 H 
ENDBRANCH  19  22
ENDBRANCH  17  19
BRANCH  17  37
ATOM     37  C   LIG d   1       8.955  -3.651  -5.286  0.00  0.00     0.328 C 
ATOM     38  O   LIG d   1       9.417  -4.029  -6.336  0.00  0.00    -0.249 OA
BRANCH  37  39
ATOM     39  O   LIG d   1       9.429  -4.139  -4.128  0.00  0.00    -0.467 OA
BRANCH  39  40
ATOM     40  C   LIG d   1       9.332  -5.573  -3.929  0.00  0.00     0.082 C 
ATOM     41  H   LIG d   1       8.344  -5.821  -3.544  0.00  0.00     0.066 H 
ATOM     42  H   LIG d   1       9.490  -6.084  -4.879  0.00  0.00     0.066 H 
ATOM     43  H   LIG d   1      10.091  -5.893  -3.214  0.00  0.00     0.066 H 
ENDBRANCH  39  40
ENDBRANCH  37  39
ENDBRANCH  17  37
ENDBRANCH  15  17
ENDBRANCH   1  13
BRANCH   1  44
ATOM     44  N   LIG d   1       6.785   1.391  -7.717  0.00  0.00    -0.270 N 
ATOM     45  C   LIG d   1       6.648   1.709  -9.020  0.00  0.00     0.401 C 
ATOM     46  O   LIG d   1       7.497   1.369  -9.821  0.00  0.00    -0.227 OA
ATOM     47  H   LIG d   1       6.108   1.662  -7.078  0.00  0.00     0.153 HD
BRANCH  45  48
ATOM     48  O   LIG d   1       5.572   2.405  -9.434  0.00  0.00    -0.446 OA
BRANCH  48  49
ATOM     49  C   LIG d   1       4.296   2.063  -8.833  0.00  0.00     0.119 C 
ATOM     50  H   LIG d   1       4.463   1.629  -7.847  0.00  0.00     0.075 H 
ATOM     51  H   LIG d   1       3.688   2.963  -8.734  0.00  0.00     0.075 H 
BRANCH  49  52
ATOM     52  C   LIG d   1       3.579   1.067  -9.706  0.00  0.00    -0.010 A 
ATOM     53  C   LIG d   1       4.026   0.830 -10.993  0.00  0.00    -0.055 A 
ATOM     54  C   LIG d   1       3.369  -0.085 -11.795  0.00  0.00    -0.061 A 
ATOM     55  H   LIG d   1       4.888   1.357 -11.371  0.00  0.00     0.062 H 
ATOM     56  C   LIG d   1       2.264  -0.760 -11.311  0.00  0.00    -0.062 A 
ATOM     57  H   LIG d   1       3.719  -0.271 -12.800  0.00  0.00     0.062 H 
ATOM     58  C   LIG d   1       1.818  -0.524 -10.025  0.00  0.00    -0.061 A 
ATOM     59  H   LIG d   1       1.751  -1.474 -11.938  0.00  0.00     0.062 H 
ATOM     60  C   LIG d   1       2.478   0.387  -9.221  0.00  0.00    -0.055 A 
ATOM     61  H   LIG d   1       0.956  -1.052  -9.646  0.00  0.00     0.062 H 
ATOM     62  H   LIG d   1       2.131   0.569  -8.214  0.00  0.00     0.062 H 
ENDBRANCH  49  52
ENDBRANCH  48  49
ENDBRANCH  45  48
ENDBRANCH   1  44
TORSDOF 14
ENDMDL
MODEL 8
REMARK VINA RESULT:      -6.1      2.653      4.173
REMARK  14 active torsions:
REMARK  status: ('A' for Active; 'I' for Inactive)
REMARK    1  A    between atoms: C_1  and  C_2 
REMARK    2  A    between atoms: C_2  and  C_3 
REMARK    3  A    between atoms: C_2  and  C_4 
REMARK    4  A    between atoms: C_4  and  C_6 
REMARK    5  A    between atoms: C_4  and  N_26 
REMARK       I    between atoms: C_6  and  N_8 
REMARK    6  A    between atoms: N_8  and  C_9 
REMARK    7  A    between atoms: C_9  and  C_11 
REMARK    8  A    between atoms: C_9  and  C_22 
REMARK    9  A    between atoms: C_11  and  C_12 
REMARK   10  A    between atoms: C_22  and  O_24 
REMARK   11  A    between atoms: O_24  and  C_25 
REMARK       I    between atoms: N_26  and  C_27 
REMARK   12  A    between atoms: C_27  and  O_29 
REMARK   13  A    between atoms: O_29  and  C_30 
REMARK   14  A    between atoms: C_30  and  C_31 
ROOT
ATOM      1  C   LIG d   1       4.920  -0.324  -8.525  0.00  0.00     0.105 C 
ATOM      2  H   LIG d   1       4.051  -0.824  -8.952  0.00  0.00     0.060 H 
ENDROOT
BRANCH   1   3
ATOM      3  C   LIG d   1       5.547   0.594  -9.577  0.00  0.00    -0.020 C 
ATOM      4  H   LIG d   1       6.297   0.041 -10.142  0.00  0.00     0.032 H 
BRANCH   3   5
ATOM      5  C   LIG d   1       4.460   1.095 -10.529  0.00  0.00    -0.060 C 
ATOM      6  H   LIG d   1       4.912   1.705 -11.310  0.00  0.00     0.023 H 
ATOM      7  H   LIG d   1       3.952   0.243 -10.981  0.00  0.00     0.023 H 
ATOM      8  H   LIG d   1       3.738   1.694  -9.973  0.00  0.00     0.023 H 
ENDBRANCH   3   5
BRANCH   3   9
ATOM      9  C   LIG d   1       6.208   1.787  -8.884  0.00  0.00    -0.060 C 
ATOM     10  H   LIG d   1       6.498   2.527  -9.630  0.00  0.00     0.023 H 
ATOM     11  H   LIG d   1       5.503   2.235  -8.183  0.00  0.00     0.023 H 
ATOM     12  H   LIG d   1       7.092   1.449  -8.344  0.00  0.00     0.023 H 
ENDBRANCH   3   9
ENDBRANCH   1   3
BRANCH   1  13
ATOM     13  C   LIG d   1       5.930  -1.354  -8.091  0.00  0.00     0.234 C 
ATOM     14  O   LIG d   1       6.181  -2.297  -8.812  0.00  0.00    -0.274 OA
ATOM     15  N   LIG d   1       6.554  -1.229  -6.903  0.00  0.00    -0.301 N 
ATOM     16  H   LIG d   1       6.408  -0.438  -6.360  0.00  0.00     0.150 HD
BRANCH  15  17
ATOM     17  C   LIG d   1       7.455  -2.285  -6.434  0.00  0.00     0.124 C 
ATOM     18  H   LIG d   1       7.491  -3.086  -7.171  0.00  0.00     0.062 H 
BRANCH  17  19
ATOM     19  C   LIG d   1       6.940  -2.839  -5.103  0.00  0.00     0.003 C 
ATOM     20  H   LIG d   1       7.775  -3.245  -4.532  0.00  0.00     0.034 H 
ATOM     21  H   LIG d   1       6.466  -2.039  -4.536  0.00  0.00     0.034 H 
BRANCH  19  22
ATOM     22  C   LIG d   1       5.936  -3.931  -5.369  0.00  0.00    -0.020 A 
ATOM     23  C   LIG d   1       6.213  -5.365  -5.473  0.00  0.00     0.003 A 
ATOM     24  C   LIG d   1       4.976  -5.984  -5.725  0.00  0.00     0.047 A 
ATOM     25  C   LIG d   1       7.372  -6.137  -5.376  0.00  0.00    -0.052 A 
ATOM     26  N   LIG d   1       4.026  -4.989  -5.769  0.00  0.00    -0.360 N 
ATOM     27  C   LIG d   1       4.923  -7.365  -5.874  0.00  0.00    -0.038 A 
ATOM     28  C   LIG d   1       4.614  -3.773  -5.549  0.00  0.00     0.006 A 
ATOM     29  H   LIG d   1       3.078  -5.128  -5.927  0.00  0.00     0.165 HD
ATOM     30  H   LIG d   1       4.093  -2.827  -5.527  0.00  0.00     0.081 H 
ATOM     31  C   LIG d   1       6.078  -8.109  -5.775  0.00  0.00    -0.060 A 
ATOM     32  H   LIG d   1       3.979  -7.854  -6.069  0.00  0.00     0.064 H 
ATOM     33  C   LIG d   1       7.298  -7.494  -5.526  0.00  0.00    -0.061 A 
ATOM     34  H   LIG d   1       6.035  -9.182  -5.891  0.00  0.00     0.062 H 
ATOM     35  H   LIG d   1       8.193  -8.092  -5.452  0.00  0.00     0.062 H 
ATOM     36  H   LIG d   1       8.323  -5.666  -5.182  0.00  0.00     0.062 H 
ENDBRANCH  19  22
ENDBRANCH  17  19
BRANCH  17  37
ATOM     37  C   LIG d   1       8.837  -1.717  -6.240  0.00  0.00     0.328 C 
ATOM     38  O   LIG d   1       9.263  -0.889  -7.010  0.00  0.00    -0.249 OA
BRANCH  37  39
ATOM     39  O   LIG d   1       9.595  -2.131  -5.212  0.00  0.00    -0.467 OA
BRANCH  39  40
ATOM     40  C   LIG d   1      10.815  -2.845  -5.539  0.00  0.00     0.082 C 
ATOM     41  H   LIG d   1      10.889  -3.741  -4.923  0.00  0.00     0.066 H 
ATOM     42  H   LIG d   1      10.800  -3.128  -6.591  0.00  0.00     0.066 H 
ATOM     43  H   LIG d   1      11.675  -2.202  -5.348  0.00  0.00     0.066 H 
ENDBRANCH  39  40
ENDBRANCH  37  39
ENDBRANCH  17  37
ENDBRANCH  15  17
ENDBRANCH   1  13
BRANCH   1  44
ATOM     44  N   LIG d   1       4.505   0.473  -7.367  0.00  0.00    -0.270 N 
ATOM     45  C   LIG d   1       3.232   0.415  -6.930  0.00  0.00     0.401 C 
ATOM     46  O   LIG d   1       2.427  -0.298  -7.496  0.00  0.00    -0.227 OA
ATOM     47  H   LIG d   1       5.148   1.042  -6.915  0.00  0.00     0.153 HD
BRANCH  45  48
ATOM     48  O   LIG d   1       2.851   1.147  -5.866  0.00  0.00    -0.446 OA
BRANCH  48  49
ATOM     49  C   LIG d   1       2.061   0.474  -4.851  0.00  0.00     0.119 C 
ATOM     50  H   LIG d   1       1.282   1.147  -4.492  0.00  0.00     0.075 H 
ATOM     51  H   LIG d   1       1.601  -0.417  -5.280  0.00  0.00     0.075 H 
BRANCH  49  52
ATOM     52  C   LIG d   1       2.950   0.077  -3.703  0.00  0.00    -0.010 A 
ATOM     53  C   LIG d   1       3.596   1.048  -2.960  0.00  0.00    -0.055 A 
ATOM     54  C   LIG d   1       4.413   0.684  -1.906  0.00  0.00    -0.061 A 
ATOM     55  H   LIG d   1       3.461   2.091  -3.203  0.00  0.00     0.062 H 
ATOM     56  C   LIG d   1       4.585  -0.652  -1.595  0.00  0.00    -0.062 A 
ATOM     57  H   LIG d   1       4.916   1.443  -1.326  0.00  0.00     0.062 H 
ATOM     58  C   LIG d   1       3.940  -1.623  -2.336  0.00  0.00    -0.061 A 
ATOM     59  H   LIG d   1       5.224  -0.936  -0.772  0.00  0.00     0.062 H 
ATOM     60  C   LIG d   1       3.119  -1.258  -3.388  0.00  0.00    -0.055 A 
ATOM     61  H   LIG d   1       4.074  -2.667  -2.093  0.00  0.00     0.062 H 
ATOM     62  H   LIG d   1       2.612  -2.018  -3.965  0.00  0.00     0.062 H 
ENDBRANCH  49  52
ENDBRANCH  48  49
ENDBRANCH  45  48
ENDBRANCH   1  44
TORSDOF 14
ENDMDL
MODEL 9
REMARK VINA RESULT:      -6.1      3.044      6.727
REMARK  14 active torsions:
REMARK  status: ('A' for Active; 'I' for Inactive)
REMARK    1  A    between atoms: C_1  and  C_2 
REMARK    2  A    between atoms: C_2  and  C_3 
REMARK    3  A    between atoms: C_2  and  C_4 
REMARK    4  A    between atoms: C_4  and  C_6 
REMARK    5  A    between atoms: C_4  and  N_26 
REMARK       I    between atoms: C_6  and  N_8 
REMARK    6  A    between atoms: N_8  and  C_9 
REMARK    7  A    between atoms: C_9  and  C_11 
REMARK    8  A    between atoms: C_9  and  C_22 
REMARK    9  A    between atoms: C_11  and  C_12 
REMARK   10  A    between atoms: C_22  and  O_24 
REMARK   11  A    between atoms: O_24  and  C_25 
REMARK       I    between atoms: N_26  and  C_27 
REMARK   12  A    between atoms: C_27  and  O_29 
REMARK   13  A    between atoms: O_29  and  C_30 
REMARK   14  A    between atoms: C_30  and  C_31 
ROOT
ATOM      1  C   LIG d   1       5.435  -1.517  -6.715  0.00  0.00     0.105 C 
ATOM      2  H   LIG d   1       5.762  -0.698  -7.356  0.00  0.00     0.060 H 
ENDROOT
BRANCH   1   3
ATOM      3  C   LIG d   1       6.457  -1.726  -5.596  0.00  0.00    -0.020 C 
ATOM      4  H   LIG d   1       7.379  -2.126  -6.016  0.00  0.00     0.032 H 
BRANCH   3   5
ATOM      5  C   LIG d   1       6.746  -0.388  -4.913  0.00  0.00    -0.060 C 
ATOM      6  H   LIG d   1       6.288  -0.378  -3.924  0.00  0.00     0.023 H 
ATOM      7  H   LIG d   1       7.823  -0.255  -4.816  0.00  0.00     0.023 H 
ATOM      8  H   LIG d   1       6.332   0.423  -5.512  0.00  0.00     0.023 H 
ENDBRANCH   3   5
BRANCH   3   9
ATOM      9  C   LIG d   1       5.894  -2.712  -4.569  0.00  0.00    -0.060 C 
ATOM     10  H   LIG d   1       6.500  -3.617  -4.564  0.00  0.00     0.023 H 
ATOM     11  H   LIG d   1       5.914  -2.255  -3.580  0.00  0.00     0.023 H 
ATOM     12  H   LIG d   1       4.866  -2.963  -4.833  0.00  0.00     0.023 H 
ENDBRANCH   3   9
ENDBRANCH   1   3
BRANCH   1  13
ATOM     13  C   LIG d   1       5.319  -2.778  -7.531  0.00  0.00     0.234 C 
ATOM     14  O   LIG d   1       6.304  -3.250  -8.061  0.00  0.00    -0.274 OA
ATOM     15  N   LIG d   1       4.123  -3.382  -7.675  0.00  0.00    -0.301 N 
ATOM     16  H   LIG d   1       3.351  -3.047  -7.193  0.00  0.00     0.150 HD
BRANCH  15  17
ATOM     17  C   LIG d   1       3.990  -4.545  -8.555  0.00  0.00     0.124 C 
ATOM     18  H   LIG d   1       4.939  -4.731  -9.057  0.00  0.00     0.062 H 
BRANCH  17  19
ATOM     19  C   LIG d   1       2.906  -4.273  -9.600  0.00  0.00     0.003 C 
ATOM     20  H   LIG d   1       2.534  -5.219  -9.992  0.00  0.00     0.034 H 
ATOM     21  H   LIG d   1       2.086  -3.724  -9.137  0.00  0.00     0.034 H 
BRANCH  19  22
ATOM     22  C   LIG d   1       3.486  -3.455 -10.725  0.00  0.00    -0.020 A 
ATOM     23  C   LIG d   1       3.495  -1.995 -10.827  0.00  0.00     0.003 A 
ATOM     24  C   LIG d   1       4.140  -1.693 -12.041  0.00  0.00     0.047 A 
ATOM     25  C   LIG d   1       3.023  -0.963 -10.014  0.00  0.00    -0.052 A 
ATOM     26  N   LIG d   1       4.491  -2.890 -12.622  0.00  0.00    -0.360 N 
ATOM     27  C   LIG d   1       4.300  -0.364 -12.415  0.00  0.00    -0.038 A 
ATOM     28  C   LIG d   1       4.099  -3.929 -11.822  0.00  0.00     0.006 A 
ATOM     29  H   LIG d   1       4.953  -2.984 -13.470  0.00  0.00     0.165 HD
ATOM     30  H   LIG d   1       4.257  -4.975 -12.042  0.00  0.00     0.081 H 
ATOM     31  C   LIG d   1       3.826   0.640 -11.598  0.00  0.00    -0.060 A 
ATOM     32  H   LIG d   1       4.793  -0.118 -13.344  0.00  0.00     0.064 H 
ATOM     33  C   LIG d   1       3.190   0.338 -10.401  0.00  0.00    -0.061 A 
ATOM     34  H   LIG d   1       3.951   1.671 -11.890  0.00  0.00     0.062 H 
ATOM     35  H   LIG d   1       2.825   1.136  -9.773  0.00  0.00     0.062 H 
ATOM     36  H   LIG d   1       2.527  -1.190  -9.083  0.00  0.00     0.062 H 
ENDBRANCH  19  22
ENDBRANCH  17  19
BRANCH  17  37
ATOM     37  C   LIG d   1       3.609  -5.753  -7.738  0.00  0.00     0.328 C 
ATOM     38  O   LIG d   1       3.366  -6.801  -8.287  0.00  0.00    -0.249 OA
BRANCH  37  39
ATOM     39  O   LIG d   1       3.540  -5.663  -6.400  0.00  0.00    -0.467 OA
BRANCH  39  40
ATOM     40  C   LIG d   1       4.646  -6.221  -5.645  0.00  0.00     0.082 C 
ATOM     41  H   LIG d   1       5.312  -6.759  -6.318  0.00  0.00     0.066 H 
ATOM     42  H   LIG d   1       5.195  -5.417  -5.157  0.00  0.00     0.066 H 
ATOM     43  H   LIG d   1       4.261  -6.908  -4.890  0.00  0.00     0.066 H 
ENDBRANCH  39  40
ENDBRANCH  37  39
ENDBRANCH  17  37
ENDBRANCH  15  17
ENDBRANCH   1  13
BRANCH   1  44
ATOM     44  N   LIG d   1       4.131  -1.190  -6.132  0.00  0.00    -0.270 N 
ATOM     45  C   LIG d   1       3.549  -0.006  -6.404  0.00  0.00     0.401 C 
ATOM     46  O   LIG d   1       4.105   0.792  -7.132  0.00  0.00    -0.227 OA
ATOM     47  H   LIG d   1       3.687  -1.827  -5.550  0.00  0.00     0.153 HD
BRANCH  45  48
ATOM     48  O   LIG d   1       2.351   0.294  -5.867  0.00  0.00    -0.446 OA
BRANCH  48  49
ATOM     49  C   LIG d   1       2.350   1.151  -4.695  0.00  0.00     0.119 C 
ATOM     50  H   LIG d   1       2.824   2.102  -4.940  0.00  0.00     0.075 H 
ATOM     51  H   LIG d   1       1.322   1.331  -4.376  0.00  0.00     0.075 H 
BRANCH  49  52
ATOM     52  C   LIG d   1       3.111   0.481  -3.581  0.00  0.00    -0.010 A 
ATOM     53  C   LIG d   1       2.855  -0.841  -3.268  0.00  0.00    -0.055 A 
ATOM     54  C   LIG d   1       3.553  -1.457  -2.245  0.00  0.00    -0.061 A 
ATOM     55  H   LIG d   1       2.111  -1.393  -3.821  0.00  0.00     0.062 H 
ATOM     56  C   LIG d   1       4.506  -0.750  -1.536  0.00  0.00    -0.062 A 
ATOM     57  H   LIG d   1       3.354  -2.490  -2.001  0.00  0.00     0.062 H 
ATOM     58  C   LIG d   1       4.763   0.571  -1.850  0.00  0.00    -0.061 A 
ATOM     59  H   LIG d   1       5.051  -1.231  -0.738  0.00  0.00     0.062 H 
ATOM     60  C   LIG d   1       4.068   1.185  -2.876  0.00  0.00    -0.055 A 
ATOM     61  H   LIG d   1       5.508   1.124  -1.297  0.00  0.00     0.062 H 
ATOM     62  H   LIG d   1       4.271   2.218  -3.123  0.00  0.00     0.062 H 
ENDBRANCH  49  52
ENDBRANCH  48  49
ENDBRANCH  45  48
ENDBRANCH   1  44
TORSDOF 14
ENDMDL
