MODEL 1
REMARK VINA RESULT:      -7.3      0.000      0.000
REMARK  1 active torsions:
REMARK  status: ('A' for Active; 'I' for Inactive)
REMARK    1  A    between atoms: C_10  and  C_22 
ROOT
ATOM      1  C   LIG d   1       4.369  -1.774  -2.664  0.00  0.00    -0.061 A 
ATOM      2  C   LIG d   1       3.572  -0.703  -2.312  0.00  0.00    -0.060 A 
ATOM      3  C   LIG d   1       3.053   0.168  -3.257  0.00  0.00    -0.041 A 
ATOM      4  C   LIG d   1       3.369  -0.082  -4.594  0.00  0.00     0.031 A 
ATOM      5  C   LIG d   1       4.164  -1.180  -4.940  0.00  0.00    -0.022 A 
ATOM      6  C   LIG d   1       4.684  -2.038  -3.993  0.00  0.00    -0.057 A 
ATOM      7  C   LIG d   1       4.301  -1.206  -6.448  0.00  0.00     0.008 C 
ATOM      8  H   LIG d   1       4.117  -2.199  -6.858  0.00  0.00     0.037 H 
ATOM      9  C   LIG d   1       5.711  -0.724  -6.782  0.00  0.00    -0.020 C 
ATOM     10  C   LIG d   1       5.833  -0.373  -8.267  0.00  0.00     0.066 C 
ATOM     11  H   LIG d   1       6.829   0.012  -8.480  0.00  0.00     0.056 H 
ATOM     12  N   LIG d   1       4.819   0.666  -8.527  0.00  0.00    -0.288 N 
ATOM     13  C   LIG d   1       3.414   0.495  -8.174  0.00  0.00     0.046 C 
ATOM     14  H   LIG d   1       2.925  -0.068  -8.968  0.00  0.00     0.052 H 
ATOM     15  C   LIG d   1       3.215  -0.220  -6.877  0.00  0.00     0.046 C 
ATOM     16  H   LIG d   1       2.295  -0.797  -6.974  0.00  0.00     0.052 H 
ATOM     17  N   LIG d   1       3.029   0.662  -5.721  0.00  0.00    -0.338 N 
ATOM     18  C   LIG d   1       2.793   1.896  -8.173  0.00  0.00    -0.024 C 
ATOM     19  C   LIG d   1       3.744   2.657  -9.128  0.00  0.00     0.026 C 
ATOM     20  C   LIG d   1       5.040   1.876  -9.061  0.00  0.00     0.216 C 
ATOM     21  O   LIG d   1       6.118   2.285  -9.437  0.00  0.00    -0.276 OA
ATOM     22  H   LIG d   1       4.758  -2.419  -1.891  0.00  0.00     0.062 H 
ATOM     23  H   LIG d   1       3.346  -0.540  -1.269  0.00  0.00     0.062 H 
ATOM     24  H   LIG d   1       2.429   1.002  -2.972  0.00  0.00     0.064 H 
ATOM     25  H   LIG d   1       5.306  -2.875  -4.271  0.00  0.00     0.062 H 
ATOM     26  H   LIG d   1       5.938   0.160  -6.184  0.00  0.00     0.029 H 
ATOM     27  H   LIG d   1       6.425  -1.511  -6.540  0.00  0.00     0.029 H 
ATOM     28  H   LIG d   1       2.727   1.584  -5.738  0.00  0.00     0.146 HD
ATOM     29  H   LIG d   1       2.819   2.327  -7.172  0.00  0.00     0.029 H 
ATOM     30  H   LIG d   1       1.776   1.884  -8.565  0.00  0.00     0.029 H 
ATOM     31  H   LIG d   1       3.897   3.678  -8.781  0.00  0.00     0.036 H 
ATOM     32  H   LIG d   1       3.350   2.655 -10.144  0.00  0.00     0.036 H 
ENDROOT
BRANCH  10  33
ATOM     33  C   LIG d   1       5.556  -1.590  -9.111  0.00  0.00     0.062 C 
ATOM     34  O   LIG d   1       4.890  -1.491 -10.114  0.00  0.00    -0.548 OA
ATOM     35  O   LIG d   1       6.050  -2.784  -8.748  0.00  0.00    -0.548 OA
ENDBRANCH  10  33
TORSDOF 1
ENDMDL
MODEL 2
REMARK VINA RESULT:      -7.0      1.945      3.513
REMARK  1 active torsions:
REMARK  status: ('A' for Active; 'I' for Inactive)
REMARK    1  A    between atoms: C_10  and  C_22 
ROOT
ATOM      1  C   LIG d   1       3.919  -0.142  -2.321  0.00  0.00    -0.061 A 
ATOM      2  C   LIG d   1       4.038  -1.502  -2.120  0.00  0.00    -0.060 A 
ATOM      3  C   LIG d   1       4.195  -2.389  -3.174  0.00  0.00    -0.041 A 
ATOM      4  C   LIG d   1       4.229  -1.848  -4.460  0.00  0.00     0.031 A 
ATOM      5  C   LIG d   1       4.125  -0.466  -4.650  0.00  0.00    -0.022 A 
ATOM      6  C   LIG d   1       3.960   0.410  -3.597  0.00  0.00    -0.057 A 
ATOM      7  C   LIG d   1       4.229  -0.185  -6.135  0.00  0.00     0.008 C 
ATOM      8  H   LIG d   1       4.926   0.624  -6.350  0.00  0.00     0.037 H 
ATOM      9  C   LIG d   1       2.824   0.152  -6.630  0.00  0.00    -0.020 C 
ATOM     10  C   LIG d   1       2.755   0.100  -8.159  0.00  0.00     0.066 C 
ATOM     11  H   LIG d   1       1.737   0.297  -8.494  0.00  0.00     0.056 H 
ATOM     12  N   LIG d   1       3.162  -1.265  -8.541  0.00  0.00    -0.288 N 
ATOM     13  C   LIG d   1       4.408  -1.868  -8.082  0.00  0.00     0.046 C 
ATOM     14  H   LIG d   1       5.214  -1.531  -8.734  0.00  0.00     0.052 H 
ATOM     15  C   LIG d   1       4.747  -1.520  -6.670  0.00  0.00     0.046 C 
ATOM     16  H   LIG d   1       5.834  -1.476  -6.609  0.00  0.00     0.052 H 
ATOM     17  N   LIG d   1       4.318  -2.514  -5.680  0.00  0.00    -0.338 N 
ATOM     18  C   LIG d   1       4.264  -3.379  -8.296  0.00  0.00    -0.024 C 
ATOM     19  C   LIG d   1       3.206  -3.432  -9.425  0.00  0.00     0.026 C 
ATOM     20  C   LIG d   1       2.458  -2.122  -9.294  0.00  0.00     0.216 C 
ATOM     21  O   LIG d   1       1.381  -1.884  -9.799  0.00  0.00    -0.276 OA
ATOM     22  H   LIG d   1       3.790   0.508  -1.468  0.00  0.00     0.062 H 
ATOM     23  H   LIG d   1       4.009  -1.887  -1.111  0.00  0.00     0.062 H 
ATOM     24  H   LIG d   1       4.288  -3.452  -3.007  0.00  0.00     0.064 H 
ATOM     25  H   LIG d   1       3.869   1.473  -3.756  0.00  0.00     0.062 H 
ATOM     26  H   LIG d   1       2.116  -0.566  -6.214  0.00  0.00     0.029 H 
ATOM     27  H   LIG d   1       2.556   1.154  -6.293  0.00  0.00     0.029 H 
ATOM     28  H   LIG d   1       4.133  -3.451  -5.845  0.00  0.00     0.146 HD
ATOM     29  H   LIG d   1       3.893  -3.861  -7.391  0.00  0.00     0.029 H 
ATOM     30  H   LIG d   1       5.202  -3.829  -8.620  0.00  0.00     0.029 H 
ATOM     31  H   LIG d   1       2.530  -4.273  -9.275  0.00  0.00     0.036 H 
ATOM     32  H   LIG d   1       3.689  -3.500 -10.400  0.00  0.00     0.036 H 
ENDROOT
BRANCH  10  33
ATOM     33  C   LIG d   1       3.702   1.109  -8.755  0.00  0.00     0.062 C 
ATOM     34  O   LIG d   1       3.691   2.253  -8.365  0.00  0.00    -0.548 OA
ATOM     35  O   LIG d   1       4.557   0.737  -9.720  0.00  0.00    -0.548 OA
ENDBRANCH  10  33
TORSDOF 1
ENDMDL
MODEL 3
REMARK VINA RESULT:      -6.8      3.776      5.277
REMARK  1 active torsions:
REMARK  status: ('A' for Active; 'I' for Inactive)
REMARK    1  A    between atoms: C_10  and  C_22 
ROOT
ATOM      1  C   LIG d   1       6.909  -5.662  -5.573  0.00  0.00    -0.061 A 
ATOM      2  C   LIG d   1       5.581  -6.030  -5.510  0.00  0.00    -0.060 A 
ATOM      3  C   LIG d   1       4.572  -5.106  -5.285  0.00  0.00    -0.041 A 
ATOM      4  C   LIG d   1       4.956  -3.774  -5.122  0.00  0.00     0.031 A 
ATOM      5  C   LIG d   1       6.304  -3.410  -5.205  0.00  0.00    -0.022 A 
ATOM      6  C   LIG d   1       7.303  -4.336  -5.421  0.00  0.00    -0.057 A 
ATOM      7  C   LIG d   1       6.399  -1.909  -5.023  0.00  0.00     0.008 C 
ATOM      8  H   LIG d   1       7.033  -1.445  -5.779  0.00  0.00     0.037 H 
ATOM      9  C   LIG d   1       6.941  -1.658  -3.618  0.00  0.00    -0.020 C 
ATOM     10  C   LIG d   1       6.740  -0.197  -3.206  0.00  0.00     0.066 C 
ATOM     11  H   LIG d   1       7.089  -0.044  -2.186  0.00  0.00     0.056 H 
ATOM     12  N   LIG d   1       5.290   0.056  -3.291  0.00  0.00    -0.288 N 
ATOM     13  C   LIG d   1       4.513  -0.230  -4.493  0.00  0.00     0.046 C 
ATOM     14  H   LIG d   1       4.619   0.610  -5.179  0.00  0.00     0.052 H 
ATOM     15  C   LIG d   1       4.940  -1.482  -5.187  0.00  0.00     0.046 C 
ATOM     16  H   LIG d   1       4.784  -1.320  -6.253  0.00  0.00     0.052 H 
ATOM     17  N   LIG d   1       4.158  -2.670  -4.831  0.00  0.00    -0.338 N 
ATOM     18  C   LIG d   1       3.043  -0.270  -4.061  0.00  0.00    -0.024 C 
ATOM     19  C   LIG d   1       3.071   0.607  -2.786  0.00  0.00     0.026 C 
ATOM     20  C   LIG d   1       4.505   0.523  -2.308  0.00  0.00     0.216 C 
ATOM     21  O   LIG d   1       4.888   0.834  -1.200  0.00  0.00    -0.276 OA
ATOM     22  H   LIG d   1       7.660  -6.419  -5.742  0.00  0.00     0.062 H 
ATOM     23  H   LIG d   1       5.319  -7.070  -5.642  0.00  0.00     0.062 H 
ATOM     24  H   LIG d   1       3.535  -5.404  -5.238  0.00  0.00     0.064 H 
ATOM     25  H   LIG d   1       8.341  -4.046  -5.471  0.00  0.00     0.062 H 
ATOM     26  H   LIG d   1       6.420  -2.305  -2.912  0.00  0.00     0.029 H 
ATOM     27  H   LIG d   1       8.006  -1.892  -3.598  0.00  0.00     0.029 H 
ATOM     28  H   LIG d   1       3.260  -2.683  -4.464  0.00  0.00     0.146 HD
ATOM     29  H   LIG d   1       2.741  -1.291  -3.825  0.00  0.00     0.029 H 
ATOM     30  H   LIG d   1       2.391   0.164  -4.818  0.00  0.00     0.029 H 
ATOM     31  H   LIG d   1       2.394   0.206  -2.032  0.00  0.00     0.036 H 
ATOM     32  H   LIG d   1       2.808   1.638  -3.025  0.00  0.00     0.036 H 
ENDROOT
BRANCH  10  33
ATOM     33  C   LIG d   1       7.481   0.714  -4.150  0.00  0.00     0.062 C 
ATOM     34  O   LIG d   1       7.052   1.819  -4.385  0.00  0.00    -0.548 OA
ATOM     35  O   LIG d   1       8.617   0.298  -4.730  0.00  0.00    -0.548 OA
ENDBRANCH  10  33
TORSDOF 1
ENDMDL
MODEL 4
REMARK VINA RESULT:      -6.4      3.477      5.460
REMARK  1 active torsions:
REMARK  status: ('A' for Active; 'I' for Inactive)
REMARK    1  A    between atoms: C_10  and  C_22 
ROOT
ATOM      1  C   LIG d   1       9.749   1.511  -6.861  0.00  0.00    -0.061 A 
ATOM      2  C   LIG d   1       9.721   2.646  -6.077  0.00  0.00    -0.060 A 
ATOM      3  C   LIG d   1       8.860   2.773  -4.998  0.00  0.00    -0.041 A 
ATOM      4  C   LIG d   1       8.013   1.695  -4.732  0.00  0.00     0.031 A 
ATOM      5  C   LIG d   1       8.063   0.543  -5.523  0.00  0.00    -0.022 A 
ATOM      6  C   LIG d   1       8.916   0.428  -6.600  0.00  0.00    -0.057 A 
ATOM      7  C   LIG d   1       7.061  -0.451  -4.972  0.00  0.00     0.008 C 
ATOM      8  H   LIG d   1       7.490  -1.448  -4.867  0.00  0.00     0.037 H 
ATOM      9  C   LIG d   1       5.866  -0.463  -5.922  0.00  0.00    -0.020 C 
ATOM     10  C   LIG d   1       4.661  -1.153  -5.278  0.00  0.00     0.066 C 
ATOM     11  H   LIG d   1       3.803  -1.112  -5.949  0.00  0.00     0.056 H 
ATOM     12  N   LIG d   1       4.374  -0.405  -4.040  0.00  0.00    -0.288 N 
ATOM     13  C   LIG d   1       5.392  -0.144  -3.028  0.00  0.00     0.046 C 
ATOM     14  H   LIG d   1       5.472  -1.020  -2.385  0.00  0.00     0.052 H 
ATOM     15  C   LIG d   1       6.735   0.158  -3.608  0.00  0.00     0.046 C 
ATOM     16  H   LIG d   1       7.475  -0.234  -2.910  0.00  0.00     0.052 H 
ATOM     17  N   LIG d   1       7.025   1.588  -3.756  0.00  0.00    -0.338 N 
ATOM     18  C   LIG d   1       4.857   1.000  -2.159  0.00  0.00    -0.024 C 
ATOM     19  C   LIG d   1       3.331   0.861  -2.369  0.00  0.00     0.026 C 
ATOM     20  C   LIG d   1       3.202   0.154  -3.702  0.00  0.00     0.216 C 
ATOM     21  O   LIG d   1       2.188   0.099  -4.365  0.00  0.00    -0.276 OA
ATOM     22  H   LIG d   1      10.432   1.463  -7.697  0.00  0.00     0.062 H 
ATOM     23  H   LIG d   1      10.391   3.460  -6.311  0.00  0.00     0.062 H 
ATOM     24  H   LIG d   1       8.846   3.665  -4.389  0.00  0.00     0.064 H 
ATOM     25  H   LIG d   1       8.937  -0.461  -7.212  0.00  0.00     0.062 H 
ATOM     26  H   LIG d   1       5.599   0.564  -6.174  0.00  0.00     0.029 H 
ATOM     27  H   LIG d   1       6.138  -0.995  -6.834  0.00  0.00     0.029 H 
ATOM     28  H   LIG d   1       6.610   2.316  -3.268  0.00  0.00     0.146 HD
ATOM     29  H   LIG d   1       5.216   1.962  -2.527  0.00  0.00     0.029 H 
ATOM     30  H   LIG d   1       5.121   0.862  -1.110  0.00  0.00     0.029 H 
ATOM     31  H   LIG d   1       2.860   1.843  -2.412  0.00  0.00     0.036 H 
ATOM     32  H   LIG d   1       2.887   0.261  -1.574  0.00  0.00     0.036 H 
ENDROOT
BRANCH  10  33
ATOM     33  C   LIG d   1       4.997  -2.585  -4.952  0.00  0.00     0.062 C 
ATOM     34  O   LIG d   1       5.734  -3.212  -5.674  0.00  0.00    -0.548 OA
ATOM     35  O   LIG d   1       4.476  -3.163  -3.858  0.00  0.00    -0.548 OA
ENDBRANCH  10  33
TORSDOF 1
ENDMDL
MODEL 5
REMARK VINA RESULT:      -6.4      2.625      5.260
REMARK  1 active torsions:
REMARK  status: ('A' for Active; 'I' for Inactive)
REMARK    1  A    between atoms: C_10  and  C_22 
ROOT
ATOM      1  C   LIG d   1       3.342  -1.993 -10.575  0.00  0.00    -0.061 A 
ATOM      2  C   LIG d   1       2.193  -1.247 -10.405  0.00  0.00    -0.060 A 
ATOM      3  C   LIG d   1       1.913  -0.592  -9.215  0.00  0.00    -0.041 A 
ATOM      4  C   LIG d   1       2.847  -0.717  -8.185  0.00  0.00     0.031 A 
ATOM      5  C   LIG d   1       4.016  -1.462  -8.376  0.00  0.00    -0.022 A 
ATOM      6  C   LIG d   1       4.284  -2.118  -9.559  0.00  0.00    -0.057 A 
ATOM      7  C   LIG d   1       4.837  -1.385  -7.105  0.00  0.00     0.008 C 
ATOM      8  H   LIG d   1       5.882  -1.152  -7.308  0.00  0.00     0.037 H 
ATOM      9  C   LIG d   1       4.700  -2.729  -6.396  0.00  0.00    -0.020 C 
ATOM     10  C   LIG d   1       5.188  -2.638  -4.948  0.00  0.00     0.066 C 
ATOM     11  H   LIG d   1       5.041  -3.591  -4.441  0.00  0.00     0.056 H 
ATOM     12  N   LIG d   1       4.372  -1.589  -4.306  0.00  0.00    -0.288 N 
ATOM     13  C   LIG d   1       4.235  -0.250  -4.868  0.00  0.00     0.046 C 
ATOM     14  H   LIG d   1       5.096   0.343  -4.559  0.00  0.00     0.052 H 
ATOM     15  C   LIG d   1       4.149  -0.242  -6.359  0.00  0.00     0.046 C 
ATOM     16  H   LIG d   1       4.626   0.679  -6.697  0.00  0.00     0.052 H 
ATOM     17  N   LIG d   1       2.782  -0.215  -6.888  0.00  0.00    -0.338 N 
ATOM     18  C   LIG d   1       3.002   0.375  -4.205  0.00  0.00    -0.024 C 
ATOM     19  C   LIG d   1       2.922  -0.426  -2.883  0.00  0.00     0.026 C 
ATOM     20  C   LIG d   1       3.639  -1.724  -3.191  0.00  0.00     0.216 C 
ATOM     21  O   LIG d   1       3.564  -2.735  -2.525  0.00  0.00    -0.276 OA
ATOM     22  H   LIG d   1       3.512  -2.492 -11.518  0.00  0.00     0.062 H 
ATOM     23  H   LIG d   1       1.493  -1.170 -11.223  0.00  0.00     0.062 H 
ATOM     24  H   LIG d   1       1.012  -0.009  -9.091  0.00  0.00     0.064 H 
ATOM     25  H   LIG d   1       5.183  -2.700  -9.692  0.00  0.00     0.062 H 
ATOM     26  H   LIG d   1       3.652  -3.033  -6.402  0.00  0.00     0.029 H 
ATOM     27  H   LIG d   1       5.291  -3.477  -6.926  0.00  0.00     0.029 H 
ATOM     28  H   LIG d   1       1.988   0.092  -6.424  0.00  0.00     0.146 HD
ATOM     29  H   LIG d   1       2.114   0.210  -4.815  0.00  0.00     0.029 H 
ATOM     30  H   LIG d   1       3.148   1.437  -4.009  0.00  0.00     0.029 H 
ATOM     31  H   LIG d   1       1.884  -0.619  -2.616  0.00  0.00     0.036 H 
ATOM     32  H   LIG d   1       3.429   0.109  -2.080  0.00  0.00     0.036 H 
ENDROOT
BRANCH  10  33
ATOM     33  C   LIG d   1       6.644  -2.252  -4.916  0.00  0.00     0.062 C 
ATOM     34  O   LIG d   1       7.033  -1.422  -4.129  0.00  0.00    -0.548 OA
ATOM     35  O   LIG d   1       7.510  -2.832  -5.762  0.00  0.00    -0.548 OA
ENDBRANCH  10  33
TORSDOF 1
ENDMDL
MODEL 6
REMARK VINA RESULT:      -5.7     11.818     12.975
REMARK  1 active torsions:
REMARK  status: ('A' for Active; 'I' for Inactive)
REMARK    1  A    between atoms: C_10  and  C_22 
ROOT
ATOM      1  C   LIG d   1      10.403  12.918  -0.914  0.00  0.00    -0.061 A 
ATOM      2  C   LIG d   1       9.905  12.883  -2.200  0.00  0.00    -0.060 A 
ATOM      3  C   LIG d   1       9.559  11.693  -2.822  0.00  0.00    -0.041 A 
ATOM      4  C   LIG d   1       9.735  10.518  -2.088  0.00  0.00     0.031 A 
ATOM      5  C   LIG d   1      10.225  10.568  -0.778  0.00  0.00    -0.022 A 
ATOM      6  C   LIG d   1      10.575  11.755  -0.170  0.00  0.00    -0.057 A 
ATOM      7  C   LIG d   1      10.272   9.153  -0.238  0.00  0.00     0.008 C 
ATOM      8  H   LIG d   1       9.835   9.081   0.757  0.00  0.00     0.037 H 
ATOM      9  C   LIG d   1      11.736   8.722  -0.230  0.00  0.00    -0.020 C 
ATOM     10  C   LIG d   1      11.860   7.207  -0.046  0.00  0.00     0.066 C 
ATOM     11  H   LIG d   1      12.907   6.908  -0.089  0.00  0.00     0.056 H 
ATOM     12  N   LIG d   1      11.111   6.596  -1.161  0.00  0.00    -0.288 N 
ATOM     13  C   LIG d   1       9.727   6.947  -1.459  0.00  0.00     0.046 C 
ATOM     14  H   LIG d   1       9.076   6.364  -0.808  0.00  0.00     0.052 H 
ATOM     15  C   LIG d   1       9.432   8.398  -1.268  0.00  0.00     0.046 C 
ATOM     16  H   LIG d   1       8.397   8.468  -0.933  0.00  0.00     0.052 H 
ATOM     17  N   LIG d   1       9.523   9.202  -2.491  0.00  0.00    -0.338 N 
ATOM     18  C   LIG d   1       9.460   6.477  -2.893  0.00  0.00    -0.024 C 
ATOM     19  C   LIG d   1      10.513   5.354  -3.053  0.00  0.00     0.026 C 
ATOM     20  C   LIG d   1      11.586   5.706  -2.045  0.00  0.00     0.216 C 
ATOM     21  O   LIG d   1      12.710   5.249  -2.036  0.00  0.00    -0.276 OA
ATOM     22  H   LIG d   1      10.667  13.869  -0.475  0.00  0.00     0.062 H 
ATOM     23  H   LIG d   1       9.780  13.811  -2.739  0.00  0.00     0.062 H 
ATOM     24  H   LIG d   1       9.169  11.675  -3.829  0.00  0.00     0.064 H 
ATOM     25  H   LIG d   1      10.963  11.781   0.837  0.00  0.00     0.062 H 
ATOM     26  H   LIG d   1      12.199   9.007  -1.176  0.00  0.00     0.029 H 
ATOM     27  H   LIG d   1      12.254   9.225   0.587  0.00  0.00     0.029 H 
ATOM     28  H   LIG d   1       9.450   8.879  -3.403  0.00  0.00     0.146 HD
ATOM     29  H   LIG d   1       9.641   7.285  -3.602  0.00  0.00     0.029 H 
ATOM     30  H   LIG d   1       8.450   6.082  -3.004  0.00  0.00     0.029 H 
ATOM     31  H   LIG d   1      10.924   5.357  -4.062  0.00  0.00     0.036 H 
ATOM     32  H   LIG d   1      10.076   4.383  -2.822  0.00  0.00     0.036 H 
ENDROOT
BRANCH  10  33
ATOM     33  C   LIG d   1      11.256   6.794   1.271  0.00  0.00     0.062 C 
ATOM     34  O   LIG d   1      10.598   5.783   1.344  0.00  0.00    -0.548 OA
ATOM     35  O   LIG d   1      11.450   7.550   2.363  0.00  0.00    -0.548 OA
ENDBRANCH  10  33
TORSDOF 1
ENDMDL
MODEL 7
REMARK VINA RESULT:      -5.6      3.184      5.249
REMARK  1 active torsions:
REMARK  status: ('A' for Active; 'I' for Inactive)
REMARK    1  A    between atoms: C_10  and  C_22 
ROOT
ATOM      1  C   LIG d   1       7.433  -4.470  -7.578  0.00  0.00    -0.061 A 
ATOM      2  C   LIG d   1       7.952  -4.997  -6.413  0.00  0.00    -0.060 A 
ATOM      3  C   LIG d   1       7.471  -4.634  -5.164  0.00  0.00    -0.041 A 
ATOM      4  C   LIG d   1       6.431  -3.703  -5.130  0.00  0.00     0.031 A 
ATOM      5  C   LIG d   1       5.902  -3.189  -6.318  0.00  0.00    -0.022 A 
ATOM      6  C   LIG d   1       6.390  -3.549  -7.556  0.00  0.00    -0.057 A 
ATOM      7  C   LIG d   1       4.775  -2.241  -5.961  0.00  0.00     0.008 C 
ATOM      8  H   LIG d   1       3.882  -2.425  -6.557  0.00  0.00     0.037 H 
ATOM      9  C   LIG d   1       5.296  -0.821  -6.172  0.00  0.00    -0.020 C 
ATOM     10  C   LIG d   1       4.375   0.205  -5.507  0.00  0.00     0.066 C 
ATOM     11  H   LIG d   1       4.783   1.208  -5.627  0.00  0.00     0.056 H 
ATOM     12  N   LIG d   1       4.323  -0.156  -4.078  0.00  0.00    -0.288 N 
ATOM     13  C   LIG d   1       3.978  -1.498  -3.622  0.00  0.00     0.046 C 
ATOM     14  H   LIG d   1       2.892  -1.587  -3.602  0.00  0.00     0.052 H 
ATOM     15  C   LIG d   1       4.539  -2.578  -4.489  0.00  0.00     0.046 C 
ATOM     16  H   LIG d   1       3.822  -3.399  -4.472  0.00  0.00     0.052 H 
ATOM     17  N   LIG d   1       5.813  -3.132  -4.020  0.00  0.00    -0.338 N 
ATOM     18  C   LIG d   1       4.461  -1.600  -2.171  0.00  0.00    -0.024 C 
ATOM     19  C   LIG d   1       4.472  -0.113  -1.742  0.00  0.00     0.026 C 
ATOM     20  C   LIG d   1       4.613   0.647  -3.044  0.00  0.00     0.216 C 
ATOM     21  O   LIG d   1       4.938   1.812  -3.137  0.00  0.00    -0.276 OA
ATOM     22  H   LIG d   1       7.847  -4.777  -8.527  0.00  0.00     0.062 H 
ATOM     23  H   LIG d   1       8.756  -5.715  -6.476  0.00  0.00     0.062 H 
ATOM     24  H   LIG d   1       7.883  -5.053  -4.258  0.00  0.00     0.064 H 
ATOM     25  H   LIG d   1       5.983  -3.136  -8.467  0.00  0.00     0.062 H 
ATOM     26  H   LIG d   1       6.295  -0.738  -5.742  0.00  0.00     0.029 H 
ATOM     27  H   LIG d   1       5.350  -0.614  -7.241  0.00  0.00     0.029 H 
ATOM     28  H   LIG d   1       6.157  -3.106  -3.114  0.00  0.00     0.146 HD
ATOM     29  H   LIG d   1       5.464  -2.025  -2.129  0.00  0.00     0.029 H 
ATOM     30  H   LIG d   1       3.768  -2.178  -1.558  0.00  0.00     0.029 H 
ATOM     31  H   LIG d   1       5.319   0.090  -1.089  0.00  0.00     0.036 H 
ATOM     32  H   LIG d   1       3.537   0.149  -1.246  0.00  0.00     0.036 H 
ENDROOT
BRANCH  10  33
ATOM     33  C   LIG d   1       2.997   0.132  -6.111  0.00  0.00     0.062 C 
ATOM     34  O   LIG d   1       2.023   0.325  -5.421  0.00  0.00    -0.548 OA
ATOM     35  O   LIG d   1       2.850  -0.149  -7.415  0.00  0.00    -0.548 OA
ENDBRANCH  10  33
TORSDOF 1
ENDMDL
MODEL 8
REMARK VINA RESULT:      -5.6      2.079      2.473
REMARK  1 active torsions:
REMARK  status: ('A' for Active; 'I' for Inactive)
REMARK    1  A    between atoms: C_10  and  C_22 
ROOT
ATOM      1  C   LIG d   1       6.251  -2.832  -4.440  0.00  0.00    -0.061 A 
ATOM      2  C   LIG d   1       6.511  -1.564  -3.963  0.00  0.00    -0.060 A 
ATOM      3  C   LIG d   1       5.946  -0.434  -4.535  0.00  0.00    -0.041 A 
ATOM      4  C   LIG d   1       5.093  -0.631  -5.623  0.00  0.00     0.031 A 
ATOM      5  C   LIG d   1       4.824  -1.923  -6.086  0.00  0.00    -0.022 A 
ATOM      6  C   LIG d   1       5.397  -3.042  -5.518  0.00  0.00    -0.057 A 
ATOM      7  C   LIG d   1       3.849  -1.816  -7.241  0.00  0.00     0.008 C 
ATOM      8  H   LIG d   1       3.022  -2.519  -7.144  0.00  0.00     0.037 H 
ATOM      9  C   LIG d   1       4.639  -2.067  -8.523  0.00  0.00    -0.020 C 
ATOM     10  C   LIG d   1       3.838  -1.633  -9.754  0.00  0.00     0.066 C 
ATOM     11  H   LIG d   1       4.431  -1.775 -10.656  0.00  0.00     0.056 H 
ATOM     12  N   LIG d   1       3.536  -0.202  -9.563  0.00  0.00    -0.288 N 
ATOM     13  C   LIG d   1       2.901   0.310  -8.354  0.00  0.00     0.046 C 
ATOM     14  H   LIG d   1       1.823   0.178  -8.449  0.00  0.00     0.052 H 
ATOM     15  C   LIG d   1       3.367  -0.371  -7.109  0.00  0.00     0.046 C 
ATOM     16  H   LIG d   1       2.518  -0.390  -6.424  0.00  0.00     0.052 H 
ATOM     17  N   LIG d   1       4.449   0.324  -6.405  0.00  0.00    -0.338 N 
ATOM     18  C   LIG d   1       3.165   1.820  -8.331  0.00  0.00    -0.024 C 
ATOM     19  C   LIG d   1       3.386   2.119  -9.833  0.00  0.00     0.026 C 
ATOM     20  C   LIG d   1       3.829   0.792 -10.414  0.00  0.00     0.216 C 
ATOM     21  O   LIG d   1       4.367   0.651 -11.492  0.00  0.00    -0.276 OA
ATOM     22  H   LIG d   1       6.722  -3.681  -3.968  0.00  0.00     0.062 H 
ATOM     23  H   LIG d   1       7.175  -1.448  -3.119  0.00  0.00     0.062 H 
ATOM     24  H   LIG d   1       6.154   0.555  -4.154  0.00  0.00     0.064 H 
ATOM     25  H   LIG d   1       5.191  -4.033  -5.892  0.00  0.00     0.062 H 
ATOM     26  H   LIG d   1       5.572  -1.503  -8.486  0.00  0.00     0.029 H 
ATOM     27  H   LIG d   1       4.867  -3.130  -8.601  0.00  0.00     0.029 H 
ATOM     28  H   LIG d   1       4.671   1.266  -6.472  0.00  0.00     0.146 HD
ATOM     29  H   LIG d   1       4.062   2.044  -7.753  0.00  0.00     0.029 H 
ATOM     30  H   LIG d   1       2.307   2.371  -7.946  0.00  0.00     0.029 H 
ATOM     31  H   LIG d   1       4.165   2.870  -9.962  0.00  0.00     0.036 H 
ATOM     32  H   LIG d   1       2.457   2.448 -10.299  0.00  0.00     0.036 H 
ENDROOT
BRANCH  10  33
ATOM     33  C   LIG d   1       2.559  -2.424  -9.845  0.00  0.00     0.062 C 
ATOM     34  O   LIG d   1       2.584  -3.628  -9.747  0.00  0.00    -0.548 OA
ATOM     35  O   LIG d   1       1.391  -1.790 -10.034  0.00  0.00    -0.548 OA
ENDBRANCH  10  33
TORSDOF 1
ENDMDL
MODEL 9
REMARK VINA RESULT:      -5.4      3.107      5.597
REMARK  1 active torsions:
REMARK  status: ('A' for Active; 'I' for Inactive)
REMARK    1  A    between atoms: C_10  and  C_22 
ROOT
ATOM      1  C   LIG d   1       2.554   0.661  -9.063  0.00  0.00    -0.061 A 
ATOM      2  C   LIG d   1       2.418  -0.578  -9.655  0.00  0.00    -0.060 A 
ATOM      3  C   LIG d   1       2.904  -1.733  -9.062  0.00  0.00    -0.041 A 
ATOM      4  C   LIG d   1       3.543  -1.593  -7.828  0.00  0.00     0.031 A 
ATOM      5  C   LIG d   1       3.659  -0.334  -7.230  0.00  0.00    -0.022 A 
ATOM      6  C   LIG d   1       3.181   0.811  -7.830  0.00  0.00    -0.057 A 
ATOM      7  C   LIG d   1       4.361  -0.509  -5.898  0.00  0.00     0.008 C 
ATOM      8  H   LIG d   1       3.848   0.019  -5.094  0.00  0.00     0.037 H 
ATOM      9  C   LIG d   1       5.789   0.002  -6.070  0.00  0.00    -0.020 C 
ATOM     10  C   LIG d   1       6.678  -0.453  -4.909  0.00  0.00     0.066 C 
ATOM     11  H   LIG d   1       7.703  -0.121  -5.069  0.00  0.00     0.056 H 
ATOM     12  N   LIG d   1       6.616  -1.927  -4.899  0.00  0.00    -0.288 N 
ATOM     13  C   LIG d   1       5.354  -2.658  -4.872  0.00  0.00     0.046 C 
ATOM     14  H   LIG d   1       5.012  -2.716  -3.839  0.00  0.00     0.052 H 
ATOM     15  C   LIG d   1       4.286  -2.023  -5.702  0.00  0.00     0.046 C 
ATOM     16  H   LIG d   1       3.338  -2.223  -5.203  0.00  0.00     0.052 H 
ATOM     17  N   LIG d   1       4.164  -2.572  -7.056  0.00  0.00    -0.338 N 
ATOM     18  C   LIG d   1       5.671  -4.089  -5.318  0.00  0.00    -0.024 C 
ATOM     19  C   LIG d   1       7.172  -4.200  -4.958  0.00  0.00     0.026 C 
ATOM     20  C   LIG d   1       7.660  -2.767  -4.955  0.00  0.00     0.216 C 
ATOM     21  O   LIG d   1       8.824  -2.428  -4.995  0.00  0.00    -0.276 OA
ATOM     22  H   LIG d   1       2.167   1.533  -9.568  0.00  0.00     0.062 H 
ATOM     23  H   LIG d   1       1.918  -0.650 -10.609  0.00  0.00     0.062 H 
ATOM     24  H   LIG d   1       2.792  -2.699  -9.533  0.00  0.00     0.064 H 
ATOM     25  H   LIG d   1       3.287   1.780  -7.365  0.00  0.00     0.062 H 
ATOM     26  H   LIG d   1       6.197  -0.383  -7.006  0.00  0.00     0.029 H 
ATOM     27  H   LIG d   1       5.779   1.092  -6.107  0.00  0.00     0.029 H 
ATOM     28  H   LIG d   1       4.458  -3.447  -7.354  0.00  0.00     0.146 HD
ATOM     29  H   LIG d   1       5.518  -4.199  -6.392  0.00  0.00     0.029 H 
ATOM     30  H   LIG d   1       5.083  -4.821  -4.765  0.00  0.00     0.029 H 
ATOM     31  H   LIG d   1       7.703  -4.781  -5.712  0.00  0.00     0.036 H 
ATOM     32  H   LIG d   1       7.298  -4.648  -3.972  0.00  0.00     0.036 H 
ENDROOT
BRANCH  10  33
ATOM     33  C   LIG d   1       6.151   0.096  -3.609  0.00  0.00     0.062 C 
ATOM     34  O   LIG d   1       5.919  -0.650  -2.687  0.00  0.00    -0.548 OA
ATOM     35  O   LIG d   1       5.940   1.415  -3.474  0.00  0.00    -0.548 OA
ENDBRANCH  10  33
TORSDOF 1
ENDMDL
MODEL 10
REMARK VINA RESULT:      -5.4      9.398     10.039
REMARK  1 active torsions:
REMARK  status: ('A' for Active; 'I' for Inactive)
REMARK    1  A    between atoms: C_10  and  C_22 
ROOT
ATOM      1  C   LIG d   1      11.314   8.037   1.224  0.00  0.00    -0.061 A 
ATOM      2  C   LIG d   1      11.041   9.271   0.668  0.00  0.00    -0.060 A 
ATOM      3  C   LIG d   1      10.527   9.402  -0.613  0.00  0.00    -0.041 A 
ATOM      4  C   LIG d   1      10.293   8.225  -1.327  0.00  0.00     0.031 A 
ATOM      5  C   LIG d   1      10.557   6.980  -0.746  0.00  0.00    -0.022 A 
ATOM      6  C   LIG d   1      11.077   6.858   0.525  0.00  0.00    -0.057 A 
ATOM      7  C   LIG d   1      10.174   5.904  -1.742  0.00  0.00     0.008 C 
ATOM      8  H   LIG d   1       9.574   5.118  -1.283  0.00  0.00     0.037 H 
ATOM      9  C   LIG d   1      11.470   5.343  -2.322  0.00  0.00    -0.020 C 
ATOM     10  C   LIG d   1      11.194   4.516  -3.580  0.00  0.00     0.066 C 
ATOM     11  H   LIG d   1      12.131   4.160  -4.008  0.00  0.00     0.056 H 
ATOM     12  N   LIG d   1      10.514   5.422  -4.525  0.00  0.00    -0.288 N 
ATOM     13  C   LIG d   1       9.323   6.182  -4.162  0.00  0.00     0.046 C 
ATOM     14  H   LIG d   1       8.453   5.537  -4.280  0.00  0.00     0.052 H 
ATOM     15  C   LIG d   1       9.358   6.700  -2.761  0.00  0.00     0.046 C 
ATOM     16  H   LIG d   1       8.329   6.701  -2.401  0.00  0.00     0.052 H 
ATOM     17  N   LIG d   1       9.840   8.079  -2.636  0.00  0.00    -0.338 N 
ATOM     18  C   LIG d   1       9.191   7.303  -5.199  0.00  0.00    -0.024 C 
ATOM     19  C   LIG d   1       9.956   6.703  -6.403  0.00  0.00     0.026 C 
ATOM     20  C   LIG d   1      10.901   5.698  -5.779  0.00  0.00     0.216 C 
ATOM     21  O   LIG d   1      11.864   5.212  -6.334  0.00  0.00    -0.276 OA
ATOM     22  H   LIG d   1      11.723   7.987   2.222  0.00  0.00     0.062 H 
ATOM     23  H   LIG d   1      11.233  10.161   1.249  0.00  0.00     0.062 H 
ATOM     24  H   LIG d   1      10.315  10.371  -1.039  0.00  0.00     0.064 H 
ATOM     25  H   LIG d   1      11.289   5.892   0.959  0.00  0.00     0.062 H 
ATOM     26  H   LIG d   1      12.137   6.168  -2.574  0.00  0.00     0.029 H 
ATOM     27  H   LIG d   1      11.951   4.710  -1.576  0.00  0.00     0.029 H 
ATOM     28  H   LIG d   1       9.843   8.756  -3.330  0.00  0.00     0.146 HD
ATOM     29  H   LIG d   1       9.675   8.213  -4.844  0.00  0.00     0.029 H 
ATOM     30  H   LIG d   1       8.148   7.491  -5.454  0.00  0.00     0.029 H 
ATOM     31  H   LIG d   1      10.515   7.478  -6.925  0.00  0.00     0.036 H 
ATOM     32  H   LIG d   1       9.266   6.205  -7.086  0.00  0.00     0.036 H 
ENDROOT
BRANCH  10  33
ATOM     33  C   LIG d   1      10.300   3.349  -3.248  0.00  0.00     0.062 C 
ATOM     34  O   LIG d   1      10.640   2.545  -2.413  0.00  0.00    -0.548 OA
ATOM     35  O   LIG d   1       9.126   3.203  -3.881  0.00  0.00    -0.548 OA
ENDBRANCH  10  33
TORSDOF 1
ENDMDL
