MODEL 1
REMARK VINA RESULT:      -6.6      0.000      0.000
REMARK  9 active torsions:
REMARK  status: ('A' for Active; 'I' for Inactive)
REMARK    1  A    between atoms: C_1  and  C_2 
REMARK    2  A    between atoms: C_2  and  C_4 
REMARK    3  A    between atoms: C_2  and  N_10 
REMARK    4  A    between atoms: N_10  and  C_11 
REMARK    5  A    between atoms: C_11  and  C_12 
REMARK    6  A    between atoms: C_12  and  C_13 
REMARK    7  A    between atoms: C_13  and  C_15 
REMARK    8  A    between atoms: C_13  and  C_22 
REMARK    9  A    between atoms: C_15  and  C_16 
ROOT
ATOM      1  C   LIG d   1       4.818  -1.876  -7.304  0.00  0.00    -0.003 C 
ATOM      2  H   LIG d   1       5.398  -2.193  -8.170  0.00  0.00     0.032 H 
ATOM      3  H   LIG d   1       3.757  -1.877  -7.559  0.00  0.00     0.032 H 
ENDROOT
BRANCH   1   4
ATOM      4  C   LIG d   1       5.063  -2.842  -6.144  0.00  0.00    -0.032 C 
ATOM      5  H   LIG d   1       6.014  -2.603  -5.666  0.00  0.00     0.081 H 
ATOM      6  H   LIG d   1       5.094  -3.864  -6.523  0.00  0.00     0.081 H 
BRANCH   4   7
ATOM      7  N   LIG d   1       3.977  -2.716  -5.163  0.00  0.00     0.232 N 
ATOM      8  H   LIG d   1       3.401  -3.544  -5.192  0.00  0.00     0.202 HD
ATOM      9  H   LIG d   1       3.415  -1.908  -5.385  0.00  0.00     0.202 HD
BRANCH   7  10
ATOM     10  C   LIG d   1       4.547  -2.562  -3.818  0.00  0.00     0.000 C 
ATOM     11  H   LIG d   1       4.107  -3.304  -3.151  0.00  0.00     0.090 H 
BRANCH  10  12
ATOM     12  C   LIG d   1       6.062  -2.766  -3.880  0.00  0.00    -0.017 C 
ATOM     13  H   LIG d   1       6.550  -2.065  -3.202  0.00  0.00     0.029 H 
ATOM     14  H   LIG d   1       6.304  -3.787  -3.584  0.00  0.00     0.029 H 
ATOM     15  H   LIG d   1       6.410  -2.589  -4.897  0.00  0.00     0.029 H 
ENDBRANCH  10  12
BRANCH  10  16
ATOM     16  C   LIG d   1       4.246  -1.180  -3.300  0.00  0.00    -0.000 A 
ATOM     17  C   LIG d   1       4.802  -0.752  -2.108  0.00  0.00    -0.053 A 
ATOM     18  C   LIG d   1       4.529   0.518  -1.635  0.00  0.00    -0.061 A 
ATOM     19  H   LIG d   1       5.451  -1.409  -1.549  0.00  0.00     0.062 H 
ATOM     20  C   LIG d   1       3.693   1.357  -2.348  0.00  0.00    -0.062 A 
ATOM     21  H   LIG d   1       4.966   0.853  -0.706  0.00  0.00     0.062 H 
ATOM     22  C   LIG d   1       3.134   0.928  -3.537  0.00  0.00    -0.061 A 
ATOM     23  H   LIG d   1       3.478   2.348  -1.976  0.00  0.00     0.062 H 
ATOM     24  C   LIG d   1       3.410  -0.340  -4.013  0.00  0.00    -0.053 A 
ATOM     25  H   LIG d   1       2.481   1.583  -4.094  0.00  0.00     0.062 H 
ATOM     26  H   LIG d   1       2.973  -0.676  -4.941  0.00  0.00     0.062 H 
ENDBRANCH  10  16
ENDBRANCH   7  10
ENDBRANCH   4   7
ENDBRANCH   1   4
BRANCH   1  27
ATOM     27  C   LIG d   1       5.242  -0.465  -6.892  0.00  0.00     0.026 C 
ATOM     28  H   LIG d   1       5.034  -0.318  -5.832  0.00  0.00     0.038 H 
BRANCH  27  29
ATOM     29  C   LIG d   1       6.741  -0.289  -7.147  0.00  0.00    -0.018 C 
ATOM     30  H   LIG d   1       7.235  -1.259  -7.098  0.00  0.00     0.032 H 
ATOM     31  H   LIG d   1       6.893   0.146  -8.135  0.00  0.00     0.032 H 
BRANCH  29  32
ATOM     32  C   LIG d   1       7.325   0.626  -6.101  0.00  0.00    -0.047 A 
ATOM     33  C   LIG d   1       8.210   1.621  -6.470  0.00  0.00    -0.059 A 
ATOM     34  C   LIG d   1       8.743   2.462  -5.511  0.00  0.00    -0.061 A 
ATOM     35  H   LIG d   1       8.482   1.745  -7.508  0.00  0.00     0.062 H 
ATOM     36  C   LIG d   1       8.398   2.301  -4.181  0.00  0.00    -0.062 A 
ATOM     37  H   LIG d   1       9.431   3.243  -5.799  0.00  0.00     0.062 H 
ATOM     38  C   LIG d   1       7.516   1.302  -3.812  0.00  0.00    -0.061 A 
ATOM     39  H   LIG d   1       8.815   2.956  -3.431  0.00  0.00     0.062 H 
ATOM     40  C   LIG d   1       6.981   0.463  -4.773  0.00  0.00    -0.059 A 
ATOM     41  H   LIG d   1       7.247   1.177  -2.774  0.00  0.00     0.062 H 
ATOM     42  H   LIG d   1       6.293  -0.317  -4.484  0.00  0.00     0.062 H 
ENDBRANCH  29  32
ENDBRANCH  27  29
BRANCH  27  43
ATOM     43  C   LIG d   1       4.473   0.547  -7.700  0.00  0.00     0.108 A 
ATOM     44  O   LIG d   1       5.007   1.494  -8.489  0.00  0.00    -0.468 OA
ATOM     45  C   LIG d   1       4.024   2.213  -9.055  0.00  0.00     0.092 A 
ATOM     46  C   LIG d   1       2.844   1.734  -8.621  0.00  0.00    -0.024 A 
ATOM     47  H   LIG d   1       4.159   3.037  -9.739  0.00  0.00     0.103 H 
ATOM     48  C   LIG d   1       3.133   0.661  -7.748  0.00  0.00    -0.020 A 
ATOM     49  H   LIG d   1       1.864   2.100  -8.890  0.00  0.00     0.065 H 
ATOM     50  H   LIG d   1       2.416   0.049  -7.221  0.00  0.00     0.065 H 
ENDBRANCH  27  43
ENDBRANCH   1  27
TORSDOF 9
ENDMDL
MODEL 2
REMARK VINA RESULT:      -6.4      2.255      5.202
REMARK  9 active torsions:
REMARK  status: ('A' for Active; 'I' for Inactive)
REMARK    1  A    between atoms: C_1  and  C_2 
REMARK    2  A    between atoms: C_2  and  C_4 
REMARK    3  A    between atoms: C_2  and  N_10 
REMARK    4  A    between atoms: N_10  and  C_11 
REMARK    5  A    between atoms: C_11  and  C_12 
REMARK    6  A    between atoms: C_12  and  C_13 
REMARK    7  A    between atoms: C_13  and  C_15 
REMARK    8  A    between atoms: C_13  and  C_22 
REMARK    9  A    between atoms: C_15  and  C_16 
ROOT
ATOM      1  C   LIG d   1       4.827  -0.648  -6.036  0.00  0.00    -0.003 C 
ATOM      2  H   LIG d   1       4.781  -0.771  -4.954  0.00  0.00     0.032 H 
ATOM      3  H   LIG d   1       5.598   0.081  -6.286  0.00  0.00     0.032 H 
ENDROOT
BRANCH   1   4
ATOM      4  C   LIG d   1       5.164  -1.990  -6.689  0.00  0.00    -0.032 C 
ATOM      5  H   LIG d   1       5.652  -2.637  -5.959  0.00  0.00     0.081 H 
ATOM      6  H   LIG d   1       5.835  -1.824  -7.533  0.00  0.00     0.081 H 
BRANCH   4   7
ATOM      7  N   LIG d   1       3.930  -2.629  -7.162  0.00  0.00     0.232 N 
ATOM      8  H   LIG d   1       3.185  -1.948  -7.185  0.00  0.00     0.202 HD
ATOM      9  H   LIG d   1       3.678  -3.380  -6.537  0.00  0.00     0.202 HD
BRANCH   7  10
ATOM     10  C   LIG d   1       4.142  -3.166  -8.512  0.00  0.00     0.000 C 
ATOM     11  H   LIG d   1       5.212  -3.263  -8.700  0.00  0.00     0.090 H 
BRANCH  10  12
ATOM     12  C   LIG d   1       3.477  -4.540  -8.624  0.00  0.00    -0.017 C 
ATOM     13  H   LIG d   1       4.216  -5.317  -8.430  0.00  0.00     0.029 H 
ATOM     14  H   LIG d   1       2.671  -4.614  -7.895  0.00  0.00     0.029 H 
ATOM     15  H   LIG d   1       3.073  -4.666  -9.629  0.00  0.00     0.029 H 
ENDBRANCH  10  12
BRANCH  10  16
ATOM     16  C   LIG d   1       3.538  -2.231  -9.527  0.00  0.00    -0.000 A 
ATOM     17  C   LIG d   1       2.171  -2.021  -9.546  0.00  0.00    -0.053 A 
ATOM     18  C   LIG d   1       1.617  -1.160 -10.475  0.00  0.00    -0.061 A 
ATOM     19  H   LIG d   1       1.538  -2.528  -8.834  0.00  0.00     0.062 H 
ATOM     20  C   LIG d   1       2.428  -0.515 -11.391  0.00  0.00    -0.062 A 
ATOM     21  H   LIG d   1       0.550  -0.993 -10.487  0.00  0.00     0.062 H 
ATOM     22  C   LIG d   1       3.794  -0.728 -11.374  0.00  0.00    -0.061 A 
ATOM     23  H   LIG d   1       1.994   0.156 -12.117  0.00  0.00     0.062 H 
ATOM     24  C   LIG d   1       4.348  -1.586 -10.443  0.00  0.00    -0.053 A 
ATOM     25  H   LIG d   1       4.427  -0.225 -12.089  0.00  0.00     0.062 H 
ATOM     26  H   LIG d   1       5.415  -1.753 -10.431  0.00  0.00     0.062 H 
ENDBRANCH  10  16
ENDBRANCH   7  10
ENDBRANCH   4   7
ENDBRANCH   1   4
BRANCH   1  27
ATOM     27  C   LIG d   1       3.473  -0.155  -6.551  0.00  0.00     0.026 C 
ATOM     28  H   LIG d   1       2.905  -0.999  -6.942  0.00  0.00     0.038 H 
BRANCH  27  29
ATOM     29  C   LIG d   1       2.697   0.495  -5.404  0.00  0.00    -0.018 C 
ATOM     30  H   LIG d   1       2.765   1.580  -5.488  0.00  0.00     0.032 H 
ATOM     31  H   LIG d   1       1.651   0.193  -5.456  0.00  0.00     0.032 H 
BRANCH  29  32
ATOM     32  C   LIG d   1       3.283   0.055  -4.087  0.00  0.00    -0.047 A 
ATOM     33  C   LIG d   1       3.165  -1.262  -3.684  0.00  0.00    -0.059 A 
ATOM     34  C   LIG d   1       3.704  -1.665  -2.477  0.00  0.00    -0.061 A 
ATOM     35  H   LIG d   1       2.653  -1.975  -4.313  0.00  0.00     0.062 H 
ATOM     36  C   LIG d   1       4.355  -0.751  -1.670  0.00  0.00    -0.062 A 
ATOM     37  H   LIG d   1       3.617  -2.696  -2.164  0.00  0.00     0.062 H 
ATOM     38  C   LIG d   1       4.469   0.568  -2.070  0.00  0.00    -0.061 A 
ATOM     39  H   LIG d   1       4.775  -1.065  -0.726  0.00  0.00     0.062 H 
ATOM     40  C   LIG d   1       3.931   0.970  -3.280  0.00  0.00    -0.059 A 
ATOM     41  H   LIG d   1       4.977   1.282  -1.440  0.00  0.00     0.062 H 
ATOM     42  H   LIG d   1       4.020   2.000  -3.593  0.00  0.00     0.062 H 
ENDBRANCH  29  32
ENDBRANCH  27  29
BRANCH  27  43
ATOM     43  C   LIG d   1       3.691   0.855  -7.648  0.00  0.00     0.108 A 
ATOM     44  O   LIG d   1       4.873   1.177  -8.197  0.00  0.00    -0.468 OA
ATOM     45  C   LIG d   1       4.689   2.109  -9.145  0.00  0.00     0.092 A 
ATOM     46  C   LIG d   1       3.376   2.401  -9.203  0.00  0.00    -0.024 A 
ATOM     47  H   LIG d   1       5.462   2.552  -9.755  0.00  0.00     0.103 H 
ATOM     48  C   LIG d   1       2.733   1.593  -8.238  0.00  0.00    -0.020 A 
ATOM     49  H   LIG d   1       2.905   3.116  -9.861  0.00  0.00     0.065 H 
ATOM     50  H   LIG d   1       1.676   1.572  -8.017  0.00  0.00     0.065 H 
ENDBRANCH  27  43
ENDBRANCH   1  27
TORSDOF 9
ENDMDL
MODEL 3
REMARK VINA RESULT:      -6.3      1.394      4.147
REMARK  9 active torsions:
REMARK  status: ('A' for Active; 'I' for Inactive)
REMARK    1  A    between atoms: C_1  and  C_2 
REMARK    2  A    between atoms: C_2  and  C_4 
REMARK    3  A    between atoms: C_2  and  N_10 
REMARK    4  A    between atoms: N_10  and  C_11 
REMARK    5  A    between atoms: C_11  and  C_12 
REMARK    6  A    between atoms: C_12  and  C_13 
REMARK    7  A    between atoms: C_13  and  C_15 
REMARK    8  A    between atoms: C_13  and  C_22 
REMARK    9  A    between atoms: C_15  and  C_16 
ROOT
ATOM      1  C   LIG d   1       4.864  -0.285  -6.061  0.00  0.00    -0.003 C 
ATOM      2  H   LIG d   1       5.080  -0.057  -5.018  0.00  0.00     0.032 H 
ATOM      3  H   LIG d   1       5.302   0.484  -6.699  0.00  0.00     0.032 H 
ENDROOT
BRANCH   1   4
ATOM      4  C   LIG d   1       5.460  -1.647  -6.420  0.00  0.00    -0.032 C 
ATOM      5  H   LIG d   1       5.480  -1.761  -7.504  0.00  0.00     0.081 H 
ATOM      6  H   LIG d   1       4.849  -2.437  -5.983  0.00  0.00     0.081 H 
BRANCH   4   7
ATOM      7  N   LIG d   1       6.828  -1.737  -5.894  0.00  0.00     0.232 N 
ATOM      8  H   LIG d   1       7.455  -1.225  -6.496  0.00  0.00     0.202 HD
ATOM      9  H   LIG d   1       7.112  -2.705  -5.859  0.00  0.00     0.202 HD
BRANCH   7  10
ATOM     10  C   LIG d   1       6.872  -1.166  -4.541  0.00  0.00     0.000 C 
ATOM     11  H   LIG d   1       5.886  -0.782  -4.277  0.00  0.00     0.090 H 
BRANCH  10  12
ATOM     12  C   LIG d   1       7.281  -2.251  -3.543  0.00  0.00    -0.017 C 
ATOM     13  H   LIG d   1       8.354  -2.429  -3.620  0.00  0.00     0.029 H 
ATOM     14  H   LIG d   1       7.038  -1.925  -2.532  0.00  0.00     0.029 H 
ATOM     15  H   LIG d   1       6.743  -3.172  -3.767  0.00  0.00     0.029 H 
ENDBRANCH  10  12
BRANCH  10  16
ATOM     16  C   LIG d   1       7.876  -0.042  -4.502  0.00  0.00    -0.000 A 
ATOM     17  C   LIG d   1       9.087  -0.175  -5.154  0.00  0.00    -0.053 A 
ATOM     18  C   LIG d   1      10.006   0.857  -5.122  0.00  0.00    -0.061 A 
ATOM     19  H   LIG d   1       9.314  -1.084  -5.692  0.00  0.00     0.062 H 
ATOM     20  C   LIG d   1       9.718   2.018  -4.429  0.00  0.00    -0.062 A 
ATOM     21  H   LIG d   1      10.951   0.756  -5.634  0.00  0.00     0.062 H 
ATOM     22  C   LIG d   1       8.507   2.149  -3.772  0.00  0.00    -0.061 A 
ATOM     23  H   LIG d   1      10.437   2.824  -4.401  0.00  0.00     0.062 H 
ATOM     24  C   LIG d   1       7.587   1.119  -3.809  0.00  0.00    -0.053 A 
ATOM     25  H   LIG d   1       8.283   3.056  -3.232  0.00  0.00     0.062 H 
ATOM     26  H   LIG d   1       6.642   1.220  -3.296  0.00  0.00     0.062 H 
ENDBRANCH  10  16
ENDBRANCH   7  10
ENDBRANCH   4   7
ENDBRANCH   1   4
BRANCH   1  27
ATOM     27  C   LIG d   1       3.349  -0.319  -6.272  0.00  0.00     0.026 C 
ATOM     28  H   LIG d   1       3.014  -1.355  -6.327  0.00  0.00     0.038 H 
BRANCH  27  29
ATOM     29  C   LIG d   1       2.655   0.381  -5.102  0.00  0.00    -0.018 C 
ATOM     30  H   LIG d   1       2.729   1.461  -5.227  0.00  0.00     0.032 H 
ATOM     31  H   LIG d   1       1.604   0.090  -5.076  0.00  0.00     0.032 H 
BRANCH  29  32
ATOM     32  C   LIG d   1       3.319  -0.022  -3.810  0.00  0.00    -0.047 A 
ATOM     33  C   LIG d   1       3.305  -1.344  -3.409  0.00  0.00    -0.059 A 
ATOM     34  C   LIG d   1       3.916  -1.714  -2.226  0.00  0.00    -0.061 A 
ATOM     35  H   LIG d   1       2.819  -2.090  -4.021  0.00  0.00     0.062 H 
ATOM     36  C   LIG d   1       4.534  -0.759  -1.439  0.00  0.00    -0.062 A 
ATOM     37  H   LIG d   1       3.910  -2.748  -1.914  0.00  0.00     0.062 H 
ATOM     38  C   LIG d   1       4.543   0.565  -1.837  0.00  0.00    -0.061 A 
ATOM     39  H   LIG d   1       5.010  -1.046  -0.513  0.00  0.00     0.062 H 
ATOM     40  C   LIG d   1       3.934   0.933  -3.023  0.00  0.00    -0.059 A 
ATOM     41  H   LIG d   1       5.026   1.311  -1.223  0.00  0.00     0.062 H 
ATOM     42  H   LIG d   1       3.941   1.967  -3.335  0.00  0.00     0.062 H 
ENDBRANCH  29  32
ENDBRANCH  27  29
BRANCH  27  43
ATOM     43  C   LIG d   1       3.005   0.389  -7.557  0.00  0.00     0.108 A 
ATOM     44  O   LIG d   1       3.139   1.705  -7.789  0.00  0.00    -0.468 OA
ATOM     45  C   LIG d   1       2.739   1.983  -9.041  0.00  0.00     0.092 A 
ATOM     46  C   LIG d   1       2.333   0.838  -9.620  0.00  0.00    -0.024 A 
ATOM     47  H   LIG d   1       2.739   2.959  -9.502  0.00  0.00     0.103 H 
ATOM     48  C   LIG d   1       2.504  -0.189  -8.664  0.00  0.00    -0.020 A 
ATOM     49  H   LIG d   1       1.951   0.726 -10.624  0.00  0.00     0.065 H 
ATOM     50  H   LIG d   1       2.278  -1.236  -8.797  0.00  0.00     0.065 H 
ENDBRANCH  27  43
ENDBRANCH   1  27
TORSDOF 9
ENDMDL
MODEL 4
REMARK VINA RESULT:      -6.2      1.658      3.365
REMARK  9 active torsions:
REMARK  status: ('A' for Active; 'I' for Inactive)
REMARK    1  A    between atoms: C_1  and  C_2 
REMARK    2  A    between atoms: C_2  and  C_4 
REMARK    3  A    between atoms: C_2  and  N_10 
REMARK    4  A    between atoms: N_10  and  C_11 
REMARK    5  A    between atoms: C_11  and  C_12 
REMARK    6  A    between atoms: C_12  and  C_13 
REMARK    7  A    between atoms: C_13  and  C_15 
REMARK    8  A    between atoms: C_13  and  C_22 
REMARK    9  A    between atoms: C_15  and  C_16 
ROOT
ATOM      1  C   LIG d   1       2.393   0.430  -4.955  0.00  0.00    -0.003 C 
ATOM      2  H   LIG d   1       1.436   0.273  -5.452  0.00  0.00     0.032 H 
ATOM      3  H   LIG d   1       2.443   1.453  -4.580  0.00  0.00     0.032 H 
ENDROOT
BRANCH   1   4
ATOM      4  C   LIG d   1       2.529  -0.547  -3.786  0.00  0.00    -0.032 C 
ATOM      5  H   LIG d   1       3.180  -1.373  -4.076  0.00  0.00     0.081 H 
ATOM      6  H   LIG d   1       1.545  -0.937  -3.523  0.00  0.00     0.081 H 
BRANCH   4   7
ATOM      7  N   LIG d   1       3.106   0.149  -2.629  0.00  0.00     0.232 N 
ATOM      8  H   LIG d   1       2.392   0.286  -1.929  0.00  0.00     0.202 HD
ATOM      9  H   LIG d   1       3.466   1.046  -2.921  0.00  0.00     0.202 HD
BRANCH   7  10
ATOM     10  C   LIG d   1       4.197  -0.657  -2.066  0.00  0.00     0.000 C 
ATOM     11  H   LIG d   1       4.277  -0.461  -0.997  0.00  0.00     0.090 H 
BRANCH  10  12
ATOM     12  C   LIG d   1       3.903  -2.142  -2.292  0.00  0.00    -0.017 C 
ATOM     13  H   LIG d   1       2.866  -2.263  -2.608  0.00  0.00     0.029 H 
ATOM     14  H   LIG d   1       4.566  -2.530  -3.065  0.00  0.00     0.029 H 
ATOM     15  H   LIG d   1       4.066  -2.689  -1.364  0.00  0.00     0.029 H 
ENDBRANCH  10  12
BRANCH  10  16
ATOM     16  C   LIG d   1       5.493  -0.292  -2.743  0.00  0.00    -0.000 A 
ATOM     17  C   LIG d   1       6.400  -1.281  -3.078  0.00  0.00    -0.053 A 
ATOM     18  C   LIG d   1       7.587  -0.946  -3.702  0.00  0.00    -0.061 A 
ATOM     19  H   LIG d   1       6.179  -2.314  -2.854  0.00  0.00     0.062 H 
ATOM     20  C   LIG d   1       7.872   0.377  -3.983  0.00  0.00    -0.062 A 
ATOM     21  H   LIG d   1       8.294  -1.719  -3.967  0.00  0.00     0.062 H 
ATOM     22  C   LIG d   1       6.966   1.366  -3.644  0.00  0.00    -0.061 A 
ATOM     23  H   LIG d   1       8.800   0.638  -4.469  0.00  0.00     0.062 H 
ATOM     24  C   LIG d   1       5.777   1.031  -3.024  0.00  0.00    -0.053 A 
ATOM     25  H   LIG d   1       7.189   2.399  -3.864  0.00  0.00     0.062 H 
ATOM     26  H   LIG d   1       5.071   1.803  -2.759  0.00  0.00     0.062 H 
ENDBRANCH  10  16
ENDBRANCH   7  10
ENDBRANCH   4   7
ENDBRANCH   1   4
BRANCH   1  27
ATOM     27  C   LIG d   1       3.530   0.196  -5.951  0.00  0.00     0.026 C 
ATOM     28  H   LIG d   1       4.390   0.804  -5.670  0.00  0.00     0.038 H 
BRANCH  27  29
ATOM     29  C   LIG d   1       3.924  -1.282  -5.937  0.00  0.00    -0.018 C 
ATOM     30  H   LIG d   1       3.894  -1.657  -4.913  0.00  0.00     0.032 H 
ATOM     31  H   LIG d   1       3.226  -1.851  -6.552  0.00  0.00     0.032 H 
BRANCH  29  32
ATOM     32  C   LIG d   1       5.319  -1.436  -6.487  0.00  0.00    -0.047 A 
ATOM     33  C   LIG d   1       5.923  -2.679  -6.500  0.00  0.00    -0.059 A 
ATOM     34  C   LIG d   1       7.201  -2.821  -7.008  0.00  0.00    -0.061 A 
ATOM     35  H   LIG d   1       5.396  -3.540  -6.117  0.00  0.00     0.062 H 
ATOM     36  C   LIG d   1       7.878  -1.718  -7.495  0.00  0.00    -0.062 A 
ATOM     37  H   LIG d   1       7.672  -3.793  -7.023  0.00  0.00     0.062 H 
ATOM     38  C   LIG d   1       7.275  -0.473  -7.477  0.00  0.00    -0.061 A 
ATOM     39  H   LIG d   1       8.877  -1.827  -7.890  0.00  0.00     0.062 H 
ATOM     40  C   LIG d   1       5.995  -0.333  -6.972  0.00  0.00    -0.059 A 
ATOM     41  H   LIG d   1       7.803   0.388  -7.858  0.00  0.00     0.062 H 
ATOM     42  H   LIG d   1       5.525   0.639  -6.959  0.00  0.00     0.062 H 
ENDBRANCH  29  32
ENDBRANCH  27  29
BRANCH  27  43
ATOM     43  C   LIG d   1       3.073   0.581  -7.335  0.00  0.00     0.108 A 
ATOM     44  O   LIG d   1       3.209   1.792  -7.899  0.00  0.00    -0.468 OA
ATOM     45  C   LIG d   1       2.692   1.771  -9.138  0.00  0.00     0.092 A 
ATOM     46  C   LIG d   1       2.209   0.537  -9.375  0.00  0.00    -0.024 A 
ATOM     47  H   LIG d   1       2.665   2.602  -9.826  0.00  0.00     0.103 H 
ATOM     48  C   LIG d   1       2.455  -0.229  -8.212  0.00  0.00    -0.020 A 
ATOM     49  H   LIG d   1       1.727   0.198 -10.279  0.00  0.00     0.065 H 
ATOM     50  H   LIG d   1       2.196  -1.267  -8.059  0.00  0.00     0.065 H 
ENDBRANCH  27  43
ENDBRANCH   1  27
TORSDOF 9
ENDMDL
MODEL 5
REMARK VINA RESULT:      -6.1      2.063      5.052
REMARK  9 active torsions:
REMARK  status: ('A' for Active; 'I' for Inactive)
REMARK    1  A    between atoms: C_1  and  C_2 
REMARK    2  A    between atoms: C_2  and  C_4 
REMARK    3  A    between atoms: C_2  and  N_10 
REMARK    4  A    between atoms: N_10  and  C_11 
REMARK    5  A    between atoms: C_11  and  C_12 
REMARK    6  A    between atoms: C_12  and  C_13 
REMARK    7  A    between atoms: C_13  and  C_15 
REMARK    8  A    between atoms: C_13  and  C_22 
REMARK    9  A    between atoms: C_15  and  C_16 
ROOT
ATOM      1  C   LIG d   1       2.821   0.697  -5.295  0.00  0.00    -0.003 C 
ATOM      2  H   LIG d   1       1.943   1.339  -5.242  0.00  0.00     0.032 H 
ATOM      3  H   LIG d   1       3.718   1.293  -5.123  0.00  0.00     0.032 H 
ENDROOT
BRANCH   1   4
ATOM      4  C   LIG d   1       2.722  -0.393  -4.225  0.00  0.00    -0.032 C 
ATOM      5  H   LIG d   1       3.447  -1.178  -4.437  0.00  0.00     0.081 H 
ATOM      6  H   LIG d   1       1.716  -0.816  -4.231  0.00  0.00     0.081 H 
BRANCH   4   7
ATOM      7  N   LIG d   1       3.001   0.188  -2.906  0.00  0.00     0.232 N 
ATOM      8  H   LIG d   1       2.162   0.169  -2.345  0.00  0.00     0.202 HD
ATOM      9  H   LIG d   1       3.308   1.144  -3.017  0.00  0.00     0.202 HD
BRANCH   7  10
ATOM     10  C   LIG d   1       4.053  -0.590  -2.240  0.00  0.00     0.000 C 
ATOM     11  H   LIG d   1       4.071  -0.342  -1.179  0.00  0.00     0.090 H 
BRANCH  10  12
ATOM     12  C   LIG d   1       3.768  -2.083  -2.411  0.00  0.00    -0.017 C 
ATOM     13  H   LIG d   1       2.704  -2.230  -2.598  0.00  0.00     0.029 H 
ATOM     14  H   LIG d   1       4.342  -2.470  -3.252  0.00  0.00     0.029 H 
ATOM     15  H   LIG d   1       4.053  -2.613  -1.502  0.00  0.00     0.029 H 
ENDBRANCH  10  12
BRANCH  10  16
ATOM     16  C   LIG d   1       5.389  -0.260  -2.856  0.00  0.00    -0.000 A 
ATOM     17  C   LIG d   1       6.244  -1.277  -3.237  0.00  0.00    -0.053 A 
ATOM     18  C   LIG d   1       7.467  -0.974  -3.806  0.00  0.00    -0.061 A 
ATOM     19  H   LIG d   1       5.954  -2.307  -3.094  0.00  0.00     0.062 H 
ATOM     20  C   LIG d   1       7.840   0.345  -3.983  0.00  0.00    -0.062 A 
ATOM     21  H   LIG d   1       8.134  -1.768  -4.108  0.00  0.00     0.062 H 
ATOM     22  C   LIG d   1       6.986   1.363  -3.597  0.00  0.00    -0.061 A 
ATOM     23  H   LIG d   1       8.796   0.581  -4.425  0.00  0.00     0.062 H 
ATOM     24  C   LIG d   1       5.761   1.060  -3.033  0.00  0.00    -0.053 A 
ATOM     25  H   LIG d   1       7.277   2.393  -3.736  0.00  0.00     0.062 H 
ATOM     26  H   LIG d   1       5.094   1.854  -2.731  0.00  0.00     0.062 H 
ENDBRANCH  10  16
ENDBRANCH   7  10
ENDBRANCH   4   7
ENDBRANCH   1   4
BRANCH   1  27
ATOM     27  C   LIG d   1       2.897   0.048  -6.678  0.00  0.00     0.026 C 
ATOM     28  H   LIG d   1       2.050  -0.625  -6.811  0.00  0.00     0.038 H 
BRANCH  27  29
ATOM     29  C   LIG d   1       2.857   1.136  -7.754  0.00  0.00    -0.018 C 
ATOM     30  H   LIG d   1       2.004   1.792  -7.577  0.00  0.00     0.032 H 
ATOM     31  H   LIG d   1       3.777   1.719  -7.716  0.00  0.00     0.032 H 
BRANCH  29  32
ATOM     32  C   LIG d   1       2.724   0.495  -9.112  0.00  0.00    -0.047 A 
ATOM     33  C   LIG d   1       1.710  -0.413  -9.351  0.00  0.00    -0.059 A 
ATOM     34  C   LIG d   1       1.586  -0.998 -10.597  0.00  0.00    -0.061 A 
ATOM     35  H   LIG d   1       1.012  -0.663  -8.566  0.00  0.00     0.062 H 
ATOM     36  C   LIG d   1       2.482  -0.681 -11.602  0.00  0.00    -0.062 A 
ATOM     37  H   LIG d   1       0.791  -1.704 -10.787  0.00  0.00     0.062 H 
ATOM     38  C   LIG d   1       3.500   0.224 -11.361  0.00  0.00    -0.061 A 
ATOM     39  H   LIG d   1       2.387  -1.139 -12.575  0.00  0.00     0.062 H 
ATOM     40  C   LIG d   1       3.620   0.811 -10.115  0.00  0.00    -0.059 A 
ATOM     41  H   LIG d   1       4.199   0.472 -12.146  0.00  0.00     0.062 H 
ATOM     42  H   LIG d   1       4.415   1.518  -9.927  0.00  0.00     0.062 H 
ENDBRANCH  29  32
ENDBRANCH  27  29
BRANCH  27  43
ATOM     43  C   LIG d   1       4.182  -0.730  -6.799  0.00  0.00     0.108 A 
ATOM     44  O   LIG d   1       4.290  -2.069  -6.830  0.00  0.00    -0.468 OA
ATOM     45  C   LIG d   1       5.583  -2.412  -6.948  0.00  0.00     0.092 A 
ATOM     46  C   LIG d   1       6.319  -1.286  -6.982  0.00  0.00    -0.024 A 
ATOM     47  H   LIG d   1       5.966  -3.419  -7.001  0.00  0.00     0.103 H 
ATOM     48  C   LIG d   1       5.416  -0.202  -6.886  0.00  0.00    -0.020 A 
ATOM     49  H   LIG d   1       7.393  -1.223  -7.068  0.00  0.00     0.065 H 
ATOM     50  H   LIG d   1       5.669   0.848  -6.884  0.00  0.00     0.065 H 
ENDBRANCH  27  43
ENDBRANCH   1  27
TORSDOF 9
ENDMDL
MODEL 6
REMARK VINA RESULT:      -6.1      2.621      5.583
REMARK  9 active torsions:
REMARK  status: ('A' for Active; 'I' for Inactive)
REMARK    1  A    between atoms: C_1  and  C_2 
REMARK    2  A    between atoms: C_2  and  C_4 
REMARK    3  A    between atoms: C_2  and  N_10 
REMARK    4  A    between atoms: N_10  and  C_11 
REMARK    5  A    between atoms: C_11  and  C_12 
REMARK    6  A    between atoms: C_12  and  C_13 
REMARK    7  A    between atoms: C_13  and  C_15 
REMARK    8  A    between atoms: C_13  and  C_22 
REMARK    9  A    between atoms: C_15  and  C_16 
ROOT
ATOM      1  C   LIG d   1       4.572  -4.039  -5.763  0.00  0.00    -0.003 C 
ATOM      2  H   LIG d   1       3.692  -4.426  -5.251  0.00  0.00     0.032 H 
ATOM      3  H   LIG d   1       5.370  -4.783  -5.726  0.00  0.00     0.032 H 
ENDROOT
BRANCH   1   4
ATOM      4  C   LIG d   1       4.224  -3.739  -7.222  0.00  0.00    -0.032 C 
ATOM      5  H   LIG d   1       3.377  -4.354  -7.528  0.00  0.00     0.081 H 
ATOM      6  H   LIG d   1       5.084  -3.964  -7.854  0.00  0.00     0.081 H 
BRANCH   4   7
ATOM      7  N   LIG d   1       3.874  -2.320  -7.360  0.00  0.00     0.232 N 
ATOM      8  H   LIG d   1       4.554  -1.756  -6.873  0.00  0.00     0.202 HD
ATOM      9  H   LIG d   1       2.959  -2.158  -6.964  0.00  0.00     0.202 HD
BRANCH   7  10
ATOM     10  C   LIG d   1       3.862  -1.953  -8.782  0.00  0.00     0.000 C 
ATOM     11  H   LIG d   1       4.823  -2.209  -9.230  0.00  0.00     0.090 H 
BRANCH  10  12
ATOM     12  C   LIG d   1       2.746  -2.718  -9.497  0.00  0.00    -0.017 C 
ATOM     13  H   LIG d   1       3.162  -3.606  -9.974  0.00  0.00     0.029 H 
ATOM     14  H   LIG d   1       1.988  -3.016  -8.772  0.00  0.00     0.029 H 
ATOM     15  H   LIG d   1       2.294  -2.077 -10.254  0.00  0.00     0.029 H 
ENDBRANCH  10  12
BRANCH  10  16
ATOM     16  C   LIG d   1       3.623  -0.472  -8.918  0.00  0.00    -0.000 A 
ATOM     17  C   LIG d   1       3.956   0.177 -10.093  0.00  0.00    -0.053 A 
ATOM     18  C   LIG d   1       3.733   1.536 -10.219  0.00  0.00    -0.061 A 
ATOM     19  H   LIG d   1       4.388  -0.378 -10.912  0.00  0.00     0.062 H 
ATOM     20  C   LIG d   1       3.185   2.247  -9.167  0.00  0.00    -0.062 A 
ATOM     21  H   LIG d   1       3.989   2.043 -11.137  0.00  0.00     0.062 H 
ATOM     22  C   LIG d   1       2.856   1.599  -7.991  0.00  0.00    -0.061 A 
ATOM     23  H   LIG d   1       3.013   3.309  -9.265  0.00  0.00     0.062 H 
ATOM     24  C   LIG d   1       3.076   0.240  -7.867  0.00  0.00    -0.053 A 
ATOM     25  H   LIG d   1       2.429   2.155  -7.170  0.00  0.00     0.062 H 
ATOM     26  H   LIG d   1       2.819  -0.267  -6.948  0.00  0.00     0.062 H 
ENDBRANCH  10  16
ENDBRANCH   7  10
ENDBRANCH   4   7
ENDBRANCH   1   4
BRANCH   1  27
ATOM     27  C   LIG d   1       5.041  -2.756  -5.075  0.00  0.00     0.026 C 
ATOM     28  H   LIG d   1       4.670  -1.892  -5.627  0.00  0.00     0.038 H 
BRANCH  27  29
ATOM     29  C   LIG d   1       4.500  -2.717  -3.644  0.00  0.00    -0.018 C 
ATOM     30  H   LIG d   1       3.588  -3.313  -3.584  0.00  0.00     0.032 H 
ATOM     31  H   LIG d   1       5.246  -3.125  -2.962  0.00  0.00     0.032 H 
BRANCH  29  32
ATOM     32  C   LIG d   1       4.194  -1.292  -3.260  0.00  0.00    -0.047 A 
ATOM     33  C   LIG d   1       4.684  -0.776  -2.075  0.00  0.00    -0.059 A 
ATOM     34  C   LIG d   1       4.407   0.532  -1.725  0.00  0.00    -0.061 A 
ATOM     35  H   LIG d   1       5.285  -1.393  -1.424  0.00  0.00     0.062 H 
ATOM     36  C   LIG d   1       3.632   1.321  -2.555  0.00  0.00    -0.062 A 
ATOM     37  H   LIG d   1       4.793   0.937  -0.800  0.00  0.00     0.062 H 
ATOM     38  C   LIG d   1       3.139   0.804  -3.738  0.00  0.00    -0.061 A 
ATOM     39  H   LIG d   1       3.414   2.343  -2.281  0.00  0.00     0.062 H 
ATOM     40  C   LIG d   1       3.420  -0.504  -4.090  0.00  0.00    -0.059 A 
ATOM     41  H   LIG d   1       2.535   1.420  -4.387  0.00  0.00     0.062 H 
ATOM     42  H   LIG d   1       3.034  -0.908  -5.014  0.00  0.00     0.062 H 
ENDBRANCH  29  32
ENDBRANCH  27  29
BRANCH  27  43
ATOM     43  C   LIG d   1       6.547  -2.723  -5.044  0.00  0.00     0.108 A 
ATOM     44  O   LIG d   1       7.352  -2.565  -6.107  0.00  0.00    -0.468 OA
ATOM     45  C   LIG d   1       8.633  -2.582  -5.706  0.00  0.00     0.092 A 
ATOM     46  C   LIG d   1       8.658  -2.763  -4.373  0.00  0.00    -0.024 A 
ATOM     47  H   LIG d   1       9.497  -2.473  -6.345  0.00  0.00     0.103 H 
ATOM     48  C   LIG d   1       7.313  -2.854  -3.946  0.00  0.00    -0.020 A 
ATOM     49  H   LIG d   1       9.537  -2.825  -3.749  0.00  0.00     0.065 H 
ATOM     50  H   LIG d   1       6.968  -2.999  -2.933  0.00  0.00     0.065 H 
ENDBRANCH  27  43
ENDBRANCH   1  27
TORSDOF 9
ENDMDL
MODEL 7
REMARK VINA RESULT:      -6.1      2.406      5.797
REMARK  9 active torsions:
REMARK  status: ('A' for Active; 'I' for Inactive)
REMARK    1  A    between atoms: C_1  and  C_2 
REMARK    2  A    between atoms: C_2  and  C_4 
REMARK    3  A    between atoms: C_2  and  N_10 
REMARK    4  A    between atoms: N_10  and  C_11 
REMARK    5  A    between atoms: C_11  and  C_12 
REMARK    6  A    between atoms: C_12  and  C_13 
REMARK    7  A    between atoms: C_13  and  C_15 
REMARK    8  A    between atoms: C_13  and  C_22 
REMARK    9  A    between atoms: C_15  and  C_16 
ROOT
ATOM      1  C   LIG d   1       4.304  -2.169  -5.315  0.00  0.00    -0.003 C 
ATOM      2  H   LIG d   1       3.269  -2.503  -5.253  0.00  0.00     0.032 H 
ATOM      3  H   LIG d   1       4.835  -2.463  -4.409  0.00  0.00     0.032 H 
ENDROOT
BRANCH   1   4
ATOM      4  C   LIG d   1       4.976  -2.810  -6.530  0.00  0.00    -0.032 C 
ATOM      5  H   LIG d   1       5.596  -3.646  -6.204  0.00  0.00     0.081 H 
ATOM      6  H   LIG d   1       5.600  -2.070  -7.032  0.00  0.00     0.081 H 
BRANCH   4   7
ATOM      7  N   LIG d   1       3.949  -3.296  -7.460  0.00  0.00     0.232 N 
ATOM      8  H   LIG d   1       3.137  -2.698  -7.407  0.00  0.00     0.202 HD
ATOM      9  H   LIG d   1       3.688  -4.239  -7.211  0.00  0.00     0.202 HD
BRANCH   7  10
ATOM     10  C   LIG d   1       4.479  -3.280  -8.829  0.00  0.00     0.000 C 
ATOM     11  H   LIG d   1       5.518  -2.950  -8.812  0.00  0.00     0.090 H 
BRANCH  10  12
ATOM     12  C   LIG d   1       4.401  -4.689  -9.422  0.00  0.00    -0.017 C 
ATOM     13  H   LIG d   1       5.160  -5.320  -8.959  0.00  0.00     0.029 H 
ATOM     14  H   LIG d   1       3.413  -5.108  -9.233  0.00  0.00     0.029 H 
ATOM     15  H   LIG d   1       4.576  -4.640 -10.496  0.00  0.00     0.029 H 
ENDBRANCH  10  12
BRANCH  10  16
ATOM     16  C   LIG d   1       3.665  -2.334  -9.673  0.00  0.00    -0.000 A 
ATOM     17  C   LIG d   1       2.326  -2.136  -9.394  0.00  0.00    -0.053 A 
ATOM     18  C   LIG d   1       1.580  -1.264 -10.166  0.00  0.00    -0.061 A 
ATOM     19  H   LIG d   1       1.864  -2.659  -8.570  0.00  0.00     0.062 H 
ATOM     20  C   LIG d   1       2.171  -0.598 -11.223  0.00  0.00    -0.062 A 
ATOM     21  H   LIG d   1       0.535  -1.106  -9.945  0.00  0.00     0.062 H 
ATOM     22  C   LIG d   1       3.510  -0.800 -11.506  0.00  0.00    -0.061 A 
ATOM     23  H   LIG d   1       1.588   0.080 -11.828  0.00  0.00     0.062 H 
ATOM     24  C   LIG d   1       4.256  -1.668 -10.731  0.00  0.00    -0.053 A 
ATOM     25  H   LIG d   1       3.971  -0.280 -12.332  0.00  0.00     0.062 H 
ATOM     26  H   LIG d   1       5.301  -1.826 -10.952  0.00  0.00     0.062 H 
ENDBRANCH  10  16
ENDBRANCH   7  10
ENDBRANCH   4   7
ENDBRANCH   1   4
BRANCH   1  27
ATOM     27  C   LIG d   1       4.341  -0.646  -5.456  0.00  0.00     0.026 C 
ATOM     28  H   LIG d   1       5.275  -0.348  -5.933  0.00  0.00     0.038 H 
BRANCH  27  29
ATOM     29  C   LIG d   1       3.161  -0.185  -6.314  0.00  0.00    -0.018 C 
ATOM     30  H   LIG d   1       2.633  -1.055  -6.706  0.00  0.00     0.032 H 
ATOM     31  H   LIG d   1       2.478   0.409  -5.705  0.00  0.00     0.032 H 
BRANCH  29  32
ATOM     32  C   LIG d   1       3.669   0.652  -7.461  0.00  0.00    -0.047 A 
ATOM     33  C   LIG d   1       4.988   0.548  -7.860  0.00  0.00    -0.059 A 
ATOM     34  C   LIG d   1       5.452   1.313  -8.913  0.00  0.00    -0.061 A 
ATOM     35  H   LIG d   1       5.654  -0.133  -7.352  0.00  0.00     0.062 H 
ATOM     36  C   LIG d   1       4.600   2.189  -9.561  0.00  0.00    -0.062 A 
ATOM     37  H   LIG d   1       6.482   1.230  -9.229  0.00  0.00     0.062 H 
ATOM     38  C   LIG d   1       3.282   2.296  -9.158  0.00  0.00    -0.061 A 
ATOM     39  H   LIG d   1       4.964   2.788 -10.382  0.00  0.00     0.062 H 
ATOM     40  C   LIG d   1       2.817   1.528  -8.106  0.00  0.00    -0.059 A 
ATOM     41  H   LIG d   1       2.617   2.979  -9.664  0.00  0.00     0.062 H 
ATOM     42  H   LIG d   1       1.787   1.612  -7.792  0.00  0.00     0.062 H 
ENDBRANCH  29  32
ENDBRANCH  27  29
BRANCH  27  43
ATOM     43  C   LIG d   1       4.248  -0.012  -4.092  0.00  0.00     0.108 A 
ATOM     44  O   LIG d   1       3.654   1.158  -3.808  0.00  0.00    -0.468 OA
ATOM     45  C   LIG d   1       3.760   1.408  -2.493  0.00  0.00     0.092 A 
ATOM     46  C   LIG d   1       4.439   0.395  -1.923  0.00  0.00    -0.024 A 
ATOM     47  H   LIG d   1       3.372   2.275  -1.981  0.00  0.00     0.103 H 
ATOM     48  C   LIG d   1       4.753  -0.520  -2.954  0.00  0.00    -0.020 A 
ATOM     49  H   LIG d   1       4.694   0.300  -0.878  0.00  0.00     0.065 H 
ATOM     50  H   LIG d   1       5.294  -1.448  -2.847  0.00  0.00     0.065 H 
ENDBRANCH  27  43
ENDBRANCH   1  27
TORSDOF 9
ENDMDL
MODEL 8
REMARK VINA RESULT:      -6.0      2.243      6.118
REMARK  9 active torsions:
REMARK  status: ('A' for Active; 'I' for Inactive)
REMARK    1  A    between atoms: C_1  and  C_2 
REMARK    2  A    between atoms: C_2  and  C_4 
REMARK    3  A    between atoms: C_2  and  N_10 
REMARK    4  A    between atoms: N_10  and  C_11 
REMARK    5  A    between atoms: C_11  and  C_12 
REMARK    6  A    between atoms: C_12  and  C_13 
REMARK    7  A    between atoms: C_13  and  C_15 
REMARK    8  A    between atoms: C_13  and  C_22 
REMARK    9  A    between atoms: C_15  and  C_16 
ROOT
ATOM      1  C   LIG d   1       7.455  -0.343  -5.017  0.00  0.00    -0.003 C 
ATOM      2  H   LIG d   1       7.799  -1.375  -4.957  0.00  0.00     0.032 H 
ATOM      3  H   LIG d   1       7.764   0.195  -4.120  0.00  0.00     0.032 H 
ENDROOT
BRANCH   1   4
ATOM      4  C   LIG d   1       8.067   0.328  -6.249  0.00  0.00    -0.032 C 
ATOM      5  H   LIG d   1       8.591  -0.418  -6.847  0.00  0.00     0.081 H 
ATOM      6  H   LIG d   1       8.771   1.098  -5.931  0.00  0.00     0.081 H 
BRANCH   4   7
ATOM      7  N   LIG d   1       7.002   0.940  -7.053  0.00  0.00     0.232 N 
ATOM      8  H   LIG d   1       6.991   1.937  -6.894  0.00  0.00     0.202 HD
ATOM      9  H   LIG d   1       6.110   0.548  -6.786  0.00  0.00     0.202 HD
BRANCH   7  10
ATOM     10  C   LIG d   1       7.247   0.674  -8.476  0.00  0.00     0.000 C 
ATOM     11  H   LIG d   1       8.084   1.282  -8.820  0.00  0.00     0.090 H 
BRANCH  10  12
ATOM     12  C   LIG d   1       7.579  -0.807  -8.668  0.00  0.00    -0.017 C 
ATOM     13  H   LIG d   1       6.743  -1.414  -8.320  0.00  0.00     0.029 H 
ATOM     14  H   LIG d   1       7.759  -1.006  -9.724  0.00  0.00     0.029 H 
ATOM     15  H   LIG d   1       8.471  -1.056  -8.094  0.00  0.00     0.029 H 
ENDBRANCH  10  12
BRANCH  10  16
ATOM     16  C   LIG d   1       6.015   1.020  -9.272  0.00  0.00    -0.000 A 
ATOM     17  C   LIG d   1       5.247   2.114  -8.918  0.00  0.00    -0.053 A 
ATOM     18  C   LIG d   1       4.119   2.434  -9.650  0.00  0.00    -0.061 A 
ATOM     19  H   LIG d   1       5.531   2.720  -8.071  0.00  0.00     0.062 H 
ATOM     20  C   LIG d   1       3.753   1.654 -10.732  0.00  0.00    -0.062 A 
ATOM     21  H   LIG d   1       3.522   3.290  -9.376  0.00  0.00     0.062 H 
ATOM     22  C   LIG d   1       4.518   0.557 -11.083  0.00  0.00    -0.061 A 
ATOM     23  H   LIG d   1       2.871   1.902 -11.302  0.00  0.00     0.062 H 
ATOM     24  C   LIG d   1       5.649   0.240 -10.353  0.00  0.00    -0.053 A 
ATOM     25  H   LIG d   1       4.232  -0.052 -11.928  0.00  0.00     0.062 H 
ATOM     26  H   LIG d   1       6.246  -0.617 -10.628  0.00  0.00     0.062 H 
ENDBRANCH  10  16
ENDBRANCH   7  10
ENDBRANCH   4   7
ENDBRANCH   1   4
BRANCH   1  27
ATOM     27  C   LIG d   1       5.930  -0.318  -5.127  0.00  0.00     0.026 C 
ATOM     28  H   LIG d   1       5.628   0.478  -5.808  0.00  0.00     0.038 H 
BRANCH  27  29
ATOM     29  C   LIG d   1       5.435  -1.663  -5.663  0.00  0.00    -0.018 C 
ATOM     30  H   LIG d   1       6.272  -2.216  -6.090  0.00  0.00     0.032 H 
ATOM     31  H   LIG d   1       4.998  -2.241  -4.848  0.00  0.00     0.032 H 
BRANCH  29  32
ATOM     32  C   LIG d   1       4.393  -1.428  -6.727  0.00  0.00    -0.047 A 
ATOM     33  C   LIG d   1       3.566  -0.324  -6.652  0.00  0.00    -0.059 A 
ATOM     34  C   LIG d   1       2.613  -0.107  -7.629  0.00  0.00    -0.061 A 
ATOM     35  H   LIG d   1       3.665   0.371  -5.831  0.00  0.00     0.062 H 
ATOM     36  C   LIG d   1       2.482  -1.000  -8.677  0.00  0.00    -0.062 A 
ATOM     37  H   LIG d   1       1.969   0.758  -7.574  0.00  0.00     0.062 H 
ATOM     38  C   LIG d   1       3.306  -2.107  -8.750  0.00  0.00    -0.061 A 
ATOM     39  H   LIG d   1       1.736  -0.832  -9.440  0.00  0.00     0.062 H 
ATOM     40  C   LIG d   1       4.262  -2.322  -7.773  0.00  0.00    -0.059 A 
ATOM     41  H   LIG d   1       3.204  -2.804  -9.568  0.00  0.00     0.062 H 
ATOM     42  H   LIG d   1       4.906  -3.187  -7.829  0.00  0.00     0.062 H 
ENDBRANCH  29  32
ENDBRANCH  27  29
BRANCH  27  43
ATOM     43  C   LIG d   1       5.332  -0.068  -3.766  0.00  0.00     0.108 A 
ATOM     44  O   LIG d   1       4.524  -0.907  -3.097  0.00  0.00    -0.468 OA
ATOM     45  C   LIG d   1       4.188  -0.359  -1.918  0.00  0.00     0.092 A 
ATOM     46  C   LIG d   1       4.775   0.848  -1.827  0.00  0.00    -0.024 A 
ATOM     47  H   LIG d   1       3.551  -0.809  -1.171  0.00  0.00     0.103 H 
ATOM     48  C   LIG d   1       5.513   1.035  -3.019  0.00  0.00    -0.020 A 
ATOM     49  H   LIG d   1       4.698   1.540  -1.002  0.00  0.00     0.065 H 
ATOM     50  H   LIG d   1       6.107   1.899  -3.278  0.00  0.00     0.065 H 
ENDBRANCH  27  43
ENDBRANCH   1  27
TORSDOF 9
ENDMDL
MODEL 9
REMARK VINA RESULT:      -6.0      1.871      5.392
REMARK  9 active torsions:
REMARK  status: ('A' for Active; 'I' for Inactive)
REMARK    1  A    between atoms: C_1  and  C_2 
REMARK    2  A    between atoms: C_2  and  C_4 
REMARK    3  A    between atoms: C_2  and  N_10 
REMARK    4  A    between atoms: N_10  and  C_11 
REMARK    5  A    between atoms: C_11  and  C_12 
REMARK    6  A    between atoms: C_12  and  C_13 
REMARK    7  A    between atoms: C_13  and  C_15 
REMARK    8  A    between atoms: C_13  and  C_22 
REMARK    9  A    between atoms: C_15  and  C_16 
ROOT
ATOM      1  C   LIG d   1       8.036  -0.784  -5.045  0.00  0.00    -0.003 C 
ATOM      2  H   LIG d   1       8.297  -1.473  -4.242  0.00  0.00     0.032 H 
ATOM      3  H   LIG d   1       8.948  -0.413  -5.515  0.00  0.00     0.032 H 
ENDROOT
BRANCH   1   4
ATOM      4  C   LIG d   1       7.188  -1.515  -6.087  0.00  0.00    -0.032 C 
ATOM      5  H   LIG d   1       6.301  -1.930  -5.609  0.00  0.00     0.081 H 
ATOM      6  H   LIG d   1       7.773  -2.321  -6.531  0.00  0.00     0.081 H 
BRANCH   4   7
ATOM      7  N   LIG d   1       6.781  -0.571  -7.137  0.00  0.00     0.232 N 
ATOM      8  H   LIG d   1       7.421  -0.636  -7.914  0.00  0.00     0.202 HD
ATOM      9  H   LIG d   1       6.795   0.369  -6.768  0.00  0.00     0.202 HD
BRANCH   7  10
ATOM     10  C   LIG d   1       5.423  -0.899  -7.591  0.00  0.00     0.000 C 
ATOM     11  H   LIG d   1       5.476  -1.647  -8.383  0.00  0.00     0.090 H 
BRANCH  10  12
ATOM     12  C   LIG d   1       4.613  -1.454  -6.418  0.00  0.00    -0.017 C 
ATOM     13  H   LIG d   1       5.287  -1.706  -5.599  0.00  0.00     0.029 H 
ATOM     14  H   LIG d   1       3.898  -0.703  -6.083  0.00  0.00     0.029 H 
ATOM     15  H   LIG d   1       4.079  -2.349  -6.737  0.00  0.00     0.029 H 
ENDBRANCH  10  12
BRANCH  10  16
ATOM     16  C   LIG d   1       4.756   0.345  -8.119  0.00  0.00    -0.000 A 
ATOM     17  C   LIG d   1       5.505   1.310  -8.766  0.00  0.00    -0.053 A 
ATOM     18  C   LIG d   1       4.892   2.449  -9.254  0.00  0.00    -0.061 A 
ATOM     19  H   LIG d   1       6.569   1.172  -8.893  0.00  0.00     0.062 H 
ATOM     20  C   LIG d   1       3.532   2.628  -9.087  0.00  0.00    -0.062 A 
ATOM     21  H   LIG d   1       5.477   3.201  -9.763  0.00  0.00     0.062 H 
ATOM     22  C   LIG d   1       2.783   1.665  -8.435  0.00  0.00    -0.061 A 
ATOM     23  H   LIG d   1       3.053   3.519  -9.466  0.00  0.00     0.062 H 
ATOM     24  C   LIG d   1       3.395   0.524  -7.952  0.00  0.00    -0.053 A 
ATOM     25  H   LIG d   1       1.720   1.804  -8.305  0.00  0.00     0.062 H 
ATOM     26  H   LIG d   1       2.811  -0.228  -7.443  0.00  0.00     0.062 H 
ENDBRANCH  10  16
ENDBRANCH   7  10
ENDBRANCH   4   7
ENDBRANCH   1   4
BRANCH   1  27
ATOM     27  C   LIG d   1       7.242   0.391  -4.472  0.00  0.00     0.026 C 
ATOM     28  H   LIG d   1       6.351   0.556  -5.078  0.00  0.00     0.038 H 
BRANCH  27  29
ATOM     29  C   LIG d   1       6.829   0.075  -3.033  0.00  0.00    -0.018 C 
ATOM     30  H   LIG d   1       7.417  -0.765  -2.662  0.00  0.00     0.032 H 
ATOM     31  H   LIG d   1       7.005   0.947  -2.404  0.00  0.00     0.032 H 
BRANCH  29  32
ATOM     32  C   LIG d   1       5.365  -0.283  -2.997  0.00  0.00    -0.047 A 
ATOM     33  C   LIG d   1       4.417   0.647  -3.381  0.00  0.00    -0.059 A 
ATOM     34  C   LIG d   1       3.075   0.318  -3.351  0.00  0.00    -0.061 A 
ATOM     35  H   LIG d   1       4.725   1.629  -3.708  0.00  0.00     0.062 H 
ATOM     36  C   LIG d   1       2.680  -0.938  -2.928  0.00  0.00    -0.062 A 
ATOM     37  H   LIG d   1       2.334   1.042  -3.655  0.00  0.00     0.062 H 
ATOM     38  C   LIG d   1       3.628  -1.867  -2.539  0.00  0.00    -0.061 A 
ATOM     39  H   LIG d   1       1.632  -1.195  -2.902  0.00  0.00     0.062 H 
ATOM     40  C   LIG d   1       4.971  -1.538  -2.573  0.00  0.00    -0.059 A 
ATOM     41  H   LIG d   1       3.320  -2.847  -2.209  0.00  0.00     0.062 H 
ATOM     42  H   LIG d   1       5.712  -2.263  -2.269  0.00  0.00     0.062 H 
ENDBRANCH  29  32
ENDBRANCH  27  29
BRANCH  27  43
ATOM     43  C   LIG d   1       8.097   1.631  -4.489  0.00  0.00     0.108 A 
ATOM     44  O   LIG d   1       8.541   2.294  -3.408  0.00  0.00    -0.468 OA
ATOM     45  C   LIG d   1       9.277   3.348  -3.799  0.00  0.00     0.092 A 
ATOM     46  C   LIG d   1       9.301   3.372  -5.144  0.00  0.00    -0.024 A 
ATOM     47  H   LIG d   1       9.762   4.056  -3.146  0.00  0.00     0.103 H 
ATOM     48  C   LIG d   1       8.540   2.266  -5.589  0.00  0.00    -0.020 A 
ATOM     49  H   LIG d   1       9.805   4.098  -5.765  0.00  0.00     0.065 H 
ATOM     50  H   LIG d   1       8.352   1.985  -6.614  0.00  0.00     0.065 H 
ENDBRANCH  27  43
ENDBRANCH   1  27
TORSDOF 9
ENDMDL
MODEL 10
REMARK VINA RESULT:      -5.9      2.157      5.544
REMARK  9 active torsions:
REMARK  status: ('A' for Active; 'I' for Inactive)
REMARK    1  A    between atoms: C_1  and  C_2 
REMARK    2  A    between atoms: C_2  and  C_4 
REMARK    3  A    between atoms: C_2  and  N_10 
REMARK    4  A    between atoms: N_10  and  C_11 
REMARK    5  A    between atoms: C_11  and  C_12 
REMARK    6  A    between atoms: C_12  and  C_13 
REMARK    7  A    between atoms: C_13  and  C_15 
REMARK    8  A    between atoms: C_13  and  C_22 
REMARK    9  A    between atoms: C_15  and  C_16 
ROOT
ATOM      1  C   LIG d   1       7.645   0.666  -6.470  0.00  0.00    -0.003 C 
ATOM      2  H   LIG d   1       8.618   0.181  -6.539  0.00  0.00     0.032 H 
ATOM      3  H   LIG d   1       7.635   1.553  -7.105  0.00  0.00     0.032 H 
ENDROOT
BRANCH   1   4
ATOM      4  C   LIG d   1       6.557  -0.304  -6.934  0.00  0.00    -0.032 C 
ATOM      5  H   LIG d   1       6.516  -1.157  -6.256  0.00  0.00     0.081 H 
ATOM      6  H   LIG d   1       6.787  -0.653  -7.942  0.00  0.00     0.081 H 
BRANCH   4   7
ATOM      7  N   LIG d   1       5.258   0.380  -6.937  0.00  0.00     0.232 N 
ATOM      8  H   LIG d   1       5.068   0.737  -7.862  0.00  0.00     0.202 HD
ATOM      9  H   LIG d   1       5.279   1.146  -6.280  0.00  0.00     0.202 HD
BRANCH   7  10
ATOM     10  C   LIG d   1       4.203  -0.566  -6.552  0.00  0.00     0.000 C 
ATOM     11  H   LIG d   1       4.656  -1.449  -6.098  0.00  0.00     0.090 H 
BRANCH  10  12
ATOM     12  C   LIG d   1       3.264   0.100  -5.544  0.00  0.00    -0.017 C 
ATOM     13  H   LIG d   1       2.989   1.092  -5.905  0.00  0.00     0.029 H 
ATOM     14  H   LIG d   1       2.367  -0.507  -5.427  0.00  0.00     0.029 H 
ATOM     15  H   LIG d   1       3.769   0.192  -4.583  0.00  0.00     0.029 H 
ENDBRANCH  10  12
BRANCH  10  16
ATOM     16  C   LIG d   1       3.422  -0.974  -7.774  0.00  0.00    -0.000 A 
ATOM     17  C   LIG d   1       3.635  -2.212  -8.350  0.00  0.00    -0.053 A 
ATOM     18  C   LIG d   1       2.915  -2.588  -9.469  0.00  0.00    -0.061 A 
ATOM     19  H   LIG d   1       4.362  -2.887  -7.923  0.00  0.00     0.062 H 
ATOM     20  C   LIG d   1       1.988  -1.721 -10.018  0.00  0.00    -0.062 A 
ATOM     21  H   LIG d   1       3.079  -3.557  -9.916  0.00  0.00     0.062 H 
ATOM     22  C   LIG d   1       1.778  -0.480  -9.444  0.00  0.00    -0.061 A 
ATOM     23  H   LIG d   1       1.428  -2.014 -10.893  0.00  0.00     0.062 H 
ATOM     24  C   LIG d   1       2.495  -0.107  -8.323  0.00  0.00    -0.053 A 
ATOM     25  H   LIG d   1       1.055   0.196  -9.873  0.00  0.00     0.062 H 
ATOM     26  H   LIG d   1       2.331   0.862  -7.876  0.00  0.00     0.062 H 
ENDBRANCH  10  16
ENDBRANCH   7  10
ENDBRANCH   4   7
ENDBRANCH   1   4
BRANCH   1  27
ATOM     27  C   LIG d   1       7.380   1.074  -5.020  0.00  0.00     0.026 C 
ATOM     28  H   LIG d   1       6.359   1.447  -4.928  0.00  0.00     0.038 H 
BRANCH  27  29
ATOM     29  C   LIG d   1       7.563  -0.140  -4.107  0.00  0.00    -0.018 C 
ATOM     30  H   LIG d   1       7.797  -1.018  -4.710  0.00  0.00     0.032 H 
ATOM     31  H   LIG d   1       8.380   0.049  -3.410  0.00  0.00     0.032 H 
BRANCH  29  32
ATOM     32  C   LIG d   1       6.291  -0.386  -3.335  0.00  0.00    -0.047 A 
ATOM     33  C   LIG d   1       5.745  -1.655  -3.289  0.00  0.00    -0.059 A 
ATOM     34  C   LIG d   1       4.581  -1.880  -2.579  0.00  0.00    -0.061 A 
ATOM     35  H   LIG d   1       6.230  -2.471  -3.805  0.00  0.00     0.062 H 
ATOM     36  C   LIG d   1       3.958  -0.835  -1.923  0.00  0.00    -0.062 A 
ATOM     37  H   LIG d   1       4.156  -2.873  -2.539  0.00  0.00     0.062 H 
ATOM     38  C   LIG d   1       4.501   0.435  -1.973  0.00  0.00    -0.061 A 
ATOM     39  H   LIG d   1       3.047  -1.010  -1.369  0.00  0.00     0.062 H 
ATOM     40  C   LIG d   1       5.668   0.660  -2.681  0.00  0.00    -0.059 A 
ATOM     41  H   LIG d   1       4.015   1.251  -1.460  0.00  0.00     0.062 H 
ATOM     42  H   LIG d   1       6.092   1.652  -2.720  0.00  0.00     0.062 H 
ENDBRANCH  29  32
ENDBRANCH  27  29
BRANCH  27  43
ATOM     43  C   LIG d   1       8.348   2.156  -4.617  0.00  0.00     0.108 A 
ATOM     44  O   LIG d   1       8.675   2.490  -3.358  0.00  0.00    -0.468 OA
ATOM     45  C   LIG d   1       9.567   3.493  -3.377  0.00  0.00     0.092 A 
ATOM     46  C   LIG d   1       9.813   3.818  -4.659  0.00  0.00    -0.024 A 
ATOM     47  H   LIG d   1      10.009   3.961  -2.511  0.00  0.00     0.103 H 
ATOM     48  C   LIG d   1       9.027   2.956  -5.458  0.00  0.00    -0.020 A 
ATOM     49  H   LIG d   1      10.483   4.589  -5.010  0.00  0.00     0.065 H 
ATOM     50  H   LIG d   1       8.981   2.943  -6.537  0.00  0.00     0.065 H 
ENDBRANCH  27  43
ENDBRANCH   1  27
TORSDOF 9
ENDMDL
