MODEL 1
REMARK VINA RESULT:      -7.4      0.000      0.000
REMARK  8 active torsions:
REMARK  status: ('A' for Active; 'I' for Inactive)
REMARK    1  A    between atoms: C_3  and  O_31 
REMARK    2  A    between atoms: C_6  and  C_7 
REMARK    3  A    between atoms: C_9  and  C_12 
REMARK    4  A    between atoms: N_22  and  C_23 
REMARK    5  A    between atoms: C_23  and  C_24 
REMARK    6  A    between atoms: C_27  and  C_29 
REMARK    7  A    between atoms: C_29  and  O_30 
REMARK    8  A    between atoms: O_31  and  C_32 
ROOT
ATOM      1  C   LIG d   1       6.070  -7.174  -7.756  0.00  0.00     0.098 C 
ATOM      2  H   LIG d   1       7.030  -6.722  -8.003  0.00  0.00     0.057 H 
ATOM      3  C   LIG d   1       5.337  -7.559  -9.049  0.00  0.00     0.037 C 
ATOM      4  C   LIG d   1       6.058  -8.737  -9.654  0.00  0.00     0.148 A 
ATOM      5  C   LIG d   1       6.947  -9.496  -8.976  0.00  0.00     0.159 A 
ATOM      6  N   LIG d   1       7.395 -10.442  -9.802  0.00  0.00    -0.246 N 
ATOM      7  C   LIG d   1       6.818 -10.301 -10.968  0.00  0.00     0.243 A 
ATOM      8  N   LIG d   1       5.973  -9.244 -10.911  0.00  0.00    -0.247 N 
ATOM      9  H   LIG d   1       5.414  -8.913 -11.632  0.00  0.00     0.310 HD
ATOM     10  C   LIG d   1       7.314  -9.253  -7.533  0.00  0.00     0.066 C 
ATOM     11  N   LIG d   1       6.291  -8.376  -6.939  0.00  0.00    -0.276 N 
ATOM     12  H   LIG d   1       4.307  -7.834  -8.821  0.00  0.00     0.037 H 
ATOM     13  H   LIG d   1       5.351  -6.721  -9.744  0.00  0.00     0.037 H 
ATOM     14  H   LIG d   1       6.986 -10.925 -11.833  0.00  0.00     0.158 H 
ATOM     15  H   LIG d   1       7.343 -10.200  -6.996  0.00  0.00     0.051 H 
ATOM     16  H   LIG d   1       8.290  -8.768  -7.478  0.00  0.00     0.051 H 
ATOM     17  H   LIG d   1       8.046 -11.125  -9.577  0.00  0.00     0.310 HD
ENDROOT
BRANCH   1  18
ATOM     18  C   LIG d   1       5.235  -6.187  -6.981  0.00  0.00     0.245 A 
ATOM     19  N   LIG d   1       5.629  -5.015  -6.570  0.00  0.00    -0.190 NA
ATOM     20  C   LIG d   1       4.630  -4.399  -5.912  0.00  0.00     0.202 A 
ATOM     21  N   LIG d   1       3.587  -5.192  -5.898  0.00  0.00    -0.056 NA
ATOM     22  O   LIG d   1       3.964  -6.367  -6.600  0.00  0.00    -0.336 OA
BRANCH  20  23
ATOM     23  C   LIG d   1       4.701  -3.050  -5.299  0.00  0.00     0.023 A 
ATOM     24  C   LIG d   1       4.554  -1.913  -6.093  0.00  0.00    -0.048 A 
ATOM     25  C   LIG d   1       4.620  -0.661  -5.519  0.00  0.00    -0.019 A 
ATOM     26  H   LIG d   1       4.385  -2.014  -7.154  0.00  0.00     0.063 H 
ATOM     27  C   LIG d   1       4.831  -0.531  -4.154  0.00  0.00     0.130 A 
ATOM     28  H   LIG d   1       4.506   0.220  -6.135  0.00  0.00     0.065 H 
ATOM     29  C   LIG d   1       4.978  -1.661  -3.361  0.00  0.00    -0.019 A 
ATOM     30  C   LIG d   1       4.913  -2.916  -3.927  0.00  0.00    -0.048 A 
ATOM     31  H   LIG d   1       5.143  -1.557  -2.298  0.00  0.00     0.065 H 
ATOM     32  H   LIG d   1       5.029  -3.795  -3.310  0.00  0.00     0.063 H 
BRANCH  27  33
ATOM     33  O   LIG d   1       4.896   0.703  -3.592  0.00  0.00    -0.406 OA
BRANCH  33  34
ATOM     34  C   LIG d   1       3.794   1.103  -2.774  0.00  0.00     0.575 C 
ATOM     35  F   LIG d   1       4.193   1.123  -1.433  0.00  0.00    -0.133 F 
ATOM     36  F   LIG d   1       3.371   2.382  -3.152  0.00  0.00    -0.133 F 
ATOM     37  F   LIG d   1       2.741   0.197  -2.934  0.00  0.00    -0.133 F 
ENDBRANCH  33  34
ENDBRANCH  27  33
ENDBRANCH  20  23
ENDBRANCH   1  18
BRANCH  11  38
ATOM     38  C   LIG d   1       6.644  -8.016  -5.558  0.00  0.00     0.058 C 
ATOM     39  H   LIG d   1       7.724  -8.090  -5.428  0.00  0.00     0.051 H 
ATOM     40  H   LIG d   1       6.323  -6.994  -5.355  0.00  0.00     0.051 H 
BRANCH  38  41
ATOM     41  C   LIG d   1       5.957  -8.957  -4.603  0.00  0.00     0.119 A 
ATOM     42  O   LIG d   1       4.665  -9.322  -4.651  0.00  0.00    -0.461 OA
ATOM     43  C   LIG d   1       4.402 -10.173  -3.646  0.00  0.00     0.131 A 
ATOM     44  C   LIG d   1       5.531 -10.355  -2.937  0.00  0.00    -0.018 A 
ATOM     45  C   LIG d   1       6.532  -9.571  -3.554  0.00  0.00    -0.019 A 
ATOM     46  H   LIG d   1       5.648 -10.981  -2.065  0.00  0.00     0.065 H 
ATOM     47  H   LIG d   1       7.563  -9.484  -3.242  0.00  0.00     0.065 H 
BRANCH  43  48
ATOM     48  C   LIG d   1       3.068 -10.813  -3.361  0.00  0.00     0.102 C 
ATOM     49  H   LIG d   1       2.704 -11.312  -4.259  0.00  0.00     0.064 H 
ATOM     50  H   LIG d   1       3.180 -11.543  -2.559  0.00  0.00     0.064 H 
BRANCH  48  51
ATOM     51  O   LIG d   1       2.134  -9.808  -2.962  0.00  0.00    -0.387 OA
ATOM     52  H   LIG d   1       2.535  -9.057  -2.504  0.00  0.00     0.210 HD
ENDBRANCH  48  51
ENDBRANCH  43  48
ENDBRANCH  38  41
ENDBRANCH  11  38
TORSDOF 8
ENDMDL
MODEL 2
REMARK VINA RESULT:      -7.2      7.903     13.007
REMARK  8 active torsions:
REMARK  status: ('A' for Active; 'I' for Inactive)
REMARK    1  A    between atoms: C_3  and  O_31 
REMARK    2  A    between atoms: C_6  and  C_7 
REMARK    3  A    between atoms: C_9  and  C_12 
REMARK    4  A    between atoms: N_22  and  C_23 
REMARK    5  A    between atoms: C_23  and  C_24 
REMARK    6  A    between atoms: C_27  and  C_29 
REMARK    7  A    between atoms: C_29  and  O_30 
REMARK    8  A    between atoms: O_31  and  C_32 
ROOT
ATOM      1  C   LIG d   1      10.041   5.113  -5.519  0.00  0.00     0.098 C 
ATOM      2  H   LIG d   1       9.246   5.321  -6.235  0.00  0.00     0.057 H 
ATOM      3  C   LIG d   1      11.361   4.891  -6.272  0.00  0.00     0.037 C 
ATOM      4  C   LIG d   1      11.810   6.223  -6.817  0.00  0.00     0.148 A 
ATOM      5  C   LIG d   1      11.312   7.408  -6.396  0.00  0.00     0.159 A 
ATOM      6  N   LIG d   1      11.921   8.377  -7.081  0.00  0.00    -0.246 N 
ATOM      7  C   LIG d   1      12.780   7.840  -7.910  0.00  0.00     0.243 A 
ATOM      8  N   LIG d   1      12.739   6.494  -7.771  0.00  0.00    -0.247 N 
ATOM      9  H   LIG d   1      13.271   5.847  -8.259  0.00  0.00     0.310 HD
ATOM     10  C   LIG d   1      10.253   7.529  -5.329  0.00  0.00     0.066 C 
ATOM     11  N   LIG d   1      10.184   6.251  -4.601  0.00  0.00    -0.276 N 
ATOM     12  H   LIG d   1      12.114   4.499  -5.589  0.00  0.00     0.037 H 
ATOM     13  H   LIG d   1      11.205   4.192  -7.092  0.00  0.00     0.037 H 
ATOM     14  H   LIG d   1      13.418   8.382  -8.593  0.00  0.00     0.158 H 
ATOM     15  H   LIG d   1      10.514   8.331  -4.641  0.00  0.00     0.051 H 
ATOM     16  H   LIG d   1       9.288   7.740  -5.791  0.00  0.00     0.051 H 
ATOM     17  H   LIG d   1      11.754   9.327  -6.982  0.00  0.00     0.310 HD
ENDROOT
BRANCH   1  18
ATOM     18  C   LIG d   1       9.697   3.873  -4.734  0.00  0.00     0.245 A 
ATOM     19  N   LIG d   1       8.619   3.157  -4.877  0.00  0.00    -0.190 NA
ATOM     20  C   LIG d   1       8.636   2.123  -4.016  0.00  0.00     0.202 A 
ATOM     21  N   LIG d   1       9.739   2.184  -3.311  0.00  0.00    -0.056 NA
ATOM     22  O   LIG d   1      10.450   3.323  -3.773  0.00  0.00    -0.336 OA
BRANCH  20  23
ATOM     23  C   LIG d   1       7.580   1.090  -3.884  0.00  0.00     0.023 A 
ATOM     24  C   LIG d   1       6.324   1.435  -3.387  0.00  0.00    -0.048 A 
ATOM     25  C   LIG d   1       5.344   0.471  -3.266  0.00  0.00    -0.019 A 
ATOM     26  H   LIG d   1       6.117   2.455  -3.102  0.00  0.00     0.063 H 
ATOM     27  C   LIG d   1       5.608  -0.840  -3.638  0.00  0.00     0.130 A 
ATOM     28  H   LIG d   1       4.371   0.739  -2.881  0.00  0.00     0.065 H 
ATOM     29  C   LIG d   1       6.858  -1.186  -4.132  0.00  0.00    -0.019 A 
ATOM     30  C   LIG d   1       7.842  -0.228  -4.257  0.00  0.00    -0.048 A 
ATOM     31  H   LIG d   1       7.061  -2.207  -4.421  0.00  0.00     0.065 H 
ATOM     32  H   LIG d   1       8.815  -0.498  -4.641  0.00  0.00     0.063 H 
BRANCH  27  33
ATOM     33  O   LIG d   1       4.641  -1.786  -3.517  0.00  0.00    -0.406 OA
BRANCH  33  34
ATOM     34  C   LIG d   1       3.829  -1.738  -2.343  0.00  0.00     0.575 C 
ATOM     35  F   LIG d   1       3.463  -3.038  -1.976  0.00  0.00    -0.133 F 
ATOM     36  F   LIG d   1       4.549  -1.145  -1.300  0.00  0.00    -0.133 F 
ATOM     37  F   LIG d   1       2.678  -0.986  -2.602  0.00  0.00    -0.133 F 
ENDBRANCH  33  34
ENDBRANCH  27  33
ENDBRANCH  20  23
ENDBRANCH   1  18
BRANCH  11  38
ATOM     38  C   LIG d   1       9.098   6.268  -3.611  0.00  0.00     0.058 C 
ATOM     39  H   LIG d   1       8.373   7.037  -3.880  0.00  0.00     0.051 H 
ATOM     40  H   LIG d   1       8.606   5.295  -3.594  0.00  0.00     0.051 H 
BRANCH  38  41
ATOM     41  C   LIG d   1       9.665   6.567  -2.247  0.00  0.00     0.119 A 
ATOM     42  O   LIG d   1      10.329   5.700  -1.465  0.00  0.00    -0.461 OA
ATOM     43  C   LIG d   1      10.689   6.311  -0.325  0.00  0.00     0.131 A 
ATOM     44  C   LIG d   1      10.249   7.581  -0.366  0.00  0.00    -0.018 A 
ATOM     45  C   LIG d   1       9.589   7.746  -1.605  0.00  0.00    -0.019 A 
ATOM     46  H   LIG d   1      10.376   8.331   0.401  0.00  0.00     0.065 H 
ATOM     47  H   LIG d   1       9.115   8.647  -1.967  0.00  0.00     0.065 H 
BRANCH  43  48
ATOM     48  C   LIG d   1      11.455   5.679   0.809  0.00  0.00     0.102 C 
ATOM     49  H   LIG d   1      12.010   4.818   0.438  0.00  0.00     0.064 H 
ATOM     50  H   LIG d   1      12.150   6.407   1.228  0.00  0.00     0.064 H 
BRANCH  48  51
ATOM     51  O   LIG d   1      10.541   5.256   1.823  0.00  0.00    -0.387 OA
ATOM     52  H   LIG d   1      10.483   4.297   1.926  0.00  0.00     0.210 HD
ENDBRANCH  48  51
ENDBRANCH  43  48
ENDBRANCH  38  41
ENDBRANCH  11  38
TORSDOF 8
ENDMDL
MODEL 3
REMARK VINA RESULT:      -7.1      4.897      6.865
REMARK  8 active torsions:
REMARK  status: ('A' for Active; 'I' for Inactive)
REMARK    1  A    between atoms: C_3  and  O_31 
REMARK    2  A    between atoms: C_6  and  C_7 
REMARK    3  A    between atoms: C_9  and  C_12 
REMARK    4  A    between atoms: N_22  and  C_23 
REMARK    5  A    between atoms: C_23  and  C_24 
REMARK    6  A    between atoms: C_27  and  C_29 
REMARK    7  A    between atoms: C_29  and  O_30 
REMARK    8  A    between atoms: O_31  and  C_32 
ROOT
ATOM      1  C   LIG d   1       2.386  -1.359 -11.584  0.00  0.00     0.098 C 
ATOM      2  H   LIG d   1       2.798  -0.950 -12.507  0.00  0.00     0.057 H 
ATOM      3  C   LIG d   1       0.939  -0.876 -11.413  0.00  0.00     0.037 C 
ATOM      4  C   LIG d   1       0.092  -1.583 -12.440  0.00  0.00     0.148 A 
ATOM      5  C   LIG d   1       0.500  -2.681 -13.115  0.00  0.00     0.159 A 
ATOM      6  N   LIG d   1      -0.483  -3.045 -13.940  0.00  0.00    -0.246 N 
ATOM      7  C   LIG d   1      -1.486  -2.217 -13.803  0.00  0.00     0.243 A 
ATOM      8  N   LIG d   1      -1.163  -1.290 -12.871  0.00  0.00    -0.247 N 
ATOM      9  H   LIG d   1      -1.721  -0.556 -12.569  0.00  0.00     0.310 HD
ATOM     10  C   LIG d   1       1.848  -3.325 -12.911  0.00  0.00     0.066 C 
ATOM     11  N   LIG d   1       2.411  -2.827 -11.645  0.00  0.00    -0.276 N 
ATOM     12  H   LIG d   1       0.584  -1.119 -10.411  0.00  0.00     0.037 H 
ATOM     13  H   LIG d   1       0.887   0.201 -11.571  0.00  0.00     0.037 H 
ATOM     14  H   LIG d   1      -2.421  -2.265 -14.343  0.00  0.00     0.158 H 
ATOM     15  H   LIG d   1       1.736  -4.408 -12.863  0.00  0.00     0.051 H 
ATOM     16  H   LIG d   1       2.511  -3.061 -13.736  0.00  0.00     0.051 H 
ATOM     17  H   LIG d   1      -0.458  -3.802 -14.546  0.00  0.00     0.310 HD
ENDROOT
BRANCH   1  18
ATOM     18  C   LIG d   1       3.213  -0.890 -10.415  0.00  0.00     0.245 A 
ATOM     19  N   LIG d   1       2.878  -0.983  -9.159  0.00  0.00    -0.190 NA
ATOM     20  C   LIG d   1       3.849  -0.466  -8.385  0.00  0.00     0.202 A 
ATOM     21  N   LIG d   1       4.815  -0.033  -9.157  0.00  0.00    -0.056 NA
ATOM     22  O   LIG d   1       4.416  -0.308 -10.492  0.00  0.00    -0.336 OA
BRANCH  20  23
ATOM     23  C   LIG d   1       3.827  -0.394  -6.903  0.00  0.00     0.023 A 
ATOM     24  C   LIG d   1       4.826  -1.020  -6.158  0.00  0.00    -0.048 A 
ATOM     25  C   LIG d   1       4.802  -0.951  -4.781  0.00  0.00    -0.019 A 
ATOM     26  H   LIG d   1       5.618  -1.555  -6.660  0.00  0.00     0.063 H 
ATOM     27  C   LIG d   1       3.786  -0.258  -4.137  0.00  0.00     0.130 A 
ATOM     28  H   LIG d   1       5.576  -1.435  -4.204  0.00  0.00     0.065 H 
ATOM     29  C   LIG d   1       2.790   0.366  -4.875  0.00  0.00    -0.019 A 
ATOM     30  C   LIG d   1       2.808   0.300  -6.253  0.00  0.00    -0.048 A 
ATOM     31  H   LIG d   1       2.001   0.903  -4.371  0.00  0.00     0.065 H 
ATOM     32  H   LIG d   1       2.032   0.785  -6.827  0.00  0.00     0.063 H 
BRANCH  27  33
ATOM     33  O   LIG d   1       3.766  -0.192  -2.781  0.00  0.00    -0.406 OA
BRANCH  33  34
ATOM     34  C   LIG d   1       4.222   1.023  -2.183  0.00  0.00     0.575 C 
ATOM     35  F   LIG d   1       4.768   0.748  -0.924  0.00  0.00    -0.133 F 
ATOM     36  F   LIG d   1       5.198   1.607  -2.997  0.00  0.00    -0.133 F 
ATOM     37  F   LIG d   1       3.146   1.905  -2.040  0.00  0.00    -0.133 F 
ENDBRANCH  33  34
ENDBRANCH  27  33
ENDBRANCH  20  23
ENDBRANCH   1  18
BRANCH  11  38
ATOM     38  C   LIG d   1       3.772  -3.339 -11.436  0.00  0.00     0.058 C 
ATOM     39  H   LIG d   1       4.145  -3.769 -12.366  0.00  0.00     0.051 H 
ATOM     40  H   LIG d   1       4.425  -2.522 -11.127  0.00  0.00     0.051 H 
BRANCH  38  41
ATOM     41  C   LIG d   1       3.752  -4.399 -10.365  0.00  0.00     0.119 A 
ATOM     42  O   LIG d   1       4.084  -4.219  -9.077  0.00  0.00    -0.461 OA
ATOM     43  C   LIG d   1       3.944  -5.379  -8.413  0.00  0.00     0.131 A 
ATOM     44  C   LIG d   1       3.526  -6.317  -9.280  0.00  0.00    -0.018 A 
ATOM     45  C   LIG d   1       3.402  -5.686 -10.539  0.00  0.00    -0.019 A 
ATOM     46  H   LIG d   1       3.323  -7.354  -9.057  0.00  0.00     0.065 H 
ATOM     47  H   LIG d   1       3.085  -6.148 -11.462  0.00  0.00     0.065 H 
BRANCH  43  48
ATOM     48  C   LIG d   1       4.215  -5.591  -6.945  0.00  0.00     0.102 C 
ATOM     49  H   LIG d   1       4.387  -6.651  -6.757  0.00  0.00     0.064 H 
ATOM     50  H   LIG d   1       5.097  -5.022  -6.653  0.00  0.00     0.064 H 
BRANCH  48  51
ATOM     51  O   LIG d   1       3.089  -5.149  -6.185  0.00  0.00    -0.387 OA
ATOM     52  H   LIG d   1       3.222  -5.183  -5.228  0.00  0.00     0.210 HD
ENDBRANCH  48  51
ENDBRANCH  43  48
ENDBRANCH  38  41
ENDBRANCH  11  38
TORSDOF 8
ENDMDL
MODEL 4
REMARK VINA RESULT:      -7.1      2.016      2.590
REMARK  8 active torsions:
REMARK  status: ('A' for Active; 'I' for Inactive)
REMARK    1  A    between atoms: C_3  and  O_31 
REMARK    2  A    between atoms: C_6  and  C_7 
REMARK    3  A    between atoms: C_9  and  C_12 
REMARK    4  A    between atoms: N_22  and  C_23 
REMARK    5  A    between atoms: C_23  and  C_24 
REMARK    6  A    between atoms: C_27  and  C_29 
REMARK    7  A    between atoms: C_29  and  O_30 
REMARK    8  A    between atoms: O_31  and  C_32 
ROOT
ATOM      1  C   LIG d   1       5.015  -6.628  -8.287  0.00  0.00     0.098 C 
ATOM      2  H   LIG d   1       5.704  -6.859  -9.099  0.00  0.00     0.057 H 
ATOM      3  C   LIG d   1       3.747  -5.978  -8.859  0.00  0.00     0.037 C 
ATOM      4  C   LIG d   1       2.974  -7.044  -9.593  0.00  0.00     0.148 A 
ATOM      5  C   LIG d   1       3.204  -8.369  -9.444  0.00  0.00     0.159 A 
ATOM      6  N   LIG d   1       2.353  -9.025 -10.234  0.00  0.00    -0.246 N 
ATOM      7  C   LIG d   1       1.602  -8.160 -10.867  0.00  0.00     0.243 A 
ATOM      8  N   LIG d   1       1.962  -6.911 -10.489  0.00  0.00    -0.247 N 
ATOM      9  H   LIG d   1       1.571  -6.079 -10.800  0.00  0.00     0.310 HD
ATOM     10  C   LIG d   1       4.258  -8.927  -8.521  0.00  0.00     0.066 C 
ATOM     11  N   LIG d   1       4.658  -7.867  -7.582  0.00  0.00    -0.276 N 
ATOM     12  H   LIG d   1       3.141  -5.574  -8.049  0.00  0.00     0.037 H 
ATOM     13  H   LIG d   1       4.021  -5.181  -9.549  0.00  0.00     0.037 H 
ATOM     14  H   LIG d   1       0.823  -8.403 -11.574  0.00  0.00     0.158 H 
ATOM     15  H   LIG d   1       3.852  -9.774  -7.969  0.00  0.00     0.051 H 
ATOM     16  H   LIG d   1       5.123  -9.248  -9.102  0.00  0.00     0.051 H 
ATOM     17  H   LIG d   1       2.299  -9.989 -10.326  0.00  0.00     0.310 HD
ENDROOT
BRANCH   1  18
ATOM     18  C   LIG d   1       5.676  -5.674  -7.324  0.00  0.00     0.245 A 
ATOM     19  N   LIG d   1       5.066  -4.953  -6.428  0.00  0.00    -0.190 NA
ATOM     20  C   LIG d   1       5.960  -4.218  -5.743  0.00  0.00     0.202 A 
ATOM     21  N   LIG d   1       7.158  -4.469  -6.213  0.00  0.00    -0.056 NA
ATOM     22  O   LIG d   1       6.990  -5.427  -7.248  0.00  0.00    -0.336 OA
BRANCH  20  23
ATOM     23  C   LIG d   1       5.643  -3.274  -4.643  0.00  0.00     0.023 A 
ATOM     24  C   LIG d   1       4.354  -3.226  -4.114  0.00  0.00    -0.048 A 
ATOM     25  C   LIG d   1       4.064  -2.348  -3.090  0.00  0.00    -0.019 A 
ATOM     26  H   LIG d   1       3.587  -3.877  -4.502  0.00  0.00     0.063 H 
ATOM     27  C   LIG d   1       5.053  -1.514  -2.587  0.00  0.00     0.130 A 
ATOM     28  H   LIG d   1       3.065  -2.311  -2.681  0.00  0.00     0.065 H 
ATOM     29  C   LIG d   1       6.337  -1.560  -3.112  0.00  0.00    -0.019 A 
ATOM     30  C   LIG d   1       6.634  -2.435  -4.135  0.00  0.00    -0.048 A 
ATOM     31  H   LIG d   1       7.104  -0.910  -2.719  0.00  0.00     0.065 H 
ATOM     32  H   LIG d   1       7.634  -2.470  -4.543  0.00  0.00     0.063 H 
BRANCH  27  33
ATOM     33  O   LIG d   1       4.763  -0.651  -1.580  0.00  0.00    -0.406 OA
BRANCH  33  34
ATOM     34  C   LIG d   1       4.376   0.674  -1.951  0.00  0.00     0.575 C 
ATOM     35  F   LIG d   1       5.059   1.051  -3.112  0.00  0.00    -0.133 F 
ATOM     36  F   LIG d   1       2.998   0.708  -2.189  0.00  0.00    -0.133 F 
ATOM     37  F   LIG d   1       4.692   1.559  -0.916  0.00  0.00    -0.133 F 
ENDBRANCH  33  34
ENDBRANCH  27  33
ENDBRANCH  20  23
ENDBRANCH   1  18
BRANCH  11  38
ATOM     38  C   LIG d   1       5.758  -8.316  -6.718  0.00  0.00     0.058 C 
ATOM     39  H   LIG d   1       6.583  -8.672  -7.336  0.00  0.00     0.051 H 
ATOM     40  H   LIG d   1       6.099  -7.485  -6.100  0.00  0.00     0.051 H 
BRANCH  38  41
ATOM     41  C   LIG d   1       5.276  -9.435  -5.831  0.00  0.00     0.119 A 
ATOM     42  O   LIG d   1       4.173  -9.411  -5.065  0.00  0.00    -0.461 OA
ATOM     43  C   LIG d   1       4.054 -10.580  -4.415  0.00  0.00     0.131 A 
ATOM     44  C   LIG d   1       5.092 -11.364  -4.757  0.00  0.00    -0.018 A 
ATOM     45  C   LIG d   1       5.879 -10.626  -5.669  0.00  0.00    -0.019 A 
ATOM     46  H   LIG d   1       5.285 -12.365  -4.401  0.00  0.00     0.065 H 
ATOM     47  H   LIG d   1       6.790 -10.956  -6.146  0.00  0.00     0.065 H 
BRANCH  43  48
ATOM     48  C   LIG d   1       2.946 -10.948  -3.461  0.00  0.00     0.102 C 
ATOM     49  H   LIG d   1       2.228 -11.592  -3.969  0.00  0.00     0.064 H 
ATOM     50  H   LIG d   1       3.365 -11.476  -2.604  0.00  0.00     0.064 H 
BRANCH  48  51
ATOM     51  O   LIG d   1       2.289  -9.761  -3.014  0.00  0.00    -0.387 OA
ATOM     52  H   LIG d   1       1.383  -9.666  -3.340  0.00  0.00     0.210 HD
ENDBRANCH  48  51
ENDBRANCH  43  48
ENDBRANCH  38  41
ENDBRANCH  11  38
TORSDOF 8
ENDMDL
MODEL 5
REMARK VINA RESULT:      -7.1      7.961     13.520
REMARK  8 active torsions:
REMARK  status: ('A' for Active; 'I' for Inactive)
REMARK    1  A    between atoms: C_3  and  O_31 
REMARK    2  A    between atoms: C_6  and  C_7 
REMARK    3  A    between atoms: C_9  and  C_12 
REMARK    4  A    between atoms: N_22  and  C_23 
REMARK    5  A    between atoms: C_23  and  C_24 
REMARK    6  A    between atoms: C_27  and  C_29 
REMARK    7  A    between atoms: C_29  and  O_30 
REMARK    8  A    between atoms: O_31  and  C_32 
ROOT
ATOM      1  C   LIG d   1      10.776   4.833  -3.211  0.00  0.00     0.098 C 
ATOM      2  H   LIG d   1      11.807   4.756  -2.865  0.00  0.00     0.057 H 
ATOM      3  C   LIG d   1       9.897   5.391  -2.083  0.00  0.00     0.037 C 
ATOM      4  C   LIG d   1      10.246   6.847  -1.904  0.00  0.00     0.148 A 
ATOM      5  C   LIG d   1      10.939   7.566  -2.816  0.00  0.00     0.159 A 
ATOM      6  N   LIG d   1      11.075   8.806  -2.345  0.00  0.00    -0.246 N 
ATOM      7  C   LIG d   1      10.492   8.887  -1.177  0.00  0.00     0.243 A 
ATOM      8  N   LIG d   1       9.961   7.680  -0.869  0.00  0.00    -0.247 N 
ATOM      9  H   LIG d   1       9.471   7.453  -0.063  0.00  0.00     0.310 HD
ATOM     10  C   LIG d   1      11.436   6.991  -4.119  0.00  0.00     0.066 C 
ATOM     11  N   LIG d   1      10.716   5.732  -4.372  0.00  0.00    -0.276 N 
ATOM     12  H   LIG d   1       8.846   5.295  -2.351  0.00  0.00     0.037 H 
ATOM     13  H   LIG d   1      10.095   4.849  -1.159  0.00  0.00     0.037 H 
ATOM     14  H   LIG d   1      10.441   9.771  -0.558  0.00  0.00     0.158 H 
ATOM     15  H   LIG d   1      11.243   7.695  -4.928  0.00  0.00     0.051 H 
ATOM     16  H   LIG d   1      12.506   6.795  -4.050  0.00  0.00     0.051 H 
ATOM     17  H   LIG d   1      11.533   9.533  -2.796  0.00  0.00     0.310 HD
ENDROOT
BRANCH   1  18
ATOM     18  C   LIG d   1      10.277   3.467  -3.607  0.00  0.00     0.245 A 
ATOM     19  N   LIG d   1       9.075   3.007  -3.403  0.00  0.00    -0.190 NA
ATOM     20  C   LIG d   1       8.975   1.755  -3.882  0.00  0.00     0.202 A 
ATOM     21  N   LIG d   1      10.130   1.408  -4.395  0.00  0.00    -0.056 NA
ATOM     22  O   LIG d   1      10.994   2.522  -4.227  0.00  0.00    -0.336 OA
BRANCH  20  23
ATOM     23  C   LIG d   1       7.759   0.905  -3.834  0.00  0.00     0.023 A 
ATOM     24  C   LIG d   1       7.839  -0.447  -4.164  0.00  0.00    -0.048 A 
ATOM     25  C   LIG d   1       6.708  -1.234  -4.118  0.00  0.00    -0.019 A 
ATOM     26  H   LIG d   1       8.786  -0.878  -4.452  0.00  0.00     0.063 H 
ATOM     27  C   LIG d   1       5.491  -0.682  -3.742  0.00  0.00     0.130 A 
ATOM     28  H   LIG d   1       6.770  -2.282  -4.374  0.00  0.00     0.065 H 
ATOM     29  C   LIG d   1       5.409   0.664  -3.412  0.00  0.00    -0.019 A 
ATOM     30  C   LIG d   1       6.536   1.457  -3.456  0.00  0.00    -0.048 A 
ATOM     31  H   LIG d   1       4.461   1.091  -3.120  0.00  0.00     0.065 H 
ATOM     32  H   LIG d   1       6.471   2.504  -3.201  0.00  0.00     0.063 H 
BRANCH  27  33
ATOM     33  O   LIG d   1       4.379  -1.460  -3.697  0.00  0.00    -0.406 OA
BRANCH  33  34
ATOM     34  C   LIG d   1       3.721  -1.581  -2.434  0.00  0.00     0.575 C 
ATOM     35  F   LIG d   1       4.509  -0.990  -1.440  0.00  0.00    -0.133 F 
ATOM     36  F   LIG d   1       2.481  -0.935  -2.489  0.00  0.00    -0.133 F 
ATOM     37  F   LIG d   1       3.530  -2.933  -2.136  0.00  0.00    -0.133 F 
ENDBRANCH  33  34
ENDBRANCH  27  33
ENDBRANCH  20  23
ENDBRANCH   1  18
BRANCH  11  38
ATOM     38  C   LIG d   1      11.227   5.068  -5.579  0.00  0.00     0.058 C 
ATOM     39  H   LIG d   1      12.297   5.256  -5.672  0.00  0.00     0.051 H 
ATOM     40  H   LIG d   1      11.053   3.994  -5.505  0.00  0.00     0.051 H 
BRANCH  38  41
ATOM     41  C   LIG d   1      10.514   5.609  -6.791  0.00  0.00     0.119 A 
ATOM     42  O   LIG d   1      10.544   6.883  -7.216  0.00  0.00    -0.461 OA
ATOM     43  C   LIG d   1       9.797   7.002  -8.327  0.00  0.00     0.131 A 
ATOM     44  C   LIG d   1       9.274   5.798  -8.618  0.00  0.00    -0.018 A 
ATOM     45  C   LIG d   1       9.735   4.901  -7.628  0.00  0.00    -0.019 A 
ATOM     46  H   LIG d   1       8.626   5.563  -9.449  0.00  0.00     0.065 H 
ATOM     47  H   LIG d   1       9.508   3.847  -7.559  0.00  0.00     0.065 H 
BRANCH  43  48
ATOM     48  C   LIG d   1       9.581   8.271  -9.110  0.00  0.00     0.102 C 
ATOM     49  H   LIG d   1      10.456   8.913  -9.011  0.00  0.00     0.064 H 
ATOM     50  H   LIG d   1       9.425   8.027 -10.161  0.00  0.00     0.064 H 
BRANCH  48  51
ATOM     51  O   LIG d   1       8.431   8.953  -8.604  0.00  0.00    -0.387 OA
ATOM     52  H   LIG d   1       8.172   8.680  -7.714  0.00  0.00     0.210 HD
ENDBRANCH  48  51
ENDBRANCH  43  48
ENDBRANCH  38  41
ENDBRANCH  11  38
TORSDOF 8
ENDMDL
MODEL 6
REMARK VINA RESULT:      -7.0      7.298     10.144
REMARK  8 active torsions:
REMARK  status: ('A' for Active; 'I' for Inactive)
REMARK    1  A    between atoms: C_3  and  O_31 
REMARK    2  A    between atoms: C_6  and  C_7 
REMARK    3  A    between atoms: C_9  and  C_12 
REMARK    4  A    between atoms: N_22  and  C_23 
REMARK    5  A    between atoms: C_23  and  C_24 
REMARK    6  A    between atoms: C_27  and  C_29 
REMARK    7  A    between atoms: C_29  and  O_30 
REMARK    8  A    between atoms: O_31  and  C_32 
ROOT
ATOM      1  C   LIG d   1       8.916   1.548  -5.631  0.00  0.00     0.098 C 
ATOM      2  H   LIG d   1       9.523   0.681  -5.891  0.00  0.00     0.057 H 
ATOM      3  C   LIG d   1       8.710   2.421  -6.876  0.00  0.00     0.037 C 
ATOM      4  C   LIG d   1       7.775   1.688  -7.804  0.00  0.00     0.148 A 
ATOM      5  C   LIG d   1       7.011   0.641  -7.420  0.00  0.00     0.159 A 
ATOM      6  N   LIG d   1       6.312   0.231  -8.479  0.00  0.00    -0.246 N 
ATOM      7  C   LIG d   1       6.611   0.983  -9.507  0.00  0.00     0.243 A 
ATOM      8  N   LIG d   1       7.523   1.906  -9.121  0.00  0.00    -0.247 N 
ATOM      9  H   LIG d   1       7.920   2.593  -9.679  0.00  0.00     0.310 HD
ATOM     10  C   LIG d   1       7.004   0.093  -6.014  0.00  0.00     0.066 C 
ATOM     11  N   LIG d   1       7.612   1.097  -5.125  0.00  0.00    -0.276 N 
ATOM     12  H   LIG d   1       8.270   3.376  -6.589  0.00  0.00     0.037 H 
ATOM     13  H   LIG d   1       9.665   2.588  -7.372  0.00  0.00     0.037 H 
ATOM     14  H   LIG d   1       6.198   0.884 -10.500  0.00  0.00     0.158 H 
ATOM     15  H   LIG d   1       5.980  -0.104  -5.701  0.00  0.00     0.051 H 
ATOM     16  H   LIG d   1       7.584  -0.830  -5.977  0.00  0.00     0.051 H 
ATOM     17  H   LIG d   1       5.683  -0.508  -8.487  0.00  0.00     0.310 HD
ENDROOT
BRANCH   1  18
ATOM     18  C   LIG d   1       9.618   2.350  -4.566  0.00  0.00     0.245 A 
ATOM     19  N   LIG d   1       9.384   3.598  -4.274  0.00  0.00    -0.190 NA
ATOM     20  C   LIG d   1      10.191   3.996  -3.275  0.00  0.00     0.202 A 
ATOM     21  N   LIG d   1      10.954   2.989  -2.926  0.00  0.00    -0.056 NA
ATOM     22  O   LIG d   1      10.588   1.900  -3.760  0.00  0.00    -0.336 OA
BRANCH  20  23
ATOM     23  C   LIG d   1      10.216   5.351  -2.670  0.00  0.00     0.023 A 
ATOM     24  C   LIG d   1       9.973   6.473  -3.461  0.00  0.00    -0.048 A 
ATOM     25  C   LIG d   1       9.997   7.731  -2.896  0.00  0.00    -0.019 A 
ATOM     26  H   LIG d   1       9.764   6.357  -4.514  0.00  0.00     0.063 H 
ATOM     27  C   LIG d   1      10.261   7.880  -1.541  0.00  0.00     0.130 A 
ATOM     28  H   LIG d   1       9.809   8.600  -3.509  0.00  0.00     0.065 H 
ATOM     29  C   LIG d   1      10.503   6.764  -0.751  0.00  0.00    -0.019 A 
ATOM     30  C   LIG d   1      10.481   5.504  -1.310  0.00  0.00    -0.048 A 
ATOM     31  H   LIG d   1      10.709   6.883   0.302  0.00  0.00     0.065 H 
ATOM     32  H   LIG d   1      10.670   4.636  -0.695  0.00  0.00     0.063 H 
BRANCH  27  33
ATOM     33  O   LIG d   1      10.284   9.120  -0.988  0.00  0.00    -0.406 OA
BRANCH  33  34
ATOM     34  C   LIG d   1       9.023   9.744  -0.741  0.00  0.00     0.575 C 
ATOM     35  F   LIG d   1       9.099  10.499   0.435  0.00  0.00    -0.133 F 
ATOM     36  F   LIG d   1       8.699  10.583  -1.812  0.00  0.00    -0.133 F 
ATOM     37  F   LIG d   1       8.036   8.763  -0.602  0.00  0.00    -0.133 F 
ENDBRANCH  33  34
ENDBRANCH  27  33
ENDBRANCH  20  23
ENDBRANCH   1  18
BRANCH  11  38
ATOM     38  C   LIG d   1       7.729   0.583  -3.753  0.00  0.00     0.058 C 
ATOM     39  H   LIG d   1       8.353  -0.311  -3.753  0.00  0.00     0.051 H 
ATOM     40  H   LIG d   1       8.183   1.343  -3.117  0.00  0.00     0.051 H 
BRANCH  38  41
ATOM     41  C   LIG d   1       6.359   0.239  -3.227  0.00  0.00     0.119 A 
ATOM     42  O   LIG d   1       5.847  -0.997  -3.118  0.00  0.00    -0.461 OA
ATOM     43  C   LIG d   1       4.607  -0.925  -2.607  0.00  0.00     0.131 A 
ATOM     44  C   LIG d   1       4.311   0.369  -2.391  0.00  0.00    -0.018 A 
ATOM     45  C   LIG d   1       5.441   1.119  -2.790  0.00  0.00    -0.019 A 
ATOM     46  H   LIG d   1       3.388   0.759  -1.989  0.00  0.00     0.065 H 
ATOM     47  H   LIG d   1       5.546   2.194  -2.751  0.00  0.00     0.065 H 
BRANCH  43  48
ATOM     48  C   LIG d   1       3.700  -2.096  -2.327  0.00  0.00     0.102 C 
ATOM     49  H   LIG d   1       3.872  -2.455  -1.312  0.00  0.00     0.064 H 
ATOM     50  H   LIG d   1       2.661  -1.783  -2.432  0.00  0.00     0.064 H 
BRANCH  48  51
ATOM     51  O   LIG d   1       3.977  -3.145  -3.257  0.00  0.00    -0.387 OA
ATOM     52  H   LIG d   1       3.324  -3.226  -3.965  0.00  0.00     0.210 HD
ENDBRANCH  48  51
ENDBRANCH  43  48
ENDBRANCH  38  41
ENDBRANCH  11  38
TORSDOF 8
ENDMDL
MODEL 7
REMARK VINA RESULT:      -7.0      7.705     12.186
REMARK  8 active torsions:
REMARK  status: ('A' for Active; 'I' for Inactive)
REMARK    1  A    between atoms: C_3  and  O_31 
REMARK    2  A    between atoms: C_6  and  C_7 
REMARK    3  A    between atoms: C_9  and  C_12 
REMARK    4  A    between atoms: N_22  and  C_23 
REMARK    5  A    between atoms: C_23  and  C_24 
REMARK    6  A    between atoms: C_27  and  C_29 
REMARK    7  A    between atoms: C_29  and  O_30 
REMARK    8  A    between atoms: O_31  and  C_32 
ROOT
ATOM      1  C   LIG d   1      12.269   2.441  -4.760  0.00  0.00     0.098 C 
ATOM      2  H   LIG d   1      12.743   2.635  -5.722  0.00  0.00     0.057 H 
ATOM      3  C   LIG d   1      12.958   1.250  -4.079  0.00  0.00     0.037 C 
ATOM      4  C   LIG d   1      14.326   1.702  -3.635  0.00  0.00     0.148 A 
ATOM      5  C   LIG d   1      14.692   3.001  -3.549  0.00  0.00     0.159 A 
ATOM      6  N   LIG d   1      15.957   3.046  -3.131  0.00  0.00    -0.246 N 
ATOM      7  C   LIG d   1      16.392   1.825  -2.952  0.00  0.00     0.243 A 
ATOM      8  N   LIG d   1      15.398   0.958  -3.256  0.00  0.00    -0.247 N 
ATOM      9  H   LIG d   1      15.442  -0.010  -3.212  0.00  0.00     0.310 HD
ATOM     10  C   LIG d   1      13.767   4.145  -3.884  0.00  0.00     0.066 C 
ATOM     11  N   LIG d   1      12.387   3.632  -3.907  0.00  0.00    -0.276 N 
ATOM     12  H   LIG d   1      12.376   0.931  -3.215  0.00  0.00     0.037 H 
ATOM     13  H   LIG d   1      13.054   0.426  -4.785  0.00  0.00     0.037 H 
ATOM     14  H   LIG d   1      17.382   1.553  -2.615  0.00  0.00     0.158 H 
ATOM     15  H   LIG d   1      13.858   4.925  -3.129  0.00  0.00     0.051 H 
ATOM     16  H   LIG d   1      14.024   4.551  -4.863  0.00  0.00     0.051 H 
ATOM     17  H   LIG d   1      16.474   3.854  -2.984  0.00  0.00     0.310 HD
ENDROOT
BRANCH   1  18
ATOM     18  C   LIG d   1      10.812   2.120  -4.975  0.00  0.00     0.245 A 
ATOM     19  N   LIG d   1      10.011   1.589  -4.096  0.00  0.00    -0.190 NA
ATOM     20  C   LIG d   1       8.782   1.441  -4.623  0.00  0.00     0.202 A 
ATOM     21  N   LIG d   1       8.800   1.880  -5.858  0.00  0.00    -0.056 NA
ATOM     22  O   LIG d   1      10.123   2.335  -6.104  0.00  0.00    -0.336 OA
BRANCH  20  23
ATOM     23  C   LIG d   1       7.604   0.871  -3.924  0.00  0.00     0.023 A 
ATOM     24  C   LIG d   1       7.505  -0.506  -3.730  0.00  0.00    -0.048 A 
ATOM     25  C   LIG d   1       6.409  -1.032  -3.080  0.00  0.00    -0.019 A 
ATOM     26  H   LIG d   1       8.288  -1.158  -4.086  0.00  0.00     0.063 H 
ATOM     27  C   LIG d   1       5.405  -0.192  -2.618  0.00  0.00     0.130 A 
ATOM     28  H   LIG d   1       6.333  -2.099  -2.930  0.00  0.00     0.065 H 
ATOM     29  C   LIG d   1       5.500   1.179  -2.810  0.00  0.00    -0.019 A 
ATOM     30  C   LIG d   1       6.594   1.712  -3.459  0.00  0.00    -0.048 A 
ATOM     31  H   LIG d   1       4.717   1.831  -2.450  0.00  0.00     0.065 H 
ATOM     32  H   LIG d   1       6.667   2.779  -3.608  0.00  0.00     0.063 H 
BRANCH  27  33
ATOM     33  O   LIG d   1       4.327  -0.713  -1.978  0.00  0.00    -0.406 OA
BRANCH  33  34
ATOM     34  C   LIG d   1       3.460  -1.552  -2.744  0.00  0.00     0.575 C 
ATOM     35  F   LIG d   1       2.144  -1.089  -2.633  0.00  0.00    -0.133 F 
ATOM     36  F   LIG d   1       3.850  -1.526  -4.087  0.00  0.00    -0.133 F 
ATOM     37  F   LIG d   1       3.534  -2.863  -2.263  0.00  0.00    -0.133 F 
ENDBRANCH  33  34
ENDBRANCH  27  33
ENDBRANCH  20  23
ENDBRANCH   1  18
BRANCH  11  38
ATOM     38  C   LIG d   1      11.444   4.677  -4.328  0.00  0.00     0.058 C 
ATOM     39  H   LIG d   1      11.962   5.403  -4.956  0.00  0.00     0.051 H 
ATOM     40  H   LIG d   1      10.629   4.225  -4.894  0.00  0.00     0.051 H 
BRANCH  38  41
ATOM     41  C   LIG d   1      10.887   5.371  -3.112  0.00  0.00     0.119 A 
ATOM     42  O   LIG d   1      10.382   6.615  -3.080  0.00  0.00    -0.461 OA
ATOM     43  C   LIG d   1       9.977   6.902  -1.832  0.00  0.00     0.131 A 
ATOM     44  C   LIG d   1      10.230   5.838  -1.048  0.00  0.00    -0.018 A 
ATOM     45  C   LIG d   1      10.817   4.852  -1.873  0.00  0.00    -0.019 A 
ATOM     46  H   LIG d   1      10.024   5.755   0.008  0.00  0.00     0.065 H 
ATOM     47  H   LIG d   1      11.144   3.869  -1.567  0.00  0.00     0.065 H 
BRANCH  43  48
ATOM     48  C   LIG d   1       9.350   8.197  -1.386  0.00  0.00     0.102 C 
ATOM     49  H   LIG d   1       9.926   8.615  -0.560  0.00  0.00     0.064 H 
ATOM     50  H   LIG d   1       9.342   8.902  -2.217  0.00  0.00     0.064 H 
BRANCH  48  51
ATOM     51  O   LIG d   1       8.009   7.954  -0.956  0.00  0.00    -0.387 OA
ATOM     52  H   LIG d   1       7.553   7.266  -1.460  0.00  0.00     0.210 HD
ENDBRANCH  48  51
ENDBRANCH  43  48
ENDBRANCH  38  41
ENDBRANCH  11  38
TORSDOF 8
ENDMDL
MODEL 8
REMARK VINA RESULT:      -6.7      8.281     14.149
REMARK  8 active torsions:
REMARK  status: ('A' for Active; 'I' for Inactive)
REMARK    1  A    between atoms: C_3  and  O_31 
REMARK    2  A    between atoms: C_6  and  C_7 
REMARK    3  A    between atoms: C_9  and  C_12 
REMARK    4  A    between atoms: N_22  and  C_23 
REMARK    5  A    between atoms: C_23  and  C_24 
REMARK    6  A    between atoms: C_27  and  C_29 
REMARK    7  A    between atoms: C_29  and  O_30 
REMARK    8  A    between atoms: O_31  and  C_32 
ROOT
ATOM      1  C   LIG d   1      10.448   5.130  -3.018  0.00  0.00     0.098 C 
ATOM      2  H   LIG d   1      11.389   5.417  -3.486  0.00  0.00     0.057 H 
ATOM      3  C   LIG d   1      10.673   4.891  -1.518  0.00  0.00     0.037 C 
ATOM      4  C   LIG d   1      10.917   6.230  -0.870  0.00  0.00     0.148 A 
ATOM      5  C   LIG d   1      10.628   7.410  -1.462  0.00  0.00     0.159 A 
ATOM      6  N   LIG d   1      10.969   8.387  -0.621  0.00  0.00    -0.246 N 
ATOM      7  C   LIG d   1      11.458   7.860   0.472  0.00  0.00     0.243 A 
ATOM      8  N   LIG d   1      11.439   6.511   0.353  0.00  0.00    -0.247 N 
ATOM      9  H   LIG d   1      11.741   5.869   1.014  0.00  0.00     0.310 HD
ATOM     10  C   LIG d   1      10.022   7.519  -2.839  0.00  0.00     0.066 C 
ATOM     11  N   LIG d   1       9.463   6.206  -3.202  0.00  0.00    -0.276 N 
ATOM     12  H   LIG d   1       9.790   4.425  -1.082  0.00  0.00     0.037 H 
ATOM     13  H   LIG d   1      11.540   4.248  -1.374  0.00  0.00     0.037 H 
ATOM     14  H   LIG d   1      11.816   8.410   1.330  0.00  0.00     0.158 H 
ATOM     15  H   LIG d   1       9.231   8.268  -2.835  0.00  0.00     0.051 H 
ATOM     16  H   LIG d   1      10.792   7.802  -3.558  0.00  0.00     0.051 H 
ATOM     17  H   LIG d   1      10.872   9.337  -0.792  0.00  0.00     0.310 HD
ENDROOT
BRANCH   1  18
ATOM     18  C   LIG d   1       9.935   3.865  -3.656  0.00  0.00     0.245 A 
ATOM     19  N   LIG d   1       8.910   3.170  -3.253  0.00  0.00    -0.190 NA
ATOM     20  C   LIG d   1       8.734   2.103  -4.052  0.00  0.00     0.202 A 
ATOM     21  N   LIG d   1       9.664   2.114  -4.976  0.00  0.00    -0.056 NA
ATOM     22  O   LIG d   1      10.457   3.266  -4.734  0.00  0.00    -0.336 OA
BRANCH  20  23
ATOM     23  C   LIG d   1       7.668   1.080  -3.909  0.00  0.00     0.023 A 
ATOM     24  C   LIG d   1       7.931  -0.252  -4.226  0.00  0.00    -0.048 A 
ATOM     25  C   LIG d   1       6.938  -1.199  -4.091  0.00  0.00    -0.019 A 
ATOM     26  H   LIG d   1       8.912  -0.541  -4.573  0.00  0.00     0.063 H 
ATOM     27  C   LIG d   1       5.680  -0.828  -3.639  0.00  0.00     0.130 A 
ATOM     28  H   LIG d   1       7.142  -2.231  -4.337  0.00  0.00     0.065 H 
ATOM     29  C   LIG d   1       5.415   0.497  -3.323  0.00  0.00    -0.019 A 
ATOM     30  C   LIG d   1       6.403   1.450  -3.455  0.00  0.00    -0.048 A 
ATOM     31  H   LIG d   1       4.434   0.783  -2.972  0.00  0.00     0.065 H 
ATOM     32  H   LIG d   1       6.196   2.481  -3.209  0.00  0.00     0.063 H 
BRANCH  27  33
ATOM     33  O   LIG d   1       4.704  -1.764  -3.508  0.00  0.00    -0.406 OA
BRANCH  33  34
ATOM     34  C   LIG d   1       3.889  -1.692  -2.337  0.00  0.00     0.575 C 
ATOM     35  F   LIG d   1       3.489  -2.981  -1.967  0.00  0.00    -0.133 F 
ATOM     36  F   LIG d   1       4.620  -1.114  -1.293  0.00  0.00    -0.133 F 
ATOM     37  F   LIG d   1       2.759  -0.912  -2.602  0.00  0.00    -0.133 F 
ENDBRANCH  33  34
ENDBRANCH  27  33
ENDBRANCH  20  23
ENDBRANCH   1  18
BRANCH  11  38
ATOM     38  C   LIG d   1       8.946   6.216  -4.577  0.00  0.00     0.058 C 
ATOM     39  H   LIG d   1       9.092   5.234  -5.028  0.00  0.00     0.051 H 
ATOM     40  H   LIG d   1       7.882   6.455  -4.565  0.00  0.00     0.051 H 
BRANCH  38  41
ATOM     41  C   LIG d   1       9.684   7.253  -5.384  0.00  0.00     0.119 A 
ATOM     42  O   LIG d   1       9.231   8.479  -5.689  0.00  0.00    -0.461 OA
ATOM     43  C   LIG d   1      10.155   9.130  -6.417  0.00  0.00     0.131 A 
ATOM     44  C   LIG d   1      11.210   8.315  -6.590  0.00  0.00    -0.018 A 
ATOM     45  C   LIG d   1      10.907   7.105  -5.925  0.00  0.00    -0.019 A 
ATOM     46  H   LIG d   1      12.115   8.542  -7.133  0.00  0.00     0.065 H 
ATOM     47  H   LIG d   1      11.537   6.230  -5.862  0.00  0.00     0.065 H 
BRANCH  43  48
ATOM     48  C   LIG d   1      10.027  10.534  -6.950  0.00  0.00     0.102 C 
ATOM     49  H   LIG d   1      11.020  10.955  -7.107  0.00  0.00     0.064 H 
ATOM     50  H   LIG d   1       9.486  10.514  -7.897  0.00  0.00     0.064 H 
BRANCH  48  51
ATOM     51  O   LIG d   1       9.311  11.337  -6.010  0.00  0.00    -0.387 OA
ATOM     52  H   LIG d   1       8.738  10.832  -5.417  0.00  0.00     0.210 HD
ENDBRANCH  48  51
ENDBRANCH  43  48
ENDBRANCH  38  41
ENDBRANCH  11  38
TORSDOF 8
ENDMDL
MODEL 9
REMARK VINA RESULT:      -6.7      7.445     11.047
REMARK  8 active torsions:
REMARK  status: ('A' for Active; 'I' for Inactive)
REMARK    1  A    between atoms: C_3  and  O_31 
REMARK    2  A    between atoms: C_6  and  C_7 
REMARK    3  A    between atoms: C_9  and  C_12 
REMARK    4  A    between atoms: N_22  and  C_23 
REMARK    5  A    between atoms: C_23  and  C_24 
REMARK    6  A    between atoms: C_27  and  C_29 
REMARK    7  A    between atoms: C_29  and  O_30 
REMARK    8  A    between atoms: O_31  and  C_32 
ROOT
ATOM      1  C   LIG d   1      10.169   3.820  -7.317  0.00  0.00     0.098 C 
ATOM      2  H   LIG d   1      11.219   3.799  -7.607  0.00  0.00     0.057 H 
ATOM      3  C   LIG d   1       9.853   5.159  -6.636  0.00  0.00     0.037 C 
ATOM      4  C   LIG d   1       9.876   6.232  -7.695  0.00  0.00     0.148 A 
ATOM      5  C   LIG d   1       9.831   5.972  -9.022  0.00  0.00     0.159 A 
ATOM      6  N   LIG d   1       9.873   7.136  -9.670  0.00  0.00    -0.246 N 
ATOM      7  C   LIG d   1       9.940   8.110  -8.799  0.00  0.00     0.243 A 
ATOM      8  N   LIG d   1       9.943   7.581  -7.553  0.00  0.00    -0.247 N 
ATOM      9  H   LIG d   1       9.985   8.072  -6.717  0.00  0.00     0.310 HD
ATOM     10  C   LIG d   1       9.746   4.577  -9.589  0.00  0.00     0.066 C 
ATOM     11  N   LIG d   1       9.328   3.665  -8.512  0.00  0.00    -0.276 N 
ATOM     12  H   LIG d   1       8.865   5.116  -6.177  0.00  0.00     0.037 H 
ATOM     13  H   LIG d   1      10.604   5.374  -5.878  0.00  0.00     0.037 H 
ATOM     14  H   LIG d   1       9.985   9.163  -9.035  0.00  0.00     0.158 H 
ATOM     15  H   LIG d   1       9.015   4.552 -10.397  0.00  0.00     0.051 H 
ATOM     16  H   LIG d   1      10.723   4.274  -9.968  0.00  0.00     0.051 H 
ATOM     17  H   LIG d   1       9.856   7.245 -10.634  0.00  0.00     0.310 HD
ENDROOT
BRANCH   1  18
ATOM     18  C   LIG d   1       9.891   2.692  -6.357  0.00  0.00     0.245 A 
ATOM     19  N   LIG d   1       8.735   2.410  -5.826  0.00  0.00    -0.190 NA
ATOM     20  C   LIG d   1       8.848   1.342  -5.018  0.00  0.00     0.202 A 
ATOM     21  N   LIG d   1      10.095   0.938  -5.028  0.00  0.00    -0.056 NA
ATOM     22  O   LIG d   1      10.792   1.809  -5.906  0.00  0.00    -0.336 OA
BRANCH  20  23
ATOM     23  C   LIG d   1       7.745   0.725  -4.239  0.00  0.00     0.023 A 
ATOM     24  C   LIG d   1       7.667  -0.661  -4.116  0.00  0.00    -0.048 A 
ATOM     25  C   LIG d   1       6.641  -1.231  -3.392  0.00  0.00    -0.019 A 
ATOM     26  H   LIG d   1       8.411  -1.288  -4.585  0.00  0.00     0.063 H 
ATOM     27  C   LIG d   1       5.687  -0.425  -2.785  0.00  0.00     0.130 A 
ATOM     28  H   LIG d   1       6.581  -2.305  -3.296  0.00  0.00     0.065 H 
ATOM     29  C   LIG d   1       5.763   0.956  -2.906  0.00  0.00    -0.019 A 
ATOM     30  C   LIG d   1       6.786   1.532  -3.629  0.00  0.00    -0.048 A 
ATOM     31  H   LIG d   1       5.019   1.581  -2.433  0.00  0.00     0.065 H 
ATOM     32  H   LIG d   1       6.843   2.607  -3.723  0.00  0.00     0.063 H 
BRANCH  27  33
ATOM     33  O   LIG d   1       4.678  -0.988  -2.072  0.00  0.00    -0.406 OA
BRANCH  33  34
ATOM     34  C   LIG d   1       3.688  -1.709  -2.808  0.00  0.00     0.575 C 
ATOM     35  F   LIG d   1       3.775  -3.071  -2.495  0.00  0.00    -0.133 F 
ATOM     36  F   LIG d   1       2.416  -1.234  -2.469  0.00  0.00    -0.133 F 
ATOM     37  F   LIG d   1       3.902  -1.531  -4.178  0.00  0.00    -0.133 F 
ENDBRANCH  33  34
ENDBRANCH  27  33
ENDBRANCH  20  23
ENDBRANCH   1  18
BRANCH  11  38
ATOM     38  C   LIG d   1       9.324   2.270  -8.975  0.00  0.00     0.058 C 
ATOM     39  H   LIG d   1       9.887   2.195  -9.906  0.00  0.00     0.051 H 
ATOM     40  H   LIG d   1       9.786   1.634  -8.219  0.00  0.00     0.051 H 
BRANCH  38  41
ATOM     41  C   LIG d   1       7.904   1.822  -9.209  0.00  0.00     0.119 A 
ATOM     42  O   LIG d   1       6.805   2.575  -9.039  0.00  0.00    -0.461 OA
ATOM     43  C   LIG d   1       5.716   1.851  -9.344  0.00  0.00     0.131 A 
ATOM     44  C   LIG d   1       6.112   0.618  -9.706  0.00  0.00    -0.018 A 
ATOM     45  C   LIG d   1       7.523   0.599  -9.619  0.00  0.00    -0.019 A 
ATOM     46  H   LIG d   1       5.474  -0.200 -10.006  0.00  0.00     0.065 H 
ATOM     47  H   LIG d   1       8.170  -0.236  -9.840  0.00  0.00     0.065 H 
BRANCH  43  48
ATOM     48  C   LIG d   1       4.290   2.338  -9.286  0.00  0.00     0.102 C 
ATOM     49  H   LIG d   1       3.768   1.838  -8.471  0.00  0.00     0.064 H 
ATOM     50  H   LIG d   1       4.282   3.415  -9.117  0.00  0.00     0.064 H 
BRANCH  48  51
ATOM     51  O   LIG d   1       3.637   2.046 -10.523  0.00  0.00    -0.387 OA
ATOM     52  H   LIG d   1       2.884   1.445 -10.437  0.00  0.00     0.210 HD
ENDBRANCH  48  51
ENDBRANCH  43  48
ENDBRANCH  38  41
ENDBRANCH  11  38
TORSDOF 8
ENDMDL
MODEL 10
REMARK VINA RESULT:      -6.7      6.454      8.329
REMARK  8 active torsions:
REMARK  status: ('A' for Active; 'I' for Inactive)
REMARK    1  A    between atoms: C_3  and  O_31 
REMARK    2  A    between atoms: C_6  and  C_7 
REMARK    3  A    between atoms: C_9  and  C_12 
REMARK    4  A    between atoms: N_22  and  C_23 
REMARK    5  A    between atoms: C_23  and  C_24 
REMARK    6  A    between atoms: C_27  and  C_29 
REMARK    7  A    between atoms: C_29  and  O_30 
REMARK    8  A    between atoms: O_31  and  C_32 
ROOT
ATOM      1  C   LIG d   1       5.952  -0.864  -7.798  0.00  0.00     0.098 C 
ATOM      2  H   LIG d   1       6.289  -1.708  -8.402  0.00  0.00     0.057 H 
ATOM      3  C   LIG d   1       5.474   0.266  -8.721  0.00  0.00     0.037 C 
ATOM      4  C   LIG d   1       4.175  -0.171  -9.350  0.00  0.00     0.148 A 
ATOM      5  C   LIG d   1       3.433  -1.203  -8.890  0.00  0.00     0.159 A 
ATOM      6  N   LIG d   1       2.359  -1.319  -9.672  0.00  0.00    -0.246 N 
ATOM      7  C   LIG d   1       2.404  -0.397 -10.600  0.00  0.00     0.243 A 
ATOM      8  N   LIG d   1       3.526   0.341 -10.428  0.00  0.00    -0.247 N 
ATOM      9  H   LIG d   1       3.812   1.092 -10.972  0.00  0.00     0.310 HD
ATOM     10  C   LIG d   1       3.820  -2.031  -7.690  0.00  0.00     0.066 C 
ATOM     11  N   LIG d   1       4.845  -1.294  -6.932  0.00  0.00    -0.276 N 
ATOM     12  H   LIG d   1       5.316   1.174  -8.140  0.00  0.00     0.037 H 
ATOM     13  H   LIG d   1       6.216   0.448  -9.497  0.00  0.00     0.037 H 
ATOM     14  H   LIG d   1       1.667  -0.248 -11.375  0.00  0.00     0.158 H 
ATOM     15  H   LIG d   1       2.947  -2.198  -7.061  0.00  0.00     0.051 H 
ATOM     16  H   LIG d   1       4.225  -2.989  -8.019  0.00  0.00     0.051 H 
ATOM     17  H   LIG d   1       1.657  -1.980  -9.571  0.00  0.00     0.310 HD
ENDROOT
BRANCH   1  18
ATOM     18  C   LIG d   1       7.093  -0.369  -6.948  0.00  0.00     0.245 A 
ATOM     19  N   LIG d   1       7.302   0.869  -6.600  0.00  0.00    -0.190 NA
ATOM     20  C   LIG d   1       8.408   0.953  -5.841  0.00  0.00     0.202 A 
ATOM     21  N   LIG d   1       8.917  -0.247  -5.706  0.00  0.00    -0.056 NA
ATOM     22  O   LIG d   1       8.063  -1.127  -6.422  0.00  0.00    -0.336 OA
BRANCH  20  23
ATOM     23  C   LIG d   1       8.965   2.199  -5.257  0.00  0.00     0.023 A 
ATOM     24  C   LIG d   1       8.976   2.379  -3.875  0.00  0.00    -0.048 A 
ATOM     25  C   LIG d   1       9.494   3.538  -3.336  0.00  0.00    -0.019 A 
ATOM     26  H   LIG d   1       8.582   1.610  -3.227  0.00  0.00     0.063 H 
ATOM     27  C   LIG d   1      10.005   4.524  -4.168  0.00  0.00     0.130 A 
ATOM     28  H   LIG d   1       9.502   3.677  -2.265  0.00  0.00     0.065 H 
ATOM     29  C   LIG d   1       9.995   4.348  -5.545  0.00  0.00    -0.019 A 
ATOM     30  C   LIG d   1       9.478   3.192  -6.091  0.00  0.00    -0.048 A 
ATOM     31  H   LIG d   1      10.393   5.118  -6.190  0.00  0.00     0.065 H 
ATOM     32  H   LIG d   1       9.471   3.056  -7.162  0.00  0.00     0.063 H 
BRANCH  27  33
ATOM     33  O   LIG d   1      10.514   5.664  -3.634  0.00  0.00    -0.406 OA
BRANCH  33  34
ATOM     34  C   LIG d   1       9.596   6.730  -3.383  0.00  0.00     0.575 C 
ATOM     35  F   LIG d   1       8.538   6.659  -4.297  0.00  0.00    -0.133 F 
ATOM     36  F   LIG d   1       9.095   6.619  -2.082  0.00  0.00    -0.133 F 
ATOM     37  F   LIG d   1      10.254   7.956  -3.527  0.00  0.00    -0.133 F 
ENDBRANCH  33  34
ENDBRANCH  27  33
ENDBRANCH  20  23
ENDBRANCH   1  18
BRANCH  11  38
ATOM     38  C   LIG d   1       5.341  -2.093  -5.803  0.00  0.00     0.058 C 
ATOM     39  H   LIG d   1       5.026  -3.130  -5.926  0.00  0.00     0.051 H 
ATOM     40  H   LIG d   1       6.430  -2.045  -5.773  0.00  0.00     0.051 H 
BRANCH  38  41
ATOM     41  C   LIG d   1       4.779  -1.547  -4.516  0.00  0.00     0.119 A 
ATOM     42  O   LIG d   1       4.596  -0.248  -4.227  0.00  0.00    -0.461 OA
ATOM     43  C   LIG d   1       4.073  -0.133  -2.995  0.00  0.00     0.131 A 
ATOM     44  C   LIG d   1       3.925  -1.366  -2.479  0.00  0.00    -0.018 A 
ATOM     45  C   LIG d   1       4.380  -2.277  -3.459  0.00  0.00    -0.019 A 
ATOM     46  H   LIG d   1       3.533  -1.612  -1.504  0.00  0.00     0.065 H 
ATOM     47  H   LIG d   1       4.401  -3.354  -3.376  0.00  0.00     0.065 H 
BRANCH  43  48
ATOM     48  C   LIG d   1       3.718   1.160  -2.307  0.00  0.00     0.102 C 
ATOM     49  H   LIG d   1       2.767   1.046  -1.786  0.00  0.00     0.064 H 
ATOM     50  H   LIG d   1       4.498   1.415  -1.589  0.00  0.00     0.064 H 
BRANCH  48  51
ATOM     51  O   LIG d   1       3.606   2.201  -3.279  0.00  0.00    -0.387 OA
ATOM     52  H   LIG d   1       3.202   1.922  -4.111  0.00  0.00     0.210 HD
ENDBRANCH  48  51
ENDBRANCH  43  48
ENDBRANCH  38  41
ENDBRANCH  11  38
TORSDOF 8
ENDMDL
