MODEL 1
REMARK VINA RESULT:      -6.1      0.000      0.000
REMARK  3 active torsions:
REMARK  status: ('A' for Active; 'I' for Inactive)
REMARK    1  A    between atoms: C_1  and  C_2 
REMARK    2  A    between atoms: C_4  and  C_21 
REMARK    3  A    between atoms: N_10  and  C_14 
ROOT
ATOM      1  C   LIG d   1       3.842   0.622 -10.457  0.00  0.00    -0.033 A 
ATOM      2  C   LIG d   1       3.790   0.106 -11.740  0.00  0.00    -0.037 A 
ATOM      3  C   LIG d   1       3.923  -1.260 -11.934  0.00  0.00     0.041 A 
ATOM      4  N   LIG d   1       4.098  -2.089 -10.927  0.00  0.00    -0.232 NA
ATOM      5  C   LIG d   1       4.157  -1.653  -9.671  0.00  0.00     0.165 A 
ATOM      6  C   LIG d   1       4.034  -0.269  -9.402  0.00  0.00     0.087 A 
ATOM      7  C   LIG d   1       4.109   0.182  -8.007  0.00  0.00     0.267 A 
ATOM      8  O   LIG d   1       4.004   1.359  -7.716  0.00  0.00    -0.267 OA
ATOM      9  N   LIG d   1       4.299  -0.763  -7.055  0.00  0.00    -0.287 N 
ATOM     10  C   LIG d   1       4.413  -2.080  -7.402  0.00  0.00    -0.021 A 
ATOM     11  N   LIG d   1       4.337  -2.503  -8.642  0.00  0.00    -0.241 NA
ATOM     12  S   LIG d   1       4.659  -3.267  -6.124  0.00  0.00    -0.720 SA
ATOM     13  H   LIG d   1       3.646   0.763 -12.585  0.00  0.00     0.064 H 
ENDROOT
BRANCH   9  14
ATOM     14  C   LIG d   1       4.377  -0.389  -5.707  0.00  0.00     0.049 A 
ATOM     15  C   LIG d   1       3.217  -0.153  -4.982  0.00  0.00    -0.036 A 
ATOM     16  C   LIG d   1       3.298   0.211  -3.651  0.00  0.00    -0.041 A 
ATOM     17  H   LIG d   1       2.253  -0.259  -5.456  0.00  0.00     0.064 H 
ATOM     18  C   LIG d   1       4.533   0.352  -3.045  0.00  0.00     0.041 A 
ATOM     19  H   LIG d   1       2.396   0.390  -3.086  0.00  0.00     0.063 H 
ATOM     20  C   LIG d   1       5.692   0.123  -3.768  0.00  0.00    -0.041 A 
ATOM     21 CL   LIG d   1       4.632   0.816  -1.376  0.00  0.00    -0.084 Cl
ATOM     22  C   LIG d   1       5.616  -0.247  -5.096  0.00  0.00    -0.036 A 
ATOM     23  H   LIG d   1       6.655   0.233  -3.292  0.00  0.00     0.063 H 
ATOM     24  H   LIG d   1       6.520  -0.426  -5.659  0.00  0.00     0.064 H 
ENDBRANCH   9  14
BRANCH   1  25
ATOM     25  C   LIG d   1       3.700   2.102 -10.208  0.00  0.00    -0.039 C 
ATOM     26  H   LIG d   1       2.725   2.305  -9.765  0.00  0.00     0.028 H 
ATOM     27  H   LIG d   1       4.485   2.432  -9.526  0.00  0.00     0.028 H 
ATOM     28  H   LIG d   1       3.789   2.639 -11.151  0.00  0.00     0.028 H 
ENDBRANCH   1  25
BRANCH   3  29
ATOM     29  C   LIG d   1       3.865  -1.811 -13.336  0.00  0.00    -0.022 C 
ATOM     30  H   LIG d   1       4.739  -1.477 -13.894  0.00  0.00     0.029 H 
ATOM     31  H   LIG d   1       3.853  -2.901 -13.298  0.00  0.00     0.029 H 
ATOM     32  H   LIG d   1       2.961  -1.455 -13.829  0.00  0.00     0.029 H 
ENDBRANCH   3  29
TORSDOF 3
ENDMDL
MODEL 2
REMARK VINA RESULT:      -5.8      3.594      6.878
REMARK  3 active torsions:
REMARK  status: ('A' for Active; 'I' for Inactive)
REMARK    1  A    between atoms: C_1  and  C_2 
REMARK    2  A    between atoms: C_4  and  C_21 
REMARK    3  A    between atoms: N_10  and  C_14 
ROOT
ATOM      1  C   LIG d   1       4.754  -2.714  -5.400  0.00  0.00    -0.033 A 
ATOM      2  C   LIG d   1       4.725  -2.542  -4.027  0.00  0.00    -0.037 A 
ATOM      3  C   LIG d   1       4.278  -1.341  -3.496  0.00  0.00     0.041 A 
ATOM      4  N   LIG d   1       3.879  -0.350  -4.266  0.00  0.00    -0.232 NA
ATOM      5  C   LIG d   1       3.886  -0.455  -5.592  0.00  0.00     0.165 A 
ATOM      6  C   LIG d   1       4.334  -1.652  -6.200  0.00  0.00     0.087 A 
ATOM      7  C   LIG d   1       4.335  -1.735  -7.665  0.00  0.00     0.267 A 
ATOM      8  O   LIG d   1       4.704  -2.741  -8.241  0.00  0.00    -0.267 OA
ATOM      9  N   LIG d   1       3.907  -0.648  -8.352  0.00  0.00    -0.287 N 
ATOM     10  C   LIG d   1       3.495   0.471  -7.686  0.00  0.00    -0.021 A 
ATOM     11  N   LIG d   1       3.476   0.560  -6.377  0.00  0.00    -0.241 NA
ATOM     12  S   LIG d   1       2.950   1.856  -8.629  0.00  0.00    -0.720 SA
ATOM     13  H   LIG d   1       5.046  -3.339  -3.372  0.00  0.00     0.064 H 
ENDROOT
BRANCH   9  14
ATOM     14  C   LIG d   1       3.887  -0.673  -9.753  0.00  0.00     0.049 A 
ATOM     15  C   LIG d   1       2.740  -1.074 -10.425  0.00  0.00    -0.036 A 
ATOM     16  C   LIG d   1       2.722  -1.092 -11.806  0.00  0.00    -0.041 A 
ATOM     17  H   LIG d   1       1.863  -1.367  -9.869  0.00  0.00     0.064 H 
ATOM     18  C   LIG d   1       3.847  -0.722 -12.520  0.00  0.00     0.041 A 
ATOM     19  H   LIG d   1       1.829  -1.400 -12.329  0.00  0.00     0.063 H 
ATOM     20  C   LIG d   1       4.994  -0.326 -11.852  0.00  0.00    -0.041 A 
ATOM     21 CL   LIG d   1       3.823  -0.752 -14.255  0.00  0.00    -0.084 Cl
ATOM     22  C   LIG d   1       5.016  -0.301 -10.471  0.00  0.00    -0.036 A 
ATOM     23  H   LIG d   1       5.871  -0.038 -12.411  0.00  0.00     0.063 H 
ATOM     24  H   LIG d   1       5.910   0.007  -9.951  0.00  0.00     0.064 H 
ENDBRANCH   9  14
BRANCH   1  25
ATOM     25  C   LIG d   1       5.233  -4.005  -6.011  0.00  0.00    -0.039 C 
ATOM     26  H   LIG d   1       4.738  -4.159  -6.970  0.00  0.00     0.028 H 
ATOM     27  H   LIG d   1       6.311  -3.958  -6.163  0.00  0.00     0.028 H 
ATOM     28  H   LIG d   1       4.996  -4.833  -5.344  0.00  0.00     0.028 H 
ENDBRANCH   1  25
BRANCH   3  29
ATOM     29  C   LIG d   1       4.249  -1.166  -2.000  0.00  0.00    -0.022 C 
ATOM     30  H   LIG d   1       5.244  -1.348  -1.593  0.00  0.00     0.029 H 
ATOM     31  H   LIG d   1       3.939  -0.148  -1.759  0.00  0.00     0.029 H 
ATOM     32  H   LIG d   1       3.544  -1.873  -1.564  0.00  0.00     0.029 H 
ENDBRANCH   3  29
TORSDOF 3
ENDMDL
MODEL 3
REMARK VINA RESULT:      -5.6      3.616      7.018
REMARK  3 active torsions:
REMARK  status: ('A' for Active; 'I' for Inactive)
REMARK    1  A    between atoms: C_1  and  C_2 
REMARK    2  A    between atoms: C_4  and  C_21 
REMARK    3  A    between atoms: N_10  and  C_14 
ROOT
ATOM      1  C   LIG d   1       5.544  -1.779  -4.168  0.00  0.00    -0.033 A 
ATOM      2  C   LIG d   1       5.447  -1.036  -3.005  0.00  0.00    -0.037 A 
ATOM      3  C   LIG d   1       4.657   0.103  -2.984  0.00  0.00     0.041 A 
ATOM      4  N   LIG d   1       3.989   0.502  -4.046  0.00  0.00    -0.232 NA
ATOM      5  C   LIG d   1       4.043  -0.170  -5.193  0.00  0.00     0.165 A 
ATOM      6  C   LIG d   1       4.835  -1.339  -5.285  0.00  0.00     0.087 A 
ATOM      7  C   LIG d   1       4.879  -2.055  -6.566  0.00  0.00     0.267 A 
ATOM      8  O   LIG d   1       5.539  -3.069  -6.701  0.00  0.00    -0.267 OA
ATOM      9  N   LIG d   1       4.155  -1.546  -7.591  0.00  0.00    -0.287 N 
ATOM     10  C   LIG d   1       3.419  -0.407  -7.417  0.00  0.00    -0.021 A 
ATOM     11  N   LIG d   1       3.359   0.241  -6.278  0.00  0.00    -0.241 NA
ATOM     12  S   LIG d   1       2.497   0.213  -8.785  0.00  0.00    -0.720 SA
ATOM     13  H   LIG d   1       5.984  -1.341  -2.118  0.00  0.00     0.064 H 
ENDROOT
BRANCH   9  14
ATOM     14  C   LIG d   1       4.159  -2.190  -8.835  0.00  0.00     0.049 A 
ATOM     15  C   LIG d   1       5.109  -1.853  -9.789  0.00  0.00    -0.036 A 
ATOM     16  C   LIG d   1       5.114  -2.493 -11.013  0.00  0.00    -0.041 A 
ATOM     17  H   LIG d   1       5.846  -1.094  -9.573  0.00  0.00     0.064 H 
ATOM     18  C   LIG d   1       4.167  -3.462 -11.293  0.00  0.00     0.041 A 
ATOM     19  H   LIG d   1       5.856  -2.235 -11.754  0.00  0.00     0.063 H 
ATOM     20  C   LIG d   1       3.215  -3.796 -10.345  0.00  0.00    -0.041 A 
ATOM     21 CL   LIG d   1       4.172  -4.260 -12.834  0.00  0.00    -0.084 Cl
ATOM     22  C   LIG d   1       3.209  -3.162  -9.118  0.00  0.00    -0.036 A 
ATOM     23  H   LIG d   1       2.476  -4.552 -10.565  0.00  0.00     0.063 H 
ATOM     24  H   LIG d   1       2.466  -3.423  -8.379  0.00  0.00     0.064 H 
ENDBRANCH   9  14
BRANCH   1  25
ATOM     25  C   LIG d   1       6.393  -3.023  -4.227  0.00  0.00    -0.039 C 
ATOM     26  H   LIG d   1       7.000  -3.092  -3.324  0.00  0.00     0.028 H 
ATOM     27  H   LIG d   1       5.749  -3.900  -4.300  0.00  0.00     0.028 H 
ATOM     28  H   LIG d   1       7.044  -2.977  -5.099  0.00  0.00     0.028 H 
ENDBRANCH   1  25
BRANCH   3  29
ATOM     29  C   LIG d   1       4.559   0.905  -1.712  0.00  0.00    -0.022 C 
ATOM     30  H   LIG d   1       5.493   0.822  -1.157  0.00  0.00     0.029 H 
ATOM     31  H   LIG d   1       4.372   1.952  -1.954  0.00  0.00     0.029 H 
ATOM     32  H   LIG d   1       3.740   0.522  -1.103  0.00  0.00     0.029 H 
ENDBRANCH   3  29
TORSDOF 3
ENDMDL
MODEL 4
REMARK VINA RESULT:      -5.5      5.522      6.741
REMARK  3 active torsions:
REMARK  status: ('A' for Active; 'I' for Inactive)
REMARK    1  A    between atoms: C_1  and  C_2 
REMARK    2  A    between atoms: C_4  and  C_21 
REMARK    3  A    between atoms: N_10  and  C_14 
ROOT
ATOM      1  C   LIG d   1       5.350  -0.878  -3.378  0.00  0.00    -0.033 A 
ATOM      2  C   LIG d   1       4.846  -2.131  -3.682  0.00  0.00    -0.037 A 
ATOM      3  C   LIG d   1       5.543  -2.957  -4.550  0.00  0.00     0.041 A 
ATOM      4  N   LIG d   1       6.680  -2.583  -5.100  0.00  0.00    -0.232 NA
ATOM      5  C   LIG d   1       7.213  -1.391  -4.847  0.00  0.00     0.165 A 
ATOM      6  C   LIG d   1       6.551  -0.496  -3.974  0.00  0.00     0.087 A 
ATOM      7  C   LIG d   1       7.162   0.815  -3.720  0.00  0.00     0.267 A 
ATOM      8  O   LIG d   1       6.640   1.622  -2.974  0.00  0.00    -0.267 OA
ATOM      9  N   LIG d   1       8.331   1.091  -4.348  0.00  0.00    -0.287 N 
ATOM     10  C   LIG d   1       8.900   0.170  -5.181  0.00  0.00    -0.021 A 
ATOM     11  N   LIG d   1       8.376  -1.011  -5.411  0.00  0.00    -0.241 NA
ATOM     12  S   LIG d   1      10.420   0.581  -5.972  0.00  0.00    -0.720 SA
ATOM     13  H   LIG d   1       3.917  -2.464  -3.244  0.00  0.00     0.064 H 
ENDROOT
BRANCH   9  14
ATOM     14  C   LIG d   1       8.958   2.326  -4.141  0.00  0.00     0.049 A 
ATOM     15  C   LIG d   1       8.690   3.393  -4.988  0.00  0.00    -0.036 A 
ATOM     16  C   LIG d   1       9.306   4.612  -4.779  0.00  0.00    -0.041 A 
ATOM     17  H   LIG d   1       7.997   3.271  -5.807  0.00  0.00     0.064 H 
ATOM     18  C   LIG d   1      10.198   4.767  -3.733  0.00  0.00     0.041 A 
ATOM     19  H   LIG d   1       9.094   5.443  -5.434  0.00  0.00     0.063 H 
ATOM     20  C   LIG d   1      10.471   3.703  -2.890  0.00  0.00    -0.041 A 
ATOM     21 CL   LIG d   1      10.975   6.297  -3.476  0.00  0.00    -0.084 Cl
ATOM     22  C   LIG d   1       9.853   2.484  -3.092  0.00  0.00    -0.036 A 
ATOM     23  H   LIG d   1      11.168   3.826  -2.074  0.00  0.00     0.063 H 
ATOM     24  H   LIG d   1      10.067   1.655  -2.434  0.00  0.00     0.064 H 
ENDBRANCH   9  14
BRANCH   1  25
ATOM     25  C   LIG d   1       4.620   0.046  -2.438  0.00  0.00    -0.039 C 
ATOM     26  H   LIG d   1       3.837  -0.508  -1.918  0.00  0.00     0.028 H 
ATOM     27  H   LIG d   1       5.322   0.452  -1.710  0.00  0.00     0.028 H 
ATOM     28  H   LIG d   1       4.172   0.861  -3.005  0.00  0.00     0.028 H 
ENDBRANCH   1  25
BRANCH   3  29
ATOM     29  C   LIG d   1       4.986  -4.320  -4.873  0.00  0.00    -0.022 C 
ATOM     30  H   LIG d   1       5.182  -4.554  -5.919  0.00  0.00     0.029 H 
ATOM     31  H   LIG d   1       5.462  -5.068  -4.238  0.00  0.00     0.029 H 
ATOM     32  H   LIG d   1       3.911  -4.325  -4.695  0.00  0.00     0.029 H 
ENDBRANCH   3  29
TORSDOF 3
ENDMDL
MODEL 5
REMARK VINA RESULT:      -5.2     10.257     12.034
REMARK  3 active torsions:
REMARK  status: ('A' for Active; 'I' for Inactive)
REMARK    1  A    between atoms: C_1  and  C_2 
REMARK    2  A    between atoms: C_4  and  C_21 
REMARK    3  A    between atoms: N_10  and  C_14 
ROOT
ATOM      1  C   LIG d   1       9.508   6.272  -4.530  0.00  0.00    -0.033 A 
ATOM      2  C   LIG d   1       9.285   4.977  -4.966  0.00  0.00    -0.037 A 
ATOM      3  C   LIG d   1       9.460   3.919  -4.087  0.00  0.00     0.041 A 
ATOM      4  N   LIG d   1       9.835   4.110  -2.840  0.00  0.00    -0.232 NA
ATOM      5  C   LIG d   1      10.066   5.331  -2.363  0.00  0.00     0.165 A 
ATOM      6  C   LIG d   1       9.911   6.455  -3.208  0.00  0.00     0.087 A 
ATOM      7  C   LIG d   1      10.179   7.788  -2.655  0.00  0.00     0.267 A 
ATOM      8  O   LIG d   1      10.057   8.791  -3.334  0.00  0.00    -0.267 OA
ATOM      9  N   LIG d   1      10.565   7.860  -1.358  0.00  0.00    -0.287 N 
ATOM     10  C   LIG d   1      10.695   6.722  -0.613  0.00  0.00    -0.021 A 
ATOM     11  N   LIG d   1      10.450   5.523  -1.086  0.00  0.00    -0.241 NA
ATOM     12  S   LIG d   1      11.202   6.873   1.067  0.00  0.00    -0.720 SA
ATOM     13  H   LIG d   1       8.976   4.792  -5.984  0.00  0.00     0.064 H 
ENDROOT
BRANCH   9  14
ATOM     14  C   LIG d   1      10.833   9.107  -0.779  0.00  0.00     0.049 A 
ATOM     15  C   LIG d   1       9.813   9.823  -0.166  0.00  0.00    -0.036 A 
ATOM     16  C   LIG d   1      10.081  11.050   0.409  0.00  0.00    -0.041 A 
ATOM     17  H   LIG d   1       8.813   9.418  -0.135  0.00  0.00     0.064 H 
ATOM     18  C   LIG d   1      11.362  11.571   0.365  0.00  0.00     0.041 A 
ATOM     19  H   LIG d   1       9.290  11.604   0.890  0.00  0.00     0.063 H 
ATOM     20  C   LIG d   1      12.379  10.862  -0.251  0.00  0.00    -0.041 A 
ATOM     21 CL   LIG d   1      11.694  13.116   1.083  0.00  0.00    -0.084 Cl
ATOM     22  C   LIG d   1      12.118   9.633  -0.822  0.00  0.00    -0.036 A 
ATOM     23  H   LIG d   1      13.378  11.271  -0.284  0.00  0.00     0.063 H 
ATOM     24  H   LIG d   1      12.911   9.080  -1.302  0.00  0.00     0.064 H 
ENDBRANCH   9  14
BRANCH   1  25
ATOM     25  C   LIG d   1       9.327   7.446  -5.458  0.00  0.00    -0.039 C 
ATOM     26  H   LIG d   1       9.361   7.101  -6.492  0.00  0.00     0.028 H 
ATOM     27  H   LIG d   1       8.364   7.917  -5.263  0.00  0.00     0.028 H 
ATOM     28  H   LIG d   1      10.126   8.168  -5.290  0.00  0.00     0.028 H 
ENDBRANCH   1  25
BRANCH   3  29
ATOM     29  C   LIG d   1       9.214   2.514  -4.572  0.00  0.00    -0.022 C 
ATOM     30  H   LIG d   1       9.699   1.807  -3.899  0.00  0.00     0.029 H 
ATOM     31  H   LIG d   1       8.141   2.318  -4.591  0.00  0.00     0.029 H 
ATOM     32  H   LIG d   1       9.622   2.398  -5.576  0.00  0.00     0.029 H 
ENDBRANCH   3  29
TORSDOF 3
ENDMDL
MODEL 6
REMARK VINA RESULT:      -5.2      2.056      2.728
REMARK  3 active torsions:
REMARK  status: ('A' for Active; 'I' for Inactive)
REMARK    1  A    between atoms: C_1  and  C_2 
REMARK    2  A    between atoms: C_4  and  C_21 
REMARK    3  A    between atoms: N_10  and  C_14 
ROOT
ATOM      1  C   LIG d   1       2.611  -1.290 -11.791  0.00  0.00    -0.033 A 
ATOM      2  C   LIG d   1       3.005  -1.221 -13.116  0.00  0.00    -0.037 A 
ATOM      3  C   LIG d   1       4.263  -0.730 -13.432  0.00  0.00     0.041 A 
ATOM      4  N   LIG d   1       5.101  -0.325 -12.501  0.00  0.00    -0.232 NA
ATOM      5  C   LIG d   1       4.779  -0.366 -11.211  0.00  0.00     0.165 A 
ATOM      6  C   LIG d   1       3.509  -0.851 -10.819  0.00  0.00     0.087 A 
ATOM      7  C   LIG d   1       3.181  -0.879  -9.388  0.00  0.00     0.267 A 
ATOM      8  O   LIG d   1       2.106  -1.290  -8.994  0.00  0.00    -0.267 OA
ATOM      9  N   LIG d   1       4.122  -0.429  -8.524  0.00  0.00    -0.287 N 
ATOM     10  C   LIG d   1       5.324   0.028  -8.988  0.00  0.00    -0.021 A 
ATOM     11  N   LIG d   1       5.639   0.049 -10.261  0.00  0.00    -0.241 NA
ATOM     12  S   LIG d   1       6.511   0.601  -7.819  0.00  0.00    -0.720 SA
ATOM     13  H   LIG d   1       2.337  -1.547 -13.900  0.00  0.00     0.064 H 
ENDROOT
BRANCH   9  14
ATOM     14  C   LIG d   1       3.863  -0.434  -7.147  0.00  0.00     0.049 A 
ATOM     15  C   LIG d   1       4.499  -1.352  -6.322  0.00  0.00    -0.036 A 
ATOM     16  C   LIG d   1       4.244  -1.351  -4.964  0.00  0.00    -0.041 A 
ATOM     17  H   LIG d   1       5.195  -2.063  -6.741  0.00  0.00     0.064 H 
ATOM     18  C   LIG d   1       3.349  -0.443  -4.427  0.00  0.00     0.041 A 
ATOM     19  H   LIG d   1       4.742  -2.061  -4.322  0.00  0.00     0.063 H 
ATOM     20  C   LIG d   1       2.709   0.470  -5.249  0.00  0.00    -0.041 A 
ATOM     21 CL   LIG d   1       3.027  -0.448  -2.722  0.00  0.00    -0.084 Cl
ATOM     22  C   LIG d   1       2.964   0.476  -6.606  0.00  0.00    -0.036 A 
ATOM     23  H   LIG d   1       2.010   1.177  -4.828  0.00  0.00     0.063 H 
ATOM     24  H   LIG d   1       2.465   1.188  -7.246  0.00  0.00     0.064 H 
ENDBRANCH   9  14
BRANCH   1  25
ATOM     25  C   LIG d   1       1.252  -1.819 -11.411  0.00  0.00    -0.039 C 
ATOM     26  H   LIG d   1       1.358  -2.562 -10.621  0.00  0.00     0.028 H 
ATOM     27  H   LIG d   1       0.629  -0.997 -11.056  0.00  0.00     0.028 H 
ATOM     28  H   LIG d   1       0.784  -2.279 -12.281  0.00  0.00     0.028 H 
ENDBRANCH   1  25
BRANCH   3  29
ATOM     29  C   LIG d   1       4.681  -0.659 -14.877  0.00  0.00    -0.022 C 
ATOM     30  H   LIG d   1       5.531  -1.322 -15.042  0.00  0.00     0.029 H 
ATOM     31  H   LIG d   1       3.851  -0.970 -15.513  0.00  0.00     0.029 H 
ATOM     32  H   LIG d   1       4.965   0.363 -15.125  0.00  0.00     0.029 H 
ENDBRANCH   3  29
TORSDOF 3
ENDMDL
MODEL 7
REMARK VINA RESULT:      -5.1      3.138      6.541
REMARK  3 active torsions:
REMARK  status: ('A' for Active; 'I' for Inactive)
REMARK    1  A    between atoms: C_1  and  C_2 
REMARK    2  A    between atoms: C_4  and  C_21 
REMARK    3  A    between atoms: N_10  and  C_14 
ROOT
ATOM      1  C   LIG d   1       3.154   0.214  -4.813  0.00  0.00    -0.033 A 
ATOM      2  C   LIG d   1       3.367  -0.044  -3.470  0.00  0.00    -0.037 A 
ATOM      3  C   LIG d   1       4.216  -1.075  -3.098  0.00  0.00     0.041 A 
ATOM      4  N   LIG d   1       4.831  -1.822  -3.990  0.00  0.00    -0.232 NA
ATOM      5  C   LIG d   1       4.665  -1.623  -5.295  0.00  0.00     0.165 A 
ATOM      6  C   LIG d   1       3.808  -0.591  -5.745  0.00  0.00     0.087 A 
ATOM      7  C   LIG d   1       3.641  -0.400  -7.191  0.00  0.00     0.267 A 
ATOM      8  O   LIG d   1       2.921   0.475  -7.634  0.00  0.00    -0.267 OA
ATOM      9  N   LIG d   1       4.320  -1.235  -8.013  0.00  0.00    -0.287 N 
ATOM     10  C   LIG d   1       5.125  -2.211  -7.495  0.00  0.00    -0.021 A 
ATOM     11  N   LIG d   1       5.296  -2.389  -6.207  0.00  0.00    -0.241 NA
ATOM     12  S   LIG d   1       5.984  -3.269  -8.610  0.00  0.00    -0.720 SA
ATOM     13  H   LIG d   1       2.876   0.554  -2.717  0.00  0.00     0.064 H 
ENDROOT
BRANCH   9  14
ATOM     14  C   LIG d   1       4.198  -1.097  -9.402  0.00  0.00     0.049 A 
ATOM     15  C   LIG d   1       5.060  -0.259 -10.097  0.00  0.00    -0.036 A 
ATOM     16  C   LIG d   1       4.940  -0.129 -11.467  0.00  0.00    -0.041 A 
ATOM     17  H   LIG d   1       5.826   0.287  -9.567  0.00  0.00     0.064 H 
ATOM     18  C   LIG d   1       3.955  -0.825 -12.146  0.00  0.00     0.041 A 
ATOM     19  H   LIG d   1       5.613   0.519 -12.008  0.00  0.00     0.063 H 
ATOM     20  C   LIG d   1       3.091  -1.657 -11.454  0.00  0.00    -0.041 A 
ATOM     21 CL   LIG d   1       3.803  -0.655 -13.866  0.00  0.00    -0.084 Cl
ATOM     22  C   LIG d   1       3.211  -1.794 -10.086  0.00  0.00    -0.036 A 
ATOM     23  H   LIG d   1       2.323  -2.199 -11.986  0.00  0.00     0.063 H 
ATOM     24  H   LIG d   1       2.536  -2.444  -9.547  0.00  0.00     0.064 H 
ENDBRANCH   9  14
BRANCH   1  25
ATOM     25  C   LIG d   1       2.238   1.326  -5.255  0.00  0.00    -0.039 C 
ATOM     26  H   LIG d   1       2.181   1.340  -6.343  0.00  0.00     0.028 H 
ATOM     27  H   LIG d   1       1.243   1.164  -4.840  0.00  0.00     0.028 H 
ATOM     28  H   LIG d   1       2.627   2.280  -4.900  0.00  0.00     0.028 H 
ENDBRANCH   1  25
BRANCH   3  29
ATOM     29  C   LIG d   1       4.442  -1.347  -1.633  0.00  0.00    -0.022 C 
ATOM     30  H   LIG d   1       4.027  -0.529  -1.044  0.00  0.00     0.029 H 
ATOM     31  H   LIG d   1       3.951  -2.280  -1.356  0.00  0.00     0.029 H 
ATOM     32  H   LIG d   1       5.512  -1.428  -1.439  0.00  0.00     0.029 H 
ENDBRANCH   3  29
TORSDOF 3
ENDMDL
MODEL 8
REMARK VINA RESULT:      -5.1      6.382      8.241
REMARK  3 active torsions:
REMARK  status: ('A' for Active; 'I' for Inactive)
REMARK    1  A    between atoms: C_1  and  C_2 
REMARK    2  A    between atoms: C_4  and  C_21 
REMARK    3  A    between atoms: N_10  and  C_14 
ROOT
ATOM      1  C   LIG d   1       6.914  -1.080  -3.651  0.00  0.00    -0.033 A 
ATOM      2  C   LIG d   1       5.832  -0.778  -2.842  0.00  0.00    -0.037 A 
ATOM      3  C   LIG d   1       5.470   0.546  -2.648  0.00  0.00     0.041 A 
ATOM      4  N   LIG d   1       6.130   1.535  -3.215  0.00  0.00    -0.232 NA
ATOM      5  C   LIG d   1       7.179   1.308  -4.002  0.00  0.00     0.165 A 
ATOM      6  C   LIG d   1       7.605  -0.021  -4.238  0.00  0.00     0.087 A 
ATOM      7  C   LIG d   1       8.769  -0.238  -5.106  0.00  0.00     0.267 A 
ATOM      8  O   LIG d   1       9.176  -1.359  -5.348  0.00  0.00    -0.267 OA
ATOM      9  N   LIG d   1       9.372   0.857  -5.628  0.00  0.00    -0.287 N 
ATOM     10  C   LIG d   1       8.897   2.107  -5.344  0.00  0.00    -0.021 A 
ATOM     11  N   LIG d   1       7.852   2.321  -4.580  0.00  0.00    -0.241 NA
ATOM     12  S   LIG d   1       9.720   3.497  -6.049  0.00  0.00    -0.720 SA
ATOM     13  H   LIG d   1       5.272  -1.569  -2.366  0.00  0.00     0.064 H 
ENDROOT
BRANCH   9  14
ATOM     14  C   LIG d   1      10.486   0.708  -6.463  0.00  0.00     0.049 A 
ATOM     15  C   LIG d   1      11.765   0.694  -5.922  0.00  0.00    -0.036 A 
ATOM     16  C   LIG d   1      12.861   0.541  -6.748  0.00  0.00    -0.041 A 
ATOM     17  H   LIG d   1      11.901   0.797  -4.856  0.00  0.00     0.064 H 
ATOM     18  C   LIG d   1      12.688   0.413  -8.115  0.00  0.00     0.041 A 
ATOM     19  H   LIG d   1      13.855   0.524  -6.327  0.00  0.00     0.063 H 
ATOM     20  C   LIG d   1      11.414   0.433  -8.658  0.00  0.00    -0.041 A 
ATOM     21 CL   LIG d   1      14.068   0.228  -9.151  0.00  0.00    -0.084 Cl
ATOM     22  C   LIG d   1      10.314   0.580  -7.836  0.00  0.00    -0.036 A 
ATOM     23  H   LIG d   1      11.281   0.334  -9.725  0.00  0.00     0.063 H 
ATOM     24  H   LIG d   1       9.321   0.595  -8.260  0.00  0.00     0.064 H 
ENDBRANCH   9  14
BRANCH   1  25
ATOM     25  C   LIG d   1       7.335  -2.507  -3.885  0.00  0.00    -0.039 C 
ATOM     26  H   LIG d   1       6.451  -3.143  -3.939  0.00  0.00     0.028 H 
ATOM     27  H   LIG d   1       7.888  -2.574  -4.822  0.00  0.00     0.028 H 
ATOM     28  H   LIG d   1       7.970  -2.838  -3.064  0.00  0.00     0.028 H 
ENDBRANCH   1  25
BRANCH   3  29
ATOM     29  C   LIG d   1       4.290   0.863  -1.767  0.00  0.00    -0.022 C 
ATOM     30  H   LIG d   1       4.307   1.920  -1.502  0.00  0.00     0.029 H 
ATOM     31  H   LIG d   1       3.365   0.638  -2.300  0.00  0.00     0.029 H 
ATOM     32  H   LIG d   1       4.341   0.261  -0.860  0.00  0.00     0.029 H 
ENDBRANCH   3  29
TORSDOF 3
ENDMDL
MODEL 9
REMARK VINA RESULT:      -5.0      2.344      2.693
REMARK  3 active torsions:
REMARK  status: ('A' for Active; 'I' for Inactive)
REMARK    1  A    between atoms: C_1  and  C_2 
REMARK    2  A    between atoms: C_4  and  C_21 
REMARK    3  A    between atoms: N_10  and  C_14 
ROOT
ATOM      1  C   LIG d   1       2.602  -0.427  -9.160  0.00  0.00    -0.033 A 
ATOM      2  C   LIG d   1       1.797  -1.265  -9.913  0.00  0.00    -0.037 A 
ATOM      3  C   LIG d   1       2.009  -2.635  -9.874  0.00  0.00     0.041 A 
ATOM      4  N   LIG d   1       2.961  -3.167  -9.137  0.00  0.00    -0.232 NA
ATOM      5  C   LIG d   1       3.767  -2.414  -8.394  0.00  0.00     0.165 A 
ATOM      6  C   LIG d   1       3.609  -1.008  -8.390  0.00  0.00     0.087 A 
ATOM      7  C   LIG d   1       4.518  -0.203  -7.564  0.00  0.00     0.267 A 
ATOM      8  O   LIG d   1       4.424   1.009  -7.519  0.00  0.00    -0.267 OA
ATOM      9  N   LIG d   1       5.464  -0.863  -6.853  0.00  0.00    -0.287 N 
ATOM     10  C   LIG d   1       5.550  -2.225  -6.918  0.00  0.00    -0.021 A 
ATOM     11  N   LIG d   1       4.741  -2.962  -7.641  0.00  0.00    -0.241 NA
ATOM     12  S   LIG d   1       6.800  -3.031  -5.973  0.00  0.00    -0.720 SA
ATOM     13  H   LIG d   1       1.008  -0.855 -10.525  0.00  0.00     0.064 H 
ENDROOT
BRANCH   9  14
ATOM     14  C   LIG d   1       6.357  -0.145  -6.048  0.00  0.00     0.049 A 
ATOM     15  C   LIG d   1       6.109  -0.003  -4.689  0.00  0.00    -0.036 A 
ATOM     16  C   LIG d   1       6.994   0.701  -3.896  0.00  0.00    -0.041 A 
ATOM     17  H   LIG d   1       5.227  -0.448  -4.252  0.00  0.00     0.064 H 
ATOM     18  C   LIG d   1       8.121   1.275  -4.456  0.00  0.00     0.041 A 
ATOM     19  H   LIG d   1       6.804   0.807  -2.839  0.00  0.00     0.063 H 
ATOM     20  C   LIG d   1       8.367   1.141  -5.813  0.00  0.00    -0.041 A 
ATOM     21 CL   LIG d   1       9.228   2.165  -3.459  0.00  0.00    -0.084 Cl
ATOM     22  C   LIG d   1       7.489   0.433  -6.608  0.00  0.00    -0.036 A 
ATOM     23  H   LIG d   1       9.248   1.590  -6.248  0.00  0.00     0.063 H 
ATOM     24  H   LIG d   1       7.681   0.328  -7.665  0.00  0.00     0.064 H 
ENDBRANCH   9  14
BRANCH   1  25
ATOM     25  C   LIG d   1       2.400   1.066  -9.177  0.00  0.00    -0.039 C 
ATOM     26  H   LIG d   1       2.488   1.457  -8.163  0.00  0.00     0.028 H 
ATOM     27  H   LIG d   1       3.156   1.528  -9.812  0.00  0.00     0.028 H 
ATOM     28  H   LIG d   1       1.409   1.294  -9.569  0.00  0.00     0.028 H 
ENDBRANCH   1  25
BRANCH   3  29
ATOM     29  C   LIG d   1       1.126  -3.537 -10.697  0.00  0.00    -0.022 C 
ATOM     30  H   LIG d   1       0.367  -3.984 -10.056  0.00  0.00     0.029 H 
ATOM     31  H   LIG d   1       0.642  -2.956 -11.483  0.00  0.00     0.029 H 
ATOM     32  H   LIG d   1       1.730  -4.325 -11.147  0.00  0.00     0.029 H 
ENDBRANCH   3  29
TORSDOF 3
ENDMDL
MODEL 10
REMARK VINA RESULT:      -5.0      3.883      5.914
REMARK  3 active torsions:
REMARK  status: ('A' for Active; 'I' for Inactive)
REMARK    1  A    between atoms: C_1  and  C_2 
REMARK    2  A    between atoms: C_4  and  C_21 
REMARK    3  A    between atoms: N_10  and  C_14 
ROOT
ATOM      1  C   LIG d   1       4.351  -6.118  -8.079  0.00  0.00    -0.033 A 
ATOM      2  C   LIG d   1       4.473  -7.328  -7.418  0.00  0.00    -0.037 A 
ATOM      3  C   LIG d   1       4.628  -7.342  -6.040  0.00  0.00     0.041 A 
ATOM      4  N   LIG d   1       4.664  -6.230  -5.335  0.00  0.00    -0.232 NA
ATOM      5  C   LIG d   1       4.554  -5.038  -5.915  0.00  0.00     0.165 A 
ATOM      6  C   LIG d   1       4.398  -4.950  -7.319  0.00  0.00     0.087 A 
ATOM      7  C   LIG d   1       4.285  -3.620  -7.929  0.00  0.00     0.267 A 
ATOM      8  O   LIG d   1       4.144  -3.485  -9.130  0.00  0.00    -0.267 OA
ATOM      9  N   LIG d   1       4.342  -2.547  -7.103  0.00  0.00    -0.287 N 
ATOM     10  C   LIG d   1       4.500  -2.721  -5.757  0.00  0.00    -0.021 A 
ATOM     11  N   LIG d   1       4.591  -3.902  -5.192  0.00  0.00    -0.241 NA
ATOM     12  S   LIG d   1       4.569  -1.292  -4.729  0.00  0.00    -0.720 SA
ATOM     13  H   LIG d   1       4.445  -8.255  -7.971  0.00  0.00     0.064 H 
ENDROOT
BRANCH   9  14
ATOM     14  C   LIG d   1       4.239  -1.254  -7.632  0.00  0.00     0.049 A 
ATOM     15  C   LIG d   1       5.383  -0.561  -8.002  0.00  0.00    -0.036 A 
ATOM     16  C   LIG d   1       5.277   0.712  -8.528  0.00  0.00    -0.041 A 
ATOM     17  H   LIG d   1       6.354  -1.018  -7.883  0.00  0.00     0.064 H 
ATOM     18  C   LIG d   1       4.034   1.301  -8.676  0.00  0.00     0.041 A 
ATOM     19  H   LIG d   1       6.166   1.250  -8.821  0.00  0.00     0.063 H 
ATOM     20  C   LIG d   1       2.892   0.613  -8.302  0.00  0.00    -0.041 A 
ATOM     21 CL   LIG d   1       3.905   2.902  -9.331  0.00  0.00    -0.084 Cl
ATOM     22  C   LIG d   1       2.992  -0.662  -7.781  0.00  0.00    -0.036 A 
ATOM     23  H   LIG d   1       1.922   1.074  -8.418  0.00  0.00     0.063 H 
ATOM     24  H   LIG d   1       2.101  -1.198  -7.490  0.00  0.00     0.064 H 
ENDBRANCH   9  14
BRANCH   1  25
ATOM     25  C   LIG d   1       4.181  -6.064  -9.575  0.00  0.00    -0.039 C 
ATOM     26  H   LIG d   1       5.088  -6.429 -10.058  0.00  0.00     0.028 H 
ATOM     27  H   LIG d   1       3.337  -6.690  -9.868  0.00  0.00     0.028 H 
ATOM     28  H   LIG d   1       3.994  -5.036  -9.884  0.00  0.00     0.028 H 
ENDBRANCH   1  25
BRANCH   3  29
ATOM     29  C   LIG d   1       4.758  -8.665  -5.330  0.00  0.00    -0.022 C 
ATOM     30  H   LIG d   1       3.871  -9.268  -5.521  0.00  0.00     0.029 H 
ATOM     31  H   LIG d   1       5.640  -9.190  -5.697  0.00  0.00     0.029 H 
ATOM     32  H   LIG d   1       4.857  -8.494  -4.258  0.00  0.00     0.029 H 
ENDBRANCH   3  29
TORSDOF 3
ENDMDL
