MODEL 1
REMARK VINA RESULT:      -7.8      0.000      0.000
REMARK  4 active torsions:
REMARK  status: ('A' for Active; 'I' for Inactive)
REMARK    1  A    between atoms: C_4  and  S_7 
REMARK    2  A    between atoms: S_7  and  N_10 
REMARK    3  A    between atoms: N_10  and  C_11 
REMARK       I    between atoms: N_25  and  C_27 
REMARK    4  A    between atoms: C_27  and  C_29 
ROOT
ATOM      1  C   LIG d   1       6.359  -1.019  -6.614  0.00  0.00     0.112 A 
ATOM      2  C   LIG d   1       7.140  -0.132  -7.300  0.00  0.00    -0.032 A 
ATOM      3  C   LIG d   1       6.528   0.770  -8.179  0.00  0.00    -0.040 A 
ATOM      4  C   LIG d   1       5.178   0.781  -8.331  0.00  0.00     0.027 A 
ATOM      5  N   LIG d   1       4.394  -0.042  -7.592  0.00  0.00    -0.310 N 
ATOM      6  C   LIG d   1       4.963  -0.982  -6.796  0.00  0.00     0.274 A 
ATOM      7  O   LIG d   1       4.258  -1.806  -6.235  0.00  0.00    -0.266 OA
ATOM      8  C   LIG d   1       2.934   0.047  -7.570  0.00  0.00     0.031 C 
ATOM      9  C   LIG d   1       2.381   0.802  -8.764  0.00  0.00    -0.006 C 
ATOM     10  H   LIG d   1       1.350   1.077  -8.542  0.00  0.00     0.033 H 
ATOM     11  C   LIG d   1       3.166   2.100  -8.966  0.00  0.00    -0.037 C 
ATOM     12  C   LIG d   1       4.604   1.738  -9.350  0.00  0.00     0.016 C 
ATOM     13  H   LIG d   1       5.223   2.633  -9.414  0.00  0.00     0.038 H 
ATOM     14  C   LIG d   1       4.575   1.014 -10.706  0.00  0.00     0.023 C 
ATOM     15  N   LIG d   1       3.751  -0.194 -10.540  0.00  0.00    -0.295 N 
ATOM     16  C   LIG d   1       2.381  -0.043 -10.034  0.00  0.00     0.019 C 
ATOM     17  C   LIG d   1       4.240  -1.411 -10.849  0.00  0.00     0.265 C 
ATOM     18  O   LIG d   1       5.421  -1.544 -11.100  0.00  0.00    -0.268 OA
ATOM     19  H   LIG d   1       8.213  -0.126  -7.167  0.00  0.00     0.064 H 
ATOM     20  H   LIG d   1       7.135   1.463  -8.742  0.00  0.00     0.064 H 
ATOM     21  H   LIG d   1       2.520  -0.962  -7.568  0.00  0.00     0.050 H 
ATOM     22  H   LIG d   1       2.625   0.555  -6.656  0.00  0.00     0.050 H 
ATOM     23  H   LIG d   1       3.166   2.677  -8.042  0.00  0.00     0.028 H 
ATOM     24  H   LIG d   1       2.710   2.683  -9.765  0.00  0.00     0.028 H 
ATOM     25  H   LIG d   1       5.586   0.734 -10.999  0.00  0.00     0.047 H 
ATOM     26  H   LIG d   1       4.134   1.662 -11.464  0.00  0.00     0.047 H 
ATOM     27  H   LIG d   1       1.767   0.441 -10.794  0.00  0.00     0.047 H 
ATOM     28  H   LIG d   1       1.968  -1.027  -9.813  0.00  0.00     0.047 H 
ENDROOT
BRANCH   1  29
ATOM     29  N   LIG d   1       6.938  -1.950  -5.743  0.00  0.00    -0.211 N 
ATOM     30  H   LIG d   1       6.977  -2.888  -5.991  0.00  0.00     0.174 HD
BRANCH  29  31
ATOM     31  S   LIG d   1       7.555  -1.453  -4.289  0.00  0.00     0.072 S 
ATOM     32  O   LIG d   1       7.937  -2.628  -3.586  0.00  0.00    -0.150 OA
ATOM     33  O   LIG d   1       8.470  -0.404  -4.573  0.00  0.00    -0.150 OA
BRANCH  31  34
ATOM     34  C   LIG d   1       6.228  -0.732  -3.380  0.00  0.00     0.108 A 
ATOM     35  C   LIG d   1       6.129   0.642  -3.275  0.00  0.00    -0.035 A 
ATOM     36  C   LIG d   1       5.088   1.208  -2.563  0.00  0.00    -0.060 A 
ATOM     37  H   LIG d   1       6.864   1.275  -3.750  0.00  0.00     0.064 H 
ATOM     38  C   LIG d   1       4.146   0.398  -1.955  0.00  0.00    -0.062 A 
ATOM     39  H   LIG d   1       5.010   2.282  -2.481  0.00  0.00     0.062 H 
ATOM     40  C   LIG d   1       4.246  -0.977  -2.060  0.00  0.00    -0.060 A 
ATOM     41  H   LIG d   1       3.332   0.840  -1.399  0.00  0.00     0.062 H 
ATOM     42  C   LIG d   1       5.284  -1.541  -2.778  0.00  0.00    -0.035 A 
ATOM     43  H   LIG d   1       3.510  -1.609  -1.586  0.00  0.00     0.062 H 
ATOM     44  H   LIG d   1       5.359  -2.615  -2.863  0.00  0.00     0.064 H 
ENDBRANCH  31  34
ENDBRANCH  29  31
ENDBRANCH   1  29
BRANCH  17  45
ATOM     45  C   LIG d   1       3.338  -2.586 -10.885  0.00  0.00     0.126 A 
ATOM     46  N   LIG d   1       2.624  -2.833 -11.976  0.00  0.00    -0.250 NA
ATOM     47  C   LIG d   1       1.815  -3.869 -12.050  0.00  0.00     0.028 A 
ATOM     48  C   LIG d   1       1.679  -4.743 -10.985  0.00  0.00    -0.044 A 
ATOM     49  H   LIG d   1       1.249  -4.037 -12.954  0.00  0.00     0.083 H 
ATOM     50  C   LIG d   1       2.407  -4.522  -9.826  0.00  0.00    -0.058 A 
ATOM     51  H   LIG d   1       1.012  -5.590 -11.056  0.00  0.00     0.063 H 
ATOM     52  C   LIG d   1       3.252  -3.424  -9.776  0.00  0.00    -0.031 A 
ATOM     53  H   LIG d   1       2.319  -5.190  -8.982  0.00  0.00     0.062 H 
ATOM     54  H   LIG d   1       3.834  -3.221  -8.889  0.00  0.00     0.064 H 
ENDBRANCH  17  45
TORSDOF 4
ENDMDL
MODEL 2
REMARK VINA RESULT:      -7.7      6.313      9.955
REMARK  4 active torsions:
REMARK  status: ('A' for Active; 'I' for Inactive)
REMARK    1  A    between atoms: C_4  and  S_7 
REMARK    2  A    between atoms: S_7  and  N_10 
REMARK    3  A    between atoms: N_10  and  C_11 
REMARK       I    between atoms: N_25  and  C_27 
REMARK    4  A    between atoms: C_27  and  C_29 
ROOT
ATOM      1  C   LIG d   1       8.749   2.714  -5.019  0.00  0.00     0.112 A 
ATOM      2  C   LIG d   1       9.048   2.874  -6.343  0.00  0.00    -0.032 A 
ATOM      3  C   LIG d   1      10.268   3.464  -6.694  0.00  0.00    -0.040 A 
ATOM      4  C   LIG d   1      11.152   3.851  -5.736  0.00  0.00     0.027 A 
ATOM      5  N   LIG d   1      10.893   3.618  -4.425  0.00  0.00    -0.310 N 
ATOM      6  C   LIG d   1       9.685   3.126  -4.052  0.00  0.00     0.274 A 
ATOM      7  O   LIG d   1       9.408   3.043  -2.867  0.00  0.00    -0.266 OA
ATOM      8  C   LIG d   1      11.874   3.839  -3.363  0.00  0.00     0.031 C 
ATOM      9  C   LIG d   1      13.001   4.759  -3.795  0.00  0.00    -0.006 C 
ATOM     10  H   LIG d   1      13.819   4.648  -3.084  0.00  0.00     0.033 H 
ATOM     11  C   LIG d   1      13.526   4.328  -5.166  0.00  0.00    -0.037 C 
ATOM     12  C   LIG d   1      12.414   4.541  -6.197  0.00  0.00     0.016 C 
ATOM     13  H   LIG d   1      12.715   4.161  -7.174  0.00  0.00     0.038 H 
ATOM     14  C   LIG d   1      12.117   6.048  -6.283  0.00  0.00     0.023 C 
ATOM     15  N   LIG d   1      11.690   6.486  -4.944  0.00  0.00    -0.295 N 
ATOM     16  C   LIG d   1      12.578   6.225  -3.805  0.00  0.00     0.019 C 
ATOM     17  C   LIG d   1      10.513   7.118  -4.768  0.00  0.00     0.265 C 
ATOM     18  O   LIG d   1       9.713   7.176  -5.680  0.00  0.00    -0.268 OA
ATOM     19  H   LIG d   1       8.356   2.550  -7.107  0.00  0.00     0.064 H 
ATOM     20  H   LIG d   1      10.510   3.614  -7.735  0.00  0.00     0.064 H 
ATOM     21  H   LIG d   1      11.370   4.278  -2.503  0.00  0.00     0.050 H 
ATOM     22  H   LIG d   1      12.297   2.877  -3.068  0.00  0.00     0.050 H 
ATOM     23  H   LIG d   1      13.805   3.275  -5.139  0.00  0.00     0.028 H 
ATOM     24  H   LIG d   1      14.394   4.932  -5.433  0.00  0.00     0.028 H 
ATOM     25  H   LIG d   1      11.320   6.229  -7.003  0.00  0.00     0.047 H 
ATOM     26  H   LIG d   1      13.016   6.588  -6.581  0.00  0.00     0.047 H 
ATOM     27  H   LIG d   1      13.462   6.858  -3.884  0.00  0.00     0.047 H 
ATOM     28  H   LIG d   1      12.054   6.456  -2.878  0.00  0.00     0.047 H 
ENDROOT
BRANCH   1  29
ATOM     29  N   LIG d   1       7.528   2.147  -4.630  0.00  0.00    -0.211 N 
ATOM     30  H   LIG d   1       6.850   2.698  -4.210  0.00  0.00     0.174 HD
BRANCH  29  31
ATOM     31  S   LIG d   1       7.244   0.536  -4.887  0.00  0.00     0.072 S 
ATOM     32  O   LIG d   1       6.577   0.436  -6.139  0.00  0.00    -0.150 OA
ATOM     33  O   LIG d   1       8.463  -0.141  -4.618  0.00  0.00    -0.150 OA
BRANCH  31  34
ATOM     34  C   LIG d   1       6.093   0.009  -3.660  0.00  0.00     0.108 A 
ATOM     35  C   LIG d   1       5.765  -1.329  -3.551  0.00  0.00    -0.035 A 
ATOM     36  C   LIG d   1       4.863  -1.743  -2.588  0.00  0.00    -0.060 A 
ATOM     37  H   LIG d   1       6.212  -2.052  -4.217  0.00  0.00     0.064 H 
ATOM     38  C   LIG d   1       4.290  -0.817  -1.735  0.00  0.00    -0.062 A 
ATOM     39  H   LIG d   1       4.605  -2.788  -2.503  0.00  0.00     0.062 H 
ATOM     40  C   LIG d   1       4.619   0.520  -1.845  0.00  0.00    -0.060 A 
ATOM     41  H   LIG d   1       3.586  -1.141  -0.982  0.00  0.00     0.062 H 
ATOM     42  C   LIG d   1       5.526   0.932  -2.804  0.00  0.00    -0.035 A 
ATOM     43  H   LIG d   1       4.172   1.243  -1.178  0.00  0.00     0.062 H 
ATOM     44  H   LIG d   1       5.786   1.977  -2.887  0.00  0.00     0.064 H 
ENDBRANCH  31  34
ENDBRANCH  29  31
ENDBRANCH   1  29
BRANCH  17  45
ATOM     45  C   LIG d   1      10.195   7.744  -3.463  0.00  0.00     0.126 A 
ATOM     46  N   LIG d   1      10.479   9.025  -3.262  0.00  0.00    -0.250 NA
ATOM     47  C   LIG d   1      10.208   9.619  -2.120  0.00  0.00     0.028 A 
ATOM     48  C   LIG d   1       9.613   8.925  -1.079  0.00  0.00    -0.044 A 
ATOM     49  H   LIG d   1      10.454  10.663  -1.993  0.00  0.00     0.083 H 
ATOM     50  C   LIG d   1       9.300   7.585  -1.247  0.00  0.00    -0.058 A 
ATOM     51  H   LIG d   1       9.396   9.422  -0.145  0.00  0.00     0.063 H 
ATOM     52  C   LIG d   1       9.596   6.984  -2.461  0.00  0.00    -0.031 A 
ATOM     53  H   LIG d   1       8.836   7.022  -0.451  0.00  0.00     0.062 H 
ATOM     54  H   LIG d   1       9.366   5.942  -2.627  0.00  0.00     0.064 H 
ENDBRANCH  17  45
TORSDOF 4
ENDMDL
MODEL 3
REMARK VINA RESULT:      -7.4      3.554      5.736
REMARK  4 active torsions:
REMARK  status: ('A' for Active; 'I' for Inactive)
REMARK    1  A    between atoms: C_4  and  S_7 
REMARK    2  A    between atoms: S_7  and  N_10 
REMARK    3  A    between atoms: N_10  and  C_11 
REMARK       I    between atoms: N_25  and  C_27 
REMARK    4  A    between atoms: C_27  and  C_29 
ROOT
ATOM      1  C   LIG d   1       7.802   1.704  -4.654  0.00  0.00     0.112 A 
ATOM      2  C   LIG d   1       7.262   1.389  -3.438  0.00  0.00    -0.032 A 
ATOM      3  C   LIG d   1       6.622   0.154  -3.282  0.00  0.00    -0.040 A 
ATOM      4  C   LIG d   1       6.558  -0.728  -4.313  0.00  0.00     0.027 A 
ATOM      5  N   LIG d   1       7.164  -0.453  -5.495  0.00  0.00    -0.310 N 
ATOM      6  C   LIG d   1       7.717   0.768  -5.702  0.00  0.00     0.274 A 
ATOM      7  O   LIG d   1       8.143   1.058  -6.808  0.00  0.00    -0.266 OA
ATOM      8  C   LIG d   1       7.292  -1.429  -6.577  0.00  0.00     0.031 C 
ATOM      9  C   LIG d   1       6.310  -2.579  -6.441  0.00  0.00    -0.006 C 
ATOM     10  H   LIG d   1       6.646  -3.388  -7.090  0.00  0.00     0.033 H 
ATOM     11  C   LIG d   1       6.326  -3.107  -5.006  0.00  0.00    -0.037 C 
ATOM     12  C   LIG d   1       5.790  -2.009  -4.082  0.00  0.00     0.016 C 
ATOM     13  H   LIG d   1       5.869  -2.310  -3.037  0.00  0.00     0.038 H 
ATOM     14  C   LIG d   1       4.320  -1.744  -4.448  0.00  0.00     0.023 C 
ATOM     15  N   LIG d   1       4.290  -1.315  -5.855  0.00  0.00    -0.295 N 
ATOM     16  C   LIG d   1       4.898  -2.187  -6.867  0.00  0.00     0.019 C 
ATOM     17  C   LIG d   1       3.713  -0.150  -6.209  0.00  0.00     0.265 C 
ATOM     18  O   LIG d   1       3.368   0.642  -5.353  0.00  0.00    -0.268 OA
ATOM     19  H   LIG d   1       7.328   2.082  -2.611  0.00  0.00     0.064 H 
ATOM     20  H   LIG d   1       6.174  -0.100  -2.333  0.00  0.00     0.064 H 
ATOM     21  H   LIG d   1       7.116  -0.926  -7.528  0.00  0.00     0.050 H 
ATOM     22  H   LIG d   1       8.307  -1.829  -6.573  0.00  0.00     0.050 H 
ATOM     23  H   LIG d   1       7.345  -3.363  -4.719  0.00  0.00     0.028 H 
ATOM     24  H   LIG d   1       5.690  -3.989  -4.933  0.00  0.00     0.028 H 
ATOM     25  H   LIG d   1       3.915  -0.957  -3.812  0.00  0.00     0.047 H 
ATOM     26  H   LIG d   1       3.736  -2.657  -4.326  0.00  0.00     0.047 H 
ATOM     27  H   LIG d   1       4.291  -3.084  -6.982  0.00  0.00     0.047 H 
ATOM     28  H   LIG d   1       4.942  -1.659  -7.819  0.00  0.00     0.047 H 
ENDROOT
BRANCH   1  29
ATOM     29  N   LIG d   1       8.431   2.939  -4.853  0.00  0.00    -0.211 N 
ATOM     30  H   LIG d   1       7.936   3.679  -5.240  0.00  0.00     0.174 HD
BRANCH  29  31
ATOM     31  S   LIG d   1      10.020   3.138  -4.430  0.00  0.00     0.072 S 
ATOM     32  O   LIG d   1      10.390   1.985  -3.686  0.00  0.00    -0.150 OA
ATOM     33  O   LIG d   1      10.708   3.538  -5.607  0.00  0.00    -0.150 OA
BRANCH  31  34
ATOM     34  C   LIG d   1      10.095   4.502  -3.316  0.00  0.00     0.108 A 
ATOM     35  C   LIG d   1      10.727   4.362  -2.095  0.00  0.00    -0.035 A 
ATOM     36  C   LIG d   1      10.787   5.432  -1.221  0.00  0.00    -0.060 A 
ATOM     37  H   LIG d   1      11.175   3.418  -1.823  0.00  0.00     0.064 H 
ATOM     38  C   LIG d   1      10.213   6.641  -1.569  0.00  0.00    -0.062 A 
ATOM     39  H   LIG d   1      11.280   5.323  -0.267  0.00  0.00     0.062 H 
ATOM     40  C   LIG d   1       9.580   6.780  -2.790  0.00  0.00    -0.060 A 
ATOM     41  H   LIG d   1      10.260   7.476  -0.886  0.00  0.00     0.062 H 
ATOM     42  C   LIG d   1       9.527   5.712  -3.666  0.00  0.00    -0.035 A 
ATOM     43  H   LIG d   1       9.133   7.725  -3.062  0.00  0.00     0.062 H 
ATOM     44  H   LIG d   1       9.037   5.822  -4.621  0.00  0.00     0.064 H 
ENDBRANCH  31  34
ENDBRANCH  29  31
ENDBRANCH   1  29
BRANCH  17  45
ATOM     45  C   LIG d   1       3.497   0.167  -7.640  0.00  0.00     0.126 A 
ATOM     46  N   LIG d   1       4.356   0.954  -8.275  0.00  0.00    -0.250 NA
ATOM     47  C   LIG d   1       4.203   1.256  -9.547  0.00  0.00     0.028 A 
ATOM     48  C   LIG d   1       3.132   0.760 -10.272  0.00  0.00    -0.044 A 
ATOM     49  H   LIG d   1       4.922   1.901 -10.031  0.00  0.00     0.083 H 
ATOM     50  C   LIG d   1       2.212  -0.066  -9.647  0.00  0.00    -0.058 A 
ATOM     51  H   LIG d   1       3.016   1.015 -11.316  0.00  0.00     0.063 H 
ATOM     52  C   LIG d   1       2.398  -0.368  -8.307  0.00  0.00    -0.031 A 
ATOM     53  H   LIG d   1       1.369  -0.465 -10.191  0.00  0.00     0.062 H 
ATOM     54  H   LIG d   1       1.700  -1.008  -7.788  0.00  0.00     0.064 H 
ENDBRANCH  17  45
TORSDOF 4
ENDMDL
MODEL 4
REMARK VINA RESULT:      -7.1      3.938      6.561
REMARK  4 active torsions:
REMARK  status: ('A' for Active; 'I' for Inactive)
REMARK    1  A    between atoms: C_4  and  S_7 
REMARK    2  A    between atoms: S_7  and  N_10 
REMARK    3  A    between atoms: N_10  and  C_11 
REMARK       I    between atoms: N_25  and  C_27 
REMARK    4  A    between atoms: C_27  and  C_29 
ROOT
ATOM      1  C   LIG d   1       9.669   0.960  -5.695  0.00  0.00     0.112 A 
ATOM      2  C   LIG d   1      10.510  -0.110  -5.562  0.00  0.00    -0.032 A 
ATOM      3  C   LIG d   1      10.071  -1.371  -5.979  0.00  0.00    -0.040 A 
ATOM      4  C   LIG d   1       8.838  -1.529  -6.529  0.00  0.00     0.027 A 
ATOM      5  N   LIG d   1       8.034  -0.458  -6.738  0.00  0.00    -0.310 N 
ATOM      6  C   LIG d   1       8.398   0.762  -6.268  0.00  0.00     0.274 A 
ATOM      7  O   LIG d   1       7.615   1.695  -6.341  0.00  0.00    -0.266 OA
ATOM      8  C   LIG d   1       6.781  -0.530  -7.489  0.00  0.00     0.031 C 
ATOM      9  C   LIG d   1       6.253  -1.948  -7.603  0.00  0.00    -0.006 C 
ATOM     10  H   LIG d   1       5.504  -1.967  -8.395  0.00  0.00     0.033 H 
ATOM     11  C   LIG d   1       7.383  -2.891  -8.019  0.00  0.00    -0.037 C 
ATOM     12  C   LIG d   1       8.416  -2.935  -6.889  0.00  0.00     0.016 C 
ATOM     13  H   LIG d   1       9.284  -3.525  -7.182  0.00  0.00     0.038 H 
ATOM     14  C   LIG d   1       7.748  -3.553  -5.649  0.00  0.00     0.023 C 
ATOM     15  N   LIG d   1       6.607  -2.694  -5.292  0.00  0.00    -0.295 N 
ATOM     16  C   LIG d   1       5.589  -2.422  -6.314  0.00  0.00     0.019 C 
ATOM     17  C   LIG d   1       6.496  -2.174  -4.055  0.00  0.00     0.265 C 
ATOM     18  O   LIG d   1       7.424  -2.261  -3.274  0.00  0.00    -0.268 OA
ATOM     19  H   LIG d   1      11.498   0.016  -5.141  0.00  0.00     0.064 H 
ATOM     20  H   LIG d   1      10.717  -2.228  -5.861  0.00  0.00     0.064 H 
ATOM     21  H   LIG d   1       6.034   0.086  -6.988  0.00  0.00     0.050 H 
ATOM     22  H   LIG d   1       6.948  -0.133  -8.492  0.00  0.00     0.050 H 
ATOM     23  H   LIG d   1       7.852  -2.522  -8.931  0.00  0.00     0.028 H 
ATOM     24  H   LIG d   1       6.983  -3.890  -8.189  0.00  0.00     0.028 H 
ATOM     25  H   LIG d   1       8.458  -3.587  -4.823  0.00  0.00     0.047 H 
ATOM     26  H   LIG d   1       7.397  -4.560  -5.879  0.00  0.00     0.047 H 
ATOM     27  H   LIG d   1       5.022  -3.332  -6.510  0.00  0.00     0.047 H 
ATOM     28  H   LIG d   1       4.911  -1.650  -5.950  0.00  0.00     0.047 H 
ENDROOT
BRANCH   1  29
ATOM     29  N   LIG d   1      10.066   2.234  -5.269  0.00  0.00    -0.211 N 
ATOM     30  H   LIG d   1      10.443   2.862  -5.906  0.00  0.00     0.174 HD
BRANCH  29  31
ATOM     31  S   LIG d   1       9.895   2.667  -3.681  0.00  0.00     0.072 S 
ATOM     32  O   LIG d   1       8.626   2.181  -3.262  0.00  0.00    -0.150 OA
ATOM     33  O   LIG d   1      11.103   2.305  -3.027  0.00  0.00    -0.150 OA
BRANCH  31  34
ATOM     34  C   LIG d   1       9.802   4.427  -3.629  0.00  0.00     0.108 A 
ATOM     35  C   LIG d   1      10.137   5.102  -2.471  0.00  0.00    -0.035 A 
ATOM     36  C   LIG d   1      10.065   6.482  -2.430  0.00  0.00    -0.060 A 
ATOM     37  H   LIG d   1      10.455   4.553  -1.597  0.00  0.00     0.064 H 
ATOM     38  C   LIG d   1       9.657   7.186  -3.548  0.00  0.00    -0.062 A 
ATOM     39  H   LIG d   1      10.326   7.010  -1.525  0.00  0.00     0.062 H 
ATOM     40  C   LIG d   1       9.322   6.510  -4.706  0.00  0.00    -0.060 A 
ATOM     41  H   LIG d   1       9.602   8.264  -3.517  0.00  0.00     0.062 H 
ATOM     42  C   LIG d   1       9.400   5.130  -4.748  0.00  0.00    -0.035 A 
ATOM     43  H   LIG d   1       9.004   7.060  -5.580  0.00  0.00     0.062 H 
ATOM     44  H   LIG d   1       9.143   4.602  -5.654  0.00  0.00     0.064 H 
ENDBRANCH  31  34
ENDBRANCH  29  31
ENDBRANCH   1  29
BRANCH  17  45
ATOM     45  C   LIG d   1       5.244  -1.496  -3.644  0.00  0.00     0.126 A 
ATOM     46  N   LIG d   1       5.065  -0.213  -3.936  0.00  0.00    -0.250 NA
ATOM     47  C   LIG d   1       3.966   0.424  -3.594  0.00  0.00     0.028 A 
ATOM     48  C   LIG d   1       2.950  -0.224  -2.912  0.00  0.00    -0.044 A 
ATOM     49  H   LIG d   1       3.857   1.468  -3.848  0.00  0.00     0.083 H 
ATOM     50  C   LIG d   1       3.096  -1.564  -2.588  0.00  0.00    -0.058 A 
ATOM     51  H   LIG d   1       2.052   0.309  -2.635  0.00  0.00     0.063 H 
ATOM     52  C   LIG d   1       4.264  -2.211  -2.961  0.00  0.00    -0.031 A 
ATOM     53  H   LIG d   1       2.318  -2.092  -2.057  0.00  0.00     0.062 H 
ATOM     54  H   LIG d   1       4.411  -3.254  -2.725  0.00  0.00     0.064 H 
ENDBRANCH  17  45
TORSDOF 4
ENDMDL
MODEL 5
REMARK VINA RESULT:      -6.9      3.935      6.143
REMARK  4 active torsions:
REMARK  status: ('A' for Active; 'I' for Inactive)
REMARK    1  A    between atoms: C_4  and  S_7 
REMARK    2  A    between atoms: S_7  and  N_10 
REMARK    3  A    between atoms: N_10  and  C_11 
REMARK       I    between atoms: N_25  and  C_27 
REMARK    4  A    between atoms: C_27  and  C_29 
ROOT
ATOM      1  C   LIG d   1       7.340  -4.204  -5.094  0.00  0.00     0.112 A 
ATOM      2  C   LIG d   1       8.247  -3.399  -4.462  0.00  0.00    -0.032 A 
ATOM      3  C   LIG d   1       7.778  -2.326  -3.695  0.00  0.00    -0.040 A 
ATOM      4  C   LIG d   1       6.444  -2.101  -3.560  0.00  0.00     0.027 A 
ATOM      5  N   LIG d   1       5.542  -2.946  -4.118  0.00  0.00    -0.310 N 
ATOM      6  C   LIG d   1       5.966  -3.942  -4.935  0.00  0.00     0.274 A 
ATOM      7  O   LIG d   1       5.148  -4.617  -5.539  0.00  0.00    -0.266 OA
ATOM      8  C   LIG d   1       4.105  -2.869  -3.859  0.00  0.00     0.031 C 
ATOM      9  C   LIG d   1       3.686  -1.521  -3.304  0.00  0.00    -0.006 C 
ATOM     10  H   LIG d   1       2.690  -1.627  -2.873  0.00  0.00     0.033 H 
ATOM     11  C   LIG d   1       4.631  -1.107  -2.175  0.00  0.00    -0.037 C 
ATOM     12  C   LIG d   1       6.024  -0.882  -2.771  0.00  0.00     0.016 C 
ATOM     13  H   LIG d   1       6.752  -0.674  -1.986  0.00  0.00     0.038 H 
ATOM     14  C   LIG d   1       5.947   0.302  -3.749  0.00  0.00     0.023 C 
ATOM     15  N   LIG d   1       4.974  -0.057  -4.794  0.00  0.00    -0.295 N 
ATOM     16  C   LIG d   1       3.619  -0.446  -4.386  0.00  0.00     0.019 C 
ATOM     17  C   LIG d   1       5.318  -0.023  -6.097  0.00  0.00     0.265 C 
ATOM     18  O   LIG d   1       6.481   0.131  -6.414  0.00  0.00    -0.268 OA
ATOM     19  H   LIG d   1       9.307  -3.586  -4.553  0.00  0.00     0.064 H 
ATOM     20  H   LIG d   1       8.482  -1.670  -3.206  0.00  0.00     0.064 H 
ATOM     21  H   LIG d   1       3.569  -3.050  -4.791  0.00  0.00     0.050 H 
ATOM     22  H   LIG d   1       3.834  -3.646  -3.142  0.00  0.00     0.050 H 
ATOM     23  H   LIG d   1       4.676  -1.896  -1.425  0.00  0.00     0.028 H 
ATOM     24  H   LIG d   1       4.275  -0.184  -1.719  0.00  0.00     0.028 H 
ATOM     25  H   LIG d   1       6.924   0.478  -4.198  0.00  0.00     0.047 H 
ATOM     26  H   LIG d   1       5.612   1.197  -3.223  0.00  0.00     0.047 H 
ATOM     27  H   LIG d   1       3.093   0.427  -4.000  0.00  0.00     0.047 H 
ATOM     28  H   LIG d   1       3.081  -0.836  -5.250  0.00  0.00     0.047 H 
ENDROOT
BRANCH   1  29
ATOM     29  N   LIG d   1       7.773  -5.274  -5.888  0.00  0.00    -0.211 N 
ATOM     30  H   LIG d   1       7.690  -5.226  -6.853  0.00  0.00     0.174 HD
BRANCH  29  31
ATOM     31  S   LIG d   1       8.425  -6.621  -5.179  0.00  0.00     0.072 S 
ATOM     32  O   LIG d   1       9.301  -7.201  -6.137  0.00  0.00    -0.150 OA
ATOM     33  O   LIG d   1       8.864  -6.229  -3.886  0.00  0.00    -0.150 OA
BRANCH  31  34
ATOM     34  C   LIG d   1       7.111  -7.770  -4.939  0.00  0.00     0.108 A 
ATOM     35  C   LIG d   1       7.229  -8.765  -3.986  0.00  0.00    -0.035 A 
ATOM     36  C   LIG d   1       6.197  -9.666  -3.797  0.00  0.00    -0.060 A 
ATOM     37  H   LIG d   1       8.125  -8.838  -3.389  0.00  0.00     0.064 H 
ATOM     38  C   LIG d   1       5.048  -9.571  -4.561  0.00  0.00    -0.062 A 
ATOM     39  H   LIG d   1       6.289 -10.443  -3.053  0.00  0.00     0.062 H 
ATOM     40  C   LIG d   1       4.932  -8.577  -5.513  0.00  0.00    -0.060 A 
ATOM     41  H   LIG d   1       4.243 -10.275  -4.412  0.00  0.00     0.062 H 
ATOM     42  C   LIG d   1       5.961  -7.673  -5.698  0.00  0.00    -0.035 A 
ATOM     43  H   LIG d   1       4.034  -8.503  -6.110  0.00  0.00     0.062 H 
ATOM     44  H   LIG d   1       5.867  -6.893  -6.439  0.00  0.00     0.064 H 
ENDBRANCH  31  34
ENDBRANCH  29  31
ENDBRANCH   1  29
BRANCH  17  45
ATOM     45  C   LIG d   1       4.278  -0.174  -7.142  0.00  0.00     0.126 A 
ATOM     46  N   LIG d   1       3.621   0.896  -7.573  0.00  0.00    -0.250 NA
ATOM     47  C   LIG d   1       2.694   0.806  -8.504  0.00  0.00     0.028 A 
ATOM     48  C   LIG d   1       2.370  -0.416  -9.069  0.00  0.00    -0.044 A 
ATOM     49  H   LIG d   1       2.180   1.698  -8.829  0.00  0.00     0.083 H 
ATOM     50  C   LIG d   1       3.033  -1.558  -8.649  0.00  0.00    -0.058 A 
ATOM     51  H   LIG d   1       1.607  -0.478  -9.832  0.00  0.00     0.063 H 
ATOM     52  C   LIG d   1       4.005  -1.434  -7.667  0.00  0.00    -0.031 A 
ATOM     53  H   LIG d   1       2.799  -2.522  -9.075  0.00  0.00     0.062 H 
ATOM     54  H   LIG d   1       4.541  -2.302  -7.315  0.00  0.00     0.064 H 
ENDBRANCH  17  45
TORSDOF 4
ENDMDL
MODEL 6
REMARK VINA RESULT:      -6.8      2.653      3.752
REMARK  4 active torsions:
REMARK  status: ('A' for Active; 'I' for Inactive)
REMARK    1  A    between atoms: C_4  and  S_7 
REMARK    2  A    between atoms: S_7  and  N_10 
REMARK    3  A    between atoms: N_10  and  C_11 
REMARK       I    between atoms: N_25  and  C_27 
REMARK    4  A    between atoms: C_27  and  C_29 
ROOT
ATOM      1  C   LIG d   1       7.187   0.766  -6.948  0.00  0.00     0.112 A 
ATOM      2  C   LIG d   1       8.251   0.771  -7.806  0.00  0.00    -0.032 A 
ATOM      3  C   LIG d   1       8.151   0.065  -9.010  0.00  0.00    -0.040 A 
ATOM      4  C   LIG d   1       7.009  -0.596  -9.333  0.00  0.00     0.027 A 
ATOM      5  N   LIG d   1       5.924  -0.536  -8.523  0.00  0.00    -0.310 N 
ATOM      6  C   LIG d   1       6.019   0.070  -7.312  0.00  0.00     0.274 A 
ATOM      7  O   LIG d   1       5.082   0.008  -6.531  0.00  0.00    -0.266 OA
ATOM      8  C   LIG d   1       4.613  -1.065  -8.896  0.00  0.00     0.031 C 
ATOM      9  C   LIG d   1       4.694  -2.067 -10.033  0.00  0.00    -0.006 C 
ATOM     10  H   LIG d   1       3.692  -2.195 -10.443  0.00  0.00     0.033 H 
ATOM     11  C   LIG d   1       5.578  -1.512 -11.151  0.00  0.00    -0.037 C 
ATOM     12  C   LIG d   1       7.009  -1.390 -10.619  0.00  0.00     0.016 C 
ATOM     13  H   LIG d   1       7.655  -0.912 -11.356  0.00  0.00     0.038 H 
ATOM     14  C   LIG d   1       7.526  -2.802 -10.296  0.00  0.00     0.023 C 
ATOM     15  N   LIG d   1       6.629  -3.374  -9.279  0.00  0.00    -0.295 N 
ATOM     16  C   LIG d   1       5.191  -3.432  -9.566  0.00  0.00     0.019 C 
ATOM     17  C   LIG d   1       7.117  -3.840  -8.112  0.00  0.00     0.265 C 
ATOM     18  O   LIG d   1       8.276  -3.632  -7.813  0.00  0.00    -0.268 OA
ATOM     19  H   LIG d   1       9.154   1.312  -7.560  0.00  0.00     0.064 H 
ATOM     20  H   LIG d   1       8.991   0.044  -9.689  0.00  0.00     0.064 H 
ATOM     21  H   LIG d   1       4.169  -1.552  -8.027  0.00  0.00     0.050 H 
ATOM     22  H   LIG d   1       3.971  -0.237  -9.200  0.00  0.00     0.050 H 
ATOM     23  H   LIG d   1       5.214  -0.531 -11.455  0.00  0.00     0.028 H 
ATOM     24  H   LIG d   1       5.560  -2.192 -12.003  0.00  0.00     0.028 H 
ATOM     25  H   LIG d   1       8.541  -2.745  -9.904  0.00  0.00     0.047 H 
ATOM     26  H   LIG d   1       7.509  -3.419 -11.195  0.00  0.00     0.047 H 
ATOM     27  H   LIG d   1       5.008  -4.172 -10.346  0.00  0.00     0.047 H 
ATOM     28  H   LIG d   1       4.654  -3.723  -8.663  0.00  0.00     0.047 H 
ENDROOT
BRANCH   1  29
ATOM     29  N   LIG d   1       7.258   1.444  -5.724  0.00  0.00    -0.211 N 
ATOM     30  H   LIG d   1       6.970   2.369  -5.665  0.00  0.00     0.174 HD
BRANCH  29  31
ATOM     31  S   LIG d   1       7.834   0.669  -4.379  0.00  0.00     0.072 S 
ATOM     32  O   LIG d   1       8.453  -0.527  -4.834  0.00  0.00    -0.150 OA
ATOM     33  O   LIG d   1       8.530   1.643  -3.614  0.00  0.00    -0.150 OA
BRANCH  31  34
ATOM     34  C   LIG d   1       6.437   0.180  -3.422  0.00  0.00     0.108 A 
ATOM     35  C   LIG d   1       6.132  -1.160  -3.280  0.00  0.00    -0.035 A 
ATOM     36  C   LIG d   1       5.036  -1.543  -2.529  0.00  0.00    -0.060 A 
ATOM     37  H   LIG d   1       6.748  -1.908  -3.756  0.00  0.00     0.064 H 
ATOM     38  C   LIG d   1       4.247  -0.585  -1.920  0.00  0.00    -0.062 A 
ATOM     39  H   LIG d   1       4.797  -2.590  -2.418  0.00  0.00     0.062 H 
ATOM     40  C   LIG d   1       4.553   0.755  -2.062  0.00  0.00    -0.060 A 
ATOM     41  H   LIG d   1       3.391  -0.885  -1.332  0.00  0.00     0.062 H 
ATOM     42  C   LIG d   1       5.652   1.137  -2.809  0.00  0.00    -0.035 A 
ATOM     43  H   LIG d   1       3.936   1.503  -1.586  0.00  0.00     0.062 H 
ATOM     44  H   LIG d   1       5.893   2.184  -2.916  0.00  0.00     0.064 H 
ENDBRANCH  31  34
ENDBRANCH  29  31
ENDBRANCH   1  29
BRANCH  17  45
ATOM     45  C   LIG d   1       6.241  -4.606  -7.195  0.00  0.00     0.126 A 
ATOM     46  N   LIG d   1       6.050  -5.903  -7.399  0.00  0.00    -0.250 NA
ATOM     47  C   LIG d   1       5.285  -6.621  -6.605  0.00  0.00     0.028 A 
ATOM     48  C   LIG d   1       4.645  -6.043  -5.521  0.00  0.00    -0.044 A 
ATOM     49  H   LIG d   1       5.153  -7.674  -6.803  0.00  0.00     0.083 H 
ATOM     50  C   LIG d   1       4.818  -4.691  -5.271  0.00  0.00    -0.058 A 
ATOM     51  H   LIG d   1       4.018  -6.641  -4.875  0.00  0.00     0.063 H 
ATOM     52  C   LIG d   1       5.630  -3.959  -6.123  0.00  0.00    -0.031 A 
ATOM     53  H   LIG d   1       4.331  -4.217  -4.431  0.00  0.00     0.062 H 
ATOM     54  H   LIG d   1       5.787  -2.904  -5.959  0.00  0.00     0.064 H 
ENDBRANCH  17  45
TORSDOF 4
ENDMDL
MODEL 7
REMARK VINA RESULT:      -6.7     10.338     13.775
REMARK  4 active torsions:
REMARK  status: ('A' for Active; 'I' for Inactive)
REMARK    1  A    between atoms: C_4  and  S_7 
REMARK    2  A    between atoms: S_7  and  N_10 
REMARK    3  A    between atoms: N_10  and  C_11 
REMARK       I    between atoms: N_25  and  C_27 
REMARK    4  A    between atoms: C_27  and  C_29 
ROOT
ATOM      1  C   LIG d   1      10.664   6.528  -0.677  0.00  0.00     0.112 A 
ATOM      2  C   LIG d   1      11.948   6.492  -0.208  0.00  0.00    -0.032 A 
ATOM      3  C   LIG d   1      12.525   7.674   0.271  0.00  0.00    -0.040 A 
ATOM      4  C   LIG d   1      11.816   8.833   0.292  0.00  0.00     0.027 A 
ATOM      5  N   LIG d   1      10.517   8.854  -0.096  0.00  0.00    -0.310 N 
ATOM      6  C   LIG d   1       9.958   7.745  -0.643  0.00  0.00     0.274 A 
ATOM      7  O   LIG d   1       8.832   7.805  -1.111  0.00  0.00    -0.266 OA
ATOM      8  C   LIG d   1       9.648  10.017   0.075  0.00  0.00     0.031 C 
ATOM      9  C   LIG d   1      10.430  11.301   0.285  0.00  0.00    -0.006 C 
ATOM     10  H   LIG d   1       9.747  12.051   0.685  0.00  0.00     0.033 H 
ATOM     11  C   LIG d   1      11.525  11.076   1.329  0.00  0.00    -0.037 C 
ATOM     12  C   LIG d   1      12.536  10.076   0.760  0.00  0.00     0.016 C 
ATOM     13  H   LIG d   1      13.286   9.817   1.507  0.00  0.00     0.038 H 
ATOM     14  C   LIG d   1      13.208  10.715  -0.467  0.00  0.00     0.023 C 
ATOM     15  N   LIG d   1      12.148  11.011  -1.443  0.00  0.00    -0.295 N 
ATOM     16  C   LIG d   1      11.014  11.841  -1.017  0.00  0.00     0.019 C 
ATOM     17  C   LIG d   1      12.217  10.536  -2.702  0.00  0.00     0.265 C 
ATOM     18  O   LIG d   1      13.063   9.714  -2.995  0.00  0.00    -0.268 OA
ATOM     19  H   LIG d   1      12.508   5.568  -0.207  0.00  0.00     0.064 H 
ATOM     20  H   LIG d   1      13.545   7.665   0.626  0.00  0.00     0.064 H 
ATOM     21  H   LIG d   1       9.024  10.125  -0.814  0.00  0.00     0.050 H 
ATOM     22  H   LIG d   1       9.002   9.852   0.938  0.00  0.00     0.050 H 
ATOM     23  H   LIG d   1      11.085  10.674   2.242  0.00  0.00     0.028 H 
ATOM     24  H   LIG d   1      12.025  12.020   1.545  0.00  0.00     0.028 H 
ATOM     25  H   LIG d   1      13.927  10.021  -0.901  0.00  0.00     0.047 H 
ATOM     26  H   LIG d   1      13.713  11.638  -0.176  0.00  0.00     0.047 H 
ATOM     27  H   LIG d   1      11.354  12.865  -0.865  0.00  0.00     0.047 H 
ATOM     28  H   LIG d   1      10.247  11.829  -1.791  0.00  0.00     0.047 H 
ENDROOT
BRANCH   1  29
ATOM     29  N   LIG d   1      10.060   5.370  -1.184  0.00  0.00    -0.211 N 
ATOM     30  H   LIG d   1       9.316   4.964  -0.712  0.00  0.00     0.174 HD
BRANCH  29  31
ATOM     31  S   LIG d   1      10.617   4.691  -2.588  0.00  0.00     0.072 S 
ATOM     32  O   LIG d   1      11.994   4.401  -2.381  0.00  0.00    -0.150 OA
ATOM     33  O   LIG d   1       9.676   3.694  -2.959  0.00  0.00    -0.150 OA
BRANCH  31  34
ATOM     34  C   LIG d   1      10.548   5.938  -3.832  0.00  0.00     0.108 A 
ATOM     35  C   LIG d   1      11.711   6.536  -4.276  0.00  0.00    -0.035 A 
ATOM     36  C   LIG d   1      11.657   7.514  -5.252  0.00  0.00    -0.060 A 
ATOM     37  H   LIG d   1      12.663   6.241  -3.861  0.00  0.00     0.064 H 
ATOM     38  C   LIG d   1      10.437   7.892  -5.783  0.00  0.00    -0.062 A 
ATOM     39  H   LIG d   1      12.566   7.982  -5.599  0.00  0.00     0.062 H 
ATOM     40  C   LIG d   1       9.274   7.293  -5.338  0.00  0.00    -0.060 A 
ATOM     41  H   LIG d   1      10.395   8.655  -6.546  0.00  0.00     0.062 H 
ATOM     42  C   LIG d   1       9.330   6.312  -4.367  0.00  0.00    -0.035 A 
ATOM     43  H   LIG d   1       8.321   7.589  -5.754  0.00  0.00     0.062 H 
ATOM     44  H   LIG d   1       8.421   5.841  -4.023  0.00  0.00     0.064 H 
ENDBRANCH  31  34
ENDBRANCH  29  31
ENDBRANCH   1  29
BRANCH  17  45
ATOM     45  C   LIG d   1      11.263  11.015  -3.730  0.00  0.00     0.126 A 
ATOM     46  N   LIG d   1      11.693  11.799  -4.711  0.00  0.00    -0.250 NA
ATOM     47  C   LIG d   1      10.880  12.242  -5.646  0.00  0.00     0.028 A 
ATOM     48  C   LIG d   1       9.537  11.905  -5.639  0.00  0.00    -0.044 A 
ATOM     49  H   LIG d   1      11.267  12.879  -6.428  0.00  0.00     0.083 H 
ATOM     50  C   LIG d   1       9.046  11.088  -4.633  0.00  0.00    -0.058 A 
ATOM     51  H   LIG d   1       8.878  12.275  -6.411  0.00  0.00     0.063 H 
ATOM     52  C   LIG d   1       9.925  10.635  -3.661  0.00  0.00    -0.031 A 
ATOM     53  H   LIG d   1       8.003  10.810  -4.606  0.00  0.00     0.062 H 
ATOM     54  H   LIG d   1       9.577   9.997  -2.862  0.00  0.00     0.064 H 
ENDBRANCH  17  45
TORSDOF 4
ENDMDL
MODEL 8
REMARK VINA RESULT:      -6.6      4.703      7.445
REMARK  4 active torsions:
REMARK  status: ('A' for Active; 'I' for Inactive)
REMARK    1  A    between atoms: C_4  and  S_7 
REMARK    2  A    between atoms: S_7  and  N_10 
REMARK    3  A    between atoms: N_10  and  C_11 
REMARK       I    between atoms: N_25  and  C_27 
REMARK    4  A    between atoms: C_27  and  C_29 
ROOT
ATOM      1  C   LIG d   1      10.921   1.722  -3.963  0.00  0.00     0.112 A 
ATOM      2  C   LIG d   1      11.683   0.732  -4.517  0.00  0.00    -0.032 A 
ATOM      3  C   LIG d   1      11.149  -0.023  -5.568  0.00  0.00    -0.040 A 
ATOM      4  C   LIG d   1       9.904   0.237  -6.046  0.00  0.00     0.027 A 
ATOM      5  N   LIG d   1       9.179   1.272  -5.554  0.00  0.00    -0.310 N 
ATOM      6  C   LIG d   1       9.635   1.965  -4.481  0.00  0.00     0.274 A 
ATOM      7  O   LIG d   1       8.922   2.807  -3.959  0.00  0.00    -0.266 OA
ATOM      8  C   LIG d   1       7.919   1.720  -6.145  0.00  0.00     0.031 C 
ATOM      9  C   LIG d   1       7.287   0.667  -7.035  0.00  0.00    -0.006 C 
ATOM     10  H   LIG d   1       6.533   1.154  -7.653  0.00  0.00     0.033 H 
ATOM     11  C   LIG d   1       8.342   0.084  -7.977  0.00  0.00    -0.037 C 
ATOM     12  C   LIG d   1       9.377  -0.668  -7.135  0.00  0.00     0.016 C 
ATOM     13  H   LIG d   1      10.198  -1.023  -7.759  0.00  0.00     0.038 H 
ATOM     14  C   LIG d   1       8.676  -1.856  -6.455  0.00  0.00     0.023 C 
ATOM     15  N   LIG d   1       7.604  -1.306  -5.610  0.00  0.00    -0.295 N 
ATOM     16  C   LIG d   1       6.600  -0.434  -6.232  0.00  0.00     0.019 C 
ATOM     17  C   LIG d   1       7.541  -1.600  -4.297  0.00  0.00     0.265 C 
ATOM     18  O   LIG d   1       8.466  -2.177  -3.759  0.00  0.00    -0.268 OA
ATOM     19  H   LIG d   1      12.681   0.534  -4.151  0.00  0.00     0.064 H 
ATOM     20  H   LIG d   1      11.732  -0.822  -6.003  0.00  0.00     0.064 H 
ATOM     21  H   LIG d   1       7.222   1.968  -5.343  0.00  0.00     0.050 H 
ATOM     22  H   LIG d   1       8.106   2.617  -6.736  0.00  0.00     0.050 H 
ATOM     23  H   LIG d   1       8.830   0.888  -8.526  0.00  0.00     0.028 H 
ATOM     24  H   LIG d   1       7.869  -0.605  -8.677  0.00  0.00     0.028 H 
ATOM     25  H   LIG d   1       9.388  -2.405  -5.839  0.00  0.00     0.047 H 
ATOM     26  H   LIG d   1       8.251  -2.519  -7.210  0.00  0.00     0.047 H 
ATOM     27  H   LIG d   1       5.967  -1.026  -6.893  0.00  0.00     0.047 H 
ATOM     28  H   LIG d   1       5.984   0.018  -5.455  0.00  0.00     0.047 H 
ENDROOT
BRANCH   1  29
ATOM     29  N   LIG d   1      11.414   2.484  -2.896  0.00  0.00    -0.211 N 
ATOM     30  H   LIG d   1      11.290   2.178  -1.984  0.00  0.00     0.174 HD
BRANCH  29  31
ATOM     31  S   LIG d   1      12.208   3.907  -3.191  0.00  0.00     0.072 S 
ATOM     32  O   LIG d   1      13.581   3.673  -2.906  0.00  0.00    -0.150 OA
ATOM     33  O   LIG d   1      11.761   4.368  -4.458  0.00  0.00    -0.150 OA
BRANCH  31  34
ATOM     34  C   LIG d   1      11.640   5.076  -2.000  0.00  0.00     0.108 A 
ATOM     35  C   LIG d   1      10.421   5.703  -2.175  0.00  0.00    -0.035 A 
ATOM     36  C   LIG d   1       9.975   6.619  -1.240  0.00  0.00    -0.060 A 
ATOM     37  H   LIG d   1       9.816   5.478  -3.041  0.00  0.00     0.064 H 
ATOM     38  C   LIG d   1      10.749   6.908  -0.132  0.00  0.00    -0.062 A 
ATOM     39  H   LIG d   1       9.022   7.110  -1.377  0.00  0.00     0.062 H 
ATOM     40  C   LIG d   1      11.968   6.281   0.042  0.00  0.00    -0.060 A 
ATOM     41  H   LIG d   1      10.400   7.623   0.598  0.00  0.00     0.062 H 
ATOM     42  C   LIG d   1      12.410   5.360  -0.889  0.00  0.00    -0.035 A 
ATOM     43  H   LIG d   1      12.572   6.506   0.909  0.00  0.00     0.062 H 
ATOM     44  H   LIG d   1      13.361   4.867  -0.750  0.00  0.00     0.064 H 
ENDBRANCH  31  34
ENDBRANCH  29  31
ENDBRANCH   1  29
BRANCH  17  45
ATOM     45  C   LIG d   1       6.345  -1.222  -3.508  0.00  0.00     0.126 A 
ATOM     46  N   LIG d   1       6.227   0.018  -3.049  0.00  0.00    -0.250 NA
ATOM     47  C   LIG d   1       5.178   0.396  -2.348  0.00  0.00     0.028 A 
ATOM     48  C   LIG d   1       4.155  -0.493  -2.064  0.00  0.00    -0.044 A 
ATOM     49  H   LIG d   1       5.117   1.413  -1.990  0.00  0.00     0.083 H 
ATOM     50  C   LIG d   1       4.238  -1.797  -2.525  0.00  0.00    -0.058 A 
ATOM     51  H   LIG d   1       3.299  -0.172  -1.488  0.00  0.00     0.063 H 
ATOM     52  C   LIG d   1       5.354  -2.168  -3.261  0.00  0.00    -0.031 A 
ATOM     53  H   LIG d   1       3.453  -2.508  -2.317  0.00  0.00     0.062 H 
ATOM     54  H   LIG d   1       5.452  -3.175  -3.636  0.00  0.00     0.064 H 
ENDBRANCH  17  45
TORSDOF 4
ENDMDL
MODEL 9
REMARK VINA RESULT:      -6.6      2.789      6.045
REMARK  4 active torsions:
REMARK  status: ('A' for Active; 'I' for Inactive)
REMARK    1  A    between atoms: C_4  and  S_7 
REMARK    2  A    between atoms: S_7  and  N_10 
REMARK    3  A    between atoms: N_10  and  C_11 
REMARK       I    between atoms: N_25  and  C_27 
REMARK    4  A    between atoms: C_27  and  C_29 
ROOT
ATOM      1  C   LIG d   1       6.566  -4.715  -5.249  0.00  0.00     0.112 A 
ATOM      2  C   LIG d   1       7.722  -4.143  -4.796  0.00  0.00    -0.032 A 
ATOM      3  C   LIG d   1       7.649  -2.933  -4.096  0.00  0.00    -0.040 A 
ATOM      4  C   LIG d   1       6.448  -2.347  -3.849  0.00  0.00     0.027 A 
ATOM      5  N   LIG d   1       5.294  -2.953  -4.225  0.00  0.00    -0.310 N 
ATOM      6  C   LIG d   1       5.339  -4.081  -4.977  0.00  0.00     0.274 A 
ATOM      7  O   LIG d   1       4.304  -4.550  -5.424  0.00  0.00    -0.266 OA
ATOM      8  C   LIG d   1       3.971  -2.473  -3.830  0.00  0.00     0.031 C 
ATOM      9  C   LIG d   1       3.990  -1.026  -3.373  0.00  0.00    -0.006 C 
ATOM     10  H   LIG d   1       3.063  -0.829  -2.835  0.00  0.00     0.033 H 
ATOM     11  C   LIG d   1       5.144  -0.806  -2.394  0.00  0.00    -0.037 C 
ATOM     12  C   LIG d   1       6.462  -1.009  -3.147  0.00  0.00     0.016 C 
ATOM     13  H   LIG d   1       7.310  -0.952  -2.465  0.00  0.00     0.038 H 
ATOM     14  C   LIG d   1       6.574   0.082  -4.226  0.00  0.00     0.023 C 
ATOM     15  N   LIG d   1       5.419  -0.072  -5.125  0.00  0.00    -0.295 N 
ATOM     16  C   LIG d   1       4.071  -0.052  -4.545  0.00  0.00     0.019 C 
ATOM     17  C   LIG d   1       5.594  -0.223  -6.453  0.00  0.00     0.265 C 
ATOM     18  O   LIG d   1       6.708  -0.411  -6.901  0.00  0.00    -0.268 OA
ATOM     19  H   LIG d   1       8.677  -4.616  -4.975  0.00  0.00     0.064 H 
ATOM     20  H   LIG d   1       8.555  -2.460  -3.749  0.00  0.00     0.064 H 
ATOM     21  H   LIG d   1       3.294  -2.566  -4.680  0.00  0.00     0.050 H 
ATOM     22  H   LIG d   1       3.598  -3.096  -3.015  0.00  0.00     0.050 H 
ATOM     23  H   LIG d   1       5.074  -1.524  -1.577  0.00  0.00     0.028 H 
ATOM     24  H   LIG d   1       5.100   0.208  -1.998  0.00  0.00     0.028 H 
ATOM     25  H   LIG d   1       7.499  -0.044  -4.787  0.00  0.00     0.047 H 
ATOM     26  H   LIG d   1       6.553   1.068  -3.761  0.00  0.00     0.047 H 
ATOM     27  H   LIG d   1       3.843   0.956  -4.197  0.00  0.00     0.047 H 
ATOM     28  H   LIG d   1       3.346  -0.340  -5.306  0.00  0.00     0.047 H 
ENDROOT
BRANCH   1  29
ATOM     29  N   LIG d   1       6.603  -5.915  -5.971  0.00  0.00    -0.211 N 
ATOM     30  H   LIG d   1       6.363  -6.749  -5.538  0.00  0.00     0.174 HD
BRANCH  29  31
ATOM     31  S   LIG d   1       7.055  -5.909  -7.564  0.00  0.00     0.072 S 
ATOM     32  O   LIG d   1       7.968  -4.831  -7.723  0.00  0.00    -0.150 OA
ATOM     33  O   LIG d   1       7.393  -7.248  -7.896  0.00  0.00    -0.150 OA
BRANCH  31  34
ATOM     34  C   LIG d   1       5.625  -5.501  -8.510  0.00  0.00     0.108 A 
ATOM     35  C   LIG d   1       4.452  -6.210  -8.330  0.00  0.00    -0.035 A 
ATOM     36  C   LIG d   1       3.330  -5.889  -9.071  0.00  0.00    -0.060 A 
ATOM     37  H   LIG d   1       4.412  -7.014  -7.610  0.00  0.00     0.064 H 
ATOM     38  C   LIG d   1       3.382  -4.860  -9.992  0.00  0.00    -0.062 A 
ATOM     39  H   LIG d   1       2.414  -6.443  -8.931  0.00  0.00     0.062 H 
ATOM     40  C   LIG d   1       4.555  -4.151 -10.172  0.00  0.00    -0.060 A 
ATOM     41  H   LIG d   1       2.505  -4.609 -10.571  0.00  0.00     0.062 H 
ATOM     42  C   LIG d   1       5.675  -4.468  -9.426  0.00  0.00    -0.035 A 
ATOM     43  H   LIG d   1       4.595  -3.347 -10.892  0.00  0.00     0.062 H 
ATOM     44  H   LIG d   1       6.589  -3.912  -9.564  0.00  0.00     0.064 H 
ENDBRANCH  31  34
ENDBRANCH  29  31
ENDBRANCH   1  29
BRANCH  17  45
ATOM     45  C   LIG d   1       4.430  -0.158  -7.367  0.00  0.00     0.126 A 
ATOM     46  N   LIG d   1       3.939   1.022  -7.724  0.00  0.00    -0.250 NA
ATOM     47  C   LIG d   1       2.910   1.123  -8.538  0.00  0.00     0.028 A 
ATOM     48  C   LIG d   1       2.297  -0.007  -9.053  0.00  0.00    -0.044 A 
ATOM     49  H   LIG d   1       2.538   2.101  -8.805  0.00  0.00     0.083 H 
ATOM     50  C   LIG d   1       2.778  -1.260  -8.706  0.00  0.00    -0.058 A 
ATOM     51  H   LIG d   1       1.452   0.087  -9.720  0.00  0.00     0.063 H 
ATOM     52  C   LIG d   1       3.864  -1.336  -7.848  0.00  0.00    -0.031 A 
ATOM     53  H   LIG d   1       2.317  -2.156  -9.095  0.00  0.00     0.062 H 
ATOM     54  H   LIG d   1       4.264  -2.296  -7.556  0.00  0.00     0.064 H 
ENDBRANCH  17  45
TORSDOF 4
ENDMDL
