MODEL 1
REMARK VINA RESULT:      -6.9      0.000      0.000
REMARK  5 active torsions:
REMARK  status: ('A' for Active; 'I' for Inactive)
REMARK    1  A    between atoms: C_1  and  N_2 
REMARK    2  A    between atoms: C_9  and  C_14 
REMARK    3  A    between atoms: C_14  and  O_15 
REMARK    4  A    between atoms: O_15  and  C_16 
REMARK    5  A    between atoms: C_16  and  C_18 
ROOT
ATOM      1  N   LIG d   1       4.485   0.000  -9.587  0.00  0.00     0.244 N 
ATOM      2  C   LIG d   1       3.993   1.018 -10.541  0.00  0.00    -0.030 C 
ATOM      3  C   LIG d   1       3.674   2.334  -9.847  0.00  0.00    -0.012 C 
ATOM      4  C   LIG d   1       2.651   2.117  -8.730  0.00  0.00    -0.043 C 
ATOM      5  C   LIG d   1       3.174   1.040  -7.774  0.00  0.00    -0.009 C 
ATOM      6  C   LIG d   1       3.462  -0.229  -8.578  0.00  0.00    -0.013 C 
ATOM      7  H   LIG d   1       2.519  -0.446  -9.145  0.00  0.00     0.086 H 
ATOM      8  C   LIG d   1       3.685  -1.412  -7.658  0.00  0.00     0.036 C 
ATOM      9  H   LIG d   1       2.713  -1.631  -7.160  0.00  0.00     0.039 H 
ATOM     10  C   LIG d   1       4.066  -2.672  -8.430  0.00  0.00    -0.037 C 
ATOM     11  C   LIG d   1       5.167  -2.369  -9.444  0.00  0.00    -0.012 C 
ATOM     12  C   LIG d   1       4.729  -1.230 -10.359  0.00  0.00    -0.030 C 
ATOM     13  H   LIG d   1       4.763   1.183 -11.298  0.00  0.00     0.082 H 
ATOM     14  H   LIG d   1       3.095   0.634 -11.028  0.00  0.00     0.082 H 
ATOM     15  H   LIG d   1       4.575   2.793  -9.443  0.00  0.00     0.032 H 
ATOM     16  H   LIG d   1       3.246   3.029 -10.583  0.00  0.00     0.032 H 
ATOM     17  H   LIG d   1       2.503   3.047  -8.180  0.00  0.00     0.027 H 
ATOM     18  H   LIG d   1       1.702   1.791  -9.157  0.00  0.00     0.027 H 
ATOM     19  H   LIG d   1       2.400   0.827  -7.031  0.00  0.00     0.032 H 
ATOM     20  H   LIG d   1       4.060   1.405  -7.268  0.00  0.00     0.032 H 
ATOM     21  H   LIG d   1       4.415  -3.435  -7.729  0.00  0.00     0.027 H 
ATOM     22  H   LIG d   1       3.185  -3.056  -8.953  0.00  0.00     0.027 H 
ATOM     23  H   LIG d   1       5.339  -3.264 -10.057  0.00  0.00     0.032 H 
ATOM     24  H   LIG d   1       6.098  -2.129  -8.936  0.00  0.00     0.032 H 
ATOM     25  H   LIG d   1       3.813  -1.513 -10.878  0.00  0.00     0.082 H 
ATOM     26  H   LIG d   1       5.510  -1.037 -11.097  0.00  0.00     0.082 H 
ENDROOT
BRANCH   8  27
ATOM     27  C   LIG d   1       4.690  -1.140  -6.545  0.00  0.00     0.101 C 
ATOM     28  H   LIG d   1       4.256  -0.446  -5.825  0.00  0.00     0.070 H 
ATOM     29  H   LIG d   1       5.594  -0.705  -6.970  0.00  0.00     0.070 H 
BRANCH  27  30
ATOM     30  O   LIG d   1       5.021  -2.387  -5.878  0.00  0.00    -0.461 OA
BRANCH  30  31
ATOM     31  C   LIG d   1       4.575  -2.541  -4.616  0.00  0.00     0.341 C 
ATOM     32  O   LIG d   1       4.326  -3.651  -4.190  0.00  0.00    -0.245 OA
BRANCH  31  33
ATOM     33  C   LIG d   1       4.390  -1.360  -3.750  0.00  0.00     0.077 A 
ATOM     34  C   LIG d   1       5.495  -0.751  -3.148  0.00  0.00     0.055 A 
ATOM     35  C   LIG d   1       5.313   0.354  -2.338  0.00  0.00    -0.043 A 
ATOM     36 CL   LIG d   1       7.090  -1.380  -3.416  0.00  0.00    -0.083 Cl
ATOM     37  C   LIG d   1       4.043   0.856  -2.125  0.00  0.00    -0.060 A 
ATOM     38  H   LIG d   1       6.165   0.827  -1.872  0.00  0.00     0.063 H 
ATOM     39  C   LIG d   1       2.946   0.261  -2.722  0.00  0.00    -0.061 A 
ATOM     40  H   LIG d   1       3.907   1.721  -1.491  0.00  0.00     0.062 H 
ATOM     41  C   LIG d   1       3.110  -0.845  -3.528  0.00  0.00    -0.046 A 
ATOM     42  H   LIG d   1       1.957   0.661  -2.553  0.00  0.00     0.062 H 
ATOM     43  H   LIG d   1       2.253  -1.312  -3.990  0.00  0.00     0.063 H 
ENDBRANCH  31  33
ENDBRANCH  30  31
ENDBRANCH  27  30
ENDBRANCH   8  27
BRANCH   1  44
ATOM     44  C   LIG d   1       5.755   0.479  -9.032  0.00  0.00    -0.041 C 
ATOM     45  H   LIG d   1       6.535   0.401  -9.788  0.00  0.00     0.078 H 
ATOM     46  H   LIG d   1       5.647   1.521  -8.727  0.00  0.00     0.078 H 
ATOM     47  H   LIG d   1       6.024  -0.125  -8.165  0.00  0.00     0.078 H 
ENDBRANCH   1  44
TORSDOF 5
ENDMDL
MODEL 2
REMARK VINA RESULT:      -6.7      2.126      3.396
REMARK  5 active torsions:
REMARK  status: ('A' for Active; 'I' for Inactive)
REMARK    1  A    between atoms: C_1  and  N_2 
REMARK    2  A    between atoms: C_9  and  C_14 
REMARK    3  A    between atoms: C_14  and  O_15 
REMARK    4  A    between atoms: O_15  and  C_16 
REMARK    5  A    between atoms: C_16  and  C_18 
ROOT
ATOM      1  N   LIG d   1       3.273  -0.590 -10.504  0.00  0.00     0.244 N 
ATOM      2  C   LIG d   1       3.510  -1.603 -11.555  0.00  0.00    -0.030 C 
ATOM      3  C   LIG d   1       3.092  -2.995 -11.100  0.00  0.00    -0.012 C 
ATOM      4  C   LIG d   1       3.827  -3.382  -9.815  0.00  0.00    -0.043 C 
ATOM      5  C   LIG d   1       3.586  -2.301  -8.756  0.00  0.00    -0.009 C 
ATOM      6  C   LIG d   1       4.038  -0.953  -9.321  0.00  0.00    -0.013 C 
ATOM      7  H   LIG d   1       5.089  -1.114  -9.675  0.00  0.00     0.086 H 
ATOM      8  C   LIG d   1       4.113   0.092  -8.227  0.00  0.00     0.036 C 
ATOM      9  H   LIG d   1       4.946  -0.200  -7.548  0.00  0.00     0.039 H 
ATOM     10  C   LIG d   1       4.471   1.469  -8.779  0.00  0.00    -0.037 C 
ATOM     11  C   LIG d   1       3.609   1.803  -9.994  0.00  0.00    -0.012 C 
ATOM     12  C   LIG d   1       3.740   0.700 -11.040  0.00  0.00    -0.030 C 
ATOM     13  H   LIG d   1       2.938  -1.323 -12.442  0.00  0.00     0.082 H 
ATOM     14  H   LIG d   1       4.572  -1.604 -11.806  0.00  0.00     0.082 H 
ATOM     15  H   LIG d   1       2.016  -3.050 -10.946  0.00  0.00     0.032 H 
ATOM     16  H   LIG d   1       3.355  -3.718 -11.885  0.00  0.00     0.032 H 
ATOM     17  H   LIG d   1       3.450  -4.337  -9.449  0.00  0.00     0.027 H 
ATOM     18  H   LIG d   1       4.896  -3.464 -10.011  0.00  0.00     0.027 H 
ATOM     19  H   LIG d   1       4.185  -2.540  -7.872  0.00  0.00     0.032 H 
ATOM     20  H   LIG d   1       2.538  -2.291  -8.481  0.00  0.00     0.032 H 
ATOM     21  H   LIG d   1       4.314   2.223  -8.001  0.00  0.00     0.027 H 
ATOM     22  H   LIG d   1       5.526   1.481  -9.066  0.00  0.00     0.027 H 
ATOM     23  H   LIG d   1       3.965   2.746 -10.432  0.00  0.00     0.032 H 
ATOM     24  H   LIG d   1       2.572   1.944  -9.699  0.00  0.00     0.032 H 
ATOM     25  H   LIG d   1       4.784   0.606 -11.339  0.00  0.00     0.082 H 
ATOM     26  H   LIG d   1       3.141   0.959 -11.915  0.00  0.00     0.082 H 
ENDROOT
BRANCH   8  27
ATOM     27  C   LIG d   1       2.859   0.168  -7.366  0.00  0.00     0.101 C 
ATOM     28  H   LIG d   1       2.440  -0.831  -7.244  0.00  0.00     0.070 H 
ATOM     29  H   LIG d   1       2.125   0.813  -7.849  0.00  0.00     0.070 H 
BRANCH  27  30
ATOM     30  O   LIG d   1       3.199   0.714  -6.063  0.00  0.00    -0.461 OA
BRANCH  30  31
ATOM     31  C   LIG d   1       2.518   0.235  -5.004  0.00  0.00     0.341 C 
ATOM     32  O   LIG d   1       1.305   0.179  -5.035  0.00  0.00    -0.245 OA
BRANCH  31  33
ATOM     33  C   LIG d   1       3.247  -0.223  -3.805  0.00  0.00     0.077 A 
ATOM     34  C   LIG d   1       3.765   0.708  -2.900  0.00  0.00     0.055 A 
ATOM     35  C   LIG d   1       4.446   0.271  -1.779  0.00  0.00    -0.043 A 
ATOM     36 CL   LIG d   1       3.553   2.407  -3.181  0.00  0.00    -0.083 Cl
ATOM     37  C   LIG d   1       4.614  -1.083  -1.554  0.00  0.00    -0.060 A 
ATOM     38  H   LIG d   1       4.847   0.988  -1.079  0.00  0.00     0.063 H 
ATOM     39  C   LIG d   1       4.099  -2.010  -2.444  0.00  0.00    -0.061 A 
ATOM     40  H   LIG d   1       5.147  -1.419  -0.676  0.00  0.00     0.062 H 
ATOM     41  C   LIG d   1       3.422  -1.589  -3.568  0.00  0.00    -0.046 A 
ATOM     42  H   LIG d   1       4.231  -3.065  -2.258  0.00  0.00     0.062 H 
ATOM     43  H   LIG d   1       3.024  -2.313  -4.264  0.00  0.00     0.063 H 
ENDBRANCH  31  33
ENDBRANCH  30  31
ENDBRANCH  27  30
ENDBRANCH   8  27
BRANCH   1  44
ATOM     44  C   LIG d   1       1.828  -0.517 -10.266  0.00  0.00    -0.041 C 
ATOM     45  H   LIG d   1       1.441  -1.517 -10.070  0.00  0.00     0.078 H 
ATOM     46  H   LIG d   1       1.636   0.123  -9.403  0.00  0.00     0.078 H 
ATOM     47  H   LIG d   1       1.335  -0.100 -11.144  0.00  0.00     0.078 H 
ENDBRANCH   1  44
TORSDOF 5
ENDMDL
MODEL 3
REMARK VINA RESULT:      -6.7      2.143      2.879
REMARK  5 active torsions:
REMARK  status: ('A' for Active; 'I' for Inactive)
REMARK    1  A    between atoms: C_1  and  N_2 
REMARK    2  A    between atoms: C_9  and  C_14 
REMARK    3  A    between atoms: C_14  and  O_15 
REMARK    4  A    between atoms: O_15  and  C_16 
REMARK    5  A    between atoms: C_16  and  C_18 
ROOT
ATOM      1  N   LIG d   1       4.197  -0.167 -10.278  0.00  0.00     0.244 N 
ATOM      2  C   LIG d   1       4.135  -0.706 -11.654  0.00  0.00    -0.030 C 
ATOM      3  C   LIG d   1       2.698  -0.893 -12.121  0.00  0.00    -0.012 C 
ATOM      4  C   LIG d   1       1.936  -1.807 -11.159  0.00  0.00    -0.043 C 
ATOM      5  C   LIG d   1       2.042  -1.239  -9.740  0.00  0.00    -0.009 C 
ATOM      6  C   LIG d   1       3.522  -1.092  -9.381  0.00  0.00    -0.013 C 
ATOM      7  H   LIG d   1       3.980  -2.096  -9.579  0.00  0.00     0.086 H 
ATOM      8  C   LIG d   1       3.694  -0.832  -7.898  0.00  0.00     0.036 C 
ATOM      9  H   LIG d   1       3.384  -1.757  -7.362  0.00  0.00     0.039 H 
ATOM     10  C   LIG d   1       5.154  -0.588  -7.528  0.00  0.00    -0.037 C 
ATOM     11  C   LIG d   1       5.792   0.418  -8.485  0.00  0.00    -0.012 C 
ATOM     12  C   LIG d   1       5.623  -0.058  -9.924  0.00  0.00    -0.030 C 
ATOM     13  H   LIG d   1       4.647  -0.010 -12.321  0.00  0.00     0.082 H 
ATOM     14  H   LIG d   1       4.655  -1.664 -11.677  0.00  0.00     0.082 H 
ATOM     15  H   LIG d   1       2.188   0.064 -12.210  0.00  0.00     0.032 H 
ATOM     16  H   LIG d   1       2.708  -1.361 -13.116  0.00  0.00     0.032 H 
ATOM     17  H   LIG d   1       0.887  -1.856 -11.451  0.00  0.00     0.027 H 
ATOM     18  H   LIG d   1       2.368  -2.807 -11.181  0.00  0.00     0.027 H 
ATOM     19  H   LIG d   1       1.572  -1.944  -9.047  0.00  0.00     0.032 H 
ATOM     20  H   LIG d   1       1.520  -0.291  -9.689  0.00  0.00     0.032 H 
ATOM     21  H   LIG d   1       5.210  -0.205  -6.505  0.00  0.00     0.027 H 
ATOM     22  H   LIG d   1       5.702  -1.533  -7.576  0.00  0.00     0.027 H 
ATOM     23  H   LIG d   1       6.865   0.486  -8.261  0.00  0.00     0.032 H 
ATOM     24  H   LIG d   1       5.358   1.405  -8.344  0.00  0.00     0.032 H 
ATOM     25  H   LIG d   1       6.095  -1.034 -10.041  0.00  0.00     0.082 H 
ATOM     26  H   LIG d   1       6.103   0.653 -10.599  0.00  0.00     0.082 H 
ENDROOT
BRANCH   8  27
ATOM     27  C   LIG d   1       2.812   0.292  -7.369  0.00  0.00     0.101 C 
ATOM     28  H   LIG d   1       1.781  -0.056  -7.302  0.00  0.00     0.070 H 
ATOM     29  H   LIG d   1       2.865   1.146  -8.044  0.00  0.00     0.070 H 
BRANCH  27  30
ATOM     30  O   LIG d   1       3.274   0.689  -6.050  0.00  0.00    -0.461 OA
BRANCH  30  31
ATOM     31  C   LIG d   1       2.574   0.233  -4.994  0.00  0.00     0.341 C 
ATOM     32  O   LIG d   1       1.360   0.222  -5.028  0.00  0.00    -0.245 OA
BRANCH  31  33
ATOM     33  C   LIG d   1       3.282  -0.255  -3.794  0.00  0.00     0.077 A 
ATOM     34  C   LIG d   1       3.781   0.654  -2.855  0.00  0.00     0.055 A 
ATOM     35  C   LIG d   1       4.443   0.189  -1.734  0.00  0.00    -0.043 A 
ATOM     36 CL   LIG d   1       3.568   2.360  -3.096  0.00  0.00    -0.083 Cl
ATOM     37  C   LIG d   1       4.611  -1.169  -1.542  0.00  0.00    -0.060 A 
ATOM     38  H   LIG d   1       4.829   0.889  -1.008  0.00  0.00     0.063 H 
ATOM     39  C   LIG d   1       4.116  -2.074  -2.465  0.00  0.00    -0.061 A 
ATOM     40  H   LIG d   1       5.129  -1.527  -0.664  0.00  0.00     0.062 H 
ATOM     41  C   LIG d   1       3.458  -1.626  -3.590  0.00  0.00    -0.046 A 
ATOM     42  H   LIG d   1       4.248  -3.134  -2.305  0.00  0.00     0.062 H 
ATOM     43  H   LIG d   1       3.076  -2.332  -4.312  0.00  0.00     0.063 H 
ENDBRANCH  31  33
ENDBRANCH  30  31
ENDBRANCH  27  30
ENDBRANCH   8  27
BRANCH   1  44
ATOM     44  C   LIG d   1       3.602   1.173 -10.291  0.00  0.00    -0.041 C 
ATOM     45  H   LIG d   1       4.330   1.891 -10.666  0.00  0.00     0.078 H 
ATOM     46  H   LIG d   1       2.724   1.173 -10.938  0.00  0.00     0.078 H 
ATOM     47  H   LIG d   1       3.306   1.449  -9.278  0.00  0.00     0.078 H 
ENDBRANCH   1  44
TORSDOF 5
ENDMDL
MODEL 4
REMARK VINA RESULT:      -6.4      1.787      2.951
REMARK  5 active torsions:
REMARK  status: ('A' for Active; 'I' for Inactive)
REMARK    1  A    between atoms: C_1  and  N_2 
REMARK    2  A    between atoms: C_9  and  C_14 
REMARK    3  A    between atoms: C_14  and  O_15 
REMARK    4  A    between atoms: O_15  and  C_16 
REMARK    5  A    between atoms: C_16  and  C_18 
ROOT
ATOM      1  N   LIG d   1       3.616   0.339  -9.393  0.00  0.00     0.244 N 
ATOM      2  C   LIG d   1       2.648  -0.154 -10.396  0.00  0.00    -0.030 C 
ATOM      3  C   LIG d   1       1.836  -1.328  -9.866  0.00  0.00    -0.012 C 
ATOM      4  C   LIG d   1       2.762  -2.462  -9.421  0.00  0.00    -0.043 C 
ATOM      5  C   LIG d   1       3.771  -1.916  -8.405  0.00  0.00    -0.009 C 
ATOM      6  C   LIG d   1       4.521  -0.745  -9.042  0.00  0.00    -0.013 C 
ATOM      7  H   LIG d   1       4.918  -1.137 -10.014  0.00  0.00     0.086 H 
ATOM      8  C   LIG d   1       5.730  -0.364  -8.212  0.00  0.00     0.036 C 
ATOM      9  H   LIG d   1       6.455  -1.208  -8.278  0.00  0.00     0.039 H 
ATOM     10  C   LIG d   1       6.445   0.861  -8.775  0.00  0.00    -0.037 C 
ATOM     11  C   LIG d   1       5.444   1.972  -9.087  0.00  0.00    -0.012 C 
ATOM     12  C   LIG d   1       4.360   1.444 -10.021  0.00  0.00    -0.030 C 
ATOM     13  H   LIG d   1       1.975   0.665 -10.658  0.00  0.00     0.082 H 
ATOM     14  H   LIG d   1       3.196  -0.460 -11.288  0.00  0.00     0.082 H 
ATOM     15  H   LIG d   1       1.198  -1.022  -9.040  0.00  0.00     0.032 H 
ATOM     16  H   LIG d   1       1.187  -1.701 -10.670  0.00  0.00     0.032 H 
ATOM     17  H   LIG d   1       2.176  -3.256  -8.957  0.00  0.00     0.027 H 
ATOM     18  H   LIG d   1       3.297  -2.861 -10.283  0.00  0.00     0.027 H 
ATOM     19  H   LIG d   1       4.483  -2.710  -8.160  0.00  0.00     0.032 H 
ATOM     20  H   LIG d   1       3.250  -1.617  -7.503  0.00  0.00     0.032 H 
ATOM     21  H   LIG d   1       7.175   1.222  -8.045  0.00  0.00     0.027 H 
ATOM     22  H   LIG d   1       6.975   0.582  -9.690  0.00  0.00     0.027 H 
ATOM     23  H   LIG d   1       5.973   2.792  -9.591  0.00  0.00     0.032 H 
ATOM     24  H   LIG d   1       5.014   2.366  -8.169  0.00  0.00     0.032 H 
ATOM     25  H   LIG d   1       4.818   1.087 -10.943  0.00  0.00     0.082 H 
ATOM     26  H   LIG d   1       3.663   2.251 -10.259  0.00  0.00     0.082 H 
ENDROOT
BRANCH   8  27
ATOM     27  C   LIG d   1       5.421  -0.173  -6.733  0.00  0.00     0.101 C 
ATOM     28  H   LIG d   1       5.263  -1.145  -6.266  0.00  0.00     0.070 H 
ATOM     29  H   LIG d   1       4.523   0.434  -6.624  0.00  0.00     0.070 H 
BRANCH  27  30
ATOM     30  O   LIG d   1       6.538   0.497  -6.088  0.00  0.00    -0.461 OA
BRANCH  30  31
ATOM     31  C   LIG d   1       6.972  -0.022  -4.924  0.00  0.00     0.341 C 
ATOM     32  O   LIG d   1       8.120  -0.403  -4.819  0.00  0.00    -0.245 OA
BRANCH  31  33
ATOM     33  C   LIG d   1       6.051  -0.128  -3.775  0.00  0.00     0.077 A 
ATOM     34  C   LIG d   1       5.541  -1.374  -3.396  0.00  0.00     0.055 A 
ATOM     35  C   LIG d   1       4.680  -1.465  -2.319  0.00  0.00    -0.043 A 
ATOM     36 CL   LIG d   1       5.988  -2.802  -4.276  0.00  0.00    -0.083 Cl
ATOM     37  C   LIG d   1       4.324  -0.328  -1.618  0.00  0.00    -0.060 A 
ATOM     38  H   LIG d   1       4.284  -2.426  -2.025  0.00  0.00     0.063 H 
ATOM     39  C   LIG d   1       4.830   0.907  -1.984  0.00  0.00    -0.061 A 
ATOM     40  H   LIG d   1       3.651  -0.405  -0.777  0.00  0.00     0.062 H 
ATOM     41  C   LIG d   1       5.686   1.014  -3.059  0.00  0.00    -0.046 A 
ATOM     42  H   LIG d   1       4.550   1.790  -1.429  0.00  0.00     0.062 H 
ATOM     43  H   LIG d   1       6.076   1.979  -3.347  0.00  0.00     0.063 H 
ENDBRANCH  31  33
ENDBRANCH  30  31
ENDBRANCH  27  30
ENDBRANCH   8  27
BRANCH   1  44
ATOM     44  C   LIG d   1       2.858   0.858  -8.250  0.00  0.00    -0.041 C 
ATOM     45  H   LIG d   1       3.511   1.469  -7.627  0.00  0.00     0.078 H 
ATOM     46  H   LIG d   1       2.028   1.466  -8.613  0.00  0.00     0.078 H 
ATOM     47  H   LIG d   1       2.468   0.026  -7.663  0.00  0.00     0.078 H 
ENDBRANCH   1  44
TORSDOF 5
ENDMDL
MODEL 5
REMARK VINA RESULT:      -6.3      2.851      6.422
REMARK  5 active torsions:
REMARK  status: ('A' for Active; 'I' for Inactive)
REMARK    1  A    between atoms: C_1  and  N_2 
REMARK    2  A    between atoms: C_9  and  C_14 
REMARK    3  A    between atoms: C_14  and  O_15 
REMARK    4  A    between atoms: O_15  and  C_16 
REMARK    5  A    between atoms: C_16  and  C_18 
ROOT
ATOM      1  N   LIG d   1       5.518  -1.673  -4.205  0.00  0.00     0.244 N 
ATOM      2  C   LIG d   1       5.667  -1.677  -2.734  0.00  0.00    -0.030 C 
ATOM      3  C   LIG d   1       4.333  -1.468  -2.031  0.00  0.00    -0.012 C 
ATOM      4  C   LIG d   1       3.682  -0.163  -2.494  0.00  0.00    -0.043 C 
ATOM      5  C   LIG d   1       3.566  -0.175  -4.022  0.00  0.00    -0.009 C 
ATOM      6  C   LIG d   1       4.959  -0.393  -4.616  0.00  0.00    -0.013 C 
ATOM      7  H   LIG d   1       5.611   0.388  -4.147  0.00  0.00     0.086 H 
ATOM      8  C   LIG d   1       4.961  -0.110  -6.104  0.00  0.00     0.036 C 
ATOM      9  H   LIG d   1       4.788   0.982  -6.233  0.00  0.00     0.039 H 
ATOM     10  C   LIG d   1       6.315  -0.411  -6.740  0.00  0.00    -0.037 C 
ATOM     11  C   LIG d   1       6.826  -1.780  -6.297  0.00  0.00    -0.012 C 
ATOM     12  C   LIG d   1       6.864  -1.850  -4.774  0.00  0.00    -0.030 C 
ATOM     13  H   LIG d   1       6.091  -2.637  -2.432  0.00  0.00     0.082 H 
ATOM     14  H   LIG d   1       6.358  -0.882  -2.451  0.00  0.00     0.082 H 
ATOM     15  H   LIG d   1       3.660  -2.304  -2.211  0.00  0.00     0.032 H 
ATOM     16  H   LIG d   1       4.509  -1.407  -0.948  0.00  0.00     0.032 H 
ATOM     17  H   LIG d   1       2.687  -0.072  -2.057  0.00  0.00     0.027 H 
ATOM     18  H   LIG d   1       4.295   0.685  -2.185  0.00  0.00     0.027 H 
ATOM     19  H   LIG d   1       3.183   0.796  -4.350  0.00  0.00     0.032 H 
ATOM     20  H   LIG d   1       2.873  -0.950  -4.326  0.00  0.00     0.032 H 
ATOM     21  H   LIG d   1       6.216  -0.393  -7.829  0.00  0.00     0.027 H 
ATOM     22  H   LIG d   1       7.033   0.359  -6.443  0.00  0.00     0.027 H 
ATOM     23  H   LIG d   1       7.846  -1.917  -6.680  0.00  0.00     0.032 H 
ATOM     24  H   LIG d   1       6.205  -2.571  -6.711  0.00  0.00     0.032 H 
ATOM     25  H   LIG d   1       7.519  -1.067  -4.391  0.00  0.00     0.082 H 
ATOM     26  H   LIG d   1       7.255  -2.822  -4.466  0.00  0.00     0.082 H 
ENDROOT
BRANCH   8  27
ATOM     27  C   LIG d   1       3.844  -0.817  -6.862  0.00  0.00     0.101 C 
ATOM     28  H   LIG d   1       3.491  -1.669  -6.280  0.00  0.00     0.070 H 
ATOM     29  H   LIG d   1       4.220  -1.165  -7.824  0.00  0.00     0.070 H 
BRANCH  27  30
ATOM     30  O   LIG d   1       2.746   0.109  -7.079  0.00  0.00    -0.461 OA
BRANCH  30  31
ATOM     31  C   LIG d   1       2.811   0.887  -8.177  0.00  0.00     0.341 C 
ATOM     32  O   LIG d   1       2.914   2.092  -8.064  0.00  0.00    -0.245 OA
BRANCH  31  33
ATOM     33  C   LIG d   1       2.757   0.274  -9.519  0.00  0.00     0.077 A 
ATOM     34  C   LIG d   1       3.852   0.376 -10.382  0.00  0.00     0.055 A 
ATOM     35  C   LIG d   1       3.794  -0.200 -11.637  0.00  0.00    -0.043 A 
ATOM     36 CL   LIG d   1       5.281   1.224  -9.879  0.00  0.00    -0.083 Cl
ATOM     37  C   LIG d   1       2.657  -0.876 -12.037  0.00  0.00    -0.060 A 
ATOM     38  H   LIG d   1       4.639  -0.122 -12.305  0.00  0.00     0.063 H 
ATOM     39  C   LIG d   1       1.571  -0.985 -11.186  0.00  0.00    -0.061 A 
ATOM     40  H   LIG d   1       2.617  -1.325 -13.019  0.00  0.00     0.062 H 
ATOM     41  C   LIG d   1       1.612  -0.411  -9.934  0.00  0.00    -0.046 A 
ATOM     42  H   LIG d   1       0.688  -1.518 -11.505  0.00  0.00     0.062 H 
ATOM     43  H   LIG d   1       0.763  -0.493  -9.272  0.00  0.00     0.063 H 
ENDBRANCH  31  33
ENDBRANCH  30  31
ENDBRANCH  27  30
ENDBRANCH   8  27
BRANCH   1  44
ATOM     44  C   LIG d   1       4.684  -2.820  -4.578  0.00  0.00    -0.041 C 
ATOM     45  H   LIG d   1       5.230  -3.743  -4.388  0.00  0.00     0.078 H 
ATOM     46  H   LIG d   1       3.769  -2.810  -3.984  0.00  0.00     0.078 H 
ATOM     47  H   LIG d   1       4.430  -2.757  -5.636  0.00  0.00     0.078 H 
ENDBRANCH   1  44
TORSDOF 5
ENDMDL
MODEL 6
REMARK VINA RESULT:      -6.3      2.661      5.900
REMARK  5 active torsions:
REMARK  status: ('A' for Active; 'I' for Inactive)
REMARK    1  A    between atoms: C_1  and  N_2 
REMARK    2  A    between atoms: C_9  and  C_14 
REMARK    3  A    between atoms: C_14  and  O_15 
REMARK    4  A    between atoms: O_15  and  C_16 
REMARK    5  A    between atoms: C_16  and  C_18 
ROOT
ATOM      1  N   LIG d   1       5.071  -1.422  -3.642  0.00  0.00     0.244 N 
ATOM      2  C   LIG d   1       4.138  -1.027  -2.564  0.00  0.00    -0.030 C 
ATOM      3  C   LIG d   1       2.714  -0.872  -3.080  0.00  0.00    -0.012 C 
ATOM      4  C   LIG d   1       2.665   0.145  -4.223  0.00  0.00    -0.043 C 
ATOM      5  C   LIG d   1       3.661  -0.275  -5.309  0.00  0.00    -0.009 C 
ATOM      6  C   LIG d   1       5.049  -0.401  -4.679  0.00  0.00    -0.013 C 
ATOM      7  H   LIG d   1       5.228   0.571  -4.151  0.00  0.00     0.086 H 
ATOM      8  C   LIG d   1       6.118  -0.510  -5.746  0.00  0.00     0.036 C 
ATOM      9  H   LIG d   1       6.158   0.469  -6.275  0.00  0.00     0.039 H 
ATOM     10  C   LIG d   1       7.503  -0.732  -5.144  0.00  0.00    -0.037 C 
ATOM     11  C   LIG d   1       7.463  -1.837  -4.093  0.00  0.00    -0.012 C 
ATOM     12  C   LIG d   1       6.411  -1.511  -3.038  0.00  0.00    -0.030 C 
ATOM     13  H   LIG d   1       4.162  -1.794  -1.787  0.00  0.00     0.082 H 
ATOM     14  H   LIG d   1       4.478  -0.082  -2.138  0.00  0.00     0.082 H 
ATOM     15  H   LIG d   1       2.312  -1.827  -3.414  0.00  0.00     0.032 H 
ATOM     16  H   LIG d   1       2.078  -0.509  -2.261  0.00  0.00     0.032 H 
ATOM     17  H   LIG d   1       1.661   0.176  -4.645  0.00  0.00     0.027 H 
ATOM     18  H   LIG d   1       2.934   1.133  -3.848  0.00  0.00     0.027 H 
ATOM     19  H   LIG d   1       3.685   0.503  -6.079  0.00  0.00     0.032 H 
ATOM     20  H   LIG d   1       3.336  -1.206  -5.757  0.00  0.00     0.032 H 
ATOM     21  H   LIG d   1       8.203  -1.008  -5.938  0.00  0.00     0.027 H 
ATOM     22  H   LIG d   1       7.850   0.198  -4.683  0.00  0.00     0.027 H 
ATOM     23  H   LIG d   1       8.445  -1.895  -3.603  0.00  0.00     0.032 H 
ATOM     24  H   LIG d   1       7.266  -2.800  -4.559  0.00  0.00     0.032 H 
ATOM     25  H   LIG d   1       6.654  -0.558  -2.567  0.00  0.00     0.082 H 
ATOM     26  H   LIG d   1       6.406  -2.293  -2.276  0.00  0.00     0.082 H 
ENDROOT
BRANCH   8  27
ATOM     27  C   LIG d   1       5.819  -1.562  -6.806  0.00  0.00     0.101 C 
ATOM     28  H   LIG d   1       4.745  -1.602  -6.987  0.00  0.00     0.070 H 
ATOM     29  H   LIG d   1       6.166  -2.536  -6.461  0.00  0.00     0.070 H 
BRANCH  27  30
ATOM     30  O   LIG d   1       6.505  -1.215  -8.039  0.00  0.00    -0.461 OA
BRANCH  30  31
ATOM     31  C   LIG d   1       5.735  -0.958  -9.114  0.00  0.00     0.341 C 
ATOM     32  O   LIG d   1       5.783  -1.686 -10.085  0.00  0.00    -0.245 OA
BRANCH  31  33
ATOM     33  C   LIG d   1       4.832   0.210  -9.113  0.00  0.00     0.077 A 
ATOM     34  C   LIG d   1       3.451   0.030  -8.985  0.00  0.00     0.055 A 
ATOM     35  C   LIG d   1       2.613   1.129  -8.984  0.00  0.00    -0.043 A 
ATOM     36 CL   LIG d   1       2.792  -1.568  -8.828  0.00  0.00    -0.083 Cl
ATOM     37  C   LIG d   1       3.137   2.402  -9.108  0.00  0.00    -0.060 A 
ATOM     38  H   LIG d   1       1.546   0.992  -8.886  0.00  0.00     0.063 H 
ATOM     39  C   LIG d   1       4.504   2.587  -9.229  0.00  0.00    -0.061 A 
ATOM     40  H   LIG d   1       2.477   3.257  -9.106  0.00  0.00     0.062 H 
ATOM     41  C   LIG d   1       5.352   1.501  -9.237  0.00  0.00    -0.046 A 
ATOM     42  H   LIG d   1       4.906   3.585  -9.322  0.00  0.00     0.062 H 
ATOM     43  H   LIG d   1       6.418   1.646  -9.336  0.00  0.00     0.063 H 
ENDBRANCH  31  33
ENDBRANCH  30  31
ENDBRANCH  27  30
ENDBRANCH   8  27
BRANCH   1  44
ATOM     44  C   LIG d   1       4.671  -2.749  -4.121  0.00  0.00    -0.041 C 
ATOM     45  H   LIG d   1       5.432  -3.479  -3.848  0.00  0.00     0.078 H 
ATOM     46  H   LIG d   1       3.720  -3.027  -3.665  0.00  0.00     0.078 H 
ATOM     47  H   LIG d   1       4.560  -2.726  -5.205  0.00  0.00     0.078 H 
ENDBRANCH   1  44
TORSDOF 5
ENDMDL
MODEL 7
REMARK VINA RESULT:      -6.2      1.408      1.819
REMARK  5 active torsions:
REMARK  status: ('A' for Active; 'I' for Inactive)
REMARK    1  A    between atoms: C_1  and  N_2 
REMARK    2  A    between atoms: C_9  and  C_14 
REMARK    3  A    between atoms: C_14  and  O_15 
REMARK    4  A    between atoms: O_15  and  C_16 
REMARK    5  A    between atoms: C_16  and  C_18 
ROOT
ATOM      1  N   LIG d   1       4.436  -0.623  -9.730  0.00  0.00     0.244 N 
ATOM      2  C   LIG d   1       3.669   0.037 -10.809  0.00  0.00    -0.030 C 
ATOM      3  C   LIG d   1       3.731   1.554 -10.697  0.00  0.00    -0.012 C 
ATOM      4  C   LIG d   1       3.222   2.012  -9.328  0.00  0.00    -0.043 C 
ATOM      5  C   LIG d   1       4.015   1.292  -8.232  0.00  0.00    -0.009 C 
ATOM      6  C   LIG d   1       3.884  -0.218  -8.446  0.00  0.00    -0.013 C 
ATOM      7  H   LIG d   1       2.783  -0.417  -8.512  0.00  0.00     0.086 H 
ATOM      8  C   LIG d   1       4.382  -0.979  -7.235  0.00  0.00     0.036 C 
ATOM      9  H   LIG d   1       3.675  -0.769  -6.400  0.00  0.00     0.039 H 
ATOM     10  C   LIG d   1       4.350  -2.488  -7.458  0.00  0.00    -0.037 C 
ATOM     11  C   LIG d   1       4.976  -2.847  -8.803  0.00  0.00    -0.012 C 
ATOM     12  C   LIG d   1       4.281  -2.075  -9.920  0.00  0.00    -0.030 C 
ATOM     13  H   LIG d   1       4.085  -0.274 -11.769  0.00  0.00     0.082 H 
ATOM     14  H   LIG d   1       2.631  -0.293 -10.750  0.00  0.00     0.082 H 
ATOM     15  H   LIG d   1       4.743   1.918 -10.859  0.00  0.00     0.032 H 
ATOM     16  H   LIG d   1       3.088   1.993 -11.473  0.00  0.00     0.032 H 
ATOM     17  H   LIG d   1       3.359   3.089  -9.225  0.00  0.00     0.027 H 
ATOM     18  H   LIG d   1       2.164   1.769  -9.228  0.00  0.00     0.027 H 
ATOM     19  H   LIG d   1       3.586   1.556  -7.261  0.00  0.00     0.032 H 
ATOM     20  H   LIG d   1       5.049   1.614  -8.263  0.00  0.00     0.032 H 
ATOM     21  H   LIG d   1       4.902  -2.985  -6.654  0.00  0.00     0.027 H 
ATOM     22  H   LIG d   1       3.313  -2.836  -7.434  0.00  0.00     0.027 H 
ATOM     23  H   LIG d   1       4.838  -3.922  -8.982  0.00  0.00     0.032 H 
ATOM     24  H   LIG d   1       6.044  -2.646  -8.792  0.00  0.00     0.032 H 
ATOM     25  H   LIG d   1       3.219  -2.322  -9.926  0.00  0.00     0.082 H 
ATOM     26  H   LIG d   1       4.717  -2.356 -10.880  0.00  0.00     0.082 H 
ENDROOT
BRANCH   8  27
ATOM     27  C   LIG d   1       5.759  -0.536  -6.757  0.00  0.00     0.101 C 
ATOM     28  H   LIG d   1       5.665   0.382  -6.178  0.00  0.00     0.070 H 
ATOM     29  H   LIG d   1       6.403  -0.358  -7.619  0.00  0.00     0.070 H 
BRANCH  27  30
ATOM     30  O   LIG d   1       6.340  -1.576  -5.926  0.00  0.00    -0.461 OA
BRANCH  30  31
ATOM     31  C   LIG d   1       6.812  -1.202  -4.721  0.00  0.00     0.341 C 
ATOM     32  O   LIG d   1       7.991  -1.336  -4.461  0.00  0.00    -0.245 OA
BRANCH  31  33
ATOM     33  C   LIG d   1       5.896  -0.627  -3.716  0.00  0.00     0.077 A 
ATOM     34  C   LIG d   1       4.851  -1.397  -3.197  0.00  0.00     0.055 A 
ATOM     35  C   LIG d   1       3.998  -0.852  -2.256  0.00  0.00    -0.043 A 
ATOM     36 CL   LIG d   1       4.626  -3.033  -3.731  0.00  0.00    -0.083 Cl
ATOM     37  C   LIG d   1       4.178   0.451  -1.829  0.00  0.00    -0.060 A 
ATOM     38  H   LIG d   1       3.189  -1.445  -1.854  0.00  0.00     0.063 H 
ATOM     39  C   LIG d   1       5.213   1.216  -2.336  0.00  0.00    -0.061 A 
ATOM     40  H   LIG d   1       3.508   0.872  -1.094  0.00  0.00     0.062 H 
ATOM     41  C   LIG d   1       6.069   0.688  -3.278  0.00  0.00    -0.046 A 
ATOM     42  H   LIG d   1       5.349   2.232  -1.994  0.00  0.00     0.062 H 
ATOM     43  H   LIG d   1       6.874   1.288  -3.675  0.00  0.00     0.063 H 
ENDBRANCH  31  33
ENDBRANCH  30  31
ENDBRANCH  27  30
ENDBRANCH   8  27
BRANCH   1  44
ATOM     44  C   LIG d   1       5.849  -0.265  -9.897  0.00  0.00    -0.041 C 
ATOM     45  H   LIG d   1       6.352  -1.034 -10.482  0.00  0.00     0.078 H 
ATOM     46  H   LIG d   1       5.921   0.692 -10.415  0.00  0.00     0.078 H 
ATOM     47  H   LIG d   1       6.322  -0.184  -8.918  0.00  0.00     0.078 H 
ENDBRANCH   1  44
TORSDOF 5
ENDMDL
MODEL 8
REMARK VINA RESULT:      -6.2      4.046      6.180
REMARK  5 active torsions:
REMARK  status: ('A' for Active; 'I' for Inactive)
REMARK    1  A    between atoms: C_1  and  N_2 
REMARK    2  A    between atoms: C_9  and  C_14 
REMARK    3  A    between atoms: C_14  and  O_15 
REMARK    4  A    between atoms: O_15  and  C_16 
REMARK    5  A    between atoms: C_16  and  C_18 
ROOT
ATOM      1  N   LIG d   1       4.648  -1.248  -3.727  0.00  0.00     0.244 N 
ATOM      2  C   LIG d   1       3.523  -1.105  -2.777  0.00  0.00    -0.030 C 
ATOM      3  C   LIG d   1       3.248   0.355  -2.446  0.00  0.00    -0.012 C 
ATOM      4  C   LIG d   1       4.504   1.024  -1.884  0.00  0.00    -0.043 C 
ATOM      5  C   LIG d   1       5.657   0.835  -2.875  0.00  0.00    -0.009 C 
ATOM      6  C   LIG d   1       5.840  -0.661  -3.134  0.00  0.00    -0.013 C 
ATOM      7  H   LIG d   1       5.938  -1.131  -2.121  0.00  0.00     0.086 H 
ATOM      8  C   LIG d   1       7.145  -0.929  -3.855  0.00  0.00     0.036 C 
ATOM      9  H   LIG d   1       7.969  -0.682  -3.148  0.00  0.00     0.039 H 
ATOM     10  C   LIG d   1       7.309  -2.404  -4.209  0.00  0.00    -0.037 C 
ATOM     11  C   LIG d   1       6.038  -2.946  -4.859  0.00  0.00    -0.012 C 
ATOM     12  C   LIG d   1       4.842  -2.691  -3.948  0.00  0.00    -0.030 C 
ATOM     13  H   LIG d   1       2.633  -1.551  -3.226  0.00  0.00     0.082 H 
ATOM     14  H   LIG d   1       3.768  -1.648  -1.863  0.00  0.00     0.082 H 
ATOM     15  H   LIG d   1       2.898   0.897  -3.323  0.00  0.00     0.032 H 
ATOM     16  H   LIG d   1       2.456   0.402  -1.685  0.00  0.00     0.032 H 
ATOM     17  H   LIG d   1       4.322   2.089  -1.740  0.00  0.00     0.027 H 
ATOM     18  H   LIG d   1       4.769   0.568  -0.930  0.00  0.00     0.027 H 
ATOM     19  H   LIG d   1       6.571   1.237  -2.427  0.00  0.00     0.032 H 
ATOM     20  H   LIG d   1       5.442   1.378  -3.788  0.00  0.00     0.032 H 
ATOM     21  H   LIG d   1       8.150  -2.520  -4.899  0.00  0.00     0.027 H 
ATOM     22  H   LIG d   1       7.524  -2.973  -3.299  0.00  0.00     0.027 H 
ATOM     23  H   LIG d   1       6.148  -4.030  -4.999  0.00  0.00     0.032 H 
ATOM     24  H   LIG d   1       5.890  -2.497  -5.838  0.00  0.00     0.032 H 
ATOM     25  H   LIG d   1       5.006  -3.180  -2.988  0.00  0.00     0.082 H 
ATOM     26  H   LIG d   1       3.942  -3.104  -4.408  0.00  0.00     0.082 H 
ENDROOT
BRANCH   8  27
ATOM     27  C   LIG d   1       7.355  -0.055  -5.086  0.00  0.00     0.101 C 
ATOM     28  H   LIG d   1       7.333   0.995  -4.794  0.00  0.00     0.070 H 
ATOM     29  H   LIG d   1       6.562  -0.249  -5.808  0.00  0.00     0.070 H 
BRANCH  27  30
ATOM     30  O   LIG d   1       8.641  -0.366  -5.685  0.00  0.00    -0.461 OA
BRANCH  30  31
ATOM     31  C   LIG d   1       9.716   0.277  -5.190  0.00  0.00     0.341 C 
ATOM     32  O   LIG d   1      10.743  -0.335  -4.972  0.00  0.00    -0.245 OA
BRANCH  31  33
ATOM     33  C   LIG d   1       9.647   1.725  -4.912  0.00  0.00     0.077 A 
ATOM     34  C   LIG d   1       9.658   2.644  -5.967  0.00  0.00     0.055 A 
ATOM     35  C   LIG d   1       9.593   3.998  -5.698  0.00  0.00    -0.043 A 
ATOM     36 CL   LIG d   1       9.753   2.085  -7.607  0.00  0.00    -0.083 Cl
ATOM     37  C   LIG d   1       9.517   4.443  -4.392  0.00  0.00    -0.060 A 
ATOM     38  H   LIG d   1       9.602   4.709  -6.511  0.00  0.00     0.063 H 
ATOM     39  C   LIG d   1       9.500   3.539  -3.344  0.00  0.00    -0.061 A 
ATOM     40  H   LIG d   1       9.466   5.503  -4.188  0.00  0.00     0.062 H 
ATOM     41  C   LIG d   1       9.570   2.185  -3.596  0.00  0.00    -0.046 A 
ATOM     42  H   LIG d   1       9.437   3.895  -2.326  0.00  0.00     0.062 H 
ATOM     43  H   LIG d   1       9.561   1.481  -2.777  0.00  0.00     0.063 H 
ENDBRANCH  31  33
ENDBRANCH  30  31
ENDBRANCH  27  30
ENDBRANCH   8  27
BRANCH   1  44
ATOM     44  C   LIG d   1       4.254  -0.617  -4.991  0.00  0.00    -0.041 C 
ATOM     45  H   LIG d   1       4.069  -1.387  -5.740  0.00  0.00     0.078 H 
ATOM     46  H   LIG d   1       3.345  -0.034  -4.837  0.00  0.00     0.078 H 
ATOM     47  H   LIG d   1       5.053   0.041  -5.334  0.00  0.00     0.078 H 
ENDBRANCH   1  44
TORSDOF 5
ENDMDL
MODEL 9
REMARK VINA RESULT:      -6.1      1.624      2.820
REMARK  5 active torsions:
REMARK  status: ('A' for Active; 'I' for Inactive)
REMARK    1  A    between atoms: C_1  and  N_2 
REMARK    2  A    between atoms: C_9  and  C_14 
REMARK    3  A    between atoms: C_14  and  O_15 
REMARK    4  A    between atoms: O_15  and  C_16 
REMARK    5  A    between atoms: C_16  and  C_18 
ROOT
ATOM      1  N   LIG d   1       3.012  -0.800 -10.043  0.00  0.00     0.244 N 
ATOM      2  C   LIG d   1       2.472  -1.011 -11.403  0.00  0.00    -0.030 C 
ATOM      3  C   LIG d   1       3.569  -1.367 -12.396  0.00  0.00    -0.012 C 
ATOM      4  C   LIG d   1       4.646  -0.280 -12.417  0.00  0.00    -0.043 C 
ATOM      5  C   LIG d   1       5.167  -0.063 -10.992  0.00  0.00    -0.009 C 
ATOM      6  C   LIG d   1       3.983   0.283 -10.087  0.00  0.00    -0.013 C 
ATOM      7  H   LIG d   1       3.462   1.139 -10.589  0.00  0.00     0.086 H 
ATOM      8  C   LIG d   1       4.463   0.805  -8.748  0.00  0.00     0.036 C 
ATOM      9  H   LIG d   1       4.950   1.790  -8.933  0.00  0.00     0.039 H 
ATOM     10  C   LIG d   1       3.304   1.070  -7.791  0.00  0.00    -0.037 C 
ATOM     11  C   LIG d   1       2.345  -0.117  -7.765  0.00  0.00    -0.012 C 
ATOM     12  C   LIG d   1       1.876  -0.434  -9.181  0.00  0.00    -0.030 C 
ATOM     13  H   LIG d   1       1.741  -1.822 -11.363  0.00  0.00     0.082 H 
ATOM     14  H   LIG d   1       1.969  -0.098 -11.724  0.00  0.00     0.082 H 
ATOM     15  H   LIG d   1       4.016  -2.330 -12.159  0.00  0.00     0.032 H 
ATOM     16  H   LIG d   1       3.128  -1.441 -13.400  0.00  0.00     0.032 H 
ATOM     17  H   LIG d   1       5.471  -0.590 -13.060  0.00  0.00     0.027 H 
ATOM     18  H   LIG d   1       4.222   0.652 -12.793  0.00  0.00     0.027 H 
ATOM     19  H   LIG d   1       5.870   0.775 -11.002  0.00  0.00     0.032 H 
ATOM     20  H   LIG d   1       5.683  -0.955 -10.657  0.00  0.00     0.032 H 
ATOM     21  H   LIG d   1       3.698   1.245  -6.785  0.00  0.00     0.027 H 
ATOM     22  H   LIG d   1       2.766   1.966  -8.114  0.00  0.00     0.027 H 
ATOM     23  H   LIG d   1       1.470   0.149  -7.156  0.00  0.00     0.032 H 
ATOM     24  H   LIG d   1       2.820  -0.981  -7.306  0.00  0.00     0.032 H 
ATOM     25  H   LIG d   1       1.375   0.439  -9.601  0.00  0.00     0.082 H 
ATOM     26  H   LIG d   1       1.171  -1.267  -9.151  0.00  0.00     0.082 H 
ENDROOT
BRANCH   8  27
ATOM     27  C   LIG d   1       5.513  -0.079  -8.087  0.00  0.00     0.101 C 
ATOM     28  H   LIG d   1       6.428  -0.063  -8.680  0.00  0.00     0.070 H 
ATOM     29  H   LIG d   1       5.139  -1.101  -8.023  0.00  0.00     0.070 H 
BRANCH  27  30
ATOM     30  O   LIG d   1       5.793   0.418  -6.752  0.00  0.00    -0.461 OA
BRANCH  30  31
ATOM     31  C   LIG d   1       5.750  -0.477  -5.745  0.00  0.00     0.341 C 
ATOM     32  O   LIG d   1       6.278  -1.563  -5.874  0.00  0.00    -0.245 OA
BRANCH  31  33
ATOM     33  C   LIG d   1       5.061  -0.136  -4.484  0.00  0.00     0.077 A 
ATOM     34  C   LIG d   1       5.741   0.558  -3.479  0.00  0.00     0.055 A 
ATOM     35  C   LIG d   1       5.089   0.873  -2.301  0.00  0.00    -0.043 A 
ATOM     36 CL   LIG d   1       7.397   1.023  -3.708  0.00  0.00    -0.083 Cl
ATOM     37  C   LIG d   1       3.770   0.504  -2.119  0.00  0.00    -0.060 A 
ATOM     38  H   LIG d   1       5.612   1.409  -1.523  0.00  0.00     0.063 H 
ATOM     39  C   LIG d   1       3.090  -0.179  -3.113  0.00  0.00    -0.061 A 
ATOM     40  H   LIG d   1       3.265   0.754  -1.197  0.00  0.00     0.062 H 
ATOM     41  C   LIG d   1       3.728  -0.505  -4.290  0.00  0.00    -0.046 A 
ATOM     42  H   LIG d   1       2.058  -0.460  -2.964  0.00  0.00     0.062 H 
ATOM     43  H   LIG d   1       3.198  -1.041  -5.063  0.00  0.00     0.063 H 
ENDBRANCH  31  33
ENDBRANCH  30  31
ENDBRANCH  27  30
ENDBRANCH   8  27
BRANCH   1  44
ATOM     44  C   LIG d   1       3.578  -2.071  -9.579  0.00  0.00    -0.041 C 
ATOM     45  H   LIG d   1       3.452  -2.828 -10.353  0.00  0.00     0.078 H 
ATOM     46  H   LIG d   1       4.639  -1.940  -9.368  0.00  0.00     0.078 H 
ATOM     47  H   LIG d   1       3.064  -2.389  -8.671  0.00  0.00     0.078 H 
ENDBRANCH   1  44
TORSDOF 5
ENDMDL
MODEL 10
REMARK VINA RESULT:      -5.9      5.525      7.110
REMARK  5 active torsions:
REMARK  status: ('A' for Active; 'I' for Inactive)
REMARK    1  A    between atoms: C_1  and  N_2 
REMARK    2  A    between atoms: C_9  and  C_14 
REMARK    3  A    between atoms: C_14  and  O_15 
REMARK    4  A    between atoms: O_15  and  C_16 
REMARK    5  A    between atoms: C_16  and  C_18 
ROOT
ATOM      1  N   LIG d   1      10.817   5.225  -5.018  0.00  0.00     0.244 N 
ATOM      2  C   LIG d   1      11.355   5.942  -6.194  0.00  0.00    -0.030 C 
ATOM      3  C   LIG d   1      10.398   5.883  -7.377  0.00  0.00    -0.012 C 
ATOM      4  C   LIG d   1      10.084   4.430  -7.740  0.00  0.00    -0.043 C 
ATOM      5  C   LIG d   1       9.555   3.706  -6.496  0.00  0.00    -0.009 C 
ATOM      6  C   LIG d   1      10.592   3.834  -5.379  0.00  0.00    -0.013 C 
ATOM      7  H   LIG d   1      11.557   3.475  -5.822  0.00  0.00     0.086 H 
ATOM      8  C   LIG d   1      10.273   2.890  -4.237  0.00  0.00     0.036 C 
ATOM      9  H   LIG d   1      10.420   1.853  -4.615  0.00  0.00     0.039 H 
ATOM     10  C   LIG d   1      11.238   3.064  -3.068  0.00  0.00    -0.037 C 
ATOM     11  C   LIG d   1      11.400   4.541  -2.718  0.00  0.00    -0.012 C 
ATOM     12  C   LIG d   1      11.831   5.322  -3.955  0.00  0.00    -0.030 C 
ATOM     13  H   LIG d   1      11.526   6.984  -5.916  0.00  0.00     0.082 H 
ATOM     14  H   LIG d   1      12.308   5.490  -6.471  0.00  0.00     0.082 H 
ATOM     15  H   LIG d   1       9.477   6.421  -7.163  0.00  0.00     0.032 H 
ATOM     16  H   LIG d   1      10.875   6.364  -8.242  0.00  0.00     0.032 H 
ATOM     17  H   LIG d   1       9.326   4.401  -8.524  0.00  0.00     0.027 H 
ATOM     18  H   LIG d   1      10.989   3.933  -8.089  0.00  0.00     0.027 H 
ATOM     19  H   LIG d   1       9.418   2.649  -6.741  0.00  0.00     0.032 H 
ATOM     20  H   LIG d   1       8.600   4.130  -6.210  0.00  0.00     0.032 H 
ATOM     21  H   LIG d   1      10.855   2.522  -2.198  0.00  0.00     0.027 H 
ATOM     22  H   LIG d   1      12.212   2.645  -3.338  0.00  0.00     0.027 H 
ATOM     23  H   LIG d   1      12.181   4.639  -1.951  0.00  0.00     0.032 H 
ATOM     24  H   LIG d   1      10.476   4.938  -2.305  0.00  0.00     0.032 H 
ATOM     25  H   LIG d   1      12.776   4.922  -4.326  0.00  0.00     0.082 H 
ATOM     26  H   LIG d   1      11.970   6.372  -3.690  0.00  0.00     0.082 H 
ENDROOT
BRANCH   8  27
ATOM     27  C   LIG d   1       8.829   2.976  -3.758  0.00  0.00     0.101 C 
ATOM     28  H   LIG d   1       8.202   3.362  -4.562  0.00  0.00     0.070 H 
ATOM     29  H   LIG d   1       8.770   3.644  -2.898  0.00  0.00     0.070 H 
BRANCH  27  30
ATOM     30  O   LIG d   1       8.367   1.653  -3.375  0.00  0.00    -0.461 OA
BRANCH  30  31
ATOM     31  C   LIG d   1       7.304   1.161  -4.040  0.00  0.00     0.341 C 
ATOM     32  O   LIG d   1       7.246   1.256  -5.249  0.00  0.00    -0.245 OA
BRANCH  31  33
ATOM     33  C   LIG d   1       6.209   0.506  -3.297  0.00  0.00     0.077 A 
ATOM     34  C   LIG d   1       6.152  -0.888  -3.214  0.00  0.00     0.055 A 
ATOM     35  C   LIG d   1       5.124  -1.493  -2.517  0.00  0.00    -0.043 A 
ATOM     36 CL   LIG d   1       7.370  -1.856  -3.984  0.00  0.00    -0.083 Cl
ATOM     37  C   LIG d   1       4.154  -0.723  -1.903  0.00  0.00    -0.060 A 
ATOM     38  H   LIG d   1       5.078  -2.571  -2.452  0.00  0.00     0.063 H 
ATOM     39  C   LIG d   1       4.207   0.658  -1.978  0.00  0.00    -0.061 A 
ATOM     40  H   LIG d   1       3.353  -1.201  -1.360  0.00  0.00     0.062 H 
ATOM     41  C   LIG d   1       5.224   1.276  -2.673  0.00  0.00    -0.046 A 
ATOM     42  H   LIG d   1       3.448   1.253  -1.492  0.00  0.00     0.062 H 
ATOM     43  H   LIG d   1       5.262   2.354  -2.734  0.00  0.00     0.063 H 
ENDBRANCH  31  33
ENDBRANCH  30  31
ENDBRANCH  27  30
ENDBRANCH   8  27
BRANCH   1  44
ATOM     44  C   LIG d   1       9.599   5.919  -4.585  0.00  0.00    -0.041 C 
ATOM     45  H   LIG d   1       9.244   6.564  -5.388  0.00  0.00     0.078 H 
ATOM     46  H   LIG d   1       8.831   5.185  -4.341  0.00  0.00     0.078 H 
ATOM     47  H   LIG d   1       9.818   6.522  -3.703  0.00  0.00     0.078 H 
ENDBRANCH   1  44
TORSDOF 5
ENDMDL
