MODEL 1
REMARK VINA RESULT:      -7.2      0.000      0.000
REMARK  9 active torsions:
REMARK  status: ('A' for Active; 'I' for Inactive)
REMARK    1  A    between atoms: C_1  and  C_2 
REMARK    2  A    between atoms: C_5  and  C_8 
REMARK    3  A    between atoms: C_8  and  O_10 
REMARK    4  A    between atoms: O_10  and  C_11 
REMARK    5  A    between atoms: C_19  and  C_20 
REMARK    6  A    between atoms: C_23  and  O_28 
REMARK    7  A    between atoms: C_24  and  O_26 
REMARK    8  A    between atoms: O_26  and  C_27 
REMARK    9  A    between atoms: O_28  and  C_29 
ROOT
ATOM      1  C   LIG d   1       3.100  -3.742 -10.319  0.00  0.00     0.136 A 
ATOM      2  C   LIG d   1       2.978  -5.129 -10.312  0.00  0.00    -0.018 A 
ATOM      3  C   LIG d   1       3.279  -5.837  -9.183  0.00  0.00    -0.044 A 
ATOM      4  C   LIG d   1       3.709  -5.170  -8.036  0.00  0.00     0.068 A 
ATOM      5  C   LIG d   1       3.836  -3.772  -8.032  0.00  0.00     0.143 A 
ATOM      6  C   LIG d   1       3.525  -3.066  -9.188  0.00  0.00     0.024 A 
ATOM      7  O   LIG d   1       4.265  -3.357  -6.820  0.00  0.00    -0.451 OA
ATOM      8  C   LIG d   1       4.446  -4.394  -5.968  0.00  0.00     0.176 A 
ATOM      9  C   LIG d   1       4.870  -4.310  -4.681  0.00  0.00    -0.008 C 
ATOM     10  C   LIG d   1       4.109  -5.627  -6.692  0.00  0.00     0.232 A 
ATOM     11  O   LIG d   1       4.147  -6.772  -6.275  0.00  0.00    -0.283 OA
ATOM     12  H   LIG d   1       2.644  -5.645 -11.199  0.00  0.00     0.065 H 
ATOM     13  H   LIG d   1       3.184  -6.914  -9.179  0.00  0.00     0.063 H 
ATOM     14  H   LIG d   1       3.616  -1.989  -9.204  0.00  0.00     0.069 H 
ATOM     15  H   LIG d   1       5.062  -5.209  -4.115  0.00  0.00     0.066 H 
ENDROOT
BRANCH   9  16
ATOM     16  C   LIG d   1       5.066  -2.996  -4.057  0.00  0.00    -0.018 A 
ATOM     17  C   LIG d   1       6.174  -2.212  -4.404  0.00  0.00    -0.009 A 
ATOM     18  C   LIG d   1       6.352  -0.977  -3.814  0.00  0.00     0.162 A 
ATOM     19  H   LIG d   1       6.887  -2.573  -5.130  0.00  0.00     0.066 H 
ATOM     20  C   LIG d   1       5.434  -0.513  -2.872  0.00  0.00     0.162 A 
ATOM     21  C   LIG d   1       4.332  -1.288  -2.531  0.00  0.00    -0.016 A 
ATOM     22  C   LIG d   1       4.146  -2.521  -3.114  0.00  0.00    -0.051 A 
ATOM     23  H   LIG d   1       3.622  -0.923  -1.804  0.00  0.00     0.066 H 
ATOM     24  H   LIG d   1       3.290  -3.122  -2.845  0.00  0.00     0.062 H 
BRANCH  18  25
ATOM     25  O   LIG d   1       7.427  -0.213  -4.147  0.00  0.00    -0.491 OA
BRANCH  25  26
ATOM     26  C   LIG d   1       7.365   0.487  -5.392  0.00  0.00     0.079 C 
ATOM     27  H   LIG d   1       6.388   0.955  -5.498  0.00  0.00     0.066 H 
ATOM     28  H   LIG d   1       7.523  -0.215  -6.211  0.00  0.00     0.066 H 
ATOM     29  H   LIG d   1       8.140   1.253  -5.416  0.00  0.00     0.066 H 
ENDBRANCH  25  26
ENDBRANCH  18  25
BRANCH  20  30
ATOM     30  O   LIG d   1       5.615   0.700  -2.288  0.00  0.00    -0.491 OA
BRANCH  30  31
ATOM     31  C   LIG d   1       4.472   1.553  -2.197  0.00  0.00     0.079 C 
ATOM     32  H   LIG d   1       3.784   1.325  -3.010  0.00  0.00     0.066 H 
ATOM     33  H   LIG d   1       3.974   1.393  -1.242  0.00  0.00     0.066 H 
ATOM     34  H   LIG d   1       4.789   2.594  -2.271  0.00  0.00     0.066 H 
ENDBRANCH  30  31
ENDBRANCH  20  30
ENDBRANCH   9  16
BRANCH   1  35
ATOM     35  O   LIG d   1       2.799  -3.046 -11.445  0.00  0.00    -0.422 OA
BRANCH  35  36
ATOM     36  C   LIG d   1       1.984  -1.982 -11.308  0.00  0.00     0.344 C 
ATOM     37  O   LIG d   1       0.812  -2.072 -11.615  0.00  0.00    -0.244 OA
BRANCH  36  38
ATOM     38  C   LIG d   1       2.515  -0.707 -10.784  0.00  0.00     0.059 A 
ATOM     39  C   LIG d   1       3.579  -0.074 -11.429  0.00  0.00    -0.048 A 
ATOM     40  C   LIG d   1       4.070   1.117 -10.934  0.00  0.00    -0.058 A 
ATOM     41  H   LIG d   1       4.017  -0.514 -12.312  0.00  0.00     0.063 H 
ATOM     42  C   LIG d   1       3.510   1.683  -9.802  0.00  0.00    -0.050 A 
ATOM     43  H   LIG d   1       4.894   1.608 -11.431  0.00  0.00     0.062 H 
ATOM     44  C   LIG d   1       2.456   1.061  -9.158  0.00  0.00    -0.058 A 
ATOM     45  C   LIG d   1       1.951  -0.128  -9.646  0.00  0.00    -0.048 A 
ATOM     46  H   LIG d   1       2.023   1.508  -8.276  0.00  0.00     0.062 H 
ATOM     47  H   LIG d   1       1.125  -0.610  -9.145  0.00  0.00     0.063 H 
BRANCH  42  48
ATOM     48  C   LIG d   1       4.052   2.985  -9.268  0.00  0.00    -0.040 C 
ATOM     49  H   LIG d   1       4.466   2.825  -8.273  0.00  0.00     0.028 H 
ATOM     50  H   LIG d   1       4.835   3.351  -9.933  0.00  0.00     0.028 H 
ATOM     51  H   LIG d   1       3.247   3.718  -9.214  0.00  0.00     0.028 H 
ENDBRANCH  42  48
ENDBRANCH  36  38
ENDBRANCH  35  36
ENDBRANCH   1  35
TORSDOF 9
ENDMDL
MODEL 2
REMARK VINA RESULT:      -7.0      4.768      7.922
REMARK  9 active torsions:
REMARK  status: ('A' for Active; 'I' for Inactive)
REMARK    1  A    between atoms: C_1  and  C_2 
REMARK    2  A    between atoms: C_5  and  C_8 
REMARK    3  A    between atoms: C_8  and  O_10 
REMARK    4  A    between atoms: O_10  and  C_11 
REMARK    5  A    between atoms: C_19  and  C_20 
REMARK    6  A    between atoms: C_23  and  O_28 
REMARK    7  A    between atoms: C_24  and  O_26 
REMARK    8  A    between atoms: O_26  and  C_27 
REMARK    9  A    between atoms: O_28  and  C_29 
ROOT
ATOM      1  C   LIG d   1       6.290  -0.432  -3.740  0.00  0.00     0.136 A 
ATOM      2  C   LIG d   1       7.153  -1.243  -4.472  0.00  0.00    -0.018 A 
ATOM      3  C   LIG d   1       8.372  -0.767  -4.865  0.00  0.00    -0.044 A 
ATOM      4  C   LIG d   1       8.752   0.533  -4.533  0.00  0.00     0.068 A 
ATOM      5  C   LIG d   1       7.890   1.360  -3.795  0.00  0.00     0.143 A 
ATOM      6  C   LIG d   1       6.654   0.861  -3.402  0.00  0.00     0.024 A 
ATOM      7  O   LIG d   1       8.472   2.563  -3.598  0.00  0.00    -0.451 OA
ATOM      8  C   LIG d   1       9.703   2.625  -4.159  0.00  0.00     0.176 A 
ATOM      9  C   LIG d   1      10.541   3.694  -4.137  0.00  0.00    -0.008 C 
ATOM     10  C   LIG d   1       9.963   1.330  -4.803  0.00  0.00     0.232 A 
ATOM     11  O   LIG d   1      10.958   0.989  -5.418  0.00  0.00    -0.283 OA
ATOM     12  H   LIG d   1       6.858  -2.249  -4.728  0.00  0.00     0.065 H 
ATOM     13  H   LIG d   1       9.040  -1.398  -5.434  0.00  0.00     0.063 H 
ATOM     14  H   LIG d   1       5.977   1.483  -2.834  0.00  0.00     0.069 H 
ATOM     15  H   LIG d   1      11.468   3.664  -4.691  0.00  0.00     0.066 H 
ENDROOT
BRANCH   9  16
ATOM     16  C   LIG d   1      10.189   4.887  -3.360  0.00  0.00    -0.018 A 
ATOM     17  C   LIG d   1      10.438   4.927  -1.982  0.00  0.00    -0.009 A 
ATOM     18  C   LIG d   1      10.104   6.053  -1.257  0.00  0.00     0.162 A 
ATOM     19  H   LIG d   1      10.888   4.079  -1.489  0.00  0.00     0.066 H 
ATOM     20  C   LIG d   1       9.516   7.146  -1.894  0.00  0.00     0.162 A 
ATOM     21  C   LIG d   1       9.274   7.110  -3.262  0.00  0.00    -0.016 A 
ATOM     22  C   LIG d   1       9.603   5.991  -3.993  0.00  0.00    -0.051 A 
ATOM     23  H   LIG d   1       8.822   7.960  -3.751  0.00  0.00     0.066 H 
ATOM     24  H   LIG d   1       9.410   5.964  -5.056  0.00  0.00     0.062 H 
BRANCH  18  25
ATOM     25  O   LIG d   1      10.342   6.096   0.081  0.00  0.00    -0.491 OA
BRANCH  25  26
ATOM     26  C   LIG d   1      11.615   5.624   0.529  0.00  0.00     0.079 C 
ATOM     27  H   LIG d   1      12.406   6.162   0.008  0.00  0.00     0.066 H 
ATOM     28  H   LIG d   1      11.701   4.558   0.319  0.00  0.00     0.066 H 
ATOM     29  H   LIG d   1      11.707   5.791   1.602  0.00  0.00     0.066 H 
ENDBRANCH  25  26
ENDBRANCH  18  25
BRANCH  20  30
ATOM     30  O   LIG d   1       9.183   8.251  -1.177  0.00  0.00    -0.491 OA
BRANCH  30  31
ATOM     31  C   LIG d   1       9.879   9.460  -1.487  0.00  0.00     0.079 C 
ATOM     32  H   LIG d   1      10.706   9.591  -0.790  0.00  0.00     0.066 H 
ATOM     33  H   LIG d   1      10.264   9.407  -2.504  0.00  0.00     0.066 H 
ATOM     34  H   LIG d   1       9.195  10.305  -1.401  0.00  0.00     0.066 H 
ENDBRANCH  30  31
ENDBRANCH  20  30
ENDBRANCH   9  16
BRANCH   1  35
ATOM     35  O   LIG d   1       5.080  -0.912  -3.353  0.00  0.00    -0.422 OA
BRANCH  35  36
ATOM     36  C   LIG d   1       4.374  -1.602  -4.270  0.00  0.00     0.344 C 
ATOM     37  O   LIG d   1       4.122  -2.776  -4.084  0.00  0.00    -0.244 OA
BRANCH  36  38
ATOM     38  C   LIG d   1       3.907  -0.931  -5.500  0.00  0.00     0.059 A 
ATOM     39  C   LIG d   1       4.342  -1.376  -6.750  0.00  0.00    -0.048 A 
ATOM     40  C   LIG d   1       3.902  -0.744  -7.895  0.00  0.00    -0.058 A 
ATOM     41  H   LIG d   1       5.023  -2.211  -6.821  0.00  0.00     0.063 H 
ATOM     42  C   LIG d   1       3.030   0.326  -7.807  0.00  0.00    -0.050 A 
ATOM     43  H   LIG d   1       4.239  -1.087  -8.863  0.00  0.00     0.062 H 
ATOM     44  C   LIG d   1       2.594   0.772  -6.572  0.00  0.00    -0.058 A 
ATOM     45  C   LIG d   1       3.022   0.146  -5.419  0.00  0.00    -0.048 A 
ATOM     46  H   LIG d   1       1.913   1.608  -6.510  0.00  0.00     0.062 H 
ATOM     47  H   LIG d   1       2.678   0.492  -4.456  0.00  0.00     0.063 H 
BRANCH  42  48
ATOM     48  C   LIG d   1       2.552   1.010  -9.063  0.00  0.00    -0.040 C 
ATOM     49  H   LIG d   1       1.695   0.471  -9.466  0.00  0.00     0.028 H 
ATOM     50  H   LIG d   1       2.261   2.034  -8.829  0.00  0.00     0.028 H 
ATOM     51  H   LIG d   1       3.355   1.018  -9.800  0.00  0.00     0.028 H 
ENDBRANCH  42  48
ENDBRANCH  36  38
ENDBRANCH  35  36
ENDBRANCH   1  35
TORSDOF 9
ENDMDL
MODEL 3
REMARK VINA RESULT:      -6.8      6.698     12.064
REMARK  9 active torsions:
REMARK  status: ('A' for Active; 'I' for Inactive)
REMARK    1  A    between atoms: C_1  and  C_2 
REMARK    2  A    between atoms: C_5  and  C_8 
REMARK    3  A    between atoms: C_8  and  O_10 
REMARK    4  A    between atoms: O_10  and  C_11 
REMARK    5  A    between atoms: C_19  and  C_20 
REMARK    6  A    between atoms: C_23  and  O_28 
REMARK    7  A    between atoms: C_24  and  O_26 
REMARK    8  A    between atoms: O_26  and  C_27 
REMARK    9  A    between atoms: O_28  and  C_29 
ROOT
ATOM      1  C   LIG d   1      11.594   5.512  -1.527  0.00  0.00     0.136 A 
ATOM      2  C   LIG d   1      11.937   6.255  -2.653  0.00  0.00    -0.018 A 
ATOM      3  C   LIG d   1      11.438   5.913  -3.878  0.00  0.00    -0.044 A 
ATOM      4  C   LIG d   1      10.584   4.818  -4.001  0.00  0.00     0.068 A 
ATOM      5  C   LIG d   1      10.230   4.061  -2.873  0.00  0.00     0.143 A 
ATOM      6  C   LIG d   1      10.746   4.422  -1.634  0.00  0.00     0.024 A 
ATOM      7  O   LIG d   1       9.400   3.059  -3.238  0.00  0.00    -0.451 OA
ATOM      8  C   LIG d   1       9.149   3.074  -4.569  0.00  0.00     0.176 A 
ATOM      9  C   LIG d   1       8.357   2.202  -5.245  0.00  0.00    -0.008 C 
ATOM     10  C   LIG d   1       9.897   4.198  -5.150  0.00  0.00     0.232 A 
ATOM     11  O   LIG d   1       9.938   4.543  -6.318  0.00  0.00    -0.283 OA
ATOM     12  H   LIG d   1      12.598   7.103  -2.557  0.00  0.00     0.065 H 
ATOM     13  H   LIG d   1      11.707   6.491  -4.751  0.00  0.00     0.063 H 
ATOM     14  H   LIG d   1      10.485   3.851  -0.754  0.00  0.00     0.069 H 
ATOM     15  H   LIG d   1       8.294   2.254  -6.321  0.00  0.00     0.066 H 
ENDROOT
BRANCH   9  16
ATOM     16  C   LIG d   1       7.586   1.191  -4.512  0.00  0.00    -0.018 A 
ATOM     17  C   LIG d   1       6.658   1.585  -3.539  0.00  0.00    -0.009 A 
ATOM     18  C   LIG d   1       5.935   0.629  -2.854  0.00  0.00     0.162 A 
ATOM     19  H   LIG d   1       6.509   2.633  -3.326  0.00  0.00     0.066 H 
ATOM     20  C   LIG d   1       6.133  -0.725  -3.126  0.00  0.00     0.162 A 
ATOM     21  C   LIG d   1       7.049  -1.116  -4.094  0.00  0.00    -0.016 A 
ATOM     22  C   LIG d   1       7.775  -0.170  -4.782  0.00  0.00    -0.051 A 
ATOM     23  H   LIG d   1       7.195  -2.165  -4.303  0.00  0.00     0.066 H 
ATOM     24  H   LIG d   1       8.489  -0.477  -5.532  0.00  0.00     0.062 H 
BRANCH  18  25
ATOM     25  O   LIG d   1       5.034   1.007  -1.908  0.00  0.00    -0.491 OA
BRANCH  25  26
ATOM     26  C   LIG d   1       3.738   1.397  -2.366  0.00  0.00     0.079 C 
ATOM     27  H   LIG d   1       3.127   1.700  -1.517  0.00  0.00     0.066 H 
ATOM     28  H   LIG d   1       3.264   0.557  -2.873  0.00  0.00     0.066 H 
ATOM     29  H   LIG d   1       3.835   2.232  -3.061  0.00  0.00     0.066 H 
ENDBRANCH  25  26
ENDBRANCH  18  25
BRANCH  20  30
ATOM     30  O   LIG d   1       5.425  -1.663  -2.445  0.00  0.00    -0.491 OA
BRANCH  30  31
ATOM     31  C   LIG d   1       4.342  -2.288  -3.138  0.00  0.00     0.079 C 
ATOM     32  H   LIG d   1       3.679  -1.522  -3.540  0.00  0.00     0.066 H 
ATOM     33  H   LIG d   1       4.734  -2.895  -3.952  0.00  0.00     0.066 H 
ATOM     34  H   LIG d   1       3.786  -2.922  -2.446  0.00  0.00     0.066 H 
ENDBRANCH  30  31
ENDBRANCH  20  30
ENDBRANCH   9  16
BRANCH   1  35
ATOM     35  O   LIG d   1      12.094   5.858  -0.314  0.00  0.00    -0.422 OA
BRANCH  35  36
ATOM     36  C   LIG d   1      11.241   6.424   0.561  0.00  0.00     0.344 C 
ATOM     37  O   LIG d   1      10.647   5.731   1.364  0.00  0.00    -0.244 OA
BRANCH  36  38
ATOM     38  C   LIG d   1      11.027   7.885   0.546  0.00  0.00     0.059 A 
ATOM     39  C   LIG d   1      11.770   8.712   1.391  0.00  0.00    -0.048 A 
ATOM     40  C   LIG d   1      11.565  10.075   1.372  0.00  0.00    -0.058 A 
ATOM     41  H   LIG d   1      12.504   8.284   2.058  0.00  0.00     0.063 H 
ATOM     42  C   LIG d   1      10.625  10.625   0.517  0.00  0.00    -0.050 A 
ATOM     43  H   LIG d   1      12.139  10.716   2.025  0.00  0.00     0.062 H 
ATOM     44  C   LIG d   1       9.885   9.813  -0.322  0.00  0.00    -0.058 A 
ATOM     45  C   LIG d   1      10.084   8.447  -0.317  0.00  0.00    -0.048 A 
ATOM     46  H   LIG d   1       9.153  10.248  -0.986  0.00  0.00     0.062 H 
ATOM     47  H   LIG d   1       9.508   7.814  -0.976  0.00  0.00     0.063 H 
BRANCH  42  48
ATOM     48  C   LIG d   1      10.407  12.117   0.502  0.00  0.00    -0.040 C 
ATOM     49  H   LIG d   1      10.210  12.466   1.516  0.00  0.00     0.028 H 
ATOM     50  H   LIG d   1      11.300  12.609   0.115  0.00  0.00     0.028 H 
ATOM     51  H   LIG d   1       9.555  12.353  -0.136  0.00  0.00     0.028 H 
ENDBRANCH  42  48
ENDBRANCH  36  38
ENDBRANCH  35  36
ENDBRANCH   1  35
TORSDOF 9
ENDMDL
MODEL 4
REMARK VINA RESULT:      -6.7      4.980      9.125
REMARK  9 active torsions:
REMARK  status: ('A' for Active; 'I' for Inactive)
REMARK    1  A    between atoms: C_1  and  C_2 
REMARK    2  A    between atoms: C_5  and  C_8 
REMARK    3  A    between atoms: C_8  and  O_10 
REMARK    4  A    between atoms: O_10  and  C_11 
REMARK    5  A    between atoms: C_19  and  C_20 
REMARK    6  A    between atoms: C_23  and  O_28 
REMARK    7  A    between atoms: C_24  and  O_26 
REMARK    8  A    between atoms: O_26  and  C_27 
REMARK    9  A    between atoms: O_28  and  C_29 
ROOT
ATOM      1  C   LIG d   1       6.405   0.349  -4.658  0.00  0.00     0.136 A 
ATOM      2  C   LIG d   1       6.886   0.142  -5.948  0.00  0.00    -0.018 A 
ATOM      3  C   LIG d   1       7.923   0.895  -6.420  0.00  0.00    -0.044 A 
ATOM      4  C   LIG d   1       8.500   1.872  -5.610  0.00  0.00     0.068 A 
ATOM      5  C   LIG d   1       8.023   2.090  -4.307  0.00  0.00     0.143 A 
ATOM      6  C   LIG d   1       6.968   1.315  -3.841  0.00  0.00     0.024 A 
ATOM      7  O   LIG d   1       8.733   3.079  -3.721  0.00  0.00    -0.451 OA
ATOM      8  C   LIG d   1       9.689   3.569  -4.546  0.00  0.00     0.176 A 
ATOM      9  C   LIG d   1      10.564   4.566  -4.255  0.00  0.00    -0.008 C 
ATOM     10  C   LIG d   1       9.599   2.834  -5.815  0.00  0.00     0.232 A 
ATOM     11  O   LIG d   1      10.283   2.983  -6.813  0.00  0.00    -0.283 OA
ATOM     12  H   LIG d   1       6.439  -0.615  -6.574  0.00  0.00     0.065 H 
ATOM     13  H   LIG d   1       8.295   0.734  -7.422  0.00  0.00     0.063 H 
ATOM     14  H   LIG d   1       6.587   1.467  -2.841  0.00  0.00     0.069 H 
ATOM     15  H   LIG d   1      11.231   4.938  -5.018  0.00  0.00     0.066 H 
ENDROOT
BRANCH   9  16
ATOM     16  C   LIG d   1      10.605   5.135  -2.903  0.00  0.00    -0.018 A 
ATOM     17  C   LIG d   1       9.757   6.196  -2.562  0.00  0.00    -0.009 A 
ATOM     18  C   LIG d   1       9.801   6.727  -1.288  0.00  0.00     0.162 A 
ATOM     19  H   LIG d   1       9.073   6.599  -3.293  0.00  0.00     0.066 H 
ATOM     20  C   LIG d   1      10.691   6.210  -0.346  0.00  0.00     0.162 A 
ATOM     21  C   LIG d   1      11.528   5.154  -0.682  0.00  0.00    -0.016 A 
ATOM     22  C   LIG d   1      11.492   4.618  -1.950  0.00  0.00    -0.051 A 
ATOM     23  H   LIG d   1      12.212   4.755   0.052  0.00  0.00     0.066 H 
ATOM     24  H   LIG d   1      12.147   3.799  -2.209  0.00  0.00     0.062 H 
BRANCH  18  25
ATOM     25  O   LIG d   1       8.981   7.758  -0.952  0.00  0.00    -0.491 OA
BRANCH  25  26
ATOM     26  C   LIG d   1       9.410   9.073  -1.312  0.00  0.00     0.079 C 
ATOM     27  H   LIG d   1       8.698   9.510  -2.011  0.00  0.00     0.066 H 
ATOM     28  H   LIG d   1      10.393   9.018  -1.781  0.00  0.00     0.066 H 
ATOM     29  H   LIG d   1       9.469   9.692  -0.417  0.00  0.00     0.066 H 
ENDBRANCH  25  26
ENDBRANCH  18  25
BRANCH  20  30
ATOM     30  O   LIG d   1      10.736   6.738   0.905  0.00  0.00    -0.491 OA
BRANCH  30  31
ATOM     31  C   LIG d   1      10.948   5.828   1.986  0.00  0.00     0.079 C 
ATOM     32  H   LIG d   1      12.003   5.559   2.032  0.00  0.00     0.066 H 
ATOM     33  H   LIG d   1      10.652   6.300   2.922  0.00  0.00     0.066 H 
ATOM     34  H   LIG d   1      10.351   4.930   1.827  0.00  0.00     0.066 H 
ENDBRANCH  30  31
ENDBRANCH  20  30
ENDBRANCH   9  16
BRANCH   1  35
ATOM     35  O   LIG d   1       5.374  -0.405  -4.196  0.00  0.00    -0.422 OA
BRANCH  35  36
ATOM     36  C   LIG d   1       5.686  -1.454  -3.411  0.00  0.00     0.344 C 
ATOM     37  O   LIG d   1       5.321  -1.474  -2.252  0.00  0.00    -0.244 OA
BRANCH  36  38
ATOM     38  C   LIG d   1       6.471  -2.579  -3.958  0.00  0.00     0.059 A 
ATOM     39  C   LIG d   1       7.797  -2.766  -3.564  0.00  0.00    -0.048 A 
ATOM     40  C   LIG d   1       8.524  -3.818  -4.079  0.00  0.00    -0.058 A 
ATOM     41  H   LIG d   1       8.253  -2.087  -2.858  0.00  0.00     0.063 H 
ATOM     42  C   LIG d   1       7.942  -4.689  -4.984  0.00  0.00    -0.050 A 
ATOM     43  H   LIG d   1       9.551  -3.964  -3.775  0.00  0.00     0.062 H 
ATOM     44  C   LIG d   1       6.629  -4.510  -5.379  0.00  0.00    -0.058 A 
ATOM     45  C   LIG d   1       5.888  -3.464  -4.867  0.00  0.00    -0.048 A 
ATOM     46  H   LIG d   1       6.180  -5.192  -6.085  0.00  0.00     0.062 H 
ATOM     47  H   LIG d   1       4.861  -3.328  -5.173  0.00  0.00     0.063 H 
BRANCH  42  48
ATOM     48  C   LIG d   1       8.744  -5.837  -5.542  0.00  0.00    -0.040 C 
ATOM     49  H   LIG d   1       9.686  -5.920  -4.999  0.00  0.00     0.028 H 
ATOM     50  H   LIG d   1       8.177  -6.763  -5.430  0.00  0.00     0.028 H 
ATOM     51  H   LIG d   1       8.947  -5.660  -6.598  0.00  0.00     0.028 H 
ENDBRANCH  42  48
ENDBRANCH  36  38
ENDBRANCH  35  36
ENDBRANCH   1  35
TORSDOF 9
ENDMDL
MODEL 5
REMARK VINA RESULT:      -6.6      3.179      8.635
REMARK  9 active torsions:
REMARK  status: ('A' for Active; 'I' for Inactive)
REMARK    1  A    between atoms: C_1  and  C_2 
REMARK    2  A    between atoms: C_5  and  C_8 
REMARK    3  A    between atoms: C_8  and  O_10 
REMARK    4  A    between atoms: O_10  and  C_11 
REMARK    5  A    between atoms: C_19  and  C_20 
REMARK    6  A    between atoms: C_23  and  O_28 
REMARK    7  A    between atoms: C_24  and  O_26 
REMARK    8  A    between atoms: O_26  and  C_27 
REMARK    9  A    between atoms: O_28  and  C_29 
ROOT
ATOM      1  C   LIG d   1       5.138  -3.286  -7.175  0.00  0.00     0.136 A 
ATOM      2  C   LIG d   1       5.553  -2.158  -7.877  0.00  0.00    -0.018 A 
ATOM      3  C   LIG d   1       4.917  -1.796  -9.031  0.00  0.00    -0.044 A 
ATOM      4  C   LIG d   1       3.850  -2.558  -9.506  0.00  0.00     0.068 A 
ATOM      5  C   LIG d   1       3.422  -3.698  -8.806  0.00  0.00     0.143 A 
ATOM      6  C   LIG d   1       4.079  -4.052  -7.634  0.00  0.00     0.024 A 
ATOM      7  O   LIG d   1       2.382  -4.266  -9.454  0.00  0.00    -0.451 OA
ATOM      8  C   LIG d   1       2.054  -3.584 -10.577  0.00  0.00     0.176 A 
ATOM      9  C   LIG d   1       1.059  -3.898 -11.445  0.00  0.00    -0.008 C 
ATOM     10  C   LIG d   1       2.978  -2.446 -10.690  0.00  0.00     0.232 A 
ATOM     11  O   LIG d   1       3.014  -1.598 -11.564  0.00  0.00    -0.283 OA
ATOM     12  H   LIG d   1       6.379  -1.569  -7.509  0.00  0.00     0.065 H 
ATOM     13  H   LIG d   1       5.242  -0.921  -9.575  0.00  0.00     0.063 H 
ATOM     14  H   LIG d   1       3.764  -4.925  -7.081  0.00  0.00     0.069 H 
ATOM     15  H   LIG d   1       0.938  -3.332 -12.356  0.00  0.00     0.066 H 
ENDROOT
BRANCH   9  16
ATOM     16  C   LIG d   1       0.145  -5.006 -11.143  0.00  0.00    -0.018 A 
ATOM     17  C   LIG d   1      -0.933  -4.810 -10.270  0.00  0.00    -0.009 A 
ATOM     18  C   LIG d   1      -1.789  -5.856  -9.990  0.00  0.00     0.162 A 
ATOM     19  H   LIG d   1      -1.093  -3.843  -9.816  0.00  0.00     0.066 H 
ATOM     20  C   LIG d   1      -1.578  -7.106 -10.572  0.00  0.00     0.162 A 
ATOM     21  C   LIG d   1      -0.513  -7.301 -11.442  0.00  0.00    -0.016 A 
ATOM     22  C   LIG d   1       0.347  -6.263 -11.727  0.00  0.00    -0.051 A 
ATOM     23  H   LIG d   1      -0.356  -8.269 -11.893  0.00  0.00     0.066 H 
ATOM     24  H   LIG d   1       1.176  -6.418 -12.401  0.00  0.00     0.062 H 
BRANCH  18  25
ATOM     25  O   LIG d   1      -2.836  -5.670  -9.143  0.00  0.00    -0.491 OA
BRANCH  25  26
ATOM     26  C   LIG d   1      -3.939  -4.904  -9.632  0.00  0.00     0.079 C 
ATOM     27  H   LIG d   1      -4.558  -4.583  -8.795  0.00  0.00     0.066 H 
ATOM     28  H   LIG d   1      -4.533  -5.516 -10.310  0.00  0.00     0.066 H 
ATOM     29  H   LIG d   1      -3.565  -4.029 -10.165  0.00  0.00     0.066 H 
ENDBRANCH  25  26
ENDBRANCH  18  25
BRANCH  20  30
ATOM     30  O   LIG d   1      -2.419  -8.135 -10.291  0.00  0.00    -0.491 OA
BRANCH  30  31
ATOM     31  C   LIG d   1      -2.014  -9.438 -10.717  0.00  0.00     0.079 C 
ATOM     32  H   LIG d   1      -2.776  -9.857 -11.374  0.00  0.00     0.066 H 
ATOM     33  H   LIG d   1      -1.069  -9.368 -11.253  0.00  0.00     0.066 H 
ATOM     34  H   LIG d   1      -1.891 -10.083  -9.846  0.00  0.00     0.066 H 
ENDBRANCH  30  31
ENDBRANCH  20  30
ENDBRANCH   9  16
BRANCH   1  35
ATOM     35  O   LIG d   1       5.775  -3.638  -6.029  0.00  0.00    -0.422 OA
BRANCH  35  36
ATOM     36  C   LIG d   1       5.035  -3.682  -4.905  0.00  0.00     0.344 C 
ATOM     37  O   LIG d   1       4.440  -4.699  -4.609  0.00  0.00    -0.244 OA
BRANCH  36  38
ATOM     38  C   LIG d   1       4.945  -2.494  -4.032  0.00  0.00     0.059 A 
ATOM     39  C   LIG d   1       3.930  -2.399  -3.078  0.00  0.00    -0.048 A 
ATOM     40  C   LIG d   1       3.853  -1.287  -2.266  0.00  0.00    -0.058 A 
ATOM     41  H   LIG d   1       3.207  -3.195  -2.976  0.00  0.00     0.063 H 
ATOM     42  C   LIG d   1       4.778  -0.266  -2.395  0.00  0.00    -0.050 A 
ATOM     43  H   LIG d   1       3.067  -1.212  -1.528  0.00  0.00     0.062 H 
ATOM     44  C   LIG d   1       5.787  -0.353  -3.338  0.00  0.00    -0.058 A 
ATOM     45  C   LIG d   1       5.879  -1.463  -4.152  0.00  0.00    -0.048 A 
ATOM     46  H   LIG d   1       6.506   0.447  -3.433  0.00  0.00     0.062 H 
ATOM     47  H   LIG d   1       6.669  -1.531  -4.885  0.00  0.00     0.063 H 
BRANCH  42  48
ATOM     48  C   LIG d   1       4.687   0.946  -1.503  0.00  0.00    -0.040 C 
ATOM     49  H   LIG d   1       4.213   0.669  -0.561  0.00  0.00     0.028 H 
ATOM     50  H   LIG d   1       5.690   1.328  -1.307  0.00  0.00     0.028 H 
ATOM     51  H   LIG d   1       4.094   1.716  -1.996  0.00  0.00     0.028 H 
ENDBRANCH  42  48
ENDBRANCH  36  38
ENDBRANCH  35  36
ENDBRANCH   1  35
TORSDOF 9
ENDMDL
MODEL 6
REMARK VINA RESULT:      -6.5      4.361      8.247
REMARK  9 active torsions:
REMARK  status: ('A' for Active; 'I' for Inactive)
REMARK    1  A    between atoms: C_1  and  C_2 
REMARK    2  A    between atoms: C_5  and  C_8 
REMARK    3  A    between atoms: C_8  and  O_10 
REMARK    4  A    between atoms: O_10  and  C_11 
REMARK    5  A    between atoms: C_19  and  C_20 
REMARK    6  A    between atoms: C_23  and  O_28 
REMARK    7  A    between atoms: C_24  and  O_26 
REMARK    8  A    between atoms: O_26  and  C_27 
REMARK    9  A    between atoms: O_28  and  C_29 
ROOT
ATOM      1  C   LIG d   1       6.862  -3.842  -5.935  0.00  0.00     0.136 A 
ATOM      2  C   LIG d   1       6.016  -3.624  -7.019  0.00  0.00    -0.018 A 
ATOM      3  C   LIG d   1       5.215  -4.632  -7.476  0.00  0.00    -0.044 A 
ATOM      4  C   LIG d   1       5.244  -5.880  -6.854  0.00  0.00     0.068 A 
ATOM      5  C   LIG d   1       6.092  -6.112  -5.760  0.00  0.00     0.143 A 
ATOM      6  C   LIG d   1       6.901  -5.076  -5.308  0.00  0.00     0.024 A 
ATOM      7  O   LIG d   1       5.946  -7.384  -5.331  0.00  0.00    -0.451 OA
ATOM      8  C   LIG d   1       5.035  -8.063  -6.069  0.00  0.00     0.176 A 
ATOM      9  C   LIG d   1       4.664  -9.357  -5.892  0.00  0.00    -0.008 C 
ATOM     10  C   LIG d   1       4.528  -7.147  -7.100  0.00  0.00     0.232 A 
ATOM     11  O   LIG d   1       3.699  -7.379  -7.963  0.00  0.00    -0.283 OA
ATOM     12  H   LIG d   1       5.995  -2.658  -7.499  0.00  0.00     0.065 H 
ATOM     13  H   LIG d   1       4.560  -4.462  -8.318  0.00  0.00     0.063 H 
ATOM     14  H   LIG d   1       7.561  -5.235  -4.466  0.00  0.00     0.069 H 
ATOM     15  H   LIG d   1       3.989  -9.825  -6.592  0.00  0.00     0.066 H 
ENDROOT
BRANCH   9  16
ATOM     16  C   LIG d   1       5.179 -10.118  -4.748  0.00  0.00    -0.018 A 
ATOM     17  C   LIG d   1       6.095 -11.158  -4.951  0.00  0.00    -0.009 A 
ATOM     18  C   LIG d   1       6.575 -11.870  -3.871  0.00  0.00     0.162 A 
ATOM     19  H   LIG d   1       6.423 -11.403  -5.950  0.00  0.00     0.066 H 
ATOM     20  C   LIG d   1       6.146 -11.557  -2.581  0.00  0.00     0.162 A 
ATOM     21  C   LIG d   1       5.241 -10.523  -2.377  0.00  0.00    -0.016 A 
ATOM     22  C   LIG d   1       4.756  -9.807  -3.449  0.00  0.00    -0.051 A 
ATOM     23  H   LIG d   1       4.915 -10.282  -1.377  0.00  0.00     0.066 H 
ATOM     24  H   LIG d   1       4.051  -9.005  -3.288  0.00  0.00     0.062 H 
BRANCH  18  25
ATOM     25  O   LIG d   1       7.464 -12.881  -4.063  0.00  0.00    -0.491 OA
BRANCH  25  26
ATOM     26  C   LIG d   1       7.953 -13.070  -5.393  0.00  0.00     0.079 C 
ATOM     27  H   LIG d   1       8.698 -12.308  -5.618  0.00  0.00     0.066 H 
ATOM     28  H   LIG d   1       7.127 -12.991  -6.099  0.00  0.00     0.066 H 
ATOM     29  H   LIG d   1       8.408 -14.058  -5.475  0.00  0.00     0.066 H 
ENDBRANCH  25  26
ENDBRANCH  18  25
BRANCH  20  30
ATOM     30  O   LIG d   1       6.616 -12.264  -1.520  0.00  0.00    -0.491 OA
BRANCH  30  31
ATOM     31  C   LIG d   1       7.588 -11.622  -0.692  0.00  0.00     0.079 C 
ATOM     32  H   LIG d   1       8.584 -11.967  -0.969  0.00  0.00     0.066 H 
ATOM     33  H   LIG d   1       7.525 -10.543  -0.828  0.00  0.00     0.066 H 
ATOM     34  H   LIG d   1       7.395 -11.869   0.352  0.00  0.00     0.066 H 
ENDBRANCH  30  31
ENDBRANCH  20  30
ENDBRANCH   9  16
BRANCH   1  35
ATOM     35  O   LIG d   1       7.655  -2.835  -5.487  0.00  0.00    -0.422 OA
BRANCH  35  36
ATOM     36  C   LIG d   1       7.635  -2.581  -4.164  0.00  0.00     0.344 C 
ATOM     37  O   LIG d   1       8.407  -3.158  -3.424  0.00  0.00    -0.244 OA
BRANCH  36  38
ATOM     38  C   LIG d   1       6.676  -1.602  -3.614  0.00  0.00     0.059 A 
ATOM     39  C   LIG d   1       5.480  -2.038  -3.041  0.00  0.00    -0.048 A 
ATOM     40  C   LIG d   1       4.589  -1.118  -2.530  0.00  0.00    -0.058 A 
ATOM     41  H   LIG d   1       5.252  -3.093  -3.000  0.00  0.00     0.063 H 
ATOM     42  C   LIG d   1       4.879   0.234  -2.582  0.00  0.00    -0.050 A 
ATOM     43  H   LIG d   1       3.662  -1.454  -2.087  0.00  0.00     0.062 H 
ATOM     44  C   LIG d   1       6.062   0.673  -3.147  0.00  0.00    -0.058 A 
ATOM     45  C   LIG d   1       6.965  -0.237  -3.658  0.00  0.00    -0.048 A 
ATOM     46  H   LIG d   1       6.282   1.730  -3.185  0.00  0.00     0.062 H 
ATOM     47  H   LIG d   1       7.890   0.107  -4.096  0.00  0.00     0.063 H 
BRANCH  42  48
ATOM     48  C   LIG d   1       3.900   1.233  -2.019  0.00  0.00    -0.040 C 
ATOM     49  H   LIG d   1       4.074   2.209  -2.473  0.00  0.00     0.028 H 
ATOM     50  H   LIG d   1       2.883   0.907  -2.238  0.00  0.00     0.028 H 
ATOM     51  H   LIG d   1       4.035   1.306  -0.940  0.00  0.00     0.028 H 
ENDBRANCH  42  48
ENDBRANCH  36  38
ENDBRANCH  35  36
ENDBRANCH   1  35
TORSDOF 9
ENDMDL
MODEL 7
REMARK VINA RESULT:      -6.5      6.777     12.065
REMARK  9 active torsions:
REMARK  status: ('A' for Active; 'I' for Inactive)
REMARK    1  A    between atoms: C_1  and  C_2 
REMARK    2  A    between atoms: C_5  and  C_8 
REMARK    3  A    between atoms: C_8  and  O_10 
REMARK    4  A    between atoms: O_10  and  C_11 
REMARK    5  A    between atoms: C_19  and  C_20 
REMARK    6  A    between atoms: C_23  and  O_28 
REMARK    7  A    between atoms: C_24  and  O_26 
REMARK    8  A    between atoms: O_26  and  C_27 
REMARK    9  A    between atoms: O_28  and  C_29 
ROOT
ATOM      1  C   LIG d   1      11.612   5.591  -1.543  0.00  0.00     0.136 A 
ATOM      2  C   LIG d   1      11.912   6.371  -2.656  0.00  0.00    -0.018 A 
ATOM      3  C   LIG d   1      11.399   6.044  -3.880  0.00  0.00    -0.044 A 
ATOM      4  C   LIG d   1      10.574   4.927  -4.013  0.00  0.00     0.068 A 
ATOM      5  C   LIG d   1      10.265   4.133  -2.897  0.00  0.00     0.143 A 
ATOM      6  C   LIG d   1      10.795   4.480  -1.659  0.00  0.00     0.024 A 
ATOM      7  O   LIG d   1       9.457   3.117  -3.270  0.00  0.00    -0.451 OA
ATOM      8  C   LIG d   1       9.179   3.155  -4.595  0.00  0.00     0.176 A 
ATOM      9  C   LIG d   1       8.400   2.277  -5.277  0.00  0.00    -0.008 C 
ATOM     10  C   LIG d   1       9.883   4.314  -5.163  0.00  0.00     0.232 A 
ATOM     11  O   LIG d   1       9.890   4.688  -6.323  0.00  0.00    -0.283 OA
ATOM     12  H   LIG d   1      12.550   7.235  -2.552  0.00  0.00     0.065 H 
ATOM     13  H   LIG d   1      11.633   6.650  -4.743  0.00  0.00     0.063 H 
ATOM     14  H   LIG d   1      10.567   3.881  -0.789  0.00  0.00     0.069 H 
ATOM     15  H   LIG d   1       8.314   2.352  -6.350  0.00  0.00     0.066 H 
ENDROOT
BRANCH   9  16
ATOM     16  C   LIG d   1       7.673   1.227  -4.554  0.00  0.00    -0.018 A 
ATOM     17  C   LIG d   1       8.014  -0.119  -4.739  0.00  0.00    -0.009 A 
ATOM     18  C   LIG d   1       7.326  -1.101  -4.056  0.00  0.00     0.162 A 
ATOM     19  H   LIG d   1       8.812  -0.387  -5.415  0.00  0.00     0.066 H 
ATOM     20  C   LIG d   1       6.291  -0.755  -3.187  0.00  0.00     0.162 A 
ATOM     21  C   LIG d   1       5.955   0.580  -2.999  0.00  0.00    -0.016 A 
ATOM     22  C   LIG d   1       6.635   1.567  -3.676  0.00  0.00    -0.051 A 
ATOM     23  H   LIG d   1       5.156   0.844  -2.323  0.00  0.00     0.066 H 
ATOM     24  H   LIG d   1       6.370   2.604  -3.530  0.00  0.00     0.062 H 
BRANCH  18  25
ATOM     25  O   LIG d   1       7.654  -2.409  -4.233  0.00  0.00    -0.491 OA
BRANCH  25  26
ATOM     26  C   LIG d   1       8.948  -2.687  -4.772  0.00  0.00     0.079 C 
ATOM     27  H   LIG d   1       8.900  -3.582  -5.392  0.00  0.00     0.066 H 
ATOM     28  H   LIG d   1       9.654  -2.846  -3.958  0.00  0.00     0.066 H 
ATOM     29  H   LIG d   1       9.277  -1.842  -5.378  0.00  0.00     0.066 H 
ENDBRANCH  25  26
ENDBRANCH  18  25
BRANCH  20  30
ATOM     30  O   LIG d   1       5.612  -1.724  -2.521  0.00  0.00    -0.491 OA
BRANCH  30  31
ATOM     31  C   LIG d   1       4.363  -1.353  -1.932  0.00  0.00     0.079 C 
ATOM     32  H   LIG d   1       4.538  -0.955  -0.933  0.00  0.00     0.066 H 
ATOM     33  H   LIG d   1       3.882  -0.595  -2.548  0.00  0.00     0.066 H 
ATOM     34  H   LIG d   1       3.719  -2.231  -1.866  0.00  0.00     0.066 H 
ENDBRANCH  30  31
ENDBRANCH  20  30
ENDBRANCH   9  16
BRANCH   1  35
ATOM     35  O   LIG d   1      12.126   5.924  -0.331  0.00  0.00    -0.422 OA
BRANCH  35  36
ATOM     36  C   LIG d   1      11.283   6.480   0.560  0.00  0.00     0.344 C 
ATOM     37  O   LIG d   1      10.705   5.779   1.368  0.00  0.00    -0.244 OA
BRANCH  36  38
ATOM     38  C   LIG d   1      11.060   7.940   0.556  0.00  0.00     0.059 A 
ATOM     39  C   LIG d   1      10.094   8.499  -0.283  0.00  0.00    -0.048 A 
ATOM     40  C   LIG d   1       9.892   9.863  -0.282  0.00  0.00    -0.058 A 
ATOM     41  H   LIG d   1       9.508   7.865  -0.932  0.00  0.00     0.063 H 
ATOM     42  C   LIG d   1      10.642  10.677   0.548  0.00  0.00    -0.050 A 
ATOM     43  H   LIG d   1       9.145  10.298  -0.932  0.00  0.00     0.062 H 
ATOM     44  C   LIG d   1      11.600  10.130   1.382  0.00  0.00    -0.058 A 
ATOM     45  C   LIG d   1      11.809   8.766   1.395  0.00  0.00    -0.048 A 
ATOM     46  H   LIG d   1      12.183  10.771   2.028  0.00  0.00     0.062 H 
ATOM     47  H   LIG d   1      12.555   8.340   2.050  0.00  0.00     0.063 H 
BRANCH  42  48
ATOM     48  C   LIG d   1      10.414  12.167   0.544  0.00  0.00    -0.040 C 
ATOM     49  H   LIG d   1       9.712  12.425  -0.249  0.00  0.00     0.028 H 
ATOM     50  H   LIG d   1      10.003  12.474   1.507  0.00  0.00     0.028 H 
ATOM     51  H   LIG d   1      11.360  12.680   0.372  0.00  0.00     0.028 H 
ENDBRANCH  42  48
ENDBRANCH  36  38
ENDBRANCH  35  36
ENDBRANCH   1  35
TORSDOF 9
ENDMDL
MODEL 8
REMARK VINA RESULT:      -6.4      3.456      8.647
REMARK  9 active torsions:
REMARK  status: ('A' for Active; 'I' for Inactive)
REMARK    1  A    between atoms: C_1  and  C_2 
REMARK    2  A    between atoms: C_5  and  C_8 
REMARK    3  A    between atoms: C_8  and  O_10 
REMARK    4  A    between atoms: O_10  and  C_11 
REMARK    5  A    between atoms: C_19  and  C_20 
REMARK    6  A    between atoms: C_23  and  O_28 
REMARK    7  A    between atoms: C_24  and  O_26 
REMARK    8  A    between atoms: O_26  and  C_27 
REMARK    9  A    between atoms: O_28  and  C_29 
ROOT
ATOM      1  C   LIG d   1       3.064   0.314  -8.798  0.00  0.00     0.136 A 
ATOM      2  C   LIG d   1       3.539   0.874  -9.980  0.00  0.00    -0.018 A 
ATOM      3  C   LIG d   1       3.248   0.291 -11.181  0.00  0.00    -0.044 A 
ATOM      4  C   LIG d   1       2.472  -0.868 -11.221  0.00  0.00     0.068 A 
ATOM      5  C   LIG d   1       1.986  -1.441 -10.035  0.00  0.00     0.143 A 
ATOM      6  C   LIG d   1       2.292  -0.835  -8.823  0.00  0.00     0.024 A 
ATOM      7  O   LIG d   1       1.267  -2.548 -10.326  0.00  0.00    -0.451 OA
ATOM      8  C   LIG d   1       1.220  -2.782 -11.659  0.00  0.00     0.176 A 
ATOM      9  C   LIG d   1       0.580  -3.812 -12.269  0.00  0.00    -0.008 C 
ATOM     10  C   LIG d   1       1.995  -1.725 -12.323  0.00  0.00     0.232 A 
ATOM     11  O   LIG d   1       2.196  -1.585 -13.517  0.00  0.00    -0.283 OA
ATOM     12  H   LIG d   1       4.139   1.771  -9.948  0.00  0.00     0.065 H 
ATOM     13  H   LIG d   1       3.618   0.726 -12.097  0.00  0.00     0.063 H 
ATOM     14  H   LIG d   1       1.927  -1.262  -7.899  0.00  0.00     0.069 H 
ATOM     15  H   LIG d   1       0.677  -3.952 -13.335  0.00  0.00     0.066 H 
ENDROOT
BRANCH   9  16
ATOM     16  C   LIG d   1      -0.247  -4.733 -11.481  0.00  0.00    -0.018 A 
ATOM     17  C   LIG d   1      -1.642  -4.601 -11.483  0.00  0.00    -0.009 A 
ATOM     18  C   LIG d   1      -2.414  -5.471 -10.739  0.00  0.00     0.162 A 
ATOM     19  H   LIG d   1      -2.111  -3.821 -12.063  0.00  0.00     0.066 H 
ATOM     20  C   LIG d   1      -1.806  -6.475  -9.985  0.00  0.00     0.162 A 
ATOM     21  C   LIG d   1      -0.424  -6.610  -9.986  0.00  0.00    -0.016 A 
ATOM     22  C   LIG d   1       0.355  -5.747 -10.724  0.00  0.00    -0.051 A 
ATOM     23  H   LIG d   1       0.042  -7.391  -9.404  0.00  0.00     0.066 H 
ATOM     24  H   LIG d   1       1.430  -5.852 -10.722  0.00  0.00     0.062 H 
BRANCH  18  25
ATOM     25  O   LIG d   1      -3.768  -5.347 -10.737  0.00  0.00    -0.491 OA
BRANCH  25  26
ATOM     26  C   LIG d   1      -4.332  -4.407  -9.819  0.00  0.00     0.079 C 
ATOM     27  H   LIG d   1      -5.265  -4.803  -9.420  0.00  0.00     0.066 H 
ATOM     28  H   LIG d   1      -4.527  -3.468 -10.335  0.00  0.00     0.066 H 
ATOM     29  H   LIG d   1      -3.631  -4.233  -9.002  0.00  0.00     0.066 H 
ENDBRANCH  25  26
ENDBRANCH  18  25
BRANCH  20  30
ATOM     30  O   LIG d   1      -2.568  -7.326  -9.249  0.00  0.00    -0.491 OA
BRANCH  30  31
ATOM     31  C   LIG d   1      -2.832  -8.612  -9.812  0.00  0.00     0.079 C 
ATOM     32  H   LIG d   1      -2.590  -8.599 -10.874  0.00  0.00     0.066 H 
ATOM     33  H   LIG d   1      -2.222  -9.361  -9.308  0.00  0.00     0.066 H 
ATOM     34  H   LIG d   1      -3.887  -8.855  -9.683  0.00  0.00     0.066 H 
ENDBRANCH  30  31
ENDBRANCH  20  30
ENDBRANCH   9  16
BRANCH   1  35
ATOM     35  O   LIG d   1       3.359   0.901  -7.609  0.00  0.00    -0.422 OA
BRANCH  35  36
ATOM     36  C   LIG d   1       4.406   0.402  -6.924  0.00  0.00     0.344 C 
ATOM     37  O   LIG d   1       5.533   0.532  -7.359  0.00  0.00    -0.244 OA
BRANCH  36  38
ATOM     38  C   LIG d   1       4.184  -0.300  -5.644  0.00  0.00     0.059 A 
ATOM     39  C   LIG d   1       3.084   0.023  -4.848  0.00  0.00    -0.048 A 
ATOM     40  C   LIG d   1       2.884  -0.637  -3.653  0.00  0.00    -0.058 A 
ATOM     41  H   LIG d   1       2.391   0.788  -5.166  0.00  0.00     0.063 H 
ATOM     42  C   LIG d   1       3.770  -1.618  -3.243  0.00  0.00    -0.050 A 
ATOM     43  H   LIG d   1       2.032  -0.388  -3.036  0.00  0.00     0.062 H 
ATOM     44  C   LIG d   1       4.862  -1.943  -4.027  0.00  0.00    -0.058 A 
ATOM     45  C   LIG d   1       5.071  -1.294  -5.227  0.00  0.00    -0.048 A 
ATOM     46  H   LIG d   1       5.550  -2.709  -3.701  0.00  0.00     0.062 H 
ATOM     47  H   LIG d   1       5.923  -1.552  -5.839  0.00  0.00     0.063 H 
BRANCH  42  48
ATOM     48  C   LIG d   1       3.543  -2.335  -1.937  0.00  0.00    -0.040 C 
ATOM     49  H   LIG d   1       3.399  -1.604  -1.141  0.00  0.00     0.028 H 
ATOM     50  H   LIG d   1       2.655  -2.964  -2.018  0.00  0.00     0.028 H 
ATOM     51  H   LIG d   1       4.409  -2.956  -1.708  0.00  0.00     0.028 H 
ENDBRANCH  42  48
ENDBRANCH  36  38
ENDBRANCH  35  36
ENDBRANCH   1  35
TORSDOF 9
ENDMDL
MODEL 9
REMARK VINA RESULT:      -6.4      3.893      6.920
REMARK  9 active torsions:
REMARK  status: ('A' for Active; 'I' for Inactive)
REMARK    1  A    between atoms: C_1  and  C_2 
REMARK    2  A    between atoms: C_5  and  C_8 
REMARK    3  A    between atoms: C_8  and  O_10 
REMARK    4  A    between atoms: O_10  and  C_11 
REMARK    5  A    between atoms: C_19  and  C_20 
REMARK    6  A    between atoms: C_23  and  O_28 
REMARK    7  A    between atoms: C_24  and  O_26 
REMARK    8  A    between atoms: O_26  and  C_27 
REMARK    9  A    between atoms: O_28  and  C_29 
ROOT
ATOM      1  C   LIG d   1       4.014  -3.927  -7.514  0.00  0.00     0.136 A 
ATOM      2  C   LIG d   1       3.638  -4.338  -8.790  0.00  0.00    -0.018 A 
ATOM      3  C   LIG d   1       3.639  -5.667  -9.109  0.00  0.00    -0.044 A 
ATOM      4  C   LIG d   1       4.017  -6.612  -8.156  0.00  0.00     0.068 A 
ATOM      5  C   LIG d   1       4.398  -6.209  -6.866  0.00  0.00     0.143 A 
ATOM      6  C   LIG d   1       4.391  -4.854  -6.557  0.00  0.00     0.024 A 
ATOM      7  O   LIG d   1       4.719  -7.293  -6.126  0.00  0.00    -0.451 OA
ATOM      8  C   LIG d   1       4.582  -8.441  -6.830  0.00  0.00     0.176 A 
ATOM      9  C   LIG d   1       4.827  -9.696  -6.373  0.00  0.00    -0.008 C 
ATOM     10  C   LIG d   1       4.130  -8.082  -8.181  0.00  0.00     0.232 A 
ATOM     11  O   LIG d   1       3.896  -8.831  -9.114  0.00  0.00    -0.283 OA
ATOM     12  H   LIG d   1       3.345  -3.606  -9.527  0.00  0.00     0.065 H 
ATOM     13  H   LIG d   1       3.348  -5.984 -10.100  0.00  0.00     0.063 H 
ATOM     14  H   LIG d   1       4.681  -4.524  -5.569  0.00  0.00     0.069 H 
ATOM     15  H   LIG d   1       4.766 -10.537  -7.046  0.00  0.00     0.066 H 
ENDROOT
BRANCH   9  16
ATOM     16  C   LIG d   1       5.171  -9.909  -4.962  0.00  0.00    -0.018 A 
ATOM     17  C   LIG d   1       6.489  -9.722  -4.525  0.00  0.00    -0.009 A 
ATOM     18  C   LIG d   1       6.806  -9.924  -3.196  0.00  0.00     0.162 A 
ATOM     19  H   LIG d   1       7.254  -9.424  -5.225  0.00  0.00     0.066 H 
ATOM     20  C   LIG d   1       5.817 -10.316  -2.294  0.00  0.00     0.162 A 
ATOM     21  C   LIG d   1       4.509 -10.496  -2.725  0.00  0.00    -0.016 A 
ATOM     22  C   LIG d   1       4.183 -10.298  -4.048  0.00  0.00    -0.051 A 
ATOM     23  H   LIG d   1       3.747 -10.796  -2.022  0.00  0.00     0.066 H 
ATOM     24  H   LIG d   1       3.166 -10.441  -4.382  0.00  0.00     0.062 H 
BRANCH  18  25
ATOM     25  O   LIG d   1       8.084  -9.746  -2.768  0.00  0.00    -0.491 OA
BRANCH  25  26
ATOM     26  C   LIG d   1       8.627  -8.428  -2.878  0.00  0.00     0.079 C 
ATOM     27  H   LIG d   1       9.623  -8.481  -3.317  0.00  0.00     0.066 H 
ATOM     28  H   LIG d   1       8.690  -7.978  -1.888  0.00  0.00     0.066 H 
ATOM     29  H   LIG d   1       7.981  -7.822  -3.512  0.00  0.00     0.066 H 
ENDBRANCH  25  26
ENDBRANCH  18  25
BRANCH  20  30
ATOM     30  O   LIG d   1       6.133 -10.520  -0.988  0.00  0.00    -0.491 OA
BRANCH  30  31
ATOM     31  C   LIG d   1       6.343 -11.872  -0.575  0.00  0.00     0.079 C 
ATOM     32  H   LIG d   1       7.093 -11.897   0.216  0.00  0.00     0.066 H 
ATOM     33  H   LIG d   1       5.408 -12.288  -0.204  0.00  0.00     0.066 H 
ATOM     34  H   LIG d   1       6.691 -12.461  -1.424  0.00  0.00     0.066 H 
ENDBRANCH  30  31
ENDBRANCH  20  30
ENDBRANCH   9  16
BRANCH   1  35
ATOM     35  O   LIG d   1       4.010  -2.605  -7.205  0.00  0.00    -0.422 OA
BRANCH  35  36
ATOM     36  C   LIG d   1       5.099  -2.120  -6.577  0.00  0.00     0.344 C 
ATOM     37  O   LIG d   1       6.201  -2.278  -7.063  0.00  0.00    -0.244 OA
BRANCH  36  38
ATOM     38  C   LIG d   1       4.953  -1.395  -5.299  0.00  0.00     0.059 A 
ATOM     39  C   LIG d   1       3.933  -0.455  -5.138  0.00  0.00    -0.048 A 
ATOM     40  C   LIG d   1       3.804   0.219  -3.941  0.00  0.00    -0.058 A 
ATOM     41  H   LIG d   1       3.249  -0.254  -5.949  0.00  0.00     0.063 H 
ATOM     42  C   LIG d   1       4.680  -0.036  -2.901  0.00  0.00    -0.050 A 
ATOM     43  H   LIG d   1       3.015   0.947  -3.816  0.00  0.00     0.062 H 
ATOM     44  C   LIG d   1       5.692  -0.966  -3.053  0.00  0.00    -0.058 A 
ATOM     45  C   LIG d   1       5.830  -1.651  -4.243  0.00  0.00    -0.048 A 
ATOM     46  H   LIG d   1       6.373  -1.160  -2.238  0.00  0.00     0.062 H 
ATOM     47  H   LIG d   1       6.619  -2.380  -4.359  0.00  0.00     0.063 H 
BRANCH  42  48
ATOM     48  C   LIG d   1       4.530   0.704  -1.596  0.00  0.00    -0.040 C 
ATOM     49  H   LIG d   1       5.262   1.511  -1.550  0.00  0.00     0.028 H 
ATOM     50  H   LIG d   1       3.525   1.120  -1.529  0.00  0.00     0.028 H 
ATOM     51  H   LIG d   1       4.696   0.015  -0.767  0.00  0.00     0.028 H 
ENDBRANCH  42  48
ENDBRANCH  36  38
ENDBRANCH  35  36
ENDBRANCH   1  35
TORSDOF 9
ENDMDL
