MODEL 1
REMARK VINA RESULT:      -5.9      0.000      0.000
REMARK  3 active torsions:
REMARK  status: ('A' for Active; 'I' for Inactive)
REMARK    1  A    between atoms: C_1  and  O_2 
REMARK    2  A    between atoms: O_2  and  C_3 
REMARK    3  A    between atoms: C_7  and  C_14 
ROOT
ATOM      1  C   LIG d   1       3.235  -0.149  -9.232  0.00  0.00     0.124 A 
ATOM      2  C   LIG d   1       3.219   0.726  -8.149  0.00  0.00    -0.019 A 
ATOM      3  C   LIG d   1       3.595   0.298  -6.909  0.00  0.00    -0.047 A 
ATOM      4  C   LIG d   1       4.010  -1.024  -6.727  0.00  0.00     0.025 A 
ATOM      5  C   LIG d   1       4.426  -1.512  -5.402  0.00  0.00    -0.001 A 
ATOM      6  C   LIG d   1       4.825  -2.831  -5.295  0.00  0.00     0.031 A 
ATOM      7  C   LIG d   1       4.820  -3.651  -6.437  0.00  0.00     0.338 A 
ATOM      8  O   LIG d   1       5.172  -4.813  -6.334  0.00  0.00    -0.245 OA
ATOM      9  O   LIG d   1       4.437  -3.189  -7.638  0.00  0.00    -0.422 OA
ATOM     10  C   LIG d   1       4.035  -1.912  -7.816  0.00  0.00     0.143 A 
ATOM     11  C   LIG d   1       3.645  -1.462  -9.069  0.00  0.00     0.023 A 
ATOM     12  H   LIG d   1       2.901   1.750  -8.289  0.00  0.00     0.065 H 
ATOM     13  H   LIG d   1       3.577   0.979  -6.071  0.00  0.00     0.063 H 
ATOM     14  H   LIG d   1       5.138  -3.230  -4.342  0.00  0.00     0.070 H 
ATOM     15  H   LIG d   1       3.659  -2.135  -9.914  0.00  0.00     0.069 H 
ENDROOT
BRANCH   5  16
ATOM     16  C   LIG d   1       4.419  -0.620  -4.222  0.00  0.00    -0.017 A 
ATOM     17  C   LIG d   1       3.253  -0.457  -3.472  0.00  0.00    -0.054 A 
ATOM     18  C   LIG d   1       3.253   0.376  -2.373  0.00  0.00    -0.061 A 
ATOM     19  H   LIG d   1       2.352  -0.983  -3.753  0.00  0.00     0.062 H 
ATOM     20  C   LIG d   1       4.406   1.051  -2.013  0.00  0.00    -0.062 A 
ATOM     21  H   LIG d   1       2.352   0.504  -1.793  0.00  0.00     0.062 H 
ATOM     22  C   LIG d   1       5.566   0.895  -2.752  0.00  0.00    -0.061 A 
ATOM     23  H   LIG d   1       4.401   1.702  -1.152  0.00  0.00     0.062 H 
ATOM     24  C   LIG d   1       5.581   0.060  -3.850  0.00  0.00    -0.054 A 
ATOM     25  H   LIG d   1       6.462   1.424  -2.466  0.00  0.00     0.062 H 
ATOM     26  H   LIG d   1       6.487  -0.065  -4.423  0.00  0.00     0.062 H 
ENDBRANCH   5  16
BRANCH   1  27
ATOM     27  O   LIG d   1       2.854   0.289 -10.459  0.00  0.00    -0.495 OA
BRANCH  27  28
ATOM     28  C   LIG d   1       3.894   0.678 -11.360  0.00  0.00     0.079 C 
ATOM     29  H   LIG d   1       4.755   1.030 -10.791  0.00  0.00     0.066 H 
ATOM     30  H   LIG d   1       3.534   1.479 -12.006  0.00  0.00     0.066 H 
ATOM     31  H   LIG d   1       4.185  -0.177 -11.970  0.00  0.00     0.066 H 
ENDBRANCH  27  28
ENDBRANCH   1  27
TORSDOF 3
ENDMDL
MODEL 2
REMARK VINA RESULT:      -5.8      3.698      5.459
REMARK  3 active torsions:
REMARK  status: ('A' for Active; 'I' for Inactive)
REMARK    1  A    between atoms: C_1  and  O_2 
REMARK    2  A    between atoms: O_2  and  C_3 
REMARK    3  A    between atoms: C_7  and  C_14 
ROOT
ATOM      1  C   LIG d   1       9.409  -4.460  -4.894  0.00  0.00     0.124 A 
ATOM      2  C   LIG d   1       9.251  -3.279  -4.174  0.00  0.00    -0.019 A 
ATOM      3  C   LIG d   1       8.007  -2.758  -3.965  0.00  0.00    -0.047 A 
ATOM      4  C   LIG d   1       6.884  -3.419  -4.468  0.00  0.00     0.025 A 
ATOM      5  C   LIG d   1       5.529  -2.884  -4.254  0.00  0.00    -0.001 A 
ATOM      6  C   LIG d   1       4.464  -3.591  -4.779  0.00  0.00     0.031 A 
ATOM      7  C   LIG d   1       4.705  -4.779  -5.489  0.00  0.00     0.338 A 
ATOM      8  O   LIG d   1       3.760  -5.396  -5.949  0.00  0.00    -0.245 OA
ATOM      9  O   LIG d   1       5.946  -5.254  -5.675  0.00  0.00    -0.422 OA
ATOM     10  C   LIG d   1       7.034  -4.615  -5.190  0.00  0.00     0.143 A 
ATOM     11  C   LIG d   1       8.306  -5.129  -5.398  0.00  0.00     0.023 A 
ATOM     12  H   LIG d   1      10.119  -2.768  -3.782  0.00  0.00     0.065 H 
ATOM     13  H   LIG d   1       7.890  -1.838  -3.410  0.00  0.00     0.063 H 
ATOM     14  H   LIG d   1       3.454  -3.233  -4.644  0.00  0.00     0.070 H 
ATOM     15  H   LIG d   1       8.435  -6.047  -5.952  0.00  0.00     0.069 H 
ENDROOT
BRANCH   5  16
ATOM     16  C   LIG d   1       5.315  -1.629  -3.500  0.00  0.00    -0.017 A 
ATOM     17  C   LIG d   1       4.585  -1.641  -2.311  0.00  0.00    -0.054 A 
ATOM     18  C   LIG d   1       4.388  -0.467  -1.613  0.00  0.00    -0.061 A 
ATOM     19  H   LIG d   1       4.174  -2.568  -1.938  0.00  0.00     0.062 H 
ATOM     20  C   LIG d   1       4.913   0.720  -2.089  0.00  0.00    -0.062 A 
ATOM     21  H   LIG d   1       3.823  -0.475  -0.693  0.00  0.00     0.062 H 
ATOM     22  C   LIG d   1       5.637   0.740  -3.269  0.00  0.00    -0.061 A 
ATOM     23  H   LIG d   1       4.757   1.637  -1.540  0.00  0.00     0.062 H 
ATOM     24  C   LIG d   1       5.846  -0.428  -3.973  0.00  0.00    -0.054 A 
ATOM     25  H   LIG d   1       6.045   1.670  -3.635  0.00  0.00     0.062 H 
ATOM     26  H   LIG d   1       6.416  -0.412  -4.890  0.00  0.00     0.062 H 
ENDBRANCH   5  16
BRANCH   1  27
ATOM     27  O   LIG d   1      10.653  -4.965  -5.098  0.00  0.00    -0.495 OA
BRANCH  27  28
ATOM     28  C   LIG d   1      11.497  -5.090  -3.951  0.00  0.00     0.079 C 
ATOM     29  H   LIG d   1      10.894  -5.018  -3.046  0.00  0.00     0.066 H 
ATOM     30  H   LIG d   1      12.239  -4.291  -3.958  0.00  0.00     0.066 H 
ATOM     31  H   LIG d   1      12.003  -6.055  -3.976  0.00  0.00     0.066 H 
ENDBRANCH  27  28
ENDBRANCH   1  27
TORSDOF 3
ENDMDL
MODEL 3
REMARK VINA RESULT:      -5.8      3.388      4.297
REMARK  3 active torsions:
REMARK  status: ('A' for Active; 'I' for Inactive)
REMARK    1  A    between atoms: C_1  and  O_2 
REMARK    2  A    between atoms: O_2  and  C_3 
REMARK    3  A    between atoms: C_7  and  C_14 
ROOT
ATOM      1  C   LIG d   1       5.045  -5.062  -6.600  0.00  0.00     0.124 A 
ATOM      2  C   LIG d   1       4.306  -3.997  -6.090  0.00  0.00    -0.019 A 
ATOM      3  C   LIG d   1       4.854  -3.156  -5.165  0.00  0.00    -0.047 A 
ATOM      4  C   LIG d   1       6.168  -3.357  -4.735  0.00  0.00     0.025 A 
ATOM      5  C   LIG d   1       6.786  -2.463  -3.743  0.00  0.00    -0.001 A 
ATOM      6  C   LIG d   1       8.090  -2.722  -3.363  0.00  0.00     0.031 A 
ATOM      7  C   LIG d   1       8.772  -3.813  -3.928  0.00  0.00     0.338 A 
ATOM      8  O   LIG d   1       9.921  -4.034  -3.588  0.00  0.00    -0.245 OA
ATOM      9  O   LIG d   1       8.193  -4.619  -4.832  0.00  0.00    -0.422 OA
ATOM     10  C   LIG d   1       6.923  -4.426  -5.249  0.00  0.00     0.143 A 
ATOM     11  C   LIG d   1       6.349  -5.275  -6.185  0.00  0.00     0.023 A 
ATOM     12  H   LIG d   1       3.291  -3.838  -6.425  0.00  0.00     0.065 H 
ATOM     13  H   LIG d   1       4.275  -2.334  -4.769  0.00  0.00     0.063 H 
ATOM     14  H   LIG d   1       8.581  -2.091  -2.638  0.00  0.00     0.070 H 
ATOM     15  H   LIG d   1       6.918  -6.100  -6.588  0.00  0.00     0.069 H 
ENDROOT
BRANCH   5  16
ATOM     16  C   LIG d   1       6.037  -1.324  -3.169  0.00  0.00    -0.017 A 
ATOM     17  C   LIG d   1       4.947  -1.553  -2.329  0.00  0.00    -0.054 A 
ATOM     18  C   LIG d   1       4.252  -0.485  -1.798  0.00  0.00    -0.061 A 
ATOM     19  H   LIG d   1       4.647  -2.564  -2.096  0.00  0.00     0.062 H 
ATOM     20  C   LIG d   1       4.635   0.810  -2.097  0.00  0.00    -0.062 A 
ATOM     21  H   LIG d   1       3.408  -0.661  -1.148  0.00  0.00     0.062 H 
ATOM     22  C   LIG d   1       5.715   1.044  -2.930  0.00  0.00    -0.061 A 
ATOM     23  H   LIG d   1       4.088   1.642  -1.678  0.00  0.00     0.062 H 
ATOM     24  C   LIG d   1       6.421  -0.014  -3.463  0.00  0.00    -0.054 A 
ATOM     25  H   LIG d   1       6.008   2.057  -3.159  0.00  0.00     0.062 H 
ATOM     26  H   LIG d   1       7.266   0.170  -4.109  0.00  0.00     0.062 H 
ENDBRANCH   5  16
BRANCH   1  27
ATOM     27  O   LIG d   1       4.486  -5.893  -7.517  0.00  0.00    -0.495 OA
BRANCH  27  28
ATOM     28  C   LIG d   1       3.599  -5.304  -8.470  0.00  0.00     0.079 C 
ATOM     29  H   LIG d   1       3.791  -4.233  -8.532  0.00  0.00     0.066 H 
ATOM     30  H   LIG d   1       2.567  -5.470  -8.157  0.00  0.00     0.066 H 
ATOM     31  H   LIG d   1       3.760  -5.760  -9.446  0.00  0.00     0.066 H 
ENDBRANCH  27  28
ENDBRANCH   1  27
TORSDOF 3
ENDMDL
MODEL 4
REMARK VINA RESULT:      -5.7      1.253      4.120
REMARK  3 active torsions:
REMARK  status: ('A' for Active; 'I' for Inactive)
REMARK    1  A    between atoms: C_1  and  O_2 
REMARK    2  A    between atoms: O_2  and  C_3 
REMARK    3  A    between atoms: C_7  and  C_14 
ROOT
ATOM      1  C   LIG d   1       5.148  -4.891  -6.445  0.00  0.00     0.124 A 
ATOM      2  C   LIG d   1       5.298  -4.349  -5.170  0.00  0.00    -0.019 A 
ATOM      3  C   LIG d   1       4.990  -3.040  -4.936  0.00  0.00    -0.047 A 
ATOM      4  C   LIG d   1       4.511  -2.242  -5.978  0.00  0.00     0.025 A 
ATOM      5  C   LIG d   1       4.166  -0.829  -5.753  0.00  0.00    -0.001 A 
ATOM      6  C   LIG d   1       3.698  -0.098  -6.829  0.00  0.00     0.031 A 
ATOM      7  C   LIG d   1       3.569  -0.719  -8.083  0.00  0.00     0.338 A 
ATOM      8  O   LIG d   1       3.156  -0.068  -9.027  0.00  0.00    -0.245 OA
ATOM      9  O   LIG d   1       3.888  -2.009  -8.271  0.00  0.00    -0.422 OA
ATOM     10  C   LIG d   1       4.351  -2.782  -7.265  0.00  0.00     0.143 A 
ATOM     11  C   LIG d   1       4.674  -4.114  -7.488  0.00  0.00     0.023 A 
ATOM     12  H   LIG d   1       5.665  -4.967  -4.363  0.00  0.00     0.065 H 
ATOM     13  H   LIG d   1       5.112  -2.623  -3.947  0.00  0.00     0.063 H 
ATOM     14  H   LIG d   1       3.434   0.942  -6.707  0.00  0.00     0.070 H 
ATOM     15  H   LIG d   1       4.556  -4.541  -8.473  0.00  0.00     0.069 H 
ENDROOT
BRANCH   5  16
ATOM     16  C   LIG d   1       4.315  -0.209  -4.418  0.00  0.00    -0.017 A 
ATOM     17  C   LIG d   1       3.199  -0.031  -3.599  0.00  0.00    -0.054 A 
ATOM     18  C   LIG d   1       3.345   0.547  -2.354  0.00  0.00    -0.061 A 
ATOM     19  H   LIG d   1       2.223  -0.345  -3.939  0.00  0.00     0.062 H 
ATOM     20  C   LIG d   1       4.594   0.950  -1.918  0.00  0.00    -0.062 A 
ATOM     21  H   LIG d   1       2.482   0.686  -1.720  0.00  0.00     0.062 H 
ATOM     22  C   LIG d   1       5.705   0.778  -2.725  0.00  0.00    -0.061 A 
ATOM     23  H   LIG d   1       4.703   1.402  -0.943  0.00  0.00     0.062 H 
ATOM     24  C   LIG d   1       5.574   0.195  -3.969  0.00  0.00    -0.054 A 
ATOM     25  H   LIG d   1       6.677   1.094  -2.379  0.00  0.00     0.062 H 
ATOM     26  H   LIG d   1       6.442   0.057  -4.596  0.00  0.00     0.062 H 
ENDBRANCH   5  16
BRANCH   1  27
ATOM     27  O   LIG d   1       5.462  -6.193  -6.665  0.00  0.00    -0.495 OA
BRANCH  27  28
ATOM     28  C   LIG d   1       4.985  -7.145  -5.712  0.00  0.00     0.079 C 
ATOM     29  H   LIG d   1       5.830  -7.672  -5.269  0.00  0.00     0.066 H 
ATOM     30  H   LIG d   1       4.331  -7.862  -6.210  0.00  0.00     0.066 H 
ATOM     31  H   LIG d   1       4.429  -6.629  -4.930  0.00  0.00     0.066 H 
ENDBRANCH  27  28
ENDBRANCH   1  27
TORSDOF 3
ENDMDL
MODEL 5
REMARK VINA RESULT:      -5.6      2.166      2.459
REMARK  3 active torsions:
REMARK  status: ('A' for Active; 'I' for Inactive)
REMARK    1  A    between atoms: C_1  and  O_2 
REMARK    2  A    between atoms: O_2  and  C_3 
REMARK    3  A    between atoms: C_7  and  C_14 
ROOT
ATOM      1  C   LIG d   1       3.317  -0.028  -8.887  0.00  0.00     0.124 A 
ATOM      2  C   LIG d   1       2.782  -0.057  -7.601  0.00  0.00    -0.019 A 
ATOM      3  C   LIG d   1       3.596  -0.216  -6.517  0.00  0.00    -0.047 A 
ATOM      4  C   LIG d   1       4.976  -0.340  -6.697  0.00  0.00     0.025 A 
ATOM      5  C   LIG d   1       5.879  -0.507  -5.547  0.00  0.00    -0.001 A 
ATOM      6  C   LIG d   1       7.233  -0.623  -5.799  0.00  0.00     0.031 A 
ATOM      7  C   LIG d   1       7.696  -0.578  -7.124  0.00  0.00     0.338 A 
ATOM      8  O   LIG d   1       8.892  -0.681  -7.338  0.00  0.00    -0.245 OA
ATOM      9  O   LIG d   1       6.860  -0.425  -8.162  0.00  0.00    -0.422 OA
ATOM     10  C   LIG d   1       5.525  -0.305  -7.990  0.00  0.00     0.143 A 
ATOM     11  C   LIG d   1       4.683  -0.148  -9.083  0.00  0.00     0.023 A 
ATOM     12  H   LIG d   1       1.715   0.041  -7.461  0.00  0.00     0.065 H 
ATOM     13  H   LIG d   1       3.176  -0.243  -5.522  0.00  0.00     0.063 H 
ATOM     14  H   LIG d   1       7.929  -0.747  -4.983  0.00  0.00     0.070 H 
ATOM     15  H   LIG d   1       5.092  -0.121 -10.081  0.00  0.00     0.069 H 
ENDROOT
BRANCH   5  16
ATOM     16  C   LIG d   1       5.354  -0.550  -4.164  0.00  0.00    -0.017 A 
ATOM     17  C   LIG d   1       4.889  -1.751  -3.627  0.00  0.00    -0.054 A 
ATOM     18  C   LIG d   1       4.401  -1.784  -2.337  0.00  0.00    -0.061 A 
ATOM     19  H   LIG d   1       4.910  -2.653  -4.221  0.00  0.00     0.062 H 
ATOM     20  C   LIG d   1       4.372  -0.629  -1.576  0.00  0.00    -0.062 A 
ATOM     21  H   LIG d   1       4.040  -2.712  -1.920  0.00  0.00     0.062 H 
ATOM     22  C   LIG d   1       4.831   0.566  -2.102  0.00  0.00    -0.061 A 
ATOM     23  H   LIG d   1       3.989  -0.660  -0.566  0.00  0.00     0.062 H 
ATOM     24  C   LIG d   1       5.327   0.611  -3.388  0.00  0.00    -0.054 A 
ATOM     25  H   LIG d   1       4.806   1.463  -1.503  0.00  0.00     0.062 H 
ATOM     26  H   LIG d   1       5.689   1.543  -3.796  0.00  0.00     0.062 H 
ENDBRANCH   5  16
BRANCH   1  27
ATOM     27  O   LIG d   1       2.495   0.126  -9.956  0.00  0.00    -0.495 OA
BRANCH  27  28
ATOM     28  C   LIG d   1       1.420  -0.807 -10.088  0.00  0.00     0.079 C 
ATOM     29  H   LIG d   1       1.808  -1.822 -10.004  0.00  0.00     0.066 H 
ATOM     30  H   LIG d   1       0.945  -0.679 -11.060  0.00  0.00     0.066 H 
ATOM     31  H   LIG d   1       0.688  -0.631  -9.300  0.00  0.00     0.066 H 
ENDBRANCH  27  28
ENDBRANCH   1  27
TORSDOF 3
ENDMDL
MODEL 6
REMARK VINA RESULT:      -5.5      3.730      5.534
REMARK  3 active torsions:
REMARK  status: ('A' for Active; 'I' for Inactive)
REMARK    1  A    between atoms: C_1  and  O_2 
REMARK    2  A    between atoms: O_2  and  C_3 
REMARK    3  A    between atoms: C_7  and  C_14 
ROOT
ATOM      1  C   LIG d   1       9.503   1.943  -4.324  0.00  0.00     0.124 A 
ATOM      2  C   LIG d   1       8.246   2.062  -3.736  0.00  0.00    -0.019 A 
ATOM      3  C   LIG d   1       7.339   1.046  -3.832  0.00  0.00    -0.047 A 
ATOM      4  C   LIG d   1       7.678  -0.125  -4.515  0.00  0.00     0.025 A 
ATOM      5  C   LIG d   1       6.722  -1.239  -4.630  0.00  0.00    -0.001 A 
ATOM      6  C   LIG d   1       7.125  -2.367  -5.319  0.00  0.00     0.031 A 
ATOM      7  C   LIG d   1       8.413  -2.414  -5.879  0.00  0.00     0.338 A 
ATOM      8  O   LIG d   1       8.760  -3.412  -6.486  0.00  0.00    -0.245 OA
ATOM      9  O   LIG d   1       9.272  -1.389  -5.765  0.00  0.00    -0.422 OA
ATOM     10  C   LIG d   1       8.946  -0.256  -5.105  0.00  0.00     0.143 A 
ATOM     11  C   LIG d   1       9.855   0.788  -5.003  0.00  0.00     0.023 A 
ATOM     12  H   LIG d   1       7.984   2.966  -3.205  0.00  0.00     0.065 H 
ATOM     13  H   LIG d   1       6.364   1.145  -3.378  0.00  0.00     0.063 H 
ATOM     14  H   LIG d   1       6.455  -3.207  -5.427  0.00  0.00     0.070 H 
ATOM     15  H   LIG d   1      10.833   0.701  -5.453  0.00  0.00     0.069 H 
ENDROOT
BRANCH   5  16
ATOM     16  C   LIG d   1       5.374  -1.154  -4.027  0.00  0.00    -0.017 A 
ATOM     17  C   LIG d   1       5.120  -1.750  -2.791  0.00  0.00    -0.054 A 
ATOM     18  C   LIG d   1       3.860  -1.668  -2.234  0.00  0.00    -0.061 A 
ATOM     19  H   LIG d   1       5.908  -2.277  -2.272  0.00  0.00     0.062 H 
ATOM     20  C   LIG d   1       2.850  -0.995  -2.898  0.00  0.00    -0.062 A 
ATOM     21  H   LIG d   1       3.662  -2.129  -1.278  0.00  0.00     0.062 H 
ATOM     22  C   LIG d   1       3.095  -0.402  -4.124  0.00  0.00    -0.061 A 
ATOM     23  H   LIG d   1       1.866  -0.932  -2.458  0.00  0.00     0.062 H 
ATOM     24  C   LIG d   1       4.352  -0.472  -4.689  0.00  0.00    -0.054 A 
ATOM     25  H   LIG d   1       2.303   0.122  -4.637  0.00  0.00     0.062 H 
ATOM     26  H   LIG d   1       4.543  -0.005  -5.644  0.00  0.00     0.062 H 
ENDBRANCH   5  16
BRANCH   1  27
ATOM     27  O   LIG d   1      10.393   2.963  -4.224  0.00  0.00    -0.495 OA
BRANCH  27  28
ATOM     28  C   LIG d   1      10.667   3.458  -2.912  0.00  0.00     0.079 C 
ATOM     29  H   LIG d   1      10.616   4.547  -2.916  0.00  0.00     0.066 H 
ATOM     30  H   LIG d   1      11.665   3.143  -2.605  0.00  0.00     0.066 H 
ATOM     31  H   LIG d   1       9.931   3.062  -2.213  0.00  0.00     0.066 H 
ENDBRANCH  27  28
ENDBRANCH   1  27
TORSDOF 3
ENDMDL
MODEL 7
REMARK VINA RESULT:      -5.4      2.696      4.071
REMARK  3 active torsions:
REMARK  status: ('A' for Active; 'I' for Inactive)
REMARK    1  A    between atoms: C_1  and  O_2 
REMARK    2  A    between atoms: O_2  and  C_3 
REMARK    3  A    between atoms: C_7  and  C_14 
ROOT
ATOM      1  C   LIG d   1       2.978  -0.128  -7.775  0.00  0.00     0.124 A 
ATOM      2  C   LIG d   1       3.975  -1.096  -7.872  0.00  0.00    -0.019 A 
ATOM      3  C   LIG d   1       4.647  -1.511  -6.758  0.00  0.00    -0.047 A 
ATOM      4  C   LIG d   1       4.326  -0.968  -5.512  0.00  0.00     0.025 A 
ATOM      5  C   LIG d   1       5.030  -1.400  -4.293  0.00  0.00    -0.001 A 
ATOM      6  C   LIG d   1       4.661  -0.821  -3.093  0.00  0.00     0.031 A 
ATOM      7  C   LIG d   1       3.641   0.145  -3.076  0.00  0.00     0.338 A 
ATOM      8  O   LIG d   1       3.322   0.651  -2.014  0.00  0.00    -0.245 OA
ATOM      9  O   LIG d   1       3.009   0.528  -4.197  0.00  0.00    -0.422 OA
ATOM     10  C   LIG d   1       3.318   0.005  -5.403  0.00  0.00     0.143 A 
ATOM     11  C   LIG d   1       2.648   0.419  -6.546  0.00  0.00     0.023 A 
ATOM     12  H   LIG d   1       4.221  -1.519  -8.835  0.00  0.00     0.065 H 
ATOM     13  H   LIG d   1       5.422  -2.259  -6.840  0.00  0.00     0.063 H 
ATOM     14  H   LIG d   1       5.152  -1.110  -2.176  0.00  0.00     0.070 H 
ATOM     15  H   LIG d   1       1.872   1.167  -6.476  0.00  0.00     0.069 H 
ENDROOT
BRANCH   5  16
ATOM     16  C   LIG d   1       6.099  -2.422  -4.350  0.00  0.00    -0.017 A 
ATOM     17  C   LIG d   1       5.860  -3.654  -4.958  0.00  0.00    -0.054 A 
ATOM     18  C   LIG d   1       6.860  -4.602  -5.008  0.00  0.00    -0.061 A 
ATOM     19  H   LIG d   1       4.891  -3.866  -5.389  0.00  0.00     0.062 H 
ATOM     20  C   LIG d   1       8.100  -4.333  -4.456  0.00  0.00    -0.062 A 
ATOM     21  H   LIG d   1       6.676  -5.557  -5.478  0.00  0.00     0.062 H 
ATOM     22  C   LIG d   1       8.344  -3.113  -3.851  0.00  0.00    -0.061 A 
ATOM     23  H   LIG d   1       8.881  -5.078  -4.498  0.00  0.00     0.062 H 
ATOM     24  C   LIG d   1       7.354  -2.154  -3.800  0.00  0.00    -0.054 A 
ATOM     25  H   LIG d   1       9.314  -2.909  -3.422  0.00  0.00     0.062 H 
ATOM     26  H   LIG d   1       7.547  -1.201  -3.331  0.00  0.00     0.062 H 
ENDBRANCH   5  16
BRANCH   1  27
ATOM     27  O   LIG d   1       2.321   0.278  -8.890  0.00  0.00    -0.495 OA
BRANCH  27  28
ATOM     28  C   LIG d   1       1.628  -0.725  -9.636  0.00  0.00     0.079 C 
ATOM     29  H   LIG d   1       1.136  -1.413  -8.948  0.00  0.00     0.066 H 
ATOM     30  H   LIG d   1       2.338  -1.275 -10.253  0.00  0.00     0.066 H 
ATOM     31  H   LIG d   1       0.881  -0.253 -10.274  0.00  0.00     0.066 H 
ENDBRANCH  27  28
ENDBRANCH   1  27
TORSDOF 3
ENDMDL
MODEL 8
REMARK VINA RESULT:      -5.3      3.635      5.318
REMARK  3 active torsions:
REMARK  status: ('A' for Active; 'I' for Inactive)
REMARK    1  A    between atoms: C_1  and  O_2 
REMARK    2  A    between atoms: O_2  and  C_3 
REMARK    3  A    between atoms: C_7  and  C_14 
ROOT
ATOM      1  C   LIG d   1       5.783  -6.603  -6.004  0.00  0.00     0.124 A 
ATOM      2  C   LIG d   1       4.636  -5.866  -5.718  0.00  0.00    -0.019 A 
ATOM      3  C   LIG d   1       4.736  -4.604  -5.208  0.00  0.00    -0.047 A 
ATOM      4  C   LIG d   1       5.995  -4.044  -4.981  0.00  0.00     0.025 A 
ATOM      5  C   LIG d   1       6.133  -2.683  -4.436  0.00  0.00    -0.001 A 
ATOM      6  C   LIG d   1       7.410  -2.192  -4.238  0.00  0.00     0.031 A 
ATOM      7  C   LIG d   1       8.518  -2.995  -4.557  0.00  0.00     0.338 A 
ATOM      8  O   LIG d   1       9.640  -2.555  -4.379  0.00  0.00    -0.245 OA
ATOM      9  O   LIG d   1       8.375  -4.234  -5.053  0.00  0.00    -0.422 OA
ATOM     10  C   LIG d   1       7.158  -4.778  -5.272  0.00  0.00     0.143 A 
ATOM     11  C   LIG d   1       7.039  -6.062  -5.786  0.00  0.00     0.023 A 
ATOM     12  H   LIG d   1       3.662  -6.297  -5.896  0.00  0.00     0.065 H 
ATOM     13  H   LIG d   1       3.844  -4.038  -4.983  0.00  0.00     0.063 H 
ATOM     14  H   LIG d   1       7.555  -1.199  -3.840  0.00  0.00     0.070 H 
ATOM     15  H   LIG d   1       7.925  -6.637  -6.013  0.00  0.00     0.069 H 
ENDROOT
BRANCH   5  16
ATOM     16  C   LIG d   1       4.943  -1.866  -4.112  0.00  0.00    -0.017 A 
ATOM     17  C   LIG d   1       4.311  -2.007  -2.877  0.00  0.00    -0.054 A 
ATOM     18  C   LIG d   1       3.202  -1.242  -2.581  0.00  0.00    -0.061 A 
ATOM     19  H   LIG d   1       4.689  -2.714  -2.153  0.00  0.00     0.062 H 
ATOM     20  C   LIG d   1       2.715  -0.336  -3.506  0.00  0.00    -0.062 A 
ATOM     21  H   LIG d   1       2.711  -1.350  -1.625  0.00  0.00     0.062 H 
ATOM     22  C   LIG d   1       3.337  -0.192  -4.734  0.00  0.00    -0.061 A 
ATOM     23  H   LIG d   1       1.847   0.261  -3.270  0.00  0.00     0.062 H 
ATOM     24  C   LIG d   1       4.451  -0.946  -5.040  0.00  0.00    -0.054 A 
ATOM     25  H   LIG d   1       2.953   0.517  -5.453  0.00  0.00     0.062 H 
ATOM     26  H   LIG d   1       4.938  -0.829  -5.997  0.00  0.00     0.062 H 
ENDBRANCH   5  16
BRANCH   1  27
ATOM     27  O   LIG d   1       5.670  -7.859  -6.507  0.00  0.00    -0.495 OA
BRANCH  27  28
ATOM     28  C   LIG d   1       6.876  -8.502  -6.924  0.00  0.00     0.079 C 
ATOM     29  H   LIG d   1       7.350  -7.911  -7.708  0.00  0.00     0.066 H 
ATOM     30  H   LIG d   1       6.645  -9.496  -7.307  0.00  0.00     0.066 H 
ATOM     31  H   LIG d   1       7.554  -8.589  -6.074  0.00  0.00     0.066 H 
ENDBRANCH  27  28
ENDBRANCH   1  27
TORSDOF 3
ENDMDL
MODEL 9
REMARK VINA RESULT:      -5.3      2.545      4.856
REMARK  3 active torsions:
REMARK  status: ('A' for Active; 'I' for Inactive)
REMARK    1  A    between atoms: C_1  and  O_2 
REMARK    2  A    between atoms: O_2  and  C_3 
REMARK    3  A    between atoms: C_7  and  C_14 
ROOT
ATOM      1  C   LIG d   1       3.797  -4.805  -7.686  0.00  0.00     0.124 A 
ATOM      2  C   LIG d   1       3.544  -3.810  -8.628  0.00  0.00    -0.019 A 
ATOM      3  C   LIG d   1       3.778  -2.499  -8.328  0.00  0.00    -0.047 A 
ATOM      4  C   LIG d   1       4.284  -2.153  -7.073  0.00  0.00     0.025 A 
ATOM      5  C   LIG d   1       4.550  -0.748  -6.723  0.00  0.00    -0.001 A 
ATOM      6  C   LIG d   1       5.051  -0.479  -5.463  0.00  0.00     0.031 A 
ATOM      7  C   LIG d   1       5.286  -1.538  -4.571  0.00  0.00     0.338 A 
ATOM      8  O   LIG d   1       5.728  -1.292  -3.462  0.00  0.00    -0.245 OA
ATOM      9  O   LIG d   1       5.038  -2.814  -4.905  0.00  0.00    -0.422 OA
ATOM     10  C   LIG d   1       4.548  -3.151  -6.119  0.00  0.00     0.143 A 
ATOM     11  C   LIG d   1       4.300  -4.479  -6.437  0.00  0.00     0.023 A 
ATOM     12  H   LIG d   1       3.156  -4.077  -9.600  0.00  0.00     0.065 H 
ATOM     13  H   LIG d   1       3.576  -1.731  -9.060  0.00  0.00     0.063 H 
ATOM     14  H   LIG d   1       5.261   0.538  -5.167  0.00  0.00     0.070 H 
ATOM     15  H   LIG d   1       4.498  -5.255  -5.713  0.00  0.00     0.069 H 
ENDROOT
BRANCH   5  16
ATOM     16  C   LIG d   1       4.291   0.342  -7.690  0.00  0.00    -0.017 A 
ATOM     17  C   LIG d   1       3.029   0.933  -7.758  0.00  0.00    -0.054 A 
ATOM     18  C   LIG d   1       2.793   1.948  -8.662  0.00  0.00    -0.061 A 
ATOM     19  H   LIG d   1       2.237   0.595  -7.105  0.00  0.00     0.062 H 
ATOM     20  C   LIG d   1       3.805   2.381  -9.499  0.00  0.00    -0.062 A 
ATOM     21  H   LIG d   1       1.817   2.406  -8.716  0.00  0.00     0.062 H 
ATOM     22  C   LIG d   1       5.059   1.799  -9.437  0.00  0.00    -0.061 A 
ATOM     23  H   LIG d   1       3.617   3.177 -10.205  0.00  0.00     0.062 H 
ATOM     24  C   LIG d   1       5.310   0.787  -8.534  0.00  0.00    -0.054 A 
ATOM     25  H   LIG d   1       5.845   2.142 -10.093  0.00  0.00     0.062 H 
ATOM     26  H   LIG d   1       6.290   0.337  -8.484  0.00  0.00     0.062 H 
ENDBRANCH   5  16
BRANCH   1  27
ATOM     27  O   LIG d   1       3.557  -6.104  -7.996  0.00  0.00    -0.495 OA
BRANCH  27  28
ATOM     28  C   LIG d   1       4.446  -7.077  -7.444  0.00  0.00     0.079 C 
ATOM     29  H   LIG d   1       4.681  -7.826  -8.201  0.00  0.00     0.066 H 
ATOM     30  H   LIG d   1       3.971  -7.562  -6.590  0.00  0.00     0.066 H 
ATOM     31  H   LIG d   1       5.364  -6.588  -7.120  0.00  0.00     0.066 H 
ENDBRANCH  27  28
ENDBRANCH   1  27
TORSDOF 3
ENDMDL
MODEL 10
REMARK VINA RESULT:      -5.2      2.828      5.560
REMARK  3 active torsions:
REMARK  status: ('A' for Active; 'I' for Inactive)
REMARK    1  A    between atoms: C_1  and  O_2 
REMARK    2  A    between atoms: O_2  and  C_3 
REMARK    3  A    between atoms: C_7  and  C_14 
ROOT
ATOM      1  C   LIG d   1       7.725  -1.055  -5.182  0.00  0.00     0.124 A 
ATOM      2  C   LIG d   1       7.326  -0.772  -6.487  0.00  0.00    -0.019 A 
ATOM      3  C   LIG d   1       6.023  -0.470  -6.760  0.00  0.00    -0.047 A 
ATOM      4  C   LIG d   1       5.087  -0.432  -5.724  0.00  0.00     0.025 A 
ATOM      5  C   LIG d   1       3.676  -0.104  -5.988  0.00  0.00    -0.001 A 
ATOM      6  C   LIG d   1       2.805  -0.085  -4.915  0.00  0.00     0.031 A 
ATOM      7  C   LIG d   1       3.286  -0.376  -3.627  0.00  0.00     0.338 A 
ATOM      8  O   LIG d   1       2.511  -0.357  -2.687  0.00  0.00    -0.245 OA
ATOM      9  O   LIG d   1       4.575  -0.673  -3.404  0.00  0.00    -0.422 OA
ATOM     10  C   LIG d   1       5.482  -0.710  -4.404  0.00  0.00     0.143 A 
ATOM     11  C   LIG d   1       6.810  -1.021  -4.144  0.00  0.00     0.023 A 
ATOM     12  H   LIG d   1       8.050  -0.798  -7.288  0.00  0.00     0.065 H 
ATOM     13  H   LIG d   1       5.717  -0.256  -7.774  0.00  0.00     0.063 H 
ATOM     14  H   LIG d   1       1.762   0.151  -5.065  0.00  0.00     0.070 H 
ATOM     15  H   LIG d   1       7.127  -1.237  -3.134  0.00  0.00     0.069 H 
ENDROOT
BRANCH   5  16
ATOM     16  C   LIG d   1       3.206   0.197  -7.358  0.00  0.00    -0.017 A 
ATOM     17  C   LIG d   1       2.793  -0.836  -8.201  0.00  0.00    -0.054 A 
ATOM     18  C   LIG d   1       2.355  -0.548  -9.477  0.00  0.00    -0.061 A 
ATOM     19  H   LIG d   1       2.817  -1.859  -7.854  0.00  0.00     0.062 H 
ATOM     20  C   LIG d   1       2.326   0.761  -9.922  0.00  0.00    -0.062 A 
ATOM     21  H   LIG d   1       2.036  -1.347 -10.130  0.00  0.00     0.062 H 
ATOM     22  C   LIG d   1       2.734   1.790  -9.092  0.00  0.00    -0.061 A 
ATOM     23  H   LIG d   1       1.982   0.982 -10.922  0.00  0.00     0.062 H 
ATOM     24  C   LIG d   1       3.168   1.517  -7.812  0.00  0.00    -0.054 A 
ATOM     25  H   LIG d   1       2.708   2.810  -9.446  0.00  0.00     0.062 H 
ATOM     26  H   LIG d   1       3.482   2.321  -7.164  0.00  0.00     0.062 H 
ENDBRANCH   5  16
BRANCH   1  27
ATOM     27  O   LIG d   1       9.023  -1.359  -4.926  0.00  0.00    -0.495 OA
BRANCH  27  28
ATOM     28  C   LIG d   1      10.014  -0.667  -5.689  0.00  0.00     0.079 C 
ATOM     29  H   LIG d   1      10.544   0.035  -5.046  0.00  0.00     0.066 H 
ATOM     30  H   LIG d   1       9.532  -0.122  -6.502  0.00  0.00     0.066 H 
ATOM     31  H   LIG d   1      10.721  -1.386  -6.103  0.00  0.00     0.066 H 
ENDBRANCH  27  28
ENDBRANCH   1  27
TORSDOF 3
ENDMDL
