MODEL 1
REMARK VINA RESULT:      -5.9      0.000      0.000
REMARK  6 active torsions:
REMARK  status: ('A' for Active; 'I' for Inactive)
REMARK    1  A    between atoms: C_1  and  N_2 
REMARK    2  A    between atoms: N_6  and  C_25 
REMARK    3  A    between atoms: N_9  and  C_17 
REMARK    4  A    between atoms: N_13  and  C_16 
REMARK    5  A    between atoms: C_17  and  C_18 
REMARK    6  A    between atoms: C_18  and  C_19 
ROOT
ATOM      1  N   LIG d   1       5.262   1.682  -9.625  0.00  0.00    -0.300 N 
ATOM      2  C   LIG d   1       4.008   1.909  -8.873  0.00  0.00     0.004 C 
ATOM      3  C   LIG d   1       3.210   0.655  -8.560  0.00  0.00     0.000 C 
ATOM      4  C   LIG d   1       3.810  -0.115  -7.393  0.00  0.00    -0.031 C 
ATOM      5  N   LIG d   1       3.543  -1.546  -7.381  0.00  0.00     0.234 N 
ATOM      6  C   LIG d   1       4.586  -2.253  -6.614  0.00  0.00    -0.019 C 
ATOM      7  C   LIG d   1       5.947  -2.023  -7.256  0.00  0.00     0.039 C 
ATOM      8  N   LIG d   1       7.027  -2.481  -6.311  0.00  0.00    -0.297 N 
ATOM      9  C   LIG d   1       8.238  -2.641  -7.166  0.00  0.00     0.004 C 
ATOM     10  C   LIG d   1       8.999  -1.363  -7.468  0.00  0.00     0.000 C 
ATOM     11  C   LIG d   1       8.342  -0.547  -8.570  0.00  0.00    -0.031 C 
ATOM     12  N   LIG d   1       8.712   0.863  -8.576  0.00  0.00     0.234 N 
ATOM     13  C   LIG d   1       7.727   1.641  -9.350  0.00  0.00    -0.019 C 
ATOM     14  C   LIG d   1       6.378   1.639  -8.639  0.00  0.00     0.039 C 
ATOM     15  H   LIG d   1       4.257   2.428  -7.942  0.00  0.00     0.043 H 
ATOM     16  H   LIG d   1       3.384   2.586  -9.475  0.00  0.00     0.043 H 
ATOM     17  H   LIG d   1       2.208   1.010  -8.204  0.00  0.00     0.033 H 
ATOM     18  H   LIG d   1       2.977   0.083  -9.436  0.00  0.00     0.033 H 
ATOM     19  H   LIG d   1       4.875   0.088  -7.323  0.00  0.00     0.082 H 
ATOM     20  H   LIG d   1       3.374   0.308  -6.460  0.00  0.00     0.082 H 
ATOM     21  H   LIG d   1       4.578  -1.893  -5.585  0.00  0.00     0.083 H 
ATOM     22  H   LIG d   1       4.356  -3.322  -6.622  0.00  0.00     0.083 H 
ATOM     23  H   LIG d   1       6.056  -2.600  -8.167  0.00  0.00     0.048 H 
ATOM     24  H   LIG d   1       6.115  -0.969  -7.427  0.00  0.00     0.048 H 
ATOM     25  H   LIG d   1       8.902  -3.347  -6.658  0.00  0.00     0.043 H 
ATOM     26  H   LIG d   1       7.910  -3.101  -8.105  0.00  0.00     0.043 H 
ATOM     27  H   LIG d   1       9.279  -0.814  -6.594  0.00  0.00     0.033 H 
ATOM     28  H   LIG d   1       9.988  -1.689  -7.889  0.00  0.00     0.033 H 
ATOM     29  H   LIG d   1       8.669  -0.979  -9.541  0.00  0.00     0.082 H 
ATOM     30  H   LIG d   1       7.263  -0.664  -8.554  0.00  0.00     0.082 H 
ATOM     31  H   LIG d   1       8.090   2.671  -9.420  0.00  0.00     0.083 H 
ATOM     32  H   LIG d   1       7.653   1.238 -10.351  0.00  0.00     0.083 H 
ATOM     33  H   LIG d   1       6.297   2.533  -8.014  0.00  0.00     0.048 H 
ATOM     34  H   LIG d   1       6.273   0.750  -8.027  0.00  0.00     0.048 H 
ATOM     35  H   LIG d   1       9.614   0.962  -9.040  0.00  0.00     0.203 HD
ATOM     36  H   LIG d   1       2.656  -1.704  -6.899  0.00  0.00     0.203 HD
ENDROOT
BRANCH   8  37
ATOM     37  C   LIG d   1       7.256  -1.303  -5.410  0.00  0.00     0.004 C 
ATOM     38  H   LIG d   1       8.247  -0.889  -5.599  0.00  0.00     0.043 H 
ATOM     39  H   LIG d   1       6.501  -0.542  -5.608  0.00  0.00     0.043 H 
BRANCH  37  40
ATOM     40  C   LIG d   1       7.159  -1.750  -3.950  0.00  0.00     0.002 C 
ATOM     41  H   LIG d   1       6.842  -2.793  -3.909  0.00  0.00     0.034 H 
ATOM     42  H   LIG d   1       8.134  -1.648  -3.474  0.00  0.00     0.034 H 
BRANCH  40  43
ATOM     43  C   LIG d   1       6.154  -0.891  -3.228  0.00  0.00     0.043 A 
ATOM     44  N   LIG d   1       6.276   0.422  -3.259  0.00  0.00    -0.260 NA
ATOM     45  C   LIG d   1       5.418   1.213  -2.646  0.00  0.00     0.028 A 
ATOM     46  C   LIG d   1       4.356   0.687  -1.933  0.00  0.00    -0.044 A 
ATOM     47  H   LIG d   1       5.548   2.283  -2.698  0.00  0.00     0.083 H 
ATOM     48  C   LIG d   1       4.199  -0.689  -1.872  0.00  0.00    -0.059 A 
ATOM     49  H   LIG d   1       3.659   1.341  -1.430  0.00  0.00     0.063 H 
ATOM     50  C   LIG d   1       5.118  -1.488  -2.534  0.00  0.00    -0.040 A 
ATOM     51  H   LIG d   1       3.379  -1.128  -1.323  0.00  0.00     0.062 H 
ATOM     52  H   LIG d   1       5.025  -2.564  -2.509  0.00  0.00     0.064 H 
ENDBRANCH  40  43
ENDBRANCH  37  40
ENDBRANCH   8  37
BRANCH   5  53
ATOM     53  C   LIG d   1       3.447  -2.156  -8.706  0.00  0.00    -0.043 C 
ATOM     54  H   LIG d   1       3.296  -1.378  -9.455  0.00  0.00     0.078 H 
ATOM     55  H   LIG d   1       4.367  -2.697  -8.926  0.00  0.00     0.078 H 
ATOM     56  H   LIG d   1       2.605  -2.849  -8.728  0.00  0.00     0.078 H 
ENDBRANCH   5  53
BRANCH  12  57
ATOM     57  C   LIG d   1       8.803   1.450  -7.237  0.00  0.00    -0.043 C 
ATOM     58  H   LIG d   1       7.942   2.095  -7.064  0.00  0.00     0.078 H 
ATOM     59  H   LIG d   1       8.817   0.655  -6.491  0.00  0.00     0.078 H 
ATOM     60  H   LIG d   1       9.718   2.037  -7.159  0.00  0.00     0.078 H 
ENDBRANCH  12  57
BRANCH   1  61
ATOM     61  C   LIG d   1       5.216   0.368 -10.315  0.00  0.00    -0.013 C 
ATOM     62  H   LIG d   1       4.690   0.474 -11.263  0.00  0.00     0.039 H 
ATOM     63  H   LIG d   1       6.232   0.019 -10.500  0.00  0.00     0.039 H 
ATOM     64  H   LIG d   1       4.692  -0.353  -9.687  0.00  0.00     0.039 H 
ENDBRANCH   1  61
TORSDOF 6
ENDMDL
MODEL 2
REMARK VINA RESULT:      -5.8      2.458      3.900
REMARK  6 active torsions:
REMARK  status: ('A' for Active; 'I' for Inactive)
REMARK    1  A    between atoms: C_1  and  N_2 
REMARK    2  A    between atoms: N_6  and  C_25 
REMARK    3  A    between atoms: N_9  and  C_17 
REMARK    4  A    between atoms: N_13  and  C_16 
REMARK    5  A    between atoms: C_17  and  C_18 
REMARK    6  A    between atoms: C_18  and  C_19 
ROOT
ATOM      1  N   LIG d   1       4.133  -3.317 -10.035  0.00  0.00    -0.300 N 
ATOM      2  C   LIG d   1       3.091  -4.358  -9.888  0.00  0.00     0.004 C 
ATOM      3  C   LIG d   1       3.542  -5.620  -9.174  0.00  0.00     0.000 C 
ATOM      4  C   LIG d   1       3.604  -5.421  -7.666  0.00  0.00    -0.031 C 
ATOM      5  N   LIG d   1       4.543  -6.278  -6.958  0.00  0.00     0.234 N 
ATOM      6  C   LIG d   1       4.949  -5.648  -5.687  0.00  0.00    -0.019 C 
ATOM      7  C   LIG d   1       5.629  -4.314  -5.964  0.00  0.00     0.039 C 
ATOM      8  N   LIG d   1       5.761  -3.546  -4.675  0.00  0.00    -0.297 N 
ATOM      9  C   LIG d   1       6.800  -2.513  -4.953  0.00  0.00     0.004 C 
ATOM     10  C   LIG d   1       6.313  -1.273  -5.681  0.00  0.00     0.000 C 
ATOM     11  C   LIG d   1       6.160  -1.505  -7.175  0.00  0.00    -0.031 C 
ATOM     12  N   LIG d   1       5.268  -0.564  -7.841  0.00  0.00     0.234 N 
ATOM     13  C   LIG d   1       4.833  -1.111  -9.141  0.00  0.00    -0.019 C 
ATOM     14  C   LIG d   1       3.951  -2.336  -8.928  0.00  0.00     0.039 C 
ATOM     15  H   LIG d   1       2.242  -3.918  -9.357  0.00  0.00     0.043 H 
ATOM     16  H   LIG d   1       2.750  -4.623 -10.899  0.00  0.00     0.043 H 
ATOM     17  H   LIG d   1       2.732  -6.376  -9.345  0.00  0.00     0.033 H 
ATOM     18  H   LIG d   1       4.403  -6.069  -9.629  0.00  0.00     0.033 H 
ATOM     19  H   LIG d   1       3.776  -4.373  -7.438  0.00  0.00     0.082 H 
ATOM     20  H   LIG d   1       2.590  -5.641  -7.263  0.00  0.00     0.082 H 
ATOM     21  H   LIG d   1       4.069  -5.510  -5.060  0.00  0.00     0.083 H 
ATOM     22  H   LIG d   1       5.651  -6.315  -5.179  0.00  0.00     0.083 H 
ATOM     23  H   LIG d   1       6.631  -4.455  -6.353  0.00  0.00     0.048 H 
ATOM     24  H   LIG d   1       5.025  -3.707  -6.623  0.00  0.00     0.048 H 
ATOM     25  H   LIG d   1       7.233  -2.222  -3.991  0.00  0.00     0.043 H 
ATOM     26  H   LIG d   1       7.586  -2.998  -5.543  0.00  0.00     0.043 H 
ATOM     27  H   LIG d   1       5.486  -0.793  -5.203  0.00  0.00     0.033 H 
ATOM     28  H   LIG d   1       7.137  -0.516  -5.580  0.00  0.00     0.033 H 
ATOM     29  H   LIG d   1       7.166  -1.387  -7.633  0.00  0.00     0.082 H 
ATOM     30  H   LIG d   1       5.869  -2.529  -7.385  0.00  0.00     0.082 H 
ATOM     31  H   LIG d   1       4.253  -0.340  -9.655  0.00  0.00     0.083 H 
ATOM     32  H   LIG d   1       5.701  -1.342  -9.744  0.00  0.00     0.083 H 
ATOM     33  H   LIG d   1       2.901  -2.031  -8.930  0.00  0.00     0.048 H 
ATOM     34  H   LIG d   1       4.193  -2.819  -7.987  0.00  0.00     0.048 H 
ATOM     35  H   LIG d   1       5.781   0.297  -8.027  0.00  0.00     0.203 HD
ATOM     36  H   LIG d   1       4.067  -7.151  -6.722  0.00  0.00     0.203 HD
ENDROOT
BRANCH   8  37
ATOM     37  C   LIG d   1       4.445  -2.840  -4.528  0.00  0.00     0.004 C 
ATOM     38  H   LIG d   1       4.467  -1.908  -5.093  0.00  0.00     0.043 H 
ATOM     39  H   LIG d   1       3.646  -3.477  -4.909  0.00  0.00     0.043 H 
BRANCH  37  40
ATOM     40  C   LIG d   1       4.192  -2.536  -3.050  0.00  0.00     0.002 C 
ATOM     41  H   LIG d   1       3.289  -3.051  -2.722  0.00  0.00     0.034 H 
ATOM     42  H   LIG d   1       5.041  -2.878  -2.458  0.00  0.00     0.034 H 
BRANCH  40  43
ATOM     43  C   LIG d   1       4.016  -1.051  -2.866  0.00  0.00     0.043 A 
ATOM     44  N   LIG d   1       3.274  -0.371  -3.719  0.00  0.00    -0.260 NA
ATOM     45  C   LIG d   1       3.088   0.929  -3.593  0.00  0.00     0.028 A 
ATOM     46  C   LIG d   1       3.680   1.631  -2.561  0.00  0.00    -0.044 A 
ATOM     47  H   LIG d   1       2.469   1.450  -4.308  0.00  0.00     0.083 H 
ATOM     48  C   LIG d   1       4.473   0.952  -1.649  0.00  0.00    -0.059 A 
ATOM     49  H   LIG d   1       3.527   2.696  -2.467  0.00  0.00     0.063 H 
ATOM     50  C   LIG d   1       4.641  -0.415  -1.810  0.00  0.00    -0.040 A 
ATOM     51  H   LIG d   1       4.948   1.475  -0.831  0.00  0.00     0.062 H 
ATOM     52  H   LIG d   1       5.251  -0.976  -1.117  0.00  0.00     0.064 H 
ENDBRANCH  40  43
ENDBRANCH  37  40
ENDBRANCH   8  37
BRANCH   5  53
ATOM     53  C   LIG d   1       5.748  -6.615  -7.715  0.00  0.00    -0.043 C 
ATOM     54  H   LIG d   1       6.578  -5.997  -7.371  0.00  0.00     0.078 H 
ATOM     55  H   LIG d   1       5.991  -7.666  -7.563  0.00  0.00     0.078 H 
ATOM     56  H   LIG d   1       5.574  -6.431  -8.776  0.00  0.00     0.078 H 
ENDBRANCH   5  53
BRANCH  12  57
ATOM     57  C   LIG d   1       4.070  -0.242  -7.061  0.00  0.00    -0.043 C 
ATOM     58  H   LIG d   1       4.138   0.783  -6.697  0.00  0.00     0.078 H 
ATOM     59  H   LIG d   1       3.187  -0.347  -7.692  0.00  0.00     0.078 H 
ATOM     60  H   LIG d   1       3.994  -0.924  -6.214  0.00  0.00     0.078 H 
ENDBRANCH  12  57
BRANCH   1  61
ATOM     61  C   LIG d   1       5.483  -3.917  -9.892  0.00  0.00    -0.013 C 
ATOM     62  H   LIG d   1       6.181  -3.159  -9.538  0.00  0.00     0.039 H 
ATOM     63  H   LIG d   1       5.442  -4.736  -9.174  0.00  0.00     0.039 H 
ATOM     64  H   LIG d   1       5.816  -4.296 -10.858  0.00  0.00     0.039 H 
ENDBRANCH   1  61
TORSDOF 6
ENDMDL
MODEL 3
REMARK VINA RESULT:      -5.7      2.404      4.740
REMARK  6 active torsions:
REMARK  status: ('A' for Active; 'I' for Inactive)
REMARK    1  A    between atoms: C_1  and  N_2 
REMARK    2  A    between atoms: N_6  and  C_25 
REMARK    3  A    between atoms: N_9  and  C_17 
REMARK    4  A    between atoms: N_13  and  C_16 
REMARK    5  A    between atoms: C_17  and  C_18 
REMARK    6  A    between atoms: C_18  and  C_19 
ROOT
ATOM      1  N   LIG d   1       3.396  -4.578 -10.244  0.00  0.00    -0.300 N 
ATOM      2  C   LIG d   1       3.119  -5.526  -9.142  0.00  0.00     0.004 C 
ATOM      3  C   LIG d   1       4.170  -5.559  -8.045  0.00  0.00     0.000 C 
ATOM      4  C   LIG d   1       4.036  -4.371  -7.103  0.00  0.00    -0.031 C 
ATOM      5  N   LIG d   1       5.259  -3.964  -6.429  0.00  0.00     0.234 N 
ATOM      6  C   LIG d   1       5.177  -2.544  -6.038  0.00  0.00    -0.019 C 
ATOM      7  C   LIG d   1       4.997  -1.675  -7.275  0.00  0.00     0.039 C 
ATOM      8  N   LIG d   1       4.610  -0.282  -6.853  0.00  0.00    -0.297 N 
ATOM      9  C   LIG d   1       4.896   0.569  -8.043  0.00  0.00     0.004 C 
ATOM     10  C   LIG d   1       3.830   0.564  -9.124  0.00  0.00     0.000 C 
ATOM     11  C   LIG d   1       3.906  -0.672 -10.003  0.00  0.00    -0.031 C 
ATOM     12  N   LIG d   1       2.672  -0.982 -10.713  0.00  0.00     0.234 N 
ATOM     13  C   LIG d   1       2.685  -2.387 -11.164  0.00  0.00    -0.019 C 
ATOM     14  C   LIG d   1       2.640  -3.325  -9.964  0.00  0.00     0.039 C 
ATOM     15  H   LIG d   1       2.146  -5.273  -8.711  0.00  0.00     0.043 H 
ATOM     16  H   LIG d   1       3.037  -6.528  -9.586  0.00  0.00     0.043 H 
ATOM     17  H   LIG d   1       3.937  -6.464  -7.425  0.00  0.00     0.033 H 
ATOM     18  H   LIG d   1       5.154  -5.759  -8.420  0.00  0.00     0.033 H 
ATOM     19  H   LIG d   1       3.575  -3.536  -7.623  0.00  0.00     0.082 H 
ATOM     20  H   LIG d   1       3.305  -4.658  -6.313  0.00  0.00     0.082 H 
ATOM     21  H   LIG d   1       4.344  -2.411  -5.348  0.00  0.00     0.083 H 
ATOM     22  H   LIG d   1       6.108  -2.270  -5.533  0.00  0.00     0.083 H 
ATOM     23  H   LIG d   1       5.921  -1.592  -7.836  0.00  0.00     0.048 H 
ATOM     24  H   LIG d   1       4.189  -2.046  -7.888  0.00  0.00     0.048 H 
ATOM     25  H   LIG d   1       5.043   1.592  -7.683  0.00  0.00     0.043 H 
ATOM     26  H   LIG d   1       5.846   0.222  -8.467  0.00  0.00     0.043 H 
ATOM     27  H   LIG d   1       2.854   0.813  -8.763  0.00  0.00     0.033 H 
ATOM     28  H   LIG d   1       4.077   1.427  -9.800  0.00  0.00     0.033 H 
ATOM     29  H   LIG d   1       4.690  -0.486 -10.769  0.00  0.00     0.082 H 
ATOM     30  H   LIG d   1       4.255  -1.533  -9.441  0.00  0.00     0.082 H 
ATOM     31  H   LIG d   1       1.795  -2.553 -11.779  0.00  0.00     0.083 H 
ATOM     32  H   LIG d   1       3.559  -2.561 -11.777  0.00  0.00     0.083 H 
ATOM     33  H   LIG d   1       1.602  -3.607  -9.764  0.00  0.00     0.048 H 
ATOM     34  H   LIG d   1       3.067  -2.844  -9.090  0.00  0.00     0.048 H 
ATOM     35  H   LIG d   1       2.617  -0.394 -11.545  0.00  0.00     0.203 HD
ATOM     36  H   LIG d   1       5.349  -4.508  -5.569  0.00  0.00     0.203 HD
ENDROOT
BRANCH   8  37
ATOM     37  C   LIG d   1       3.121  -0.346  -6.685  0.00  0.00     0.004 C 
ATOM     38  H   LIG d   1       2.637  -0.041  -7.614  0.00  0.00     0.043 H 
ATOM     39  H   LIG d   1       2.826  -1.367  -6.441  0.00  0.00     0.043 H 
BRANCH  37  40
ATOM     40  C   LIG d   1       2.694   0.593  -5.555  0.00  0.00     0.002 C 
ATOM     41  H   LIG d   1       3.013   1.609  -5.786  0.00  0.00     0.034 H 
ATOM     42  H   LIG d   1       1.608   0.568  -5.453  0.00  0.00     0.034 H 
BRANCH  40  43
ATOM     43  C   LIG d   1       3.330   0.147  -4.264  0.00  0.00     0.043 A 
ATOM     44  N   LIG d   1       4.275   0.885  -3.714  0.00  0.00    -0.260 NA
ATOM     45  C   LIG d   1       4.855   0.537  -2.582  0.00  0.00     0.028 A 
ATOM     46  C   LIG d   1       4.498  -0.630  -1.934  0.00  0.00    -0.044 A 
ATOM     47  H   LIG d   1       5.621   1.170  -2.160  0.00  0.00     0.083 H 
ATOM     48  C   LIG d   1       3.513  -1.435  -2.486  0.00  0.00    -0.059 A 
ATOM     49  H   LIG d   1       4.980  -0.911  -1.010  0.00  0.00     0.063 H 
ATOM     50  C   LIG d   1       2.921  -1.034  -3.673  0.00  0.00    -0.040 A 
ATOM     51  H   LIG d   1       3.213  -2.353  -2.001  0.00  0.00     0.062 H 
ATOM     52  H   LIG d   1       2.150  -1.636  -4.131  0.00  0.00     0.064 H 
ENDBRANCH  40  43
ENDBRANCH  37  40
ENDBRANCH   8  37
BRANCH   5  53
ATOM     53  C   LIG d   1       6.478  -4.160  -7.212  0.00  0.00    -0.043 C 
ATOM     54  H   LIG d   1       6.473  -3.485  -8.069  0.00  0.00     0.078 H 
ATOM     55  H   LIG d   1       7.349  -3.950  -6.591  0.00  0.00     0.078 H 
ATOM     56  H   LIG d   1       6.523  -5.191  -7.563  0.00  0.00     0.078 H 
ENDBRANCH   5  53
BRANCH  12  57
ATOM     57  C   LIG d   1       1.466  -0.775  -9.908  0.00  0.00    -0.043 C 
ATOM     58  H   LIG d   1       1.379  -1.575  -9.172  0.00  0.00     0.078 H 
ATOM     59  H   LIG d   1       1.530   0.184  -9.396  0.00  0.00     0.078 H 
ATOM     60  H   LIG d   1       0.590  -0.783 -10.557  0.00  0.00     0.078 H 
ENDBRANCH  12  57
BRANCH   1  61
ATOM     61  C   LIG d   1       4.841  -4.237 -10.278  0.00  0.00    -0.013 C 
ATOM     62  H   LIG d   1       5.102  -3.673  -9.384  0.00  0.00     0.039 H 
ATOM     63  H   LIG d   1       5.429  -5.154 -10.314  0.00  0.00     0.039 H 
ATOM     64  H   LIG d   1       5.051  -3.635 -11.162  0.00  0.00     0.039 H 
ENDBRANCH   1  61
TORSDOF 6
ENDMDL
MODEL 4
REMARK VINA RESULT:      -5.6      2.079      3.439
REMARK  6 active torsions:
REMARK  status: ('A' for Active; 'I' for Inactive)
REMARK    1  A    between atoms: C_1  and  N_2 
REMARK    2  A    between atoms: N_6  and  C_25 
REMARK    3  A    between atoms: N_9  and  C_17 
REMARK    4  A    between atoms: N_13  and  C_16 
REMARK    5  A    between atoms: C_17  and  C_18 
REMARK    6  A    between atoms: C_18  and  C_19 
ROOT
ATOM      1  N   LIG d   1       1.907  -1.027 -10.265  0.00  0.00    -0.300 N 
ATOM      2  C   LIG d   1       1.330  -2.389 -10.322  0.00  0.00     0.004 C 
ATOM      3  C   LIG d   1       2.299  -3.478 -10.748  0.00  0.00     0.000 C 
ATOM      4  C   LIG d   1       3.224  -3.882  -9.609  0.00  0.00    -0.031 C 
ATOM      5  N   LIG d   1       4.513  -4.425 -10.012  0.00  0.00     0.234 N 
ATOM      6  C   LIG d   1       5.504  -4.236  -8.935  0.00  0.00    -0.019 C 
ATOM      7  C   LIG d   1       5.676  -2.751  -8.644  0.00  0.00     0.039 C 
ATOM      8  N   LIG d   1       6.442  -2.581  -7.359  0.00  0.00    -0.297 N 
ATOM      9  C   LIG d   1       6.940  -1.176  -7.396  0.00  0.00     0.004 C 
ATOM     10  C   LIG d   1       5.938  -0.115  -6.978  0.00  0.00     0.000 C 
ATOM     11  C   LIG d   1       4.954   0.216  -8.087  0.00  0.00    -0.031 C 
ATOM     12  N   LIG d   1       3.714   0.830  -7.626  0.00  0.00     0.234 N 
ATOM     13  C   LIG d   1       2.672   0.706  -8.663  0.00  0.00    -0.019 C 
ATOM     14  C   LIG d   1       2.286  -0.757  -8.849  0.00  0.00     0.039 C 
ATOM     15  H   LIG d   1       0.918  -2.627  -9.337  0.00  0.00     0.043 H 
ATOM     16  H   LIG d   1       0.493  -2.358 -11.035  0.00  0.00     0.043 H 
ATOM     17  H   LIG d   1       1.669  -4.382 -10.960  0.00  0.00     0.033 H 
ATOM     18  H   LIG d   1       2.766  -3.272 -11.690  0.00  0.00     0.033 H 
ATOM     19  H   LIG d   1       3.343  -3.054  -8.917  0.00  0.00     0.082 H 
ATOM     20  H   LIG d   1       2.703  -4.674  -9.026  0.00  0.00     0.082 H 
ATOM     21  H   LIG d   1       5.170  -4.767  -8.045  0.00  0.00     0.083 H 
ATOM     22  H   LIG d   1       6.459  -4.655  -9.266  0.00  0.00     0.083 H 
ATOM     23  H   LIG d   1       6.250  -2.261  -9.423  0.00  0.00     0.048 H 
ATOM     24  H   LIG d   1       4.717  -2.278  -8.495  0.00  0.00     0.048 H 
ATOM     25  H   LIG d   1       7.816  -1.126  -6.742  0.00  0.00     0.043 H 
ATOM     26  H   LIG d   1       7.273  -0.980  -8.421  0.00  0.00     0.043 H 
ATOM     27  H   LIG d   1       5.506  -0.290  -6.015  0.00  0.00     0.033 H 
ATOM     28  H   LIG d   1       6.536   0.823  -6.820  0.00  0.00     0.033 H 
ATOM     29  H   LIG d   1       5.451   0.944  -8.764  0.00  0.00     0.082 H 
ATOM     30  H   LIG d   1       4.749  -0.654  -8.702  0.00  0.00     0.082 H 
ATOM     31  H   LIG d   1       1.793   1.265  -8.327  0.00  0.00     0.083 H 
ATOM     32  H   LIG d   1       3.025   1.148  -9.585  0.00  0.00     0.083 H 
ATOM     33  H   LIG d   1       1.415  -0.984  -8.228  0.00  0.00     0.048 H 
ATOM     34  H   LIG d   1       3.113  -1.404  -8.577  0.00  0.00     0.048 H 
ATOM     35  H   LIG d   1       3.879   1.825  -7.475  0.00  0.00     0.203 HD
ATOM     36  H   LIG d   1       4.410  -5.432 -10.151  0.00  0.00     0.203 HD
ENDROOT
BRANCH   8  37
ATOM     37  C   LIG d   1       5.394  -2.666  -6.289  0.00  0.00     0.004 C 
ATOM     38  H   LIG d   1       4.871  -1.712  -6.217  0.00  0.00     0.043 H 
ATOM     39  H   LIG d   1       4.682  -3.453  -6.539  0.00  0.00     0.043 H 
BRANCH  37  40
ATOM     40  C   LIG d   1       6.058  -2.987  -4.948  0.00  0.00     0.002 C 
ATOM     41  H   LIG d   1       5.901  -4.038  -4.706  0.00  0.00     0.034 H 
ATOM     42  H   LIG d   1       7.127  -2.786  -5.015  0.00  0.00     0.034 H 
BRANCH  40  43
ATOM     43  C   LIG d   1       5.452  -2.127  -3.869  0.00  0.00     0.043 A 
ATOM     44  N   LIG d   1       6.020  -0.979  -3.555  0.00  0.00    -0.260 NA
ATOM     45  C   LIG d   1       5.522  -0.192  -2.621  0.00  0.00     0.028 A 
ATOM     46  C   LIG d   1       4.383  -0.553  -1.925  0.00  0.00    -0.044 A 
ATOM     47  H   LIG d   1       6.012   0.743  -2.395  0.00  0.00     0.083 H 
ATOM     48  C   LIG d   1       3.762  -1.756  -2.224  0.00  0.00    -0.059 A 
ATOM     49  H   LIG d   1       3.983   0.094  -1.160  0.00  0.00     0.063 H 
ATOM     50  C   LIG d   1       4.312  -2.554  -3.215  0.00  0.00    -0.040 A 
ATOM     51  H   LIG d   1       2.871  -2.064  -1.697  0.00  0.00     0.062 H 
ATOM     52  H   LIG d   1       3.853  -3.498  -3.474  0.00  0.00     0.064 H 
ENDBRANCH  40  43
ENDBRANCH  37  40
ENDBRANCH   8  37
BRANCH   5  53
ATOM     53  C   LIG d   1       5.054  -3.856 -11.246  0.00  0.00    -0.043 C 
ATOM     54  H   LIG d   1       4.418  -4.138 -12.085  0.00  0.00     0.078 H 
ATOM     55  H   LIG d   1       5.084  -2.770 -11.163  0.00  0.00     0.078 H 
ATOM     56  H   LIG d   1       6.062  -4.235 -11.410  0.00  0.00     0.078 H 
ENDBRANCH   5  53
BRANCH  12  57
ATOM     57  C   LIG d   1       3.195   0.244  -6.388  0.00  0.00    -0.043 C 
ATOM     58  H   LIG d   1       3.537   0.832  -5.536  0.00  0.00     0.078 H 
ATOM     59  H   LIG d   1       2.106   0.242  -6.416  0.00  0.00     0.078 H 
ATOM     60  H   LIG d   1       3.558  -0.780  -6.291  0.00  0.00     0.078 H 
ENDBRANCH  12  57
BRANCH   1  61
ATOM     61  C   LIG d   1       3.141  -0.957 -11.086  0.00  0.00    -0.013 C 
ATOM     62  H   LIG d   1       2.876  -0.751 -12.122  0.00  0.00     0.039 H 
ATOM     63  H   LIG d   1       3.783  -0.160 -10.710  0.00  0.00     0.039 H 
ATOM     64  H   LIG d   1       3.670  -1.908 -11.028  0.00  0.00     0.039 H 
ENDBRANCH   1  61
TORSDOF 6
ENDMDL
MODEL 5
REMARK VINA RESULT:      -5.3      2.080      4.195
REMARK  6 active torsions:
REMARK  status: ('A' for Active; 'I' for Inactive)
REMARK    1  A    between atoms: C_1  and  N_2 
REMARK    2  A    between atoms: N_6  and  C_25 
REMARK    3  A    between atoms: N_9  and  C_17 
REMARK    4  A    between atoms: N_13  and  C_16 
REMARK    5  A    between atoms: C_17  and  C_18 
REMARK    6  A    between atoms: C_18  and  C_19 
ROOT
ATOM      1  N   LIG d   1      10.310  -0.706  -6.362  0.00  0.00    -0.300 N 
ATOM      2  C   LIG d   1       9.866   0.667  -6.034  0.00  0.00     0.004 C 
ATOM      3  C   LIG d   1       8.613   1.127  -6.759  0.00  0.00     0.000 C 
ATOM      4  C   LIG d   1       7.356   0.535  -6.137  0.00  0.00    -0.031 C 
ATOM      5  N   LIG d   1       6.218   0.395  -7.034  0.00  0.00     0.234 N 
ATOM      6  C   LIG d   1       5.314  -0.664  -6.548  0.00  0.00    -0.019 C 
ATOM      7  C   LIG d   1       6.053  -1.995  -6.495  0.00  0.00     0.039 C 
ATOM      8  N   LIG d   1       5.231  -2.990  -5.719  0.00  0.00    -0.297 N 
ATOM      9  C   LIG d   1       5.788  -4.320  -6.099  0.00  0.00     0.004 C 
ATOM     10  C   LIG d   1       7.048  -4.737  -5.363  0.00  0.00     0.000 C 
ATOM     11  C   LIG d   1       8.292  -4.068  -5.925  0.00  0.00    -0.031 C 
ATOM     12  N   LIG d   1       9.421  -4.030  -5.005  0.00  0.00     0.234 N 
ATOM     13  C   LIG d   1      10.393  -3.007  -5.439  0.00  0.00    -0.019 C 
ATOM     14  C   LIG d   1       9.787  -1.615  -5.303  0.00  0.00     0.039 C 
ATOM     15  H   LIG d   1       9.708   0.726  -4.953  0.00  0.00     0.043 H 
ATOM     16  H   LIG d   1      10.692   1.347  -6.286  0.00  0.00     0.043 H 
ATOM     17  H   LIG d   1       8.545   2.232  -6.583  0.00  0.00     0.033 H 
ATOM     18  H   LIG d   1       8.698   1.047  -7.824  0.00  0.00     0.033 H 
ATOM     19  H   LIG d   1       7.592  -0.406  -5.649  0.00  0.00     0.082 H 
ATOM     20  H   LIG d   1       7.043   1.217  -5.315  0.00  0.00     0.082 H 
ATOM     21  H   LIG d   1       4.941  -0.390  -5.561  0.00  0.00     0.083 H 
ATOM     22  H   LIG d   1       4.470  -0.744  -7.240  0.00  0.00     0.083 H 
ATOM     23  H   LIG d   1       6.195  -2.405  -7.488  0.00  0.00     0.048 H 
ATOM     24  H   LIG d   1       6.989  -1.890  -5.967  0.00  0.00     0.048 H 
ATOM     25  H   LIG d   1       5.002  -5.062  -5.922  0.00  0.00     0.043 H 
ATOM     26  H   LIG d   1       5.987  -4.290  -7.176  0.00  0.00     0.043 H 
ATOM     27  H   LIG d   1       6.952  -4.708  -4.298  0.00  0.00     0.033 H 
ATOM     28  H   LIG d   1       7.178  -5.832  -5.575  0.00  0.00     0.033 H 
ATOM     29  H   LIG d   1       8.609  -4.655  -6.815  0.00  0.00     0.082 H 
ATOM     30  H   LIG d   1       8.066  -3.076  -6.303  0.00  0.00     0.082 H 
ATOM     31  H   LIG d   1      11.270  -3.078  -4.789  0.00  0.00     0.083 H 
ATOM     32  H   LIG d   1      10.704  -3.212  -6.454  0.00  0.00     0.083 H 
ATOM     33  H   LIG d   1      10.071  -1.189  -4.336  0.00  0.00     0.048 H 
ATOM     34  H   LIG d   1       8.706  -1.662  -5.383  0.00  0.00     0.048 H 
ATOM     35  H   LIG d   1       9.895  -4.932  -5.031  0.00  0.00     0.203 HD
ATOM     36  H   LIG d   1       5.691   1.269  -7.024  0.00  0.00     0.203 HD
ENDROOT
BRANCH   8  37
ATOM     37  C   LIG d   1       5.595  -2.735  -4.286  0.00  0.00     0.004 C 
ATOM     38  H   LIG d   1       6.202  -3.560  -3.914  0.00  0.00     0.043 H 
ATOM     39  H   LIG d   1       6.163  -1.806  -4.215  0.00  0.00     0.043 H 
BRANCH  37  40
ATOM     40  C   LIG d   1       4.321  -2.618  -3.448  0.00  0.00     0.002 C 
ATOM     41  H   LIG d   1       3.469  -2.970  -4.031  0.00  0.00     0.034 H 
ATOM     42  H   LIG d   1       4.421  -3.227  -2.549  0.00  0.00     0.034 H 
BRANCH  40  43
ATOM     43  C   LIG d   1       4.104  -1.179  -3.060  0.00  0.00     0.043 A 
ATOM     44  N   LIG d   1       4.767  -0.673  -2.038  0.00  0.00    -0.260 NA
ATOM     45  C   LIG d   1       4.613   0.583  -1.666  0.00  0.00     0.028 A 
ATOM     46  C   LIG d   1       3.736   1.416  -2.333  0.00  0.00    -0.044 A 
ATOM     47  H   LIG d   1       5.178   0.963  -0.827  0.00  0.00     0.083 H 
ATOM     48  C   LIG d   1       3.017   0.917  -3.409  0.00  0.00    -0.059 A 
ATOM     49  H   LIG d   1       3.612   2.442  -2.021  0.00  0.00     0.063 H 
ATOM     50  C   LIG d   1       3.209  -0.406  -3.774  0.00  0.00    -0.040 A 
ATOM     51  H   LIG d   1       2.324   1.546  -3.950  0.00  0.00     0.062 H 
ATOM     52  H   LIG d   1       2.666  -0.827  -4.608  0.00  0.00     0.064 H 
ENDBRANCH  40  43
ENDBRANCH  37  40
ENDBRANCH   8  37
BRANCH   5  53
ATOM     53  C   LIG d   1       6.573   0.101  -8.422  0.00  0.00    -0.043 C 
ATOM     54  H   LIG d   1       6.303   0.948  -9.053  0.00  0.00     0.078 H 
ATOM     55  H   LIG d   1       7.645  -0.078  -8.494  0.00  0.00     0.078 H 
ATOM     56  H   LIG d   1       6.033  -0.786  -8.756  0.00  0.00     0.078 H 
ENDBRANCH   5  53
BRANCH  12  57
ATOM     57  C   LIG d   1       9.040  -3.736  -3.622  0.00  0.00    -0.043 C 
ATOM     58  H   LIG d   1       9.924  -3.442  -3.056  0.00  0.00     0.078 H 
ATOM     59  H   LIG d   1       8.314  -2.923  -3.610  0.00  0.00     0.078 H 
ATOM     60  H   LIG d   1       8.598  -4.624  -3.170  0.00  0.00     0.078 H 
ENDBRANCH  12  57
BRANCH   1  61
ATOM     61  C   LIG d   1       9.730  -1.138  -7.658  0.00  0.00    -0.013 C 
ATOM     62  H   LIG d   1      10.294  -1.986  -8.043  0.00  0.00     0.039 H 
ATOM     63  H   LIG d   1       8.690  -1.429  -7.511  0.00  0.00     0.039 H 
ATOM     64  H   LIG d   1       9.780  -0.314  -8.370  0.00  0.00     0.039 H 
ENDBRANCH   1  61
TORSDOF 6
ENDMDL
MODEL 6
REMARK VINA RESULT:      -5.3      1.596      2.256
REMARK  6 active torsions:
REMARK  status: ('A' for Active; 'I' for Inactive)
REMARK    1  A    between atoms: C_1  and  N_2 
REMARK    2  A    between atoms: N_6  and  C_25 
REMARK    3  A    between atoms: N_9  and  C_17 
REMARK    4  A    between atoms: N_13  and  C_16 
REMARK    5  A    between atoms: C_17  and  C_18 
REMARK    6  A    between atoms: C_18  and  C_19 
ROOT
ATOM      1  N   LIG d   1       7.793   0.970  -9.214  0.00  0.00    -0.300 N 
ATOM      2  C   LIG d   1       6.733   1.969  -8.945  0.00  0.00     0.004 C 
ATOM      3  C   LIG d   1       5.322   1.510  -9.272  0.00  0.00     0.000 C 
ATOM      4  C   LIG d   1       4.770   0.585  -8.197  0.00  0.00    -0.031 C 
ATOM      5  N   LIG d   1       3.752  -0.356  -8.642  0.00  0.00     0.234 N 
ATOM      6  C   LIG d   1       3.717  -1.528  -7.747  0.00  0.00    -0.019 C 
ATOM      7  C   LIG d   1       5.066  -2.234  -7.762  0.00  0.00     0.039 C 
ATOM      8  N   LIG d   1       5.120  -3.228  -6.632  0.00  0.00    -0.297 N 
ATOM      9  C   LIG d   1       6.235  -4.151  -6.991  0.00  0.00     0.004 C 
ATOM     10  C   LIG d   1       7.630  -3.651  -6.663  0.00  0.00     0.000 C 
ATOM     11  C   LIG d   1       8.141  -2.652  -7.688  0.00  0.00    -0.031 C 
ATOM     12  N   LIG d   1       9.214  -1.792  -7.206  0.00  0.00     0.234 N 
ATOM     13  C   LIG d   1       9.334  -0.601  -8.068  0.00  0.00    -0.019 C 
ATOM     14  C   LIG d   1       8.095   0.277  -7.929  0.00  0.00     0.039 C 
ATOM     15  H   LIG d   1       6.792   2.254  -7.891  0.00  0.00     0.043 H 
ATOM     16  H   LIG d   1       6.966   2.860  -9.545  0.00  0.00     0.043 H 
ATOM     17  H   LIG d   1       4.685   2.432  -9.234  0.00  0.00     0.033 H 
ATOM     18  H   LIG d   1       5.220   1.176 -10.285  0.00  0.00     0.033 H 
ATOM     19  H   LIG d   1       5.585   0.076  -7.692  0.00  0.00     0.082 H 
ATOM     20  H   LIG d   1       4.303   1.228  -7.417  0.00  0.00     0.082 H 
ATOM     21  H   LIG d   1       3.464  -1.200  -6.739  0.00  0.00     0.083 H 
ATOM     22  H   LIG d   1       2.943  -2.214  -8.105  0.00  0.00     0.083 H 
ATOM     23  H   LIG d   1       5.209  -2.790  -8.682  0.00  0.00     0.048 H 
ATOM     24  H   LIG d   1       5.867  -1.530  -7.591  0.00  0.00     0.048 H 
ATOM     25  H   LIG d   1       6.055  -5.095  -6.468  0.00  0.00     0.043 H 
ATOM     26  H   LIG d   1       6.160  -4.342  -8.068  0.00  0.00     0.043 H 
ATOM     27  H   LIG d   1       7.752  -3.364  -5.640  0.00  0.00     0.033 H 
ATOM     28  H   LIG d   1       8.305  -4.545  -6.756  0.00  0.00     0.033 H 
ATOM     29  H   LIG d   1       8.545  -3.235  -8.545  0.00  0.00     0.082 H 
ATOM     30  H   LIG d   1       7.328  -2.063  -8.101  0.00  0.00     0.082 H 
ATOM     31  H   LIG d   1      10.210  -0.033  -7.741  0.00  0.00     0.083 H 
ATOM     32  H   LIG d   1       9.493  -0.911  -9.092  0.00  0.00     0.083 H 
ATOM     33  H   LIG d   1       8.281   1.049  -7.177  0.00  0.00     0.048 H 
ATOM     34  H   LIG d   1       7.237  -0.321  -7.642  0.00  0.00     0.048 H 
ATOM     35  H   LIG d   1      10.094  -2.303  -7.265  0.00  0.00     0.203 HD
ATOM     36  H   LIG d   1       2.841   0.100  -8.577  0.00  0.00     0.203 HD
ENDROOT
BRANCH   8  37
ATOM     37  C   LIG d   1       5.560  -2.420  -5.448  0.00  0.00     0.004 C 
ATOM     38  H   LIG d   1       6.574  -2.708  -5.168  0.00  0.00     0.043 H 
ATOM     39  H   LIG d   1       5.542  -1.360  -5.704  0.00  0.00     0.043 H 
BRANCH  37  40
ATOM     40  C   LIG d   1       4.614  -2.677  -4.274  0.00  0.00     0.002 C 
ATOM     41  H   LIG d   1       3.701  -3.147  -4.639  0.00  0.00     0.034 H 
ATOM     42  H   LIG d   1       5.099  -3.337  -3.554  0.00  0.00     0.034 H 
BRANCH  40  43
ATOM     43  C   LIG d   1       4.274  -1.370  -3.606  0.00  0.00     0.043 A 
ATOM     44  N   LIG d   1       3.549  -0.477  -4.253  0.00  0.00    -0.260 NA
ATOM     45  C   LIG d   1       3.222   0.678  -3.706  0.00  0.00     0.028 A 
ATOM     46  C   LIG d   1       3.642   1.000  -2.429  0.00  0.00    -0.044 A 
ATOM     47  H   LIG d   1       2.623   1.381  -4.265  0.00  0.00     0.083 H 
ATOM     48  C   LIG d   1       4.411   0.089  -1.721  0.00  0.00    -0.059 A 
ATOM     49  H   LIG d   1       3.374   1.948  -1.989  0.00  0.00     0.063 H 
ATOM     50  C   LIG d   1       4.730  -1.117  -2.327  0.00  0.00    -0.040 A 
ATOM     51  H   LIG d   1       4.753   0.313  -0.721  0.00  0.00     0.062 H 
ATOM     52  H   LIG d   1       5.326  -1.851  -1.803  0.00  0.00     0.064 H 
ENDBRANCH  40  43
ENDBRANCH  37  40
ENDBRANCH   8  37
BRANCH   5  53
ATOM     53  C   LIG d   1       3.920  -0.826 -10.017  0.00  0.00    -0.043 C 
ATOM     54  H   LIG d   1       2.950  -1.109 -10.425  0.00  0.00     0.078 H 
ATOM     55  H   LIG d   1       4.352  -0.031 -10.624  0.00  0.00     0.078 H 
ATOM     56  H   LIG d   1       4.584  -1.691 -10.026  0.00  0.00     0.078 H 
ENDBRANCH   5  53
BRANCH  12  57
ATOM     57  C   LIG d   1       9.023  -1.336  -5.827  0.00  0.00    -0.043 C 
ATOM     58  H   LIG d   1       8.786  -0.272  -5.825  0.00  0.00     0.078 H 
ATOM     59  H   LIG d   1       8.204  -1.891  -5.370  0.00  0.00     0.078 H 
ATOM     60  H   LIG d   1       9.937  -1.505  -5.258  0.00  0.00     0.078 H 
ENDBRANCH  12  57
BRANCH   1  61
ATOM     61  C   LIG d   1       7.306  -0.050 -10.175  0.00  0.00    -0.013 C 
ATOM     62  H   LIG d   1       6.222  -0.136 -10.096  0.00  0.00     0.039 H 
ATOM     63  H   LIG d   1       7.573   0.249 -11.189  0.00  0.00     0.039 H 
ATOM     64  H   LIG d   1       7.764  -1.012  -9.947  0.00  0.00     0.039 H 
ENDBRANCH   1  61
TORSDOF 6
ENDMDL
MODEL 7
REMARK VINA RESULT:      -5.1      1.879      3.700
REMARK  6 active torsions:
REMARK  status: ('A' for Active; 'I' for Inactive)
REMARK    1  A    between atoms: C_1  and  N_2 
REMARK    2  A    between atoms: N_6  and  C_25 
REMARK    3  A    between atoms: N_9  and  C_17 
REMARK    4  A    between atoms: N_13  and  C_16 
REMARK    5  A    between atoms: C_17  and  C_18 
REMARK    6  A    between atoms: C_18  and  C_19 
ROOT
ATOM      1  N   LIG d   1       2.914  -2.581 -10.361  0.00  0.00    -0.300 N 
ATOM      2  C   LIG d   1       2.772  -3.786  -9.514  0.00  0.00     0.004 C 
ATOM      3  C   LIG d   1       4.069  -4.520  -9.219  0.00  0.00     0.000 C 
ATOM      4  C   LIG d   1       4.879  -3.816  -8.140  0.00  0.00    -0.031 C 
ATOM      5  N   LIG d   1       6.317  -4.036  -8.191  0.00  0.00     0.234 N 
ATOM      6  C   LIG d   1       7.026  -2.920  -7.537  0.00  0.00    -0.019 C 
ATOM      7  C   LIG d   1       6.714  -1.615  -8.255  0.00  0.00     0.039 C 
ATOM      8  N   LIG d   1       7.184  -0.458  -7.412  0.00  0.00    -0.297 N 
ATOM      9  C   LIG d   1       7.253   0.695  -8.355  0.00  0.00     0.004 C 
ATOM     10  C   LIG d   1       5.935   1.392  -8.636  0.00  0.00     0.000 C 
ATOM     11  C   LIG d   1       5.085   0.635  -9.643  0.00  0.00    -0.031 C 
ATOM     12  N   LIG d   1       3.665   0.959  -9.595  0.00  0.00     0.234 N 
ATOM     13  C   LIG d   1       2.881  -0.103 -10.256  0.00  0.00    -0.019 C 
ATOM     14  C   LIG d   1       2.969  -1.398  -9.457  0.00  0.00     0.039 C 
ATOM     15  H   LIG d   1       2.295  -3.490  -8.575  0.00  0.00     0.043 H 
ATOM     16  H   LIG d   1       2.086  -4.471 -10.034  0.00  0.00     0.043 H 
ATOM     17  H   LIG d   1       3.770  -5.506  -8.777  0.00  0.00     0.033 H 
ATOM     18  H   LIG d   1       4.601  -4.795 -10.108  0.00  0.00     0.033 H 
ATOM     19  H   LIG d   1       4.642  -2.756  -8.132  0.00  0.00     0.082 H 
ATOM     20  H   LIG d   1       4.523  -4.200  -7.158  0.00  0.00     0.082 H 
ATOM     21  H   LIG d   1       6.723  -2.868  -6.492  0.00  0.00     0.083 H 
ATOM     22  H   LIG d   1       8.101  -3.116  -7.589  0.00  0.00     0.083 H 
ATOM     23  H   LIG d   1       7.237  -1.551  -9.202  0.00  0.00     0.048 H 
ATOM     24  H   LIG d   1       5.647  -1.493  -8.378  0.00  0.00     0.048 H 
ATOM     25  H   LIG d   1       7.962   1.415  -7.934  0.00  0.00     0.043 H 
ATOM     26  H   LIG d   1       7.674   0.318  -9.294  0.00  0.00     0.043 H 
ATOM     27  H   LIG d   1       5.424   1.714  -7.753  0.00  0.00     0.033 H 
ATOM     28  H   LIG d   1       6.202   2.360  -9.140  0.00  0.00     0.033 H 
ATOM     29  H   LIG d   1       5.452   0.907 -10.657  0.00  0.00     0.082 H 
ATOM     30  H   LIG d   1       5.241  -0.436  -9.561  0.00  0.00     0.082 H 
ATOM     31  H   LIG d   1       1.837   0.222 -10.293  0.00  0.00     0.083 H 
ATOM     32  H   LIG d   1       3.233  -0.233 -11.271  0.00  0.00     0.083 H 
ATOM     33  H   LIG d   1       2.114  -1.464  -8.779  0.00  0.00     0.048 H 
ATOM     34  H   LIG d   1       3.894  -1.431  -8.890  0.00  0.00     0.048 H 
ATOM     35  H   LIG d   1       3.509   1.823 -10.113  0.00  0.00     0.203 HD
ATOM     36  H   LIG d   1       6.532  -4.882  -7.660  0.00  0.00     0.203 HD
ENDROOT
BRANCH   8  37
ATOM     37  C   LIG d   1       6.049  -0.205  -6.465  0.00  0.00     0.004 C 
ATOM     38  H   LIG d   1       5.595   0.760  -6.692  0.00  0.00     0.043 H 
ATOM     39  H   LIG d   1       5.302  -0.992  -6.573  0.00  0.00     0.043 H 
BRANCH  37  40
ATOM     40  C   LIG d   1       6.575  -0.196  -5.029  0.00  0.00     0.002 C 
ATOM     41  H   LIG d   1       6.936  -1.191  -4.767  0.00  0.00     0.034 H 
ATOM     42  H   LIG d   1       7.393   0.520  -4.946  0.00  0.00     0.034 H 
BRANCH  40  43
ATOM     43  C   LIG d   1       5.465   0.198  -4.089  0.00  0.00     0.043 A 
ATOM     44  N   LIG d   1       4.224   0.252  -4.532  0.00  0.00    -0.260 NA
ATOM     45  C   LIG d   1       3.221   0.587  -3.744  0.00  0.00     0.028 A 
ATOM     46  C   LIG d   1       3.440   0.907  -2.417  0.00  0.00    -0.044 A 
ATOM     47  H   LIG d   1       2.217   0.614  -4.142  0.00  0.00     0.083 H 
ATOM     48  C   LIG d   1       4.732   0.868  -1.918  0.00  0.00    -0.059 A 
ATOM     49  H   LIG d   1       2.614   1.184  -1.779  0.00  0.00     0.063 H 
ATOM     50  C   LIG d   1       5.761   0.506  -2.774  0.00  0.00    -0.040 A 
ATOM     51  H   LIG d   1       4.934   1.113  -0.885  0.00  0.00     0.062 H 
ATOM     52  H   LIG d   1       6.780   0.464  -2.418  0.00  0.00     0.064 H 
ENDBRANCH  40  43
ENDBRANCH  37  40
ENDBRANCH   8  37
BRANCH   5  53
ATOM     53  C   LIG d   1       6.858  -4.204  -9.539  0.00  0.00    -0.043 C 
ATOM     54  H   LIG d   1       6.131  -4.728 -10.160  0.00  0.00     0.078 H 
ATOM     55  H   LIG d   1       7.067  -3.226  -9.972  0.00  0.00     0.078 H 
ATOM     56  H   LIG d   1       7.780  -4.785  -9.491  0.00  0.00     0.078 H 
ENDBRANCH   5  53
BRANCH  12  57
ATOM     57  C   LIG d   1       3.148   1.123  -8.234  0.00  0.00    -0.043 C 
ATOM     58  H   LIG d   1       2.391   0.364  -8.039  0.00  0.00     0.078 H 
ATOM     59  H   LIG d   1       3.964   1.016  -7.520  0.00  0.00     0.078 H 
ATOM     60  H   LIG d   1       2.704   2.113  -8.132  0.00  0.00     0.078 H 
ENDBRANCH  12  57
BRANCH   1  61
ATOM     61  C   LIG d   1       4.189  -2.633 -11.119  0.00  0.00    -0.013 C 
ATOM     62  H   LIG d   1       4.392  -3.660 -11.419  0.00  0.00     0.039 H 
ATOM     63  H   LIG d   1       4.111  -2.004 -12.006  0.00  0.00     0.039 H 
ATOM     64  H   LIG d   1       5.001  -2.271 -10.487  0.00  0.00     0.039 H 
ENDBRANCH   1  61
TORSDOF 6
ENDMDL
MODEL 8
REMARK VINA RESULT:      -5.0      2.170      4.919
REMARK  6 active torsions:
REMARK  status: ('A' for Active; 'I' for Inactive)
REMARK    1  A    between atoms: C_1  and  N_2 
REMARK    2  A    between atoms: N_6  and  C_25 
REMARK    3  A    between atoms: N_9  and  C_17 
REMARK    4  A    between atoms: N_13  and  C_16 
REMARK    5  A    between atoms: C_17  and  C_18 
REMARK    6  A    between atoms: C_18  and  C_19 
ROOT
ATOM      1  N   LIG d   1       6.234  -2.717 -11.383  0.00  0.00    -0.300 N 
ATOM      2  C   LIG d   1       7.332  -3.060 -10.452  0.00  0.00     0.004 C 
ATOM      3  C   LIG d   1       8.077  -1.870  -9.873  0.00  0.00     0.000 C 
ATOM      4  C   LIG d   1       7.290  -1.206  -8.753  0.00  0.00    -0.031 C 
ATOM      5  N   LIG d   1       7.569   0.207  -8.542  0.00  0.00     0.234 N 
ATOM      6  C   LIG d   1       6.416   0.863  -7.898  0.00  0.00    -0.019 C 
ATOM      7  C   LIG d   1       5.186   0.743  -8.788  0.00  0.00     0.039 C 
ATOM      8  N   LIG d   1       3.963   1.136  -8.002  0.00  0.00    -0.297 N 
ATOM      9  C   LIG d   1       2.924   1.419  -9.034  0.00  0.00     0.004 C 
ATOM     10  C   LIG d   1       2.213   0.204  -9.599  0.00  0.00     0.000 C 
ATOM     11  C   LIG d   1       3.043  -0.514 -10.649  0.00  0.00    -0.031 C 
ATOM     12  N   LIG d   1       2.662  -1.903 -10.870  0.00  0.00     0.234 N 
ATOM     13  C   LIG d   1       3.759  -2.629 -11.540  0.00  0.00    -0.019 C 
ATOM     14  C   LIG d   1       4.961  -2.742 -10.608  0.00  0.00     0.039 C 
ATOM     15  H   LIG d   1       6.916  -3.664  -9.641  0.00  0.00     0.043 H 
ATOM     16  H   LIG d   1       8.043  -3.691 -11.005  0.00  0.00     0.043 H 
ATOM     17  H   LIG d   1       8.997  -2.291  -9.388  0.00  0.00     0.033 H 
ATOM     18  H   LIG d   1       8.469  -1.219 -10.629  0.00  0.00     0.033 H 
ATOM     19  H   LIG d   1       6.227  -1.382  -8.893  0.00  0.00     0.082 H 
ATOM     20  H   LIG d   1       7.549  -1.736  -7.809  0.00  0.00     0.082 H 
ATOM     21  H   LIG d   1       6.237   0.400  -6.928  0.00  0.00     0.083 H 
ATOM     22  H   LIG d   1       6.657   1.920  -7.751  0.00  0.00     0.083 H 
ATOM     23  H   LIG d   1       5.248   1.414  -9.637  0.00  0.00     0.048 H 
ATOM     24  H   LIG d   1       5.038  -0.281  -9.097  0.00  0.00     0.048 H 
ATOM     25  H   LIG d   1       2.190   2.091  -8.577  0.00  0.00     0.043 H 
ATOM     26  H   LIG d   1       3.418   1.963  -9.846  0.00  0.00     0.043 H 
ATOM     27  H   LIG d   1       1.776  -0.423  -8.850  0.00  0.00     0.033 H 
ATOM     28  H   LIG d   1       1.317   0.602 -10.148  0.00  0.00     0.033 H 
ATOM     29  H   LIG d   1       2.899   0.025 -11.611  0.00  0.00     0.082 H 
ATOM     30  H   LIG d   1       4.104  -0.433 -10.433  0.00  0.00     0.082 H 
ATOM     31  H   LIG d   1       3.401  -3.634 -11.782  0.00  0.00     0.083 H 
ATOM     32  H   LIG d   1       4.014  -2.127 -12.463  0.00  0.00     0.083 H 
ATOM     33  H   LIG d   1       4.919  -3.697 -10.078  0.00  0.00     0.048 H 
ATOM     34  H   LIG d   1       4.967  -1.924  -9.896  0.00  0.00     0.048 H 
ATOM     35  H   LIG d   1       1.856  -1.926 -11.493  0.00  0.00     0.203 HD
ATOM     36  H   LIG d   1       8.359   0.287  -7.899  0.00  0.00     0.203 HD
ENDROOT
BRANCH   8  37
ATOM     37  C   LIG d   1       3.563  -0.121  -7.286  0.00  0.00     0.004 C 
ATOM     38  H   LIG d   1       2.959  -0.740  -7.949  0.00  0.00     0.043 H 
ATOM     39  H   LIG d   1       4.457  -0.672  -6.991  0.00  0.00     0.043 H 
BRANCH  37  40
ATOM     40  C   LIG d   1       2.752   0.237  -6.041  0.00  0.00     0.002 C 
ATOM     41  H   LIG d   1       2.579   1.313  -6.016  0.00  0.00     0.034 H 
ATOM     42  H   LIG d   1       1.794  -0.283  -6.069  0.00  0.00     0.034 H 
BRANCH  40  43
ATOM     43  C   LIG d   1       3.512  -0.177  -4.808  0.00  0.00     0.043 A 
ATOM     44  N   LIG d   1       4.824  -0.043  -4.776  0.00  0.00    -0.260 NA
ATOM     45  C   LIG d   1       5.530  -0.388  -3.717  0.00  0.00     0.028 A 
ATOM     46  C   LIG d   1       4.915  -0.917  -2.598  0.00  0.00    -0.044 A 
ATOM     47  H   LIG d   1       6.602  -0.258  -3.726  0.00  0.00     0.083 H 
ATOM     48  C   LIG d   1       3.538  -1.079  -2.598  0.00  0.00    -0.059 A 
ATOM     49  H   LIG d   1       5.500  -1.200  -1.736  0.00  0.00     0.063 H 
ATOM     50  C   LIG d   1       2.829  -0.700  -3.727  0.00  0.00    -0.040 A 
ATOM     51  H   LIG d   1       3.030  -1.489  -1.737  0.00  0.00     0.062 H 
ATOM     52  H   LIG d   1       1.754  -0.812  -3.761  0.00  0.00     0.064 H 
ENDBRANCH  40  43
ENDBRANCH  37  40
ENDBRANCH   8  37
BRANCH   5  53
ATOM     53  C   LIG d   1       7.905   0.947  -9.758  0.00  0.00    -0.043 C 
ATOM     54  H   LIG d   1       8.949   1.259  -9.716  0.00  0.00     0.078 H 
ATOM     55  H   LIG d   1       7.752   0.309 -10.627  0.00  0.00     0.078 H 
ATOM     56  H   LIG d   1       7.266   1.827  -9.836  0.00  0.00     0.078 H 
ENDBRANCH   5  53
BRANCH  12  57
ATOM     57  C   LIG d   1       2.329  -2.622  -9.638  0.00  0.00    -0.043 C 
ATOM     58  H   LIG d   1       3.099  -2.436  -8.889  0.00  0.00     0.078 H 
ATOM     59  H   LIG d   1       1.366  -2.275  -9.264  0.00  0.00     0.078 H 
ATOM     60  H   LIG d   1       2.274  -3.691  -9.844  0.00  0.00     0.078 H 
ENDBRANCH  12  57
BRANCH   1  61
ATOM     61  C   LIG d   1       6.417  -1.342 -11.910  0.00  0.00    -0.013 C 
ATOM     62  H   LIG d   1       6.320  -1.352 -12.995  0.00  0.00     0.039 H 
ATOM     63  H   LIG d   1       5.659  -0.686 -11.484  0.00  0.00     0.039 H 
ATOM     64  H   LIG d   1       7.408  -0.978 -11.637  0.00  0.00     0.039 H 
ENDBRANCH   1  61
TORSDOF 6
ENDMDL
MODEL 9
REMARK VINA RESULT:      -5.0      2.997      5.546
REMARK  6 active torsions:
REMARK  status: ('A' for Active; 'I' for Inactive)
REMARK    1  A    between atoms: C_1  and  N_2 
REMARK    2  A    between atoms: N_6  and  C_25 
REMARK    3  A    between atoms: N_9  and  C_17 
REMARK    4  A    between atoms: N_13  and  C_16 
REMARK    5  A    between atoms: C_17  and  C_18 
REMARK    6  A    between atoms: C_18  and  C_19 
ROOT
ATOM      1  N   LIG d   1      12.641   0.921  -4.900  0.00  0.00    -0.300 N 
ATOM      2  C   LIG d   1      12.498   1.608  -3.597  0.00  0.00     0.004 C 
ATOM      3  C   LIG d   1      11.446   2.703  -3.561  0.00  0.00     0.000 C 
ATOM      4  C   LIG d   1      10.041   2.130  -3.451  0.00  0.00    -0.031 C 
ATOM      5  N   LIG d   1       8.979   2.964  -3.993  0.00  0.00     0.234 N 
ATOM      6  C   LIG d   1       7.819   2.133  -4.366  0.00  0.00    -0.019 C 
ATOM      7  C   LIG d   1       8.227   1.121  -5.429  0.00  0.00     0.039 C 
ATOM      8  N   LIG d   1       7.138   0.091  -5.579  0.00  0.00    -0.297 N 
ATOM      9  C   LIG d   1       7.404  -0.554  -6.897  0.00  0.00     0.004 C 
ATOM     10  C   LIG d   1       8.472  -1.633  -6.895  0.00  0.00     0.000 C 
ATOM     11  C   LIG d   1       9.877  -1.054  -6.907  0.00  0.00    -0.031 C 
ATOM     12  N   LIG d   1      10.906  -1.967  -6.426  0.00  0.00     0.234 N 
ATOM     13  C   LIG d   1      12.118  -1.212  -6.054  0.00  0.00    -0.019 C 
ATOM     14  C   LIG d   1      11.839  -0.334  -4.840  0.00  0.00     0.039 C 
ATOM     15  H   LIG d   1      12.270   0.854  -2.837  0.00  0.00     0.043 H 
ATOM     16  H   LIG d   1      13.476   2.045  -3.349  0.00  0.00     0.043 H 
ATOM     17  H   LIG d   1      11.620   3.263  -2.605  0.00  0.00     0.033 H 
ATOM     18  H   LIG d   1      11.598   3.448  -4.317  0.00  0.00     0.033 H 
ATOM     19  H   LIG d   1      10.015   1.131  -3.877  0.00  0.00     0.082 H 
ATOM     20  H   LIG d   1       9.827   1.988  -2.367  0.00  0.00     0.082 H 
ATOM     21  H   LIG d   1       7.440   1.628  -3.478  0.00  0.00     0.083 H 
ATOM     22  H   LIG d   1       7.039   2.787  -4.767  0.00  0.00     0.083 H 
ATOM     23  H   LIG d   1       8.351   1.594  -6.396  0.00  0.00     0.048 H 
ATOM     24  H   LIG d   1       9.116   0.587  -5.127  0.00  0.00     0.048 H 
ATOM     25  H   LIG d   1       6.458  -0.979  -7.246  0.00  0.00     0.043 H 
ATOM     26  H   LIG d   1       7.692   0.243  -7.593  0.00  0.00     0.043 H 
ATOM     27  H   LIG d   1       8.298  -2.405  -6.176  0.00  0.00     0.033 H 
ATOM     28  H   LIG d   1       8.363  -2.172  -7.875  0.00  0.00     0.033 H 
ATOM     29  H   LIG d   1      10.123  -0.804  -7.962  0.00  0.00     0.082 H 
ATOM     30  H   LIG d   1       9.916  -0.110  -6.373  0.00  0.00     0.082 H 
ATOM     31  H   LIG d   1      12.900  -1.933  -5.798  0.00  0.00     0.083 H 
ATOM     32  H   LIG d   1      12.456  -0.630  -6.901  0.00  0.00     0.083 H 
ATOM     33  H   LIG d   1      12.133  -0.867  -3.931  0.00  0.00     0.048 H 
ATOM     34  H   LIG d   1      10.786  -0.076  -4.792  0.00  0.00     0.048 H 
ATOM     35  H   LIG d   1      11.161  -2.600  -7.184  0.00  0.00     0.203 HD
ATOM     36  H   LIG d   1       8.667   3.604  -3.260  0.00  0.00     0.203 HD
ENDROOT
BRANCH   8  37
ATOM     37  C   LIG d   1       7.433  -0.919  -4.510  0.00  0.00     0.004 C 
ATOM     38  H   LIG d   1       8.136  -1.659  -4.893  0.00  0.00     0.043 H 
ATOM     39  H   LIG d   1       7.871  -0.417  -3.646  0.00  0.00     0.043 H 
BRANCH  37  40
ATOM     40  C   LIG d   1       6.137  -1.614  -4.092  0.00  0.00     0.002 C 
ATOM     41  H   LIG d   1       5.692  -2.106  -4.957  0.00  0.00     0.034 H 
ATOM     42  H   LIG d   1       6.354  -2.356  -3.323  0.00  0.00     0.034 H 
BRANCH  40  43
ATOM     43  C   LIG d   1       5.173  -0.593  -3.545  0.00  0.00     0.043 A 
ATOM     44  N   LIG d   1       4.068  -0.318  -4.211  0.00  0.00    -0.260 NA
ATOM     45  C   LIG d   1       3.193   0.564  -3.768  0.00  0.00     0.028 A 
ATOM     46  C   LIG d   1       3.412   1.245  -2.586  0.00  0.00    -0.044 A 
ATOM     47  H   LIG d   1       2.297   0.759  -4.339  0.00  0.00     0.083 H 
ATOM     48  C   LIG d   1       4.566   0.987  -1.861  0.00  0.00    -0.059 A 
ATOM     49  H   LIG d   1       2.694   1.969  -2.231  0.00  0.00     0.063 H 
ATOM     50  C   LIG d   1       5.460   0.049  -2.356  0.00  0.00    -0.040 A 
ATOM     51  H   LIG d   1       4.764   1.504  -0.933  0.00  0.00     0.062 H 
ATOM     52  H   LIG d   1       6.368  -0.177  -1.817  0.00  0.00     0.064 H 
ENDBRANCH  40  43
ENDBRANCH  37  40
ENDBRANCH   8  37
BRANCH   5  53
ATOM     53  C   LIG d   1       9.368   3.766  -5.152  0.00  0.00    -0.043 C 
ATOM     54  H   LIG d   1       8.588   4.496  -5.368  0.00  0.00     0.078 H 
ATOM     55  H   LIG d   1      10.302   4.285  -4.938  0.00  0.00     0.078 H 
ATOM     56  H   LIG d   1       9.504   3.114  -6.016  0.00  0.00     0.078 H 
ENDBRANCH   5  53
BRANCH  12  57
ATOM     57  C   LIG d   1      10.491  -2.759  -5.266  0.00  0.00    -0.043 C 
ATOM     58  H   LIG d   1      11.207  -2.620  -4.456  0.00  0.00     0.078 H 
ATOM     59  H   LIG d   1       9.504  -2.434  -4.939  0.00  0.00     0.078 H 
ATOM     60  H   LIG d   1      10.454  -3.813  -5.541  0.00  0.00     0.078 H 
ENDBRANCH  12  57
BRANCH   1  61
ATOM     61  C   LIG d   1      12.085   1.763  -5.988  0.00  0.00    -0.013 C 
ATOM     62  H   LIG d   1      11.514   2.584  -5.556  0.00  0.00     0.039 H 
ATOM     63  H   LIG d   1      12.900   2.165  -6.590  0.00  0.00     0.039 H 
ATOM     64  H   LIG d   1      11.432   1.158  -6.617  0.00  0.00     0.039 H 
ENDBRANCH   1  61
TORSDOF 6
ENDMDL
MODEL 10
REMARK VINA RESULT:      -5.0      2.058      4.117
REMARK  6 active torsions:
REMARK  status: ('A' for Active; 'I' for Inactive)
REMARK    1  A    between atoms: C_1  and  N_2 
REMARK    2  A    between atoms: N_6  and  C_25 
REMARK    3  A    between atoms: N_9  and  C_17 
REMARK    4  A    between atoms: N_13  and  C_16 
REMARK    5  A    between atoms: C_17  and  C_18 
REMARK    6  A    between atoms: C_18  and  C_19 
ROOT
ATOM      1  N   LIG d   1      10.320   3.133  -7.125  0.00  0.00    -0.300 N 
ATOM      2  C   LIG d   1       9.527   3.906  -8.107  0.00  0.00     0.004 C 
ATOM      3  C   LIG d   1       9.084   3.124  -9.332  0.00  0.00     0.000 C 
ATOM      4  C   LIG d   1       7.893   2.228  -9.025  0.00  0.00    -0.031 C 
ATOM      5  N   LIG d   1       7.762   1.048  -9.867  0.00  0.00     0.234 N 
ATOM      6  C   LIG d   1       6.995   0.003  -9.163  0.00  0.00    -0.019 C 
ATOM      7  C   LIG d   1       7.716  -0.396  -7.883  0.00  0.00     0.039 C 
ATOM      8  N   LIG d   1       6.792  -1.224  -7.029  0.00  0.00    -0.297 N 
ATOM      9  C   LIG d   1       7.689  -1.922  -6.064  0.00  0.00     0.004 C 
ATOM     10  C   LIG d   1       8.122  -1.102  -4.862  0.00  0.00     0.000 C 
ATOM     11  C   LIG d   1       9.248  -0.139  -5.195  0.00  0.00    -0.031 C 
ATOM     12  N   LIG d   1       9.377   0.979  -4.269  0.00  0.00     0.234 N 
ATOM     13  C   LIG d   1      10.160   2.065  -4.891  0.00  0.00    -0.019 C 
ATOM     14  C   LIG d   1       9.387   2.668  -6.059  0.00  0.00     0.039 C 
ATOM     15  H   LIG d   1       8.651   4.313  -7.595  0.00  0.00     0.043 H 
ATOM     16  H   LIG d   1      10.148   4.753  -8.432  0.00  0.00     0.043 H 
ATOM     17  H   LIG d   1       8.709   3.886 -10.063  0.00  0.00     0.033 H 
ATOM     18  H   LIG d   1       9.904   2.664  -9.848  0.00  0.00     0.033 H 
ATOM     19  H   LIG d   1       7.890   1.964  -7.972  0.00  0.00     0.082 H 
ATOM     20  H   LIG d   1       6.974   2.840  -9.173  0.00  0.00     0.082 H 
ATOM     21  H   LIG d   1       5.997   0.380  -8.943  0.00  0.00     0.083 H 
ATOM     22  H   LIG d   1       6.912  -0.868  -9.821  0.00  0.00     0.083 H 
ATOM     23  H   LIG d   1       8.585  -1.008  -8.095  0.00  0.00     0.048 H 
ATOM     24  H   LIG d   1       7.973   0.477  -7.302  0.00  0.00     0.048 H 
ATOM     25  H   LIG d   1       7.163  -2.818  -5.722  0.00  0.00     0.043 H 
ATOM     26  H   LIG d   1       8.575  -2.244  -6.623  0.00  0.00     0.043 H 
ATOM     27  H   LIG d   1       7.305  -0.683  -4.313  0.00  0.00     0.033 H 
ATOM     28  H   LIG d   1       8.564  -1.837  -4.135  0.00  0.00     0.033 H 
ATOM     29  H   LIG d   1      10.199  -0.714  -5.153  0.00  0.00     0.082 H 
ATOM     30  H   LIG d   1       9.173   0.213  -6.219  0.00  0.00     0.082 H 
ATOM     31  H   LIG d   1      10.324   2.839  -4.136  0.00  0.00     0.083 H 
ATOM     32  H   LIG d   1      11.123   1.683  -5.202  0.00  0.00     0.083 H 
ATOM     33  H   LIG d   1       8.827   3.540  -5.711  0.00  0.00     0.048 H 
ATOM     34  H   LIG d   1       8.707   1.937  -6.481  0.00  0.00     0.048 H 
ATOM     35  H   LIG d   1       9.890   0.665  -3.446  0.00  0.00     0.203 HD
ATOM     36  H   LIG d   1       7.228   1.304 -10.700  0.00  0.00     0.203 HD
ENDROOT
BRANCH   8  37
ATOM     37  C   LIG d   1       5.993  -0.213  -6.260  0.00  0.00     0.004 C 
ATOM     38  H   LIG d   1       6.509   0.025  -5.329  0.00  0.00     0.043 H 
ATOM     39  H   LIG d   1       5.884   0.694  -6.855  0.00  0.00     0.043 H 
BRANCH  37  40
ATOM     40  C   LIG d   1       4.610  -0.786  -5.946  0.00  0.00     0.002 C 
ATOM     41  H   LIG d   1       3.842  -0.098  -6.300  0.00  0.00     0.034 H 
ATOM     42  H   LIG d   1       4.494  -1.748  -6.447  0.00  0.00     0.034 H 
BRANCH  40  43
ATOM     43  C   LIG d   1       4.469  -0.974  -4.458  0.00  0.00     0.043 A 
ATOM     44  N   LIG d   1       4.100  -2.147  -3.981  0.00  0.00    -0.260 NA
ATOM     45  C   LIG d   1       3.970  -2.359  -2.686  0.00  0.00     0.028 A 
ATOM     46  C   LIG d   1       4.206  -1.345  -1.776  0.00  0.00    -0.044 A 
ATOM     47  H   LIG d   1       3.671  -3.334  -2.333  0.00  0.00     0.083 H 
ATOM     48  C   LIG d   1       4.589  -0.097  -2.241  0.00  0.00    -0.059 A 
ATOM     49  H   LIG d   1       4.093  -1.524  -0.718  0.00  0.00     0.063 H 
ATOM     50  C   LIG d   1       4.722   0.087  -3.609  0.00  0.00    -0.040 A 
ATOM     51  H   LIG d   1       4.782   0.714  -1.553  0.00  0.00     0.062 H 
ATOM     52  H   LIG d   1       5.020   1.046  -4.006  0.00  0.00     0.064 H 
ENDBRANCH  40  43
ENDBRANCH  37  40
ENDBRANCH   8  37
BRANCH   5  53
ATOM     53  C   LIG d   1       9.032   0.474 -10.309  0.00  0.00    -0.043 C 
ATOM     54  H   LIG d   1       9.572   0.079  -9.448  0.00  0.00     0.078 H 
ATOM     55  H   LIG d   1       8.841  -0.333 -11.017  0.00  0.00     0.078 H 
ATOM     56  H   LIG d   1       9.632   1.246 -10.791  0.00  0.00     0.078 H 
ENDBRANCH   5  53
BRANCH  12  57
ATOM     57  C   LIG d   1       8.091   1.535  -3.841  0.00  0.00    -0.043 C 
ATOM     58  H   LIG d   1       7.923   1.295  -2.791  0.00  0.00     0.078 H 
ATOM     59  H   LIG d   1       8.103   2.617  -3.968  0.00  0.00     0.078 H 
ATOM     60  H   LIG d   1       7.291   1.107  -4.444  0.00  0.00     0.078 H 
ENDBRANCH  12  57
BRANCH   1  61
ATOM     61  C   LIG d   1      10.906   1.931  -7.769  0.00  0.00    -0.013 C 
ATOM     62  H   LIG d   1      10.302   1.650  -8.630  0.00  0.00     0.039 H 
ATOM     63  H   LIG d   1      11.922   2.153  -8.095  0.00  0.00     0.039 H 
ATOM     64  H   LIG d   1      10.925   1.109  -7.054  0.00  0.00     0.039 H 
ENDBRANCH   1  61
TORSDOF 6
ENDMDL
