MODEL 1
REMARK VINA RESULT:      -6.2      0.000      0.000
REMARK  12 active torsions:
REMARK  status: ('A' for Active; 'I' for Inactive)
REMARK    1  A    between atoms: C_1  and  C_2 
REMARK    2  A    between atoms: C_2  and  O_3 
REMARK    3  A    between atoms: O_3  and  C_4 
REMARK    4  A    between atoms: C_4  and  C_6 
REMARK    5  A    between atoms: C_7  and  C_29 
REMARK    6  A    between atoms: C_12  and  O_15 
REMARK    7  A    between atoms: O_15  and  C_16 
REMARK    8  A    between atoms: C_16  and  C_18 
REMARK    9  A    between atoms: C_16  and  C_24 
REMARK   10  A    between atoms: C_24  and  O_26 
REMARK   11  A    between atoms: O_26  and  C_27 
REMARK   12  A    between atoms: C_27  and  C_28 
ROOT
ATOM      1  C   LIG d   1       2.161  -1.896 -10.605  0.00  0.00     0.107 A 
ATOM      2  C   LIG d   1       2.263  -1.375 -11.858  0.00  0.00     0.117 A 
ATOM      3  O   LIG d   1       2.751  -0.132 -11.795  0.00  0.00    -0.459 OA
ATOM      4  C   LIG d   1       2.996   0.236 -10.519  0.00  0.00     0.136 A 
ATOM      5  C   LIG d   1       2.644  -0.840  -9.692  0.00  0.00     0.038 A 
ATOM      6  C   LIG d   1       2.792  -0.743  -8.312  0.00  0.00    -0.008 A 
ATOM      7  C   LIG d   1       3.289   0.423  -7.759  0.00  0.00     0.123 A 
ATOM      8  C   LIG d   1       3.633   1.492  -8.579  0.00  0.00    -0.016 A 
ATOM      9  C   LIG d   1       3.494   1.400  -9.947  0.00  0.00    -0.015 A 
ATOM     10  H   LIG d   1       2.521  -1.573  -7.677  0.00  0.00     0.066 H 
ATOM     11  H   LIG d   1       4.017   2.402  -8.140  0.00  0.00     0.066 H 
ATOM     12  H   LIG d   1       3.768   2.235 -10.575  0.00  0.00     0.066 H 
ENDROOT
BRANCH   7  13
ATOM     13  O   LIG d   1       3.437   0.526  -6.411  0.00  0.00    -0.473 OA
BRANCH  13  14
ATOM     14  C   LIG d   1       4.196  -0.496  -5.762  0.00  0.00     0.221 C 
ATOM     15  H   LIG d   1       3.743  -1.467  -5.962  0.00  0.00     0.090 H 
BRANCH  14  16
ATOM     16  C   LIG d   1       4.209  -0.244  -4.276  0.00  0.00     0.004 A 
ATOM     17  C   LIG d   1       3.703   0.939  -3.770  0.00  0.00    -0.054 A 
ATOM     18  C   LIG d   1       3.714   1.169  -2.408  0.00  0.00    -0.061 A 
ATOM     19  H   LIG d   1       3.299   1.683  -4.440  0.00  0.00     0.062 H 
ATOM     20  C   LIG d   1       4.231   0.216  -1.549  0.00  0.00    -0.062 A 
ATOM     21  H   LIG d   1       3.319   2.093  -2.012  0.00  0.00     0.062 H 
ATOM     22  C   LIG d   1       4.736  -0.967  -2.055  0.00  0.00    -0.061 A 
ATOM     23  H   LIG d   1       4.240   0.396  -0.484  0.00  0.00     0.062 H 
ATOM     24  C   LIG d   1       4.721  -1.199  -3.418  0.00  0.00    -0.054 A 
ATOM     25  H   LIG d   1       5.142  -1.712  -1.385  0.00  0.00     0.062 H 
ATOM     26  H   LIG d   1       5.113  -2.126  -3.813  0.00  0.00     0.062 H 
ENDBRANCH  14  16
BRANCH  14  27
ATOM     27  C   LIG d   1       5.609  -0.483  -6.286  0.00  0.00     0.353 C 
ATOM     28  O   LIG d   1       6.057  -1.458  -6.839  0.00  0.00    -0.246 OA
BRANCH  27  29
ATOM     29  O   LIG d   1       6.369   0.614  -6.138  0.00  0.00    -0.462 OA
BRANCH  29  30
ATOM     30  C   LIG d   1       7.610   0.460  -5.400  0.00  0.00     0.090 C 
ATOM     31  H   LIG d   1       7.774  -0.595  -5.181  0.00  0.00     0.069 H 
ATOM     32  H   LIG d   1       8.438   0.840  -5.997  0.00  0.00     0.069 H 
BRANCH  30  33
ATOM     33  C   LIG d   1       7.524   1.246  -4.089  0.00  0.00    -0.031 C 
ATOM     34  H   LIG d   1       8.356   0.965  -3.443  0.00  0.00     0.026 H 
ATOM     35  H   LIG d   1       7.573   2.313  -4.301  0.00  0.00     0.026 H 
ATOM     36  H   LIG d   1       6.583   1.017  -3.589  0.00  0.00     0.026 H 
ENDBRANCH  30  33
ENDBRANCH  29  30
ENDBRANCH  27  29
ENDBRANCH  14  27
ENDBRANCH  13  14
ENDBRANCH   7  13
BRANCH   1  37
ATOM     37  C   LIG d   1       1.671  -3.231 -10.235  0.00  0.00     0.343 C 
ATOM     38  O   LIG d   1       2.443  -4.064  -9.802  0.00  0.00    -0.245 OA
BRANCH  37  39
ATOM     39  O   LIG d   1       0.365  -3.532 -10.374  0.00  0.00    -0.461 OA
BRANCH  39  40
ATOM     40  C   LIG d   1       0.029  -4.926 -10.607  0.00  0.00     0.090 C 
ATOM     41  H   LIG d   1       0.110  -5.145 -11.672  0.00  0.00     0.070 H 
ATOM     42  H   LIG d   1       0.719  -5.563 -10.052  0.00  0.00     0.070 H 
BRANCH  40  43
ATOM     43  C   LIG d   1      -1.401  -5.192 -10.139  0.00  0.00    -0.031 C 
ATOM     44  H   LIG d   1      -1.496  -6.235  -9.834  0.00  0.00     0.026 H 
ATOM     45  H   LIG d   1      -1.634  -4.544  -9.294  0.00  0.00     0.026 H 
ATOM     46  H   LIG d   1      -2.095  -4.988 -10.955  0.00  0.00     0.026 H 
ENDBRANCH  40  43
ENDBRANCH  39  40
ENDBRANCH  37  39
ENDBRANCH   1  37
BRANCH   2  47
ATOM     47  C   LIG d   1       1.883  -2.093 -13.127  0.00  0.00    -0.005 C 
ATOM     48  H   LIG d   1       2.043  -1.433 -13.979  0.00  0.00     0.031 H 
ATOM     49  H   LIG d   1       2.498  -2.985 -13.238  0.00  0.00     0.031 H 
ATOM     50  H   LIG d   1       0.832  -2.379 -13.083  0.00  0.00     0.031 H 
ENDBRANCH   2  47
TORSDOF 12
ENDMDL
MODEL 2
REMARK VINA RESULT:      -6.1      2.022      2.865
REMARK  12 active torsions:
REMARK  status: ('A' for Active; 'I' for Inactive)
REMARK    1  A    between atoms: C_1  and  C_2 
REMARK    2  A    between atoms: C_2  and  O_3 
REMARK    3  A    between atoms: O_3  and  C_4 
REMARK    4  A    between atoms: C_4  and  C_6 
REMARK    5  A    between atoms: C_7  and  C_29 
REMARK    6  A    between atoms: C_12  and  O_15 
REMARK    7  A    between atoms: O_15  and  C_16 
REMARK    8  A    between atoms: C_16  and  C_18 
REMARK    9  A    between atoms: C_16  and  C_24 
REMARK   10  A    between atoms: C_24  and  O_26 
REMARK   11  A    between atoms: O_26  and  C_27 
REMARK   12  A    between atoms: C_27  and  C_28 
ROOT
ATOM      1  C   LIG d   1       2.975  -3.502  -9.300  0.00  0.00     0.107 A 
ATOM      2  C   LIG d   1       2.019  -3.392 -10.262  0.00  0.00     0.117 A 
ATOM      3  O   LIG d   1       1.591  -2.127 -10.335  0.00  0.00    -0.459 OA
ATOM      4  C   LIG d   1       2.228  -1.341  -9.441  0.00  0.00     0.136 A 
ATOM      5  C   LIG d   1       3.134  -2.146  -8.736  0.00  0.00     0.038 A 
ATOM      6  C   LIG d   1       3.936  -1.597  -7.741  0.00  0.00    -0.008 A 
ATOM      7  C   LIG d   1       3.836  -0.249  -7.450  0.00  0.00     0.123 A 
ATOM      8  C   LIG d   1       2.934   0.549  -8.145  0.00  0.00    -0.016 A 
ATOM      9  C   LIG d   1       2.141   0.012  -9.136  0.00  0.00    -0.015 A 
ATOM     10  H   LIG d   1       4.633  -2.219  -7.201  0.00  0.00     0.066 H 
ATOM     11  H   LIG d   1       2.857   1.601  -7.910  0.00  0.00     0.066 H 
ATOM     12  H   LIG d   1       1.446   0.642  -9.672  0.00  0.00     0.066 H 
ENDROOT
BRANCH   7  13
ATOM     13  O   LIG d   1       4.616   0.296  -6.479  0.00  0.00    -0.473 OA
BRANCH  13  14
ATOM     14  C   LIG d   1       5.521  -0.581  -5.806  0.00  0.00     0.221 C 
ATOM     15  H   LIG d   1       5.519  -1.553  -6.298  0.00  0.00     0.090 H 
BRANCH  14  16
ATOM     16  C   LIG d   1       5.089  -0.744  -4.371  0.00  0.00     0.004 A 
ATOM     17  C   LIG d   1       4.534  -1.937  -3.948  0.00  0.00    -0.054 A 
ATOM     18  C   LIG d   1       4.139  -2.087  -2.632  0.00  0.00    -0.061 A 
ATOM     19  H   LIG d   1       4.410  -2.753  -4.645  0.00  0.00     0.062 H 
ATOM     20  C   LIG d   1       4.298  -1.043  -1.739  0.00  0.00    -0.062 A 
ATOM     21  H   LIG d   1       3.705  -3.019  -2.301  0.00  0.00     0.062 H 
ATOM     22  C   LIG d   1       4.853   0.149  -2.162  0.00  0.00    -0.061 A 
ATOM     23  H   LIG d   1       3.988  -1.160  -0.710  0.00  0.00     0.062 H 
ATOM     24  C   LIG d   1       5.253   0.297  -3.477  0.00  0.00    -0.054 A 
ATOM     25  H   LIG d   1       4.977   0.965  -1.465  0.00  0.00     0.062 H 
ATOM     26  H   LIG d   1       5.691   1.229  -3.807  0.00  0.00     0.062 H 
ENDBRANCH  14  16
BRANCH  14  27
ATOM     27  C   LIG d   1       6.911   0.001  -5.849  0.00  0.00     0.353 C 
ATOM     28  O   LIG d   1       7.860  -0.679  -5.545  0.00  0.00    -0.246 OA
BRANCH  27  29
ATOM     29  O   LIG d   1       7.092   1.276  -6.228  0.00  0.00    -0.462 OA
BRANCH  29  30
ATOM     30  C   LIG d   1       7.860   1.500  -7.440  0.00  0.00     0.090 C 
ATOM     31  H   LIG d   1       8.511   2.365  -7.303  0.00  0.00     0.069 H 
ATOM     32  H   LIG d   1       8.466   0.621  -7.654  0.00  0.00     0.069 H 
BRANCH  30  33
ATOM     33  C   LIG d   1       6.906   1.760  -8.608  0.00  0.00    -0.031 C 
ATOM     34  H   LIG d   1       6.102   2.420  -8.280  0.00  0.00     0.026 H 
ATOM     35  H   LIG d   1       7.451   2.230  -9.425  0.00  0.00     0.026 H 
ATOM     36  H   LIG d   1       6.483   0.814  -8.949  0.00  0.00     0.026 H 
ENDBRANCH  30  33
ENDBRANCH  29  30
ENDBRANCH  27  29
ENDBRANCH  14  27
ENDBRANCH  13  14
ENDBRANCH   7  13
BRANCH   1  37
ATOM     37  C   LIG d   1       3.700  -4.717  -8.903  0.00  0.00     0.343 C 
ATOM     38  O   LIG d   1       4.672  -5.080  -9.536  0.00  0.00    -0.245 OA
BRANCH  37  39
ATOM     39  O   LIG d   1       3.287  -5.429  -7.836  0.00  0.00    -0.461 OA
BRANCH  39  40
ATOM     40  C   LIG d   1       4.314  -6.057  -7.023  0.00  0.00     0.090 C 
ATOM     41  H   LIG d   1       3.982  -7.050  -6.722  0.00  0.00     0.070 H 
ATOM     42  H   LIG d   1       5.234  -6.141  -7.603  0.00  0.00     0.070 H 
BRANCH  40  43
ATOM     43  C   LIG d   1       4.572  -5.205  -5.779  0.00  0.00    -0.031 C 
ATOM     44  H   LIG d   1       3.905  -4.343  -5.785  0.00  0.00     0.026 H 
ATOM     45  H   LIG d   1       4.387  -5.802  -4.886  0.00  0.00     0.026 H 
ATOM     46  H   LIG d   1       5.608  -4.864  -5.780  0.00  0.00     0.026 H 
ENDBRANCH  40  43
ENDBRANCH  39  40
ENDBRANCH  37  39
ENDBRANCH   1  37
BRANCH   2  47
ATOM     47  C   LIG d   1       1.516  -4.526 -11.118  0.00  0.00    -0.005 C 
ATOM     48  H   LIG d   1       2.333  -5.219 -11.319  0.00  0.00     0.031 H 
ATOM     49  H   LIG d   1       0.717  -5.049 -10.594  0.00  0.00     0.031 H 
ATOM     50  H   LIG d   1       1.136  -4.130 -12.060  0.00  0.00     0.031 H 
ENDBRANCH   2  47
TORSDOF 12
ENDMDL
MODEL 3
REMARK VINA RESULT:      -6.1      2.054      2.795
REMARK  12 active torsions:
REMARK  status: ('A' for Active; 'I' for Inactive)
REMARK    1  A    between atoms: C_1  and  C_2 
REMARK    2  A    between atoms: C_2  and  O_3 
REMARK    3  A    between atoms: O_3  and  C_4 
REMARK    4  A    between atoms: C_4  and  C_6 
REMARK    5  A    between atoms: C_7  and  C_29 
REMARK    6  A    between atoms: C_12  and  O_15 
REMARK    7  A    between atoms: O_15  and  C_16 
REMARK    8  A    between atoms: C_16  and  C_18 
REMARK    9  A    between atoms: C_16  and  C_24 
REMARK   10  A    between atoms: C_24  and  O_26 
REMARK   11  A    between atoms: O_26  and  C_27 
REMARK   12  A    between atoms: C_27  and  C_28 
ROOT
ATOM      1  C   LIG d   1       3.041  -3.553  -9.229  0.00  0.00     0.107 A 
ATOM      2  C   LIG d   1       2.148  -3.456 -10.252  0.00  0.00     0.117 A 
ATOM      3  O   LIG d   1       1.736  -2.190 -10.377  0.00  0.00    -0.459 OA
ATOM      4  C   LIG d   1       2.320  -1.390  -9.459  0.00  0.00     0.136 A 
ATOM      5  C   LIG d   1       3.173  -2.187  -8.682  0.00  0.00     0.038 A 
ATOM      6  C   LIG d   1       3.914  -1.623  -7.649  0.00  0.00    -0.008 A 
ATOM      7  C   LIG d   1       3.805  -0.269  -7.391  0.00  0.00     0.123 A 
ATOM      8  C   LIG d   1       2.955   0.521  -8.158  0.00  0.00    -0.016 A 
ATOM      9  C   LIG d   1       2.223  -0.031  -9.187  0.00  0.00    -0.015 A 
ATOM     10  H   LIG d   1       4.570  -2.238  -7.053  0.00  0.00     0.066 H 
ATOM     11  H   LIG d   1       2.870   1.578  -7.948  0.00  0.00     0.066 H 
ATOM     12  H   LIG d   1       1.568   0.592  -9.778  0.00  0.00     0.066 H 
ENDROOT
BRANCH   7  13
ATOM     13  O   LIG d   1       4.526   0.291  -6.383  0.00  0.00    -0.473 OA
BRANCH  13  14
ATOM     14  C   LIG d   1       5.424  -0.565  -5.675  0.00  0.00     0.221 C 
ATOM     15  H   LIG d   1       5.387  -1.566  -6.105  0.00  0.00     0.090 H 
BRANCH  14  16
ATOM     16  C   LIG d   1       5.021  -0.628  -4.224  0.00  0.00     0.004 A 
ATOM     17  C   LIG d   1       5.137   0.495  -3.426  0.00  0.00    -0.054 A 
ATOM     18  C   LIG d   1       4.766   0.438  -2.095  0.00  0.00    -0.061 A 
ATOM     19  H   LIG d   1       5.516   1.416  -3.841  0.00  0.00     0.062 H 
ATOM     20  C   LIG d   1       4.280  -0.742  -1.563  0.00  0.00    -0.062 A 
ATOM     21  H   LIG d   1       4.857   1.315  -1.471  0.00  0.00     0.062 H 
ATOM     22  C   LIG d   1       4.163  -1.864  -2.362  0.00  0.00    -0.061 A 
ATOM     23  H   LIG d   1       3.991  -0.787  -0.523  0.00  0.00     0.062 H 
ATOM     24  C   LIG d   1       4.530  -1.805  -3.694  0.00  0.00    -0.054 A 
ATOM     25  H   LIG d   1       3.784  -2.786  -1.946  0.00  0.00     0.062 H 
ATOM     26  H   LIG d   1       4.436  -2.682  -4.319  0.00  0.00     0.062 H 
ENDBRANCH  14  16
BRANCH  14  27
ATOM     27  C   LIG d   1       6.826  -0.023  -5.784  0.00  0.00     0.353 C 
ATOM     28  O   LIG d   1       7.055   0.917  -6.506  0.00  0.00    -0.246 OA
BRANCH  27  29
ATOM     29  O   LIG d   1       7.819  -0.586  -5.078  0.00  0.00    -0.462 OA
BRANCH  29  30
ATOM     30  C   LIG d   1       8.164  -1.958  -5.406  0.00  0.00     0.090 C 
ATOM     31  H   LIG d   1       7.490  -2.328  -6.179  0.00  0.00     0.069 H 
ATOM     32  H   LIG d   1       9.190  -1.998  -5.770  0.00  0.00     0.069 H 
BRANCH  30  33
ATOM     33  C   LIG d   1       8.033  -2.830  -4.155  0.00  0.00    -0.031 C 
ATOM     34  H   LIG d   1       7.046  -2.685  -3.714  0.00  0.00     0.026 H 
ATOM     35  H   LIG d   1       8.159  -3.877  -4.427  0.00  0.00     0.026 H 
ATOM     36  H   LIG d   1       8.798  -2.547  -3.432  0.00  0.00     0.026 H 
ENDBRANCH  30  33
ENDBRANCH  29  30
ENDBRANCH  27  29
ENDBRANCH  14  27
ENDBRANCH  13  14
ENDBRANCH   7  13
BRANCH   1  37
ATOM     37  C   LIG d   1       3.730  -4.764  -8.763  0.00  0.00     0.343 C 
ATOM     38  O   LIG d   1       4.689  -5.192  -9.375  0.00  0.00    -0.245 OA
BRANCH  37  39
ATOM     39  O   LIG d   1       3.299  -5.401  -7.656  0.00  0.00    -0.461 OA
BRANCH  39  40
ATOM     40  C   LIG d   1       4.311  -5.993  -6.799  0.00  0.00     0.090 C 
ATOM     41  H   LIG d   1       3.922  -6.912  -6.360  0.00  0.00     0.070 H 
ATOM     42  H   LIG d   1       5.199  -6.219  -7.389  0.00  0.00     0.070 H 
BRANCH  40  43
ATOM     43  C   LIG d   1       4.675  -5.010  -5.685  0.00  0.00    -0.031 C 
ATOM     44  H   LIG d   1       4.331  -5.401  -4.728  0.00  0.00     0.026 H 
ATOM     45  H   LIG d   1       5.756  -4.878  -5.657  0.00  0.00     0.026 H 
ATOM     46  H   LIG d   1       4.196  -4.049  -5.878  0.00  0.00     0.026 H 
ENDBRANCH  40  43
ENDBRANCH  39  40
ENDBRANCH  37  39
ENDBRANCH   1  37
BRANCH   2  47
ATOM     47  C   LIG d   1       1.693  -4.604 -11.116  0.00  0.00    -0.005 C 
ATOM     48  H   LIG d   1       0.617  -4.535 -11.274  0.00  0.00     0.031 H 
ATOM     49  H   LIG d   1       2.205  -4.560 -12.077  0.00  0.00     0.031 H 
ATOM     50  H   LIG d   1       1.928  -5.546 -10.622  0.00  0.00     0.031 H 
ENDBRANCH   2  47
TORSDOF 12
ENDMDL
MODEL 4
REMARK VINA RESULT:      -6.0      2.490      7.433
REMARK  12 active torsions:
REMARK  status: ('A' for Active; 'I' for Inactive)
REMARK    1  A    between atoms: C_1  and  C_2 
REMARK    2  A    between atoms: C_2  and  O_3 
REMARK    3  A    between atoms: O_3  and  C_4 
REMARK    4  A    between atoms: C_4  and  C_6 
REMARK    5  A    between atoms: C_7  and  C_29 
REMARK    6  A    between atoms: C_12  and  O_15 
REMARK    7  A    between atoms: O_15  and  C_16 
REMARK    8  A    between atoms: C_16  and  C_18 
REMARK    9  A    between atoms: C_16  and  C_24 
REMARK   10  A    between atoms: C_24  and  O_26 
REMARK   11  A    between atoms: O_26  and  C_27 
REMARK   12  A    between atoms: C_27  and  C_28 
ROOT
ATOM      1  C   LIG d   1       3.893  -1.224  -4.658  0.00  0.00     0.107 A 
ATOM      2  C   LIG d   1       4.223  -2.224  -3.795  0.00  0.00     0.117 A 
ATOM      3  O   LIG d   1       4.889  -3.185  -4.445  0.00  0.00    -0.459 OA
ATOM      4  C   LIG d   1       5.036  -2.882  -5.753  0.00  0.00     0.136 A 
ATOM      5  C   LIG d   1       4.425  -1.639  -5.973  0.00  0.00     0.038 A 
ATOM      6  C   LIG d   1       4.423  -1.072  -7.243  0.00  0.00    -0.008 A 
ATOM      7  C   LIG d   1       5.028  -1.741  -8.290  0.00  0.00     0.123 A 
ATOM      8  C   LIG d   1       5.630  -2.976  -8.074  0.00  0.00    -0.016 A 
ATOM      9  C   LIG d   1       5.640  -3.541  -6.816  0.00  0.00    -0.015 A 
ATOM     10  H   LIG d   1       3.952  -0.115  -7.409  0.00  0.00     0.066 H 
ATOM     11  H   LIG d   1       6.097  -3.497  -8.897  0.00  0.00     0.066 H 
ATOM     12  H   LIG d   1       6.114  -4.499  -6.659  0.00  0.00     0.066 H 
ENDROOT
BRANCH   7  13
ATOM     13  O   LIG d   1       5.031  -1.194  -9.535  0.00  0.00    -0.473 OA
BRANCH  13  14
ATOM     14  C   LIG d   1       4.010  -0.238  -9.826  0.00  0.00     0.221 C 
ATOM     15  H   LIG d   1       3.412  -0.062  -8.931  0.00  0.00     0.090 H 
BRANCH  14  16
ATOM     16  C   LIG d   1       3.125  -0.767 -10.925  0.00  0.00     0.004 A 
ATOM     17  C   LIG d   1       3.683  -1.210 -12.109  0.00  0.00    -0.054 A 
ATOM     18  C   LIG d   1       2.871  -1.696 -13.117  0.00  0.00    -0.061 A 
ATOM     19  H   LIG d   1       4.754  -1.177 -12.247  0.00  0.00     0.062 H 
ATOM     20  C   LIG d   1       1.500  -1.738 -12.940  0.00  0.00    -0.062 A 
ATOM     21  H   LIG d   1       3.307  -2.042 -14.043  0.00  0.00     0.062 H 
ATOM     22  C   LIG d   1       0.942  -1.296 -11.756  0.00  0.00    -0.061 A 
ATOM     23  H   LIG d   1       0.866  -2.117 -13.728  0.00  0.00     0.062 H 
ATOM     24  C   LIG d   1       1.755  -0.814 -10.747  0.00  0.00    -0.054 A 
ATOM     25  H   LIG d   1      -0.128  -1.328 -11.618  0.00  0.00     0.062 H 
ATOM     26  H   LIG d   1       1.319  -0.472  -9.819  0.00  0.00     0.062 H 
ENDBRANCH  14  16
BRANCH  14  27
ATOM     27  C   LIG d   1       4.644   1.056 -10.269  0.00  0.00     0.353 C 
ATOM     28  O   LIG d   1       3.971   1.907 -10.798  0.00  0.00    -0.246 OA
BRANCH  27  29
ATOM     29  O   LIG d   1       5.956   1.260 -10.075  0.00  0.00    -0.462 OA
BRANCH  29  30
ATOM     30  C   LIG d   1       6.335   2.046  -8.914  0.00  0.00     0.090 C 
ATOM     31  H   LIG d   1       6.853   2.949  -9.240  0.00  0.00     0.069 H 
ATOM     32  H   LIG d   1       5.443   2.321  -8.354  0.00  0.00     0.069 H 
BRANCH  30  33
ATOM     33  C   LIG d   1       7.264   1.220  -8.021  0.00  0.00    -0.031 C 
ATOM     34  H   LIG d   1       8.299   1.388  -8.319  0.00  0.00     0.026 H 
ATOM     35  H   LIG d   1       7.132   1.522  -6.982  0.00  0.00     0.026 H 
ATOM     36  H   LIG d   1       7.023   0.162  -8.125  0.00  0.00     0.026 H 
ENDBRANCH  30  33
ENDBRANCH  29  30
ENDBRANCH  27  29
ENDBRANCH  14  27
ENDBRANCH  13  14
ENDBRANCH   7  13
BRANCH   1  37
ATOM     37  C   LIG d   1       3.160   0.011  -4.348  0.00  0.00     0.343 C 
ATOM     38  O   LIG d   1       1.955   0.056  -4.496  0.00  0.00    -0.245 OA
BRANCH  37  39
ATOM     39  O   LIG d   1       3.825   1.094  -3.899  0.00  0.00    -0.461 OA
BRANCH  39  40
ATOM     40  C   LIG d   1       3.560   1.511  -2.533  0.00  0.00     0.090 C 
ATOM     41  H   LIG d   1       3.531   2.600  -2.486  0.00  0.00     0.070 H 
ATOM     42  H   LIG d   1       2.599   1.108  -2.211  0.00  0.00     0.070 H 
BRANCH  40  43
ATOM     43  C   LIG d   1       4.666   0.990  -1.615  0.00  0.00    -0.031 C 
ATOM     44  H   LIG d   1       4.478   1.322  -0.594  0.00  0.00     0.026 H 
ATOM     45  H   LIG d   1       4.680  -0.100  -1.646  0.00  0.00     0.026 H 
ATOM     46  H   LIG d   1       5.629   1.376  -1.952  0.00  0.00     0.026 H 
ENDBRANCH  40  43
ENDBRANCH  39  40
ENDBRANCH  37  39
ENDBRANCH   1  37
BRANCH   2  47
ATOM     47  C   LIG d   1       3.887  -2.246  -2.327  0.00  0.00    -0.005 C 
ATOM     48  H   LIG d   1       4.178  -3.206  -1.901  0.00  0.00     0.031 H 
ATOM     49  H   LIG d   1       4.424  -1.445  -1.819  0.00  0.00     0.031 H 
ATOM     50  H   LIG d   1       2.814  -2.103  -2.197  0.00  0.00     0.031 H 
ENDBRANCH   2  47
TORSDOF 12
ENDMDL
MODEL 5
REMARK VINA RESULT:      -6.0      5.100      6.857
REMARK  12 active torsions:
REMARK  status: ('A' for Active; 'I' for Inactive)
REMARK    1  A    between atoms: C_1  and  C_2 
REMARK    2  A    between atoms: C_2  and  O_3 
REMARK    3  A    between atoms: O_3  and  C_4 
REMARK    4  A    between atoms: C_4  and  C_6 
REMARK    5  A    between atoms: C_7  and  C_29 
REMARK    6  A    between atoms: C_12  and  O_15 
REMARK    7  A    between atoms: O_15  and  C_16 
REMARK    8  A    between atoms: C_16  and  C_18 
REMARK    9  A    between atoms: C_16  and  C_24 
REMARK   10  A    between atoms: C_24  and  O_26 
REMARK   11  A    between atoms: O_26  and  C_27 
REMARK   12  A    between atoms: C_27  and  C_28 
ROOT
ATOM      1  C   LIG d   1       5.907  -7.877  -5.336  0.00  0.00     0.107 A 
ATOM      2  C   LIG d   1       7.198  -8.307  -5.298  0.00  0.00     0.117 A 
ATOM      3  O   LIG d   1       8.025  -7.256  -5.260  0.00  0.00    -0.459 OA
ATOM      4  C   LIG d   1       7.341  -6.092  -5.271  0.00  0.00     0.136 A 
ATOM      5  C   LIG d   1       5.975  -6.402  -5.320  0.00  0.00     0.038 A 
ATOM      6  C   LIG d   1       5.024  -5.386  -5.341  0.00  0.00    -0.008 A 
ATOM      7  C   LIG d   1       5.435  -4.066  -5.315  0.00  0.00     0.123 A 
ATOM      8  C   LIG d   1       6.791  -3.758  -5.272  0.00  0.00    -0.016 A 
ATOM      9  C   LIG d   1       7.737  -4.761  -5.244  0.00  0.00    -0.015 A 
ATOM     10  H   LIG d   1       3.973  -5.627  -5.379  0.00  0.00     0.066 H 
ATOM     11  H   LIG d   1       7.106  -2.725  -5.256  0.00  0.00     0.066 H 
ATOM     12  H   LIG d   1       8.787  -4.510  -5.208  0.00  0.00     0.066 H 
ENDROOT
BRANCH   7  13
ATOM     13  O   LIG d   1       4.513  -3.068  -5.335  0.00  0.00    -0.473 OA
BRANCH  13  14
ATOM     14  C   LIG d   1       5.000  -1.738  -5.524  0.00  0.00     0.221 C 
ATOM     15  H   LIG d   1       6.080  -1.764  -5.667  0.00  0.00     0.090 H 
BRANCH  14  16
ATOM     16  C   LIG d   1       4.675  -0.906  -4.310  0.00  0.00     0.004 A 
ATOM     17  C   LIG d   1       5.647  -0.107  -3.738  0.00  0.00    -0.054 A 
ATOM     18  C   LIG d   1       5.348   0.655  -2.625  0.00  0.00    -0.061 A 
ATOM     19  H   LIG d   1       6.640  -0.079  -4.161  0.00  0.00     0.062 H 
ATOM     20  C   LIG d   1       4.077   0.619  -2.083  0.00  0.00    -0.062 A 
ATOM     21  H   LIG d   1       6.109   1.279  -2.178  0.00  0.00     0.062 H 
ATOM     22  C   LIG d   1       3.104  -0.179  -2.654  0.00  0.00    -0.061 A 
ATOM     23  H   LIG d   1       3.844   1.215  -1.212  0.00  0.00     0.062 H 
ATOM     24  C   LIG d   1       3.402  -0.938  -3.771  0.00  0.00    -0.054 A 
ATOM     25  H   LIG d   1       2.111  -0.208  -2.231  0.00  0.00     0.062 H 
ATOM     26  H   LIG d   1       2.641  -1.560  -4.221  0.00  0.00     0.062 H 
ENDBRANCH  14  16
BRANCH  14  27
ATOM     27  C   LIG d   1       4.346  -1.131  -6.739  0.00  0.00     0.353 C 
ATOM     28  O   LIG d   1       3.983  -1.839  -7.646  0.00  0.00    -0.246 OA
BRANCH  27  29
ATOM     29  O   LIG d   1       4.168   0.198  -6.810  0.00  0.00    -0.462 OA
BRANCH  29  30
ATOM     30  C   LIG d   1       2.867   0.664  -7.258  0.00  0.00     0.090 C 
ATOM     31  H   LIG d   1       2.266  -0.188  -7.580  0.00  0.00     0.069 H 
ATOM     32  H   LIG d   1       2.362   1.176  -6.440  0.00  0.00     0.069 H 
BRANCH  30  33
ATOM     33  C   LIG d   1       3.048   1.630  -8.431  0.00  0.00    -0.031 C 
ATOM     34  H   LIG d   1       3.489   1.099  -9.275  0.00  0.00     0.026 H 
ATOM     35  H   LIG d   1       2.079   2.034  -8.723  0.00  0.00     0.026 H 
ATOM     36  H   LIG d   1       3.707   2.446  -8.131  0.00  0.00     0.026 H 
ENDBRANCH  30  33
ENDBRANCH  29  30
ENDBRANCH  27  29
ENDBRANCH  14  27
ENDBRANCH  13  14
ENDBRANCH   7  13
BRANCH   1  37
ATOM     37  C   LIG d   1       4.696  -8.708  -5.386  0.00  0.00     0.343 C 
ATOM     38  O   LIG d   1       4.331  -9.190  -6.440  0.00  0.00    -0.245 OA
BRANCH  37  39
ATOM     39  O   LIG d   1       3.989  -8.936  -4.260  0.00  0.00    -0.461 OA
BRANCH  39  40
ATOM     40  C   LIG d   1       3.946 -10.304  -3.775  0.00  0.00     0.090 C 
ATOM     41  H   LIG d   1       2.963 -10.507  -3.348  0.00  0.00     0.070 H 
ATOM     42  H   LIG d   1       4.130 -10.989  -4.603  0.00  0.00     0.070 H 
BRANCH  40  43
ATOM     43  C   LIG d   1       5.018 -10.500  -2.702  0.00  0.00    -0.031 C 
ATOM     44  H   LIG d   1       4.746  -9.938  -1.809  0.00  0.00     0.026 H 
ATOM     45  H   LIG d   1       5.096 -11.559  -2.456  0.00  0.00     0.026 H 
ATOM     46  H   LIG d   1       5.977 -10.143  -3.078  0.00  0.00     0.026 H 
ENDBRANCH  40  43
ENDBRANCH  39  40
ENDBRANCH  37  39
ENDBRANCH   1  37
BRANCH   2  47
ATOM     47  C   LIG d   1       7.631  -9.750  -5.297  0.00  0.00    -0.005 C 
ATOM     48  H   LIG d   1       8.072  -9.997  -6.263  0.00  0.00     0.031 H 
ATOM     49  H   LIG d   1       8.367  -9.908  -4.510  0.00  0.00     0.031 H 
ATOM     50  H   LIG d   1       6.766 -10.389  -5.120  0.00  0.00     0.031 H 
ENDBRANCH   2  47
TORSDOF 12
ENDMDL
MODEL 6
REMARK VINA RESULT:      -5.8      4.778      5.851
REMARK  12 active torsions:
REMARK  status: ('A' for Active; 'I' for Inactive)
REMARK    1  A    between atoms: C_1  and  C_2 
REMARK    2  A    between atoms: C_2  and  O_3 
REMARK    3  A    between atoms: O_3  and  C_4 
REMARK    4  A    between atoms: C_4  and  C_6 
REMARK    5  A    between atoms: C_7  and  C_29 
REMARK    6  A    between atoms: C_12  and  O_15 
REMARK    7  A    between atoms: O_15  and  C_16 
REMARK    8  A    between atoms: C_16  and  C_18 
REMARK    9  A    between atoms: C_16  and  C_24 
REMARK   10  A    between atoms: C_24  and  O_26 
REMARK   11  A    between atoms: O_26  and  C_27 
REMARK   12  A    between atoms: C_27  and  C_28 
ROOT
ATOM      1  C   LIG d   1       4.671  -7.770  -6.457  0.00  0.00     0.107 A 
ATOM      2  C   LIG d   1       4.428  -8.462  -7.604  0.00  0.00     0.117 A 
ATOM      3  O   LIG d   1       4.126  -7.612  -8.592  0.00  0.00    -0.459 OA
ATOM      4  C   LIG d   1       4.152  -6.332  -8.163  0.00  0.00     0.136 A 
ATOM      5  C   LIG d   1       4.493  -6.345  -6.803  0.00  0.00     0.038 A 
ATOM      6  C   LIG d   1       4.596  -5.154  -6.093  0.00  0.00    -0.008 A 
ATOM      7  C   LIG d   1       4.359  -3.953  -6.736  0.00  0.00     0.123 A 
ATOM      8  C   LIG d   1       4.015  -3.940  -8.084  0.00  0.00    -0.016 A 
ATOM      9  C   LIG d   1       3.917  -5.117  -8.794  0.00  0.00    -0.015 A 
ATOM     10  H   LIG d   1       4.860  -5.167  -5.046  0.00  0.00     0.066 H 
ATOM     11  H   LIG d   1       3.826  -2.998  -8.579  0.00  0.00     0.066 H 
ATOM     12  H   LIG d   1       3.653  -5.094  -9.841  0.00  0.00     0.066 H 
ENDROOT
BRANCH   7  13
ATOM     13  O   LIG d   1       4.457  -2.784  -6.049  0.00  0.00    -0.473 OA
BRANCH  13  14
ATOM     14  C   LIG d   1       5.069  -2.839  -4.759  0.00  0.00     0.221 C 
ATOM     15  H   LIG d   1       4.851  -3.801  -4.295  0.00  0.00     0.090 H 
BRANCH  14  16
ATOM     16  C   LIG d   1       4.522  -1.730  -3.896  0.00  0.00     0.004 A 
ATOM     17  C   LIG d   1       3.688  -0.774  -4.445  0.00  0.00    -0.054 A 
ATOM     18  C   LIG d   1       3.186   0.242  -3.654  0.00  0.00    -0.061 A 
ATOM     19  H   LIG d   1       3.428  -0.821  -5.492  0.00  0.00     0.062 H 
ATOM     20  C   LIG d   1       3.518   0.302  -2.313  0.00  0.00    -0.062 A 
ATOM     21  H   LIG d   1       2.534   0.989  -4.083  0.00  0.00     0.062 H 
ATOM     22  C   LIG d   1       4.351  -0.654  -1.764  0.00  0.00    -0.061 A 
ATOM     23  H   LIG d   1       3.126   1.096  -1.695  0.00  0.00     0.062 H 
ATOM     24  C   LIG d   1       4.849  -1.673  -2.555  0.00  0.00    -0.054 A 
ATOM     25  H   LIG d   1       4.611  -0.607  -0.717  0.00  0.00     0.062 H 
ATOM     26  H   LIG d   1       5.498  -2.423  -2.125  0.00  0.00     0.062 H 
ENDBRANCH  14  16
BRANCH  14  27
ATOM     27  C   LIG d   1       6.560  -2.675  -4.902  0.00  0.00     0.353 C 
ATOM     28  O   LIG d   1       7.304  -3.521  -4.469  0.00  0.00    -0.246 OA
BRANCH  27  29
ATOM     29  O   LIG d   1       7.059  -1.589  -5.512  0.00  0.00    -0.462 OA
BRANCH  29  30
ATOM     30  C   LIG d   1       8.042  -0.813  -4.774  0.00  0.00     0.090 C 
ATOM     31  H   LIG d   1       8.398  -1.394  -3.923  0.00  0.00     0.069 H 
ATOM     32  H   LIG d   1       8.880  -0.574  -5.427  0.00  0.00     0.069 H 
BRANCH  30  33
ATOM     33  C   LIG d   1       7.397   0.482  -4.275  0.00  0.00    -0.031 C 
ATOM     34  H   LIG d   1       6.862   0.961  -5.095  0.00  0.00     0.026 H 
ATOM     35  H   LIG d   1       6.699   0.253  -3.470  0.00  0.00     0.026 H 
ATOM     36  H   LIG d   1       8.172   1.154  -3.905  0.00  0.00     0.026 H 
ENDBRANCH  30  33
ENDBRANCH  29  30
ENDBRANCH  27  29
ENDBRANCH  14  27
ENDBRANCH  13  14
ENDBRANCH   7  13
BRANCH   1  37
ATOM     37  C   LIG d   1       5.035  -8.325  -5.146  0.00  0.00     0.343 C 
ATOM     38  O   LIG d   1       6.172  -8.214  -4.732  0.00  0.00    -0.245 OA
BRANCH  37  39
ATOM     39  O   LIG d   1       4.105  -8.956  -4.400  0.00  0.00    -0.461 OA
BRANCH  39  40
ATOM     40  C   LIG d   1       4.387 -10.328  -4.017  0.00  0.00     0.090 C 
ATOM     41  H   LIG d   1       4.752 -10.879  -4.884  0.00  0.00     0.070 H 
ATOM     42  H   LIG d   1       5.147 -10.338  -3.235  0.00  0.00     0.070 H 
BRANCH  40  43
ATOM     43  C   LIG d   1       3.109 -10.986  -3.495  0.00  0.00    -0.031 C 
ATOM     44  H   LIG d   1       2.636 -11.549  -4.300  0.00  0.00     0.026 H 
ATOM     45  H   LIG d   1       3.356 -11.660  -2.676  0.00  0.00     0.026 H 
ATOM     46  H   LIG d   1       2.424 -10.216  -3.139  0.00  0.00     0.026 H 
ENDBRANCH  40  43
ENDBRANCH  39  40
ENDBRANCH  37  39
ENDBRANCH   1  37
BRANCH   2  47
ATOM     47  C   LIG d   1       4.489  -9.961  -7.740  0.00  0.00    -0.005 C 
ATOM     48  H   LIG d   1       5.192 -10.226  -8.530  0.00  0.00     0.031 H 
ATOM     49  H   LIG d   1       4.819 -10.399  -6.798  0.00  0.00     0.031 H 
ATOM     50  H   LIG d   1       3.500 -10.344  -7.992  0.00  0.00     0.031 H 
ENDBRANCH   2  47
TORSDOF 12
ENDMDL
MODEL 7
REMARK VINA RESULT:      -5.7      5.060      9.483
REMARK  12 active torsions:
REMARK  status: ('A' for Active; 'I' for Inactive)
REMARK    1  A    between atoms: C_1  and  C_2 
REMARK    2  A    between atoms: C_2  and  O_3 
REMARK    3  A    between atoms: O_3  and  C_4 
REMARK    4  A    between atoms: C_4  and  C_6 
REMARK    5  A    between atoms: C_7  and  C_29 
REMARK    6  A    between atoms: C_12  and  O_15 
REMARK    7  A    between atoms: O_15  and  C_16 
REMARK    8  A    between atoms: C_16  and  C_18 
REMARK    9  A    between atoms: C_16  and  C_24 
REMARK   10  A    between atoms: C_24  and  O_26 
REMARK   11  A    between atoms: O_26  and  C_27 
REMARK   12  A    between atoms: C_27  and  C_28 
ROOT
ATOM      1  C   LIG d   1       9.902   4.899  -3.978  0.00  0.00     0.107 A 
ATOM      2  C   LIG d   1      10.252   5.559  -5.116  0.00  0.00     0.117 A 
ATOM      3  O   LIG d   1       9.985   4.797  -6.182  0.00  0.00    -0.459 OA
ATOM      4  C   LIG d   1       9.453   3.610  -5.819  0.00  0.00     0.136 A 
ATOM      5  C   LIG d   1       9.366   3.595  -4.419  0.00  0.00     0.038 A 
ATOM      6  C   LIG d   1       8.849   2.485  -3.759  0.00  0.00    -0.008 A 
ATOM      7  C   LIG d   1       8.421   1.393  -4.493  0.00  0.00     0.123 A 
ATOM      8  C   LIG d   1       8.513   1.406  -5.880  0.00  0.00    -0.016 A 
ATOM      9  C   LIG d   1       9.018   2.506  -6.540  0.00  0.00    -0.015 A 
ATOM     10  H   LIG d   1       8.783   2.476  -2.682  0.00  0.00     0.066 H 
ATOM     11  H   LIG d   1       8.180   0.548  -6.447  0.00  0.00     0.066 H 
ATOM     12  H   LIG d   1       9.081   2.506  -7.618  0.00  0.00     0.066 H 
ENDROOT
BRANCH   7  13
ATOM     13  O   LIG d   1       7.915   0.304  -3.856  0.00  0.00    -0.473 OA
BRANCH  13  14
ATOM     14  C   LIG d   1       6.844  -0.387  -4.502  0.00  0.00     0.221 C 
ATOM     15  H   LIG d   1       6.789  -0.075  -5.545  0.00  0.00     0.090 H 
BRANCH  14  16
ATOM     16  C   LIG d   1       5.545  -0.060  -3.811  0.00  0.00     0.004 A 
ATOM     17  C   LIG d   1       4.343  -0.413  -4.396  0.00  0.00    -0.054 A 
ATOM     18  C   LIG d   1       3.152  -0.113  -3.761  0.00  0.00    -0.061 A 
ATOM     19  H   LIG d   1       4.335  -0.923  -5.347  0.00  0.00     0.062 H 
ATOM     20  C   LIG d   1       3.163   0.540  -2.542  0.00  0.00    -0.062 A 
ATOM     21  H   LIG d   1       2.213  -0.389  -4.218  0.00  0.00     0.062 H 
ATOM     22  C   LIG d   1       4.364   0.892  -1.958  0.00  0.00    -0.061 A 
ATOM     23  H   LIG d   1       2.232   0.774  -2.047  0.00  0.00     0.062 H 
ATOM     24  C   LIG d   1       5.556   0.588  -2.590  0.00  0.00    -0.054 A 
ATOM     25  H   LIG d   1       4.373   1.403  -1.006  0.00  0.00     0.062 H 
ATOM     26  H   LIG d   1       6.496   0.861  -2.132  0.00  0.00     0.062 H 
ENDBRANCH  14  16
BRANCH  14  27
ATOM     27  C   LIG d   1       7.090  -1.872  -4.434  0.00  0.00     0.353 C 
ATOM     28  O   LIG d   1       7.498  -2.370  -3.413  0.00  0.00    -0.246 OA
BRANCH  27  29
ATOM     29  O   LIG d   1       6.854  -2.640  -5.509  0.00  0.00    -0.462 OA
BRANCH  29  30
ATOM     30  C   LIG d   1       6.429  -4.007  -5.260  0.00  0.00     0.090 C 
ATOM     31  H   LIG d   1       6.726  -4.638  -6.098  0.00  0.00     0.069 H 
ATOM     32  H   LIG d   1       6.896  -4.372  -4.346  0.00  0.00     0.069 H 
BRANCH  30  33
ATOM     33  C   LIG d   1       4.907  -4.047  -5.106  0.00  0.00    -0.031 C 
ATOM     34  H   LIG d   1       4.554  -3.084  -4.736  0.00  0.00     0.026 H 
ATOM     35  H   LIG d   1       4.449  -4.253  -6.074  0.00  0.00     0.026 H 
ATOM     36  H   LIG d   1       4.633  -4.831  -4.400  0.00  0.00     0.026 H 
ENDBRANCH  30  33
ENDBRANCH  29  30
ENDBRANCH  27  29
ENDBRANCH  14  27
ENDBRANCH  13  14
ENDBRANCH   7  13
BRANCH   1  37
ATOM     37  C   LIG d   1      10.031   5.382  -2.596  0.00  0.00     0.343 C 
ATOM     38  O   LIG d   1      10.741   4.788  -1.808  0.00  0.00    -0.245 OA
BRANCH  37  39
ATOM     39  O   LIG d   1       9.363   6.485  -2.203  0.00  0.00    -0.461 OA
BRANCH  39  40
ATOM     40  C   LIG d   1       9.968   7.283  -1.150  0.00  0.00     0.090 C 
ATOM     41  H   LIG d   1       9.980   6.710  -0.223  0.00  0.00     0.070 H 
ATOM     42  H   LIG d   1      10.990   7.539  -1.432  0.00  0.00     0.070 H 
BRANCH  40  43
ATOM     43  C   LIG d   1       9.157   8.563  -0.950  0.00  0.00    -0.031 C 
ATOM     44  H   LIG d   1       9.088   9.102  -1.895  0.00  0.00     0.026 H 
ATOM     45  H   LIG d   1       8.156   8.308  -0.603  0.00  0.00     0.026 H 
ATOM     46  H   LIG d   1       9.649   9.193  -0.207  0.00  0.00     0.026 H 
ENDBRANCH  40  43
ENDBRANCH  39  40
ENDBRANCH  37  39
ENDBRANCH   1  37
BRANCH   2  47
ATOM     47  C   LIG d   1      10.851   6.940  -5.167  0.00  0.00    -0.005 C 
ATOM     48  H   LIG d   1      10.119   7.638  -5.573  0.00  0.00     0.031 H 
ATOM     49  H   LIG d   1      11.130   7.252  -4.161  0.00  0.00     0.031 H 
ATOM     50  H   LIG d   1      11.735   6.930  -5.803  0.00  0.00     0.031 H 
ENDBRANCH   2  47
TORSDOF 12
ENDMDL
MODEL 8
REMARK VINA RESULT:      -5.7      5.554      8.522
REMARK  12 active torsions:
REMARK  status: ('A' for Active; 'I' for Inactive)
REMARK    1  A    between atoms: C_1  and  C_2 
REMARK    2  A    between atoms: C_2  and  O_3 
REMARK    3  A    between atoms: O_3  and  C_4 
REMARK    4  A    between atoms: C_4  and  C_6 
REMARK    5  A    between atoms: C_7  and  C_29 
REMARK    6  A    between atoms: C_12  and  O_15 
REMARK    7  A    between atoms: O_15  and  C_16 
REMARK    8  A    between atoms: C_16  and  C_18 
REMARK    9  A    between atoms: C_16  and  C_24 
REMARK   10  A    between atoms: C_24  and  O_26 
REMARK   11  A    between atoms: O_26  and  C_27 
REMARK   12  A    between atoms: C_27  and  C_28 
ROOT
ATOM      1  C   LIG d   1       6.241   0.423  -3.355  0.00  0.00     0.107 A 
ATOM      2  C   LIG d   1       6.519  -0.893  -3.565  0.00  0.00     0.117 A 
ATOM      3  O   LIG d   1       7.684  -1.015  -4.210  0.00  0.00    -0.459 OA
ATOM      4  C   LIG d   1       8.236   0.192  -4.459  0.00  0.00     0.136 A 
ATOM      5  C   LIG d   1       7.373   1.169  -3.943  0.00  0.00     0.038 A 
ATOM      6  C   LIG d   1       7.690   2.518  -4.058  0.00  0.00    -0.008 A 
ATOM      7  C   LIG d   1       8.864   2.893  -4.685  0.00  0.00     0.123 A 
ATOM      8  C   LIG d   1       9.718   1.924  -5.202  0.00  0.00    -0.016 A 
ATOM      9  C   LIG d   1       9.412   0.585  -5.086  0.00  0.00    -0.015 A 
ATOM     10  H   LIG d   1       7.024   3.268  -3.659  0.00  0.00     0.066 H 
ATOM     11  H   LIG d   1      10.632   2.223  -5.695  0.00  0.00     0.066 H 
ATOM     12  H   LIG d   1      10.084  -0.159  -5.488  0.00  0.00     0.066 H 
ENDROOT
BRANCH   7  13
ATOM     13  O   LIG d   1       9.182   4.209  -4.801  0.00  0.00    -0.473 OA
BRANCH  13  14
ATOM     14  C   LIG d   1      10.512   4.590  -4.444  0.00  0.00     0.221 C 
ATOM     15  H   LIG d   1      11.153   3.708  -4.437  0.00  0.00     0.090 H 
BRANCH  14  16
ATOM     16  C   LIG d   1      10.506   5.217  -3.074  0.00  0.00     0.004 A 
ATOM     17  C   LIG d   1      11.330   4.719  -2.082  0.00  0.00    -0.054 A 
ATOM     18  C   LIG d   1      11.324   5.294  -0.825  0.00  0.00    -0.061 A 
ATOM     19  H   LIG d   1      11.978   3.881  -2.289  0.00  0.00     0.062 H 
ATOM     20  C   LIG d   1      10.493   6.368  -0.560  0.00  0.00    -0.062 A 
ATOM     21  H   LIG d   1      11.967   4.905  -0.050  0.00  0.00     0.062 H 
ATOM     22  C   LIG d   1       9.670   6.866  -1.552  0.00  0.00    -0.061 A 
ATOM     23  H   LIG d   1      10.488   6.817   0.423  0.00  0.00     0.062 H 
ATOM     24  C   LIG d   1       9.680   6.293  -2.810  0.00  0.00    -0.054 A 
ATOM     25  H   LIG d   1       9.021   7.704  -1.345  0.00  0.00     0.062 H 
ATOM     26  H   LIG d   1       9.038   6.685  -3.587  0.00  0.00     0.062 H 
ENDBRANCH  14  16
BRANCH  14  27
ATOM     27  C   LIG d   1      11.037   5.583  -5.449  0.00  0.00     0.353 C 
ATOM     28  O   LIG d   1      12.145   6.045  -5.319  0.00  0.00    -0.246 OA
BRANCH  27  29
ATOM     29  O   LIG d   1      10.272   5.954  -6.488  0.00  0.00    -0.462 OA
BRANCH  29  30
ATOM     30  C   LIG d   1      10.275   7.364  -6.837  0.00  0.00     0.090 C 
ATOM     31  H   LIG d   1      11.262   7.784  -6.645  0.00  0.00     0.069 H 
ATOM     32  H   LIG d   1      10.030   7.478  -7.892  0.00  0.00     0.069 H 
BRANCH  30  33
ATOM     33  C   LIG d   1       9.234   8.100  -5.989  0.00  0.00    -0.031 C 
ATOM     34  H   LIG d   1       8.240   7.918  -6.397  0.00  0.00     0.026 H 
ATOM     35  H   LIG d   1       9.278   7.735  -4.963  0.00  0.00     0.026 H 
ATOM     36  H   LIG d   1       9.444   9.170  -6.004  0.00  0.00     0.026 H 
ENDBRANCH  30  33
ENDBRANCH  29  30
ENDBRANCH  27  29
ENDBRANCH  14  27
ENDBRANCH  13  14
ENDBRANCH   7  13
BRANCH   1  37
ATOM     37  C   LIG d   1       5.062   0.986  -2.684  0.00  0.00     0.343 C 
ATOM     38  O   LIG d   1       5.019   1.037  -1.471  0.00  0.00    -0.245 OA
BRANCH  37  39
ATOM     39  O   LIG d   1       4.028   1.447  -3.415  0.00  0.00    -0.461 OA
BRANCH  39  40
ATOM     40  C   LIG d   1       3.258   0.467  -4.162  0.00  0.00     0.090 C 
ATOM     41  H   LIG d   1       2.547   0.981  -4.809  0.00  0.00     0.070 H 
ATOM     42  H   LIG d   1       3.932  -0.137  -4.770  0.00  0.00     0.070 H 
BRANCH  40  43
ATOM     43  C   LIG d   1       2.500  -0.436  -3.188  0.00  0.00    -0.031 C 
ATOM     44  H   LIG d   1       3.206  -1.088  -2.673  0.00  0.00     0.026 H 
ATOM     45  H   LIG d   1       1.973   0.178  -2.458  0.00  0.00     0.026 H 
ATOM     46  H   LIG d   1       1.781  -1.043  -3.740  0.00  0.00     0.026 H 
ENDBRANCH  40  43
ENDBRANCH  39  40
ENDBRANCH  37  39
ENDBRANCH   1  37
BRANCH   2  47
ATOM     47  C   LIG d   1       5.643  -2.042  -3.136  0.00  0.00    -0.005 C 
ATOM     48  H   LIG d   1       6.268  -2.885  -2.843  0.00  0.00     0.031 H 
ATOM     49  H   LIG d   1       5.029  -1.734  -2.289  0.00  0.00     0.031 H 
ATOM     50  H   LIG d   1       4.999  -2.337  -3.963  0.00  0.00     0.031 H 
ENDBRANCH   2  47
TORSDOF 12
ENDMDL
MODEL 9
REMARK VINA RESULT:      -5.6      2.920      4.624
REMARK  12 active torsions:
REMARK  status: ('A' for Active; 'I' for Inactive)
REMARK    1  A    between atoms: C_1  and  C_2 
REMARK    2  A    between atoms: C_2  and  O_3 
REMARK    3  A    between atoms: O_3  and  C_4 
REMARK    4  A    between atoms: C_4  and  C_6 
REMARK    5  A    between atoms: C_7  and  C_29 
REMARK    6  A    between atoms: C_12  and  O_15 
REMARK    7  A    between atoms: O_15  and  C_16 
REMARK    8  A    between atoms: C_16  and  C_18 
REMARK    9  A    between atoms: C_16  and  C_24 
REMARK   10  A    between atoms: C_24  and  O_26 
REMARK   11  A    between atoms: O_26  and  C_27 
REMARK   12  A    between atoms: C_27  and  C_28 
ROOT
ATOM      1  C   LIG d   1       4.490   0.536  -8.526  0.00  0.00     0.107 A 
ATOM      2  C   LIG d   1       4.764   1.453  -9.493  0.00  0.00     0.117 A 
ATOM      3  O   LIG d   1       6.049   1.818  -9.421  0.00  0.00    -0.459 OA
ATOM      4  C   LIG d   1       6.687   1.176  -8.420  0.00  0.00     0.136 A 
ATOM      5  C   LIG d   1       5.757   0.334  -7.794  0.00  0.00     0.038 A 
ATOM      6  C   LIG d   1       6.140  -0.458  -6.717  0.00  0.00    -0.008 A 
ATOM      7  C   LIG d   1       7.446  -0.410  -6.264  0.00  0.00     0.123 A 
ATOM      8  C   LIG d   1       8.367   0.429  -6.881  0.00  0.00    -0.016 A 
ATOM      9  C   LIG d   1       7.995   1.212  -7.953  0.00  0.00    -0.015 A 
ATOM     10  H   LIG d   1       5.422  -1.106  -6.237  0.00  0.00     0.066 H 
ATOM     11  H   LIG d   1       9.385   0.465  -6.519  0.00  0.00     0.066 H 
ATOM     12  H   LIG d   1       8.720   1.857  -8.426  0.00  0.00     0.066 H 
ENDROOT
BRANCH   7  13
ATOM     13  O   LIG d   1       7.828  -1.181  -5.211  0.00  0.00    -0.473 OA
BRANCH  13  14
ATOM     14  C   LIG d   1       6.969  -2.266  -4.855  0.00  0.00     0.221 C 
ATOM     15  H   LIG d   1       6.441  -2.618  -5.742  0.00  0.00     0.090 H 
BRANCH  14  16
ATOM     16  C   LIG d   1       5.969  -1.799  -3.829  0.00  0.00     0.004 A 
ATOM     17  C   LIG d   1       6.159  -0.595  -3.176  0.00  0.00    -0.054 A 
ATOM     18  C   LIG d   1       5.241  -0.167  -2.236  0.00  0.00    -0.061 A 
ATOM     19  H   LIG d   1       7.024   0.010  -3.401  0.00  0.00     0.062 H 
ATOM     20  C   LIG d   1       4.132  -0.942  -1.948  0.00  0.00    -0.062 A 
ATOM     21  H   LIG d   1       5.390   0.773  -1.725  0.00  0.00     0.062 H 
ATOM     22  C   LIG d   1       3.942  -2.144  -2.601  0.00  0.00    -0.061 A 
ATOM     23  H   LIG d   1       3.416  -0.607  -1.212  0.00  0.00     0.062 H 
ATOM     24  C   LIG d   1       4.858  -2.571  -3.545  0.00  0.00    -0.054 A 
ATOM     25  H   LIG d   1       3.077  -2.751  -2.376  0.00  0.00     0.062 H 
ATOM     26  H   LIG d   1       4.707  -3.510  -4.059  0.00  0.00     0.062 H 
ENDBRANCH  14  16
BRANCH  14  27
ATOM     27  C   LIG d   1       7.791  -3.391  -4.280  0.00  0.00     0.353 C 
ATOM     28  O   LIG d   1       8.602  -3.165  -3.415  0.00  0.00    -0.246 OA
BRANCH  27  29
ATOM     29  O   LIG d   1       7.620  -4.644  -4.730  0.00  0.00    -0.462 OA
BRANCH  29  30
ATOM     30  C   LIG d   1       6.882  -4.802  -5.971  0.00  0.00     0.090 C 
ATOM     31  H   LIG d   1       6.586  -3.822  -6.346  0.00  0.00     0.069 H 
ATOM     32  H   LIG d   1       7.512  -5.298  -6.708  0.00  0.00     0.069 H 
BRANCH  30  33
ATOM     33  C   LIG d   1       5.632  -5.648  -5.716  0.00  0.00    -0.031 C 
ATOM     34  H   LIG d   1       5.895  -6.705  -5.754  0.00  0.00     0.026 H 
ATOM     35  H   LIG d   1       5.226  -5.410  -4.733  0.00  0.00     0.026 H 
ATOM     36  H   LIG d   1       4.884  -5.432  -6.480  0.00  0.00     0.026 H 
ENDBRANCH  30  33
ENDBRANCH  29  30
ENDBRANCH  27  29
ENDBRANCH  14  27
ENDBRANCH  13  14
ENDBRANCH   7  13
BRANCH   1  37
ATOM     37  C   LIG d   1       3.200  -0.117  -8.261  0.00  0.00     0.343 C 
ATOM     38  O   LIG d   1       2.805  -1.002  -8.995  0.00  0.00    -0.245 OA
BRANCH  37  39
ATOM     39  O   LIG d   1       2.456   0.264  -7.204  0.00  0.00    -0.461 OA
BRANCH  39  40
ATOM     40  C   LIG d   1       2.852  -0.244  -5.901  0.00  0.00     0.090 C 
ATOM     41  H   LIG d   1       2.334  -1.183  -5.706  0.00  0.00     0.070 H 
ATOM     42  H   LIG d   1       3.929  -0.414  -5.890  0.00  0.00     0.070 H 
BRANCH  40  43
ATOM     43  C   LIG d   1       2.485   0.777  -4.823  0.00  0.00    -0.031 C 
ATOM     44  H   LIG d   1       3.395   1.210  -4.408  0.00  0.00     0.026 H 
ATOM     45  H   LIG d   1       1.874   1.565  -5.262  0.00  0.00     0.026 H 
ATOM     46  H   LIG d   1       1.924   0.281  -4.030  0.00  0.00     0.026 H 
ENDBRANCH  40  43
ENDBRANCH  39  40
ENDBRANCH  37  39
ENDBRANCH   1  37
BRANCH   2  47
ATOM     47  C   LIG d   1       3.770   1.977 -10.496  0.00  0.00    -0.005 C 
ATOM     48  H   LIG d   1       3.638   3.049 -10.351  0.00  0.00     0.031 H 
ATOM     49  H   LIG d   1       4.138   1.791 -11.505  0.00  0.00     0.031 H 
ATOM     50  H   LIG d   1       2.814   1.472 -10.359  0.00  0.00     0.031 H 
ENDBRANCH   2  47
TORSDOF 12
ENDMDL
MODEL 10
REMARK VINA RESULT:      -5.6      4.527     10.109
REMARK  12 active torsions:
REMARK  status: ('A' for Active; 'I' for Inactive)
REMARK    1  A    between atoms: C_1  and  C_2 
REMARK    2  A    between atoms: C_2  and  O_3 
REMARK    3  A    between atoms: O_3  and  C_4 
REMARK    4  A    between atoms: C_4  and  C_6 
REMARK    5  A    between atoms: C_7  and  C_29 
REMARK    6  A    between atoms: C_12  and  O_15 
REMARK    7  A    between atoms: O_15  and  C_16 
REMARK    8  A    between atoms: C_16  and  C_18 
REMARK    9  A    between atoms: C_16  and  C_24 
REMARK   10  A    between atoms: C_24  and  O_26 
REMARK   11  A    between atoms: O_26  and  C_27 
REMARK   12  A    between atoms: C_27  and  C_28 
ROOT
ATOM      1  C   LIG d   1       9.965   5.891  -3.207  0.00  0.00     0.107 A 
ATOM      2  C   LIG d   1      10.349   6.729  -4.209  0.00  0.00     0.117 A 
ATOM      3  O   LIG d   1      10.267   6.097  -5.386  0.00  0.00    -0.459 OA
ATOM      4  C   LIG d   1       9.833   4.828  -5.233  0.00  0.00     0.136 A 
ATOM      5  C   LIG d   1       9.615   4.615  -3.864  0.00  0.00     0.038 A 
ATOM      6  C   LIG d   1       9.160   3.382  -3.408  0.00  0.00    -0.008 A 
ATOM      7  C   LIG d   1       8.922   2.365  -4.314  0.00  0.00     0.123 A 
ATOM      8  C   LIG d   1       9.143   2.574  -5.671  0.00  0.00    -0.016 A 
ATOM      9  C   LIG d   1       9.589   3.795  -6.129  0.00  0.00    -0.015 A 
ATOM     10  H   LIG d   1       8.993   3.221  -2.354  0.00  0.00     0.066 H 
ATOM     11  H   LIG d   1       8.960   1.773  -6.373  0.00  0.00     0.066 H 
ATOM     12  H   LIG d   1       9.753   3.947  -7.186  0.00  0.00     0.066 H 
ENDROOT
BRANCH   7  13
ATOM     13  O   LIG d   1       8.477   1.157  -3.877  0.00  0.00    -0.473 OA
BRANCH  13  14
ATOM     14  C   LIG d   1       7.361   0.589  -4.564  0.00  0.00     0.221 C 
ATOM     15  H   LIG d   1       6.962   1.316  -5.272  0.00  0.00     0.090 H 
BRANCH  14  16
ATOM     16  C   LIG d   1       6.292   0.219  -3.569  0.00  0.00     0.004 A 
ATOM     17  C   LIG d   1       5.971  -1.109  -3.359  0.00  0.00    -0.054 A 
ATOM     18  C   LIG d   1       4.991  -1.448  -2.446  0.00  0.00    -0.061 A 
ATOM     19  H   LIG d   1       6.486  -1.882  -3.910  0.00  0.00     0.062 H 
ATOM     20  C   LIG d   1       4.331  -0.458  -1.740  0.00  0.00    -0.062 A 
ATOM     21  H   LIG d   1       4.739  -2.485  -2.282  0.00  0.00     0.062 H 
ATOM     22  C   LIG d   1       4.652   0.870  -1.949  0.00  0.00    -0.061 A 
ATOM     23  H   LIG d   1       3.564  -0.723  -1.027  0.00  0.00     0.062 H 
ATOM     24  C   LIG d   1       5.636   1.208  -2.860  0.00  0.00    -0.054 A 
ATOM     25  H   LIG d   1       4.137   1.644  -1.399  0.00  0.00     0.062 H 
ATOM     26  H   LIG d   1       5.890   2.246  -3.020  0.00  0.00     0.062 H 
ENDBRANCH  14  16
BRANCH  14  27
ATOM     27  C   LIG d   1       7.803  -0.645  -5.308  0.00  0.00     0.353 C 
ATOM     28  O   LIG d   1       8.679  -1.341  -4.855  0.00  0.00    -0.246 OA
BRANCH  27  29
ATOM     29  O   LIG d   1       7.223  -0.970  -6.474  0.00  0.00    -0.462 OA
BRANCH  29  30
ATOM     30  C   LIG d   1       6.309   0.004  -7.047  0.00  0.00     0.090 C 
ATOM     31  H   LIG d   1       6.358   0.930  -6.473  0.00  0.00     0.069 H 
ATOM     32  H   LIG d   1       6.591   0.201  -8.080  0.00  0.00     0.069 H 
BRANCH  30  33
ATOM     33  C   LIG d   1       4.883  -0.549  -7.004  0.00  0.00    -0.031 C 
ATOM     34  H   LIG d   1       4.828  -1.459  -7.601  0.00  0.00     0.026 H 
ATOM     35  H   LIG d   1       4.612  -0.774  -5.973  0.00  0.00     0.026 H 
ATOM     36  H   LIG d   1       4.193   0.193  -7.407  0.00  0.00     0.026 H 
ENDBRANCH  30  33
ENDBRANCH  29  30
ENDBRANCH  27  29
ENDBRANCH  14  27
ENDBRANCH  13  14
ENDBRANCH   7  13
BRANCH   1  37
ATOM     37  C   LIG d   1       9.910   6.193  -1.770  0.00  0.00     0.343 C 
ATOM     38  O   LIG d   1       9.105   6.999  -1.348  0.00  0.00    -0.245 OA
BRANCH  37  39
ATOM     39  O   LIG d   1      10.752   5.573  -0.920  0.00  0.00    -0.461 OA
BRANCH  39  40
ATOM     40  C   LIG d   1      11.873   6.349  -0.418  0.00  0.00     0.090 C 
ATOM     41  H   LIG d   1      11.817   7.364  -0.814  0.00  0.00     0.070 H 
ATOM     42  H   LIG d   1      11.834   6.381   0.671  0.00  0.00     0.070 H 
BRANCH  40  43
ATOM     43  C   LIG d   1      13.183   5.699  -0.863  0.00  0.00    -0.031 C 
ATOM     44  H   LIG d   1      13.110   4.617  -0.750  0.00  0.00     0.026 H 
ATOM     45  H   LIG d   1      13.374   5.943  -1.908  0.00  0.00     0.026 H 
ATOM     46  H   LIG d   1      14.002   6.074  -0.247  0.00  0.00     0.026 H 
ENDBRANCH  40  43
ENDBRANCH  39  40
ENDBRANCH  37  39
ENDBRANCH   1  37
BRANCH   2  47
ATOM     47  C   LIG d   1      10.798   8.154  -4.022  0.00  0.00    -0.005 C 
ATOM     48  H   LIG d   1      10.479   8.511  -3.043  0.00  0.00     0.031 H 
ATOM     49  H   LIG d   1      11.885   8.205  -4.090  0.00  0.00     0.031 H 
ATOM     50  H   LIG d   1      10.356   8.780  -4.797  0.00  0.00     0.031 H 
ENDBRANCH   2  47
TORSDOF 12
ENDMDL
