MODEL 1
REMARK VINA RESULT:      -6.2      0.000      0.000
REMARK  9 active torsions:
REMARK  status: ('A' for Active; 'I' for Inactive)
REMARK    1  A    between atoms: C_1  and  C_2 
REMARK    2  A    between atoms: C_5  and  O_19 
REMARK    3  A    between atoms: C_7  and  C_18 
REMARK    4  A    between atoms: C_9  and  O_17 
REMARK    5  A    between atoms: C_11  and  C_15 
REMARK    6  A    between atoms: C_11  and  C_16 
REMARK    7  A    between atoms: O_19  and  C_20 
REMARK    8  A    between atoms: C_20  and  C_22 
REMARK    9  A    between atoms: C_25  and  O_28 
ROOT
ATOM      1  C   LIG d   1       3.911   0.681  -7.930  0.00  0.00    -0.076 C 
ATOM      2  C   LIG d   1       5.132   0.628  -8.400  0.00  0.00    -0.081 C 
ATOM      3  C   LIG d   1       6.041  -0.509  -8.010  0.00  0.00     0.007 C 
ATOM      4  C   LIG d   1       7.135   0.010  -7.076  0.00  0.00     0.128 C 
ATOM      5  H   LIG d   1       8.100  -0.391  -7.386  0.00  0.00     0.079 H 
ATOM      6  C   LIG d   1       6.839  -0.429  -5.664  0.00  0.00    -0.034 C 
ATOM      7  C   LIG d   1       6.004   0.258  -4.926  0.00  0.00    -0.053 C 
ATOM      8  C   LIG d   1       5.711  -0.178  -3.513  0.00  0.00     0.079 C 
ATOM      9  H   LIG d   1       6.166  -1.152  -3.334  0.00  0.00     0.064 H 
ATOM     10  C   LIG d   1       4.197  -0.278  -3.317  0.00  0.00    -0.005 C 
ATOM     11  C   LIG d   1       3.563  -0.909  -4.558  0.00  0.00    -0.045 C 
ATOM     12  C   LIG d   1       3.263   0.181  -5.589  0.00  0.00    -0.049 C 
ATOM     13  C   LIG d   1       3.414  -0.395  -6.999  0.00  0.00    -0.032 C 
ATOM     14  H   LIG d   1       5.488   1.399  -9.068  0.00  0.00     0.057 H 
ATOM     15  H   LIG d   1       6.498  -0.931  -8.905  0.00  0.00     0.035 H 
ATOM     16  H   LIG d   1       5.462  -1.279  -7.501  0.00  0.00     0.035 H 
ATOM     17  H   LIG d   1       5.531   1.143  -5.326  0.00  0.00     0.060 H 
ATOM     18  H   LIG d   1       2.636  -1.409  -4.277  0.00  0.00     0.027 H 
ATOM     19  H   LIG d   1       4.252  -1.637  -4.988  0.00  0.00     0.027 H 
ATOM     20  H   LIG d   1       3.962   1.007  -5.457  0.00  0.00     0.027 H 
ATOM     21  H   LIG d   1       2.244   0.541  -5.450  0.00  0.00     0.027 H 
ATOM     22  H   LIG d   1       2.448  -0.759  -7.347  0.00  0.00     0.031 H 
ATOM     23  H   LIG d   1       4.129  -1.218  -6.980  0.00  0.00     0.031 H 
ENDROOT
BRANCH   4  24
ATOM     24  O   LIG d   1       7.173   1.461  -7.133  0.00  0.00    -0.453 OA
BRANCH  24  25
ATOM     25  C   LIG d   1       8.386   2.044  -7.067  0.00  0.00     0.340 C 
ATOM     26  O   LIG d   1       8.926   2.440  -8.081  0.00  0.00    -0.245 OA
BRANCH  25  27
ATOM     27  C   LIG d   1       9.059   2.200  -5.764  0.00  0.00     0.059 A 
ATOM     28  C   LIG d   1       8.521   3.052  -4.795  0.00  0.00    -0.044 A 
ATOM     29  C   LIG d   1       9.152   3.196  -3.581  0.00  0.00    -0.019 A 
ATOM     30  H   LIG d   1       7.612   3.599  -5.000  0.00  0.00     0.063 H 
ATOM     31  C   LIG d   1      10.322   2.494  -3.316  0.00  0.00     0.117 A 
ATOM     32  H   LIG d   1       8.737   3.854  -2.831  0.00  0.00     0.065 H 
ATOM     33  C   LIG d   1      10.860   1.645  -4.276  0.00  0.00    -0.019 A 
ATOM     34  C   LIG d   1      10.233   1.492  -5.492  0.00  0.00    -0.044 A 
ATOM     35  H   LIG d   1      11.770   1.102  -4.067  0.00  0.00     0.065 H 
ATOM     36  H   LIG d   1      10.649   0.829  -6.235  0.00  0.00     0.063 H 
BRANCH  31  37
ATOM     37  O   LIG d   1      10.941   2.638  -2.117  0.00  0.00    -0.507 OA
ATOM     38  H   LIG d   1      11.383   1.838  -1.803  0.00  0.00     0.292 HD
ENDBRANCH  31  37
ENDBRANCH  25  27
ENDBRANCH  24  25
ENDBRANCH   4  24
BRANCH   6  39
ATOM     39  C   LIG d   1       7.500  -1.663  -5.106  0.00  0.00    -0.040 C 
ATOM     40  H   LIG d   1       7.801  -1.480  -4.074  0.00  0.00     0.028 H 
ATOM     41  H   LIG d   1       6.799  -2.496  -5.137  0.00  0.00     0.028 H 
ATOM     42  H   LIG d   1       8.379  -1.905  -5.704  0.00  0.00     0.028 H 
ENDBRANCH   6  39
BRANCH   1  43
ATOM     43  C   LIG d   1       3.002   1.819  -8.319  0.00  0.00    -0.044 C 
ATOM     44  H   LIG d   1       3.030   2.586  -7.546  0.00  0.00     0.027 H 
ATOM     45  H   LIG d   1       3.337   2.245  -9.265  0.00  0.00     0.027 H 
ATOM     46  H   LIG d   1       1.983   1.449  -8.428  0.00  0.00     0.027 H 
ENDBRANCH   1  43
BRANCH   8  47
ATOM     47  O   LIG d   1       6.249   0.776  -2.594  0.00  0.00    -0.387 OA
ATOM     48  H   LIG d   1       7.215   0.800  -2.574  0.00  0.00     0.210 HD
ENDBRANCH   8  47
BRANCH  10  49
ATOM     49  C   LIG d   1       3.617   1.122  -3.104  0.00  0.00    -0.057 C 
ATOM     50  H   LIG d   1       3.682   1.386  -2.049  0.00  0.00     0.024 H 
ATOM     51  H   LIG d   1       4.181   1.843  -3.696  0.00  0.00     0.024 H 
ATOM     52  H   LIG d   1       2.573   1.133  -3.418  0.00  0.00     0.024 H 
ENDBRANCH  10  49
BRANCH  10  53
ATOM     53  C   LIG d   1       3.897  -1.146  -2.093  0.00  0.00    -0.057 C 
ATOM     54  H   LIG d   1       2.911  -1.597  -2.202  0.00  0.00     0.024 H 
ATOM     55  H   LIG d   1       4.648  -1.931  -2.012  0.00  0.00     0.024 H 
ATOM     56  H   LIG d   1       3.917  -0.528  -1.196  0.00  0.00     0.024 H 
ENDBRANCH  10  53
TORSDOF 9
ENDMDL
MODEL 2
REMARK VINA RESULT:      -6.1      4.557      7.389
REMARK  9 active torsions:
REMARK  status: ('A' for Active; 'I' for Inactive)
REMARK    1  A    between atoms: C_1  and  C_2 
REMARK    2  A    between atoms: C_5  and  O_19 
REMARK    3  A    between atoms: C_7  and  C_18 
REMARK    4  A    between atoms: C_9  and  O_17 
REMARK    5  A    between atoms: C_11  and  C_15 
REMARK    6  A    between atoms: C_11  and  C_16 
REMARK    7  A    between atoms: O_19  and  C_20 
REMARK    8  A    between atoms: C_20  and  C_22 
REMARK    9  A    between atoms: C_25  and  O_28 
ROOT
ATOM      1  C   LIG d   1       7.749  -2.564  -4.741  0.00  0.00    -0.076 C 
ATOM      2  C   LIG d   1       7.307  -2.979  -5.902  0.00  0.00    -0.081 C 
ATOM      3  C   LIG d   1       6.629  -2.014  -6.839  0.00  0.00     0.007 C 
ATOM      4  C   LIG d   1       5.134  -2.332  -6.903  0.00  0.00     0.128 C 
ATOM      5  H   LIG d   1       4.803  -2.317  -7.943  0.00  0.00     0.079 H 
ATOM      6  C   LIG d   1       4.367  -1.299  -6.118  0.00  0.00    -0.034 C 
ATOM      7  C   LIG d   1       4.246  -1.420  -4.820  0.00  0.00    -0.053 C 
ATOM      8  C   LIG d   1       3.476  -0.390  -4.034  0.00  0.00     0.079 C 
ATOM      9  H   LIG d   1       3.220   0.445  -4.687  0.00  0.00     0.064 H 
ATOM     10  C   LIG d   1       4.338   0.114  -2.875  0.00  0.00    -0.005 C 
ATOM     11  C   LIG d   1       5.779   0.304  -3.356  0.00  0.00    -0.045 C 
ATOM     12  C   LIG d   1       6.539  -1.018  -3.226  0.00  0.00    -0.049 C 
ATOM     13  C   LIG d   1       7.580  -1.120  -4.343  0.00  0.00    -0.032 C 
ATOM     14  H   LIG d   1       7.428  -4.014  -6.187  0.00  0.00     0.057 H 
ATOM     15  H   LIG d   1       7.064  -2.108  -7.834  0.00  0.00     0.035 H 
ATOM     16  H   LIG d   1       6.769  -0.996  -6.476  0.00  0.00     0.035 H 
ATOM     17  H   LIG d   1       4.693  -2.262  -4.312  0.00  0.00     0.060 H 
ATOM     18  H   LIG d   1       6.266   1.066  -2.749  0.00  0.00     0.027 H 
ATOM     19  H   LIG d   1       5.775   0.619  -4.400  0.00  0.00     0.027 H 
ATOM     20  H   LIG d   1       5.839  -1.849  -3.305  0.00  0.00     0.027 H 
ATOM     21  H   LIG d   1       7.039  -1.054  -2.258  0.00  0.00     0.027 H 
ATOM     22  H   LIG d   1       8.533  -0.727  -3.988  0.00  0.00     0.031 H 
ATOM     23  H   LIG d   1       7.246  -0.542  -5.204  0.00  0.00     0.031 H 
ENDROOT
BRANCH   4  24
ATOM     24  O   LIG d   1       4.893  -3.647  -6.338  0.00  0.00    -0.453 OA
BRANCH  24  25
ATOM     25  C   LIG d   1       4.284  -4.552  -7.130  0.00  0.00     0.340 C 
ATOM     26  O   LIG d   1       3.601  -4.180  -8.063  0.00  0.00    -0.245 OA
BRANCH  25  27
ATOM     27  C   LIG d   1       4.448  -5.993  -6.864  0.00  0.00     0.059 A 
ATOM     28  C   LIG d   1       4.168  -6.927  -7.865  0.00  0.00    -0.044 A 
ATOM     29  C   LIG d   1       4.322  -8.271  -7.613  0.00  0.00    -0.019 A 
ATOM     30  H   LIG d   1       3.830  -6.594  -8.836  0.00  0.00     0.063 H 
ATOM     31  C   LIG d   1       4.756  -8.701  -6.364  0.00  0.00     0.117 A 
ATOM     32  H   LIG d   1       4.106  -8.994  -8.386  0.00  0.00     0.065 H 
ATOM     33  C   LIG d   1       5.035  -7.775  -5.365  0.00  0.00    -0.019 A 
ATOM     34  C   LIG d   1       4.889  -6.428  -5.611  0.00  0.00    -0.044 A 
ATOM     35  H   LIG d   1       5.371  -8.113  -4.396  0.00  0.00     0.065 H 
ATOM     36  H   LIG d   1       5.111  -5.710  -4.836  0.00  0.00     0.063 H 
BRANCH  31  37
ATOM     37  O   LIG d   1       4.906 -10.027  -6.119  0.00  0.00    -0.507 OA
ATOM     38  H   LIG d   1       5.801 -10.280  -5.856  0.00  0.00     0.292 HD
ENDBRANCH  31  37
ENDBRANCH  25  27
ENDBRANCH  24  25
ENDBRANCH   4  24
BRANCH   6  39
ATOM     39  C   LIG d   1       3.743  -0.124  -6.827  0.00  0.00    -0.040 C 
ATOM     40  H   LIG d   1       4.325   0.775  -6.624  0.00  0.00     0.028 H 
ATOM     41  H   LIG d   1       3.729  -0.312  -7.900  0.00  0.00     0.028 H 
ATOM     42  H   LIG d   1       2.723   0.015  -6.469  0.00  0.00     0.028 H 
ENDBRANCH   6  39
BRANCH   1  43
ATOM     43  C   LIG d   1       8.427  -3.529  -3.803  0.00  0.00    -0.044 C 
ATOM     44  H   LIG d   1       8.535  -4.496  -4.293  0.00  0.00     0.027 H 
ATOM     45  H   LIG d   1       9.412  -3.146  -3.536  0.00  0.00     0.027 H 
ATOM     46  H   LIG d   1       7.825  -3.643  -2.901  0.00  0.00     0.027 H 
ENDBRANCH   1  43
BRANCH   8  47
ATOM     47  O   LIG d   1       2.279  -0.975  -3.518  0.00  0.00    -0.387 OA
ATOM     48  H   LIG d   1       1.506  -0.396  -3.567  0.00  0.00     0.210 HD
ENDBRANCH   8  47
BRANCH  10  49
ATOM     49  C   LIG d   1       4.312  -0.909  -1.738  0.00  0.00    -0.057 C 
ATOM     50  H   LIG d   1       4.592  -1.890  -2.123  0.00  0.00     0.024 H 
ATOM     51  H   LIG d   1       5.017  -0.608  -0.963  0.00  0.00     0.024 H 
ATOM     52  H   LIG d   1       3.308  -0.958  -1.316  0.00  0.00     0.024 H 
ENDBRANCH  10  49
BRANCH  10  53
ATOM     53  C   LIG d   1       3.789   1.450  -2.372  0.00  0.00    -0.057 C 
ATOM     54  H   LIG d   1       2.853   1.280  -1.840  0.00  0.00     0.024 H 
ATOM     55  H   LIG d   1       4.511   1.909  -1.698  0.00  0.00     0.024 H 
ATOM     56  H   LIG d   1       3.610   2.112  -3.219  0.00  0.00     0.024 H 
ENDBRANCH  10  53
TORSDOF 9
ENDMDL
MODEL 3
REMARK VINA RESULT:      -5.8      3.345      6.164
REMARK  9 active torsions:
REMARK  status: ('A' for Active; 'I' for Inactive)
REMARK    1  A    between atoms: C_1  and  C_2 
REMARK    2  A    between atoms: C_5  and  O_19 
REMARK    3  A    between atoms: C_7  and  C_18 
REMARK    4  A    between atoms: C_9  and  O_17 
REMARK    5  A    between atoms: C_11  and  C_15 
REMARK    6  A    between atoms: C_11  and  C_16 
REMARK    7  A    between atoms: O_19  and  C_20 
REMARK    8  A    between atoms: C_20  and  C_22 
REMARK    9  A    between atoms: C_25  and  O_28 
ROOT
ATOM      1  C   LIG d   1       4.672   1.442  -9.393  0.00  0.00    -0.076 C 
ATOM      2  C   LIG d   1       5.365   0.847  -8.454  0.00  0.00    -0.081 C 
ATOM      3  C   LIG d   1       6.124  -0.418  -8.765  0.00  0.00     0.007 C 
ATOM      4  C   LIG d   1       5.438  -1.604  -8.085  0.00  0.00     0.128 C 
ATOM      5  H   LIG d   1       6.189  -2.231  -7.603  0.00  0.00     0.079 H 
ATOM      6  C   LIG d   1       4.695  -2.413  -9.117  0.00  0.00    -0.034 C 
ATOM      7  C   LIG d   1       3.496  -2.050  -9.496  0.00  0.00    -0.053 C 
ATOM      8  C   LIG d   1       2.751  -2.861 -10.525  0.00  0.00     0.079 C 
ATOM      9  H   LIG d   1       3.417  -3.618 -10.939  0.00  0.00     0.064 H 
ATOM     10  C   LIG d   1       2.267  -1.939 -11.645  0.00  0.00    -0.005 C 
ATOM     11  C   LIG d   1       3.364  -0.926 -11.982  0.00  0.00    -0.045 C 
ATOM     12  C   LIG d   1       3.242   0.286 -11.056  0.00  0.00    -0.049 C 
ATOM     13  C   LIG d   1       4.633   0.862 -10.783  0.00  0.00    -0.032 C 
ATOM     14  H   LIG d   1       5.393   1.262  -7.458  0.00  0.00     0.057 H 
ATOM     15  H   LIG d   1       7.146  -0.328  -8.396  0.00  0.00     0.035 H 
ATOM     16  H   LIG d   1       6.141  -0.576  -9.843  0.00  0.00     0.035 H 
ATOM     17  H   LIG d   1       3.036  -1.172  -9.065  0.00  0.00     0.060 H 
ATOM     18  H   LIG d   1       3.257  -0.606 -13.018  0.00  0.00     0.027 H 
ATOM     19  H   LIG d   1       4.342  -1.391 -11.845  0.00  0.00     0.027 H 
ATOM     20  H   LIG d   1       2.784  -0.019 -10.116  0.00  0.00     0.027 H 
ATOM     21  H   LIG d   1       2.621   1.045 -11.534  0.00  0.00     0.027 H 
ATOM     22  H   LIG d   1       4.850   1.645 -11.509  0.00  0.00     0.031 H 
ATOM     23  H   LIG d   1       5.377   0.070 -10.868  0.00  0.00     0.031 H 
ENDROOT
BRANCH   4  24
ATOM     24  O   LIG d   1       4.502  -1.116  -7.088  0.00  0.00    -0.453 OA
BRANCH  24  25
ATOM     25  C   LIG d   1       4.521  -1.720  -5.883  0.00  0.00     0.340 C 
ATOM     26  O   LIG d   1       4.485  -2.932  -5.811  0.00  0.00    -0.245 OA
BRANCH  25  27
ATOM     27  C   LIG d   1       4.587  -0.909  -4.653  0.00  0.00     0.059 A 
ATOM     28  C   LIG d   1       5.765  -0.235  -4.320  0.00  0.00    -0.044 A 
ATOM     29  C   LIG d   1       5.822   0.520  -3.172  0.00  0.00    -0.019 A 
ATOM     30  H   LIG d   1       6.630  -0.307  -4.964  0.00  0.00     0.063 H 
ATOM     31  C   LIG d   1       4.710   0.614  -2.342  0.00  0.00     0.117 A 
ATOM     32  H   LIG d   1       6.732   1.042  -2.913  0.00  0.00     0.065 H 
ATOM     33  C   LIG d   1       3.536  -0.056  -2.670  0.00  0.00    -0.019 A 
ATOM     34  C   LIG d   1       3.469  -0.809  -3.820  0.00  0.00    -0.044 A 
ATOM     35  H   LIG d   1       2.675   0.019  -2.022  0.00  0.00     0.065 H 
ATOM     36  H   LIG d   1       2.556  -1.324  -4.075  0.00  0.00     0.063 H 
BRANCH  31  37
ATOM     37  O   LIG d   1       4.771   1.359  -1.210  0.00  0.00    -0.507 OA
ATOM     38  H   LIG d   1       4.875   2.307  -1.368  0.00  0.00     0.292 HD
ENDBRANCH  31  37
ENDBRANCH  25  27
ENDBRANCH  24  25
ENDBRANCH   4  24
BRANCH   6  39
ATOM     39  C   LIG d   1       5.337  -3.638  -9.718  0.00  0.00    -0.040 C 
ATOM     40  H   LIG d   1       6.418  -3.503  -9.752  0.00  0.00     0.028 H 
ATOM     41  H   LIG d   1       5.099  -4.509  -9.108  0.00  0.00     0.028 H 
ATOM     42  H   LIG d   1       4.957  -3.788 -10.728  0.00  0.00     0.028 H 
ENDBRANCH   6  39
BRANCH   1  43
ATOM     43  C   LIG d   1       3.912   2.706  -9.082  0.00  0.00    -0.044 C 
ATOM     44  H   LIG d   1       3.624   3.194 -10.013  0.00  0.00     0.027 H 
ATOM     45  H   LIG d   1       3.018   2.461  -8.509  0.00  0.00     0.027 H 
ATOM     46  H   LIG d   1       4.545   3.376  -8.500  0.00  0.00     0.027 H 
ENDBRANCH   1  43
BRANCH   8  47
ATOM     47  O   LIG d   1       1.627  -3.498  -9.913  0.00  0.00    -0.387 OA
ATOM     48  H   LIG d   1       0.930  -2.886  -9.638  0.00  0.00     0.210 HD
ENDBRANCH   8  47
BRANCH  10  49
ATOM     49  C   LIG d   1       1.011  -1.195 -11.186  0.00  0.00    -0.057 C 
ATOM     50  H   LIG d   1       1.250  -0.576 -10.321  0.00  0.00     0.024 H 
ATOM     51  H   LIG d   1       0.648  -0.563 -11.997  0.00  0.00     0.024 H 
ATOM     52  H   LIG d   1       0.240  -1.916 -10.915  0.00  0.00     0.024 H 
ENDBRANCH  10  49
BRANCH  10  53
ATOM     53  C   LIG d   1       1.942  -2.770 -12.887  0.00  0.00    -0.057 C 
ATOM     54  H   LIG d   1       1.307  -2.189 -13.556  0.00  0.00     0.024 H 
ATOM     55  H   LIG d   1       2.867  -3.032 -13.401  0.00  0.00     0.024 H 
ATOM     56  H   LIG d   1       1.420  -3.680 -12.590  0.00  0.00     0.024 H 
ENDBRANCH  10  53
TORSDOF 9
ENDMDL
MODEL 4
REMARK VINA RESULT:      -5.8      3.833      7.241
REMARK  9 active torsions:
REMARK  status: ('A' for Active; 'I' for Inactive)
REMARK    1  A    between atoms: C_1  and  C_2 
REMARK    2  A    between atoms: C_5  and  O_19 
REMARK    3  A    between atoms: C_7  and  C_18 
REMARK    4  A    between atoms: C_9  and  O_17 
REMARK    5  A    between atoms: C_11  and  C_15 
REMARK    6  A    between atoms: C_11  and  C_16 
REMARK    7  A    between atoms: O_19  and  C_20 
REMARK    8  A    between atoms: C_20  and  C_22 
REMARK    9  A    between atoms: C_25  and  O_28 
ROOT
ATOM      1  C   LIG d   1       7.792  -2.616  -4.647  0.00  0.00    -0.076 C 
ATOM      2  C   LIG d   1       7.364  -3.074  -5.797  0.00  0.00    -0.081 C 
ATOM      3  C   LIG d   1       6.698  -2.144  -6.777  0.00  0.00     0.007 C 
ATOM      4  C   LIG d   1       5.204  -2.464  -6.848  0.00  0.00     0.128 C 
ATOM      5  H   LIG d   1       4.886  -2.488  -7.891  0.00  0.00     0.079 H 
ATOM      6  C   LIG d   1       4.428  -1.403  -6.111  0.00  0.00    -0.034 C 
ATOM      7  C   LIG d   1       4.291  -1.476  -4.811  0.00  0.00    -0.053 C 
ATOM      8  C   LIG d   1       3.512  -0.417  -4.074  0.00  0.00     0.079 C 
ATOM      9  H   LIG d   1       3.264   0.393  -4.760  0.00  0.00     0.064 H 
ATOM     10  C   LIG d   1       4.360   0.129  -2.924  0.00  0.00    -0.005 C 
ATOM     11  C   LIG d   1       5.806   0.301  -3.394  0.00  0.00    -0.045 C 
ATOM     12  C   LIG d   1       6.564  -1.015  -3.205  0.00  0.00    -0.049 C 
ATOM     13  C   LIG d   1       7.619  -1.158  -4.304  0.00  0.00    -0.032 C 
ATOM     14  H   LIG d   1       7.489  -4.119  -6.041  0.00  0.00     0.057 H 
ATOM     15  H   LIG d   1       7.145  -2.276  -7.763  0.00  0.00     0.035 H 
ATOM     16  H   LIG d   1       6.834  -1.113  -6.451  0.00  0.00     0.035 H 
ATOM     17  H   LIG d   1       4.731  -2.299  -4.266  0.00  0.00     0.060 H 
ATOM     18  H   LIG d   1       6.287   1.085  -2.809  0.00  0.00     0.027 H 
ATOM     19  H   LIG d   1       5.815   0.577  -4.449  0.00  0.00     0.027 H 
ATOM     20  H   LIG d   1       5.865  -1.848  -3.262  0.00  0.00     0.027 H 
ATOM     21  H   LIG d   1       7.052  -1.015  -2.230  0.00  0.00     0.027 H 
ATOM     22  H   LIG d   1       8.567  -0.752  -3.953  0.00  0.00     0.031 H 
ATOM     23  H   LIG d   1       7.296  -0.613  -5.191  0.00  0.00     0.031 H 
ENDROOT
BRANCH   4  24
ATOM     24  O   LIG d   1       4.955  -3.758  -6.237  0.00  0.00    -0.453 OA
BRANCH  24  25
ATOM     25  C   LIG d   1       4.130  -4.596  -6.894  0.00  0.00     0.340 C 
ATOM     26  O   LIG d   1       3.393  -5.335  -6.271  0.00  0.00    -0.245 OA
BRANCH  25  27
ATOM     27  C   LIG d   1       4.122  -4.618  -8.369  0.00  0.00     0.059 A 
ATOM     28  C   LIG d   1       5.074  -5.369  -9.064  0.00  0.00    -0.044 A 
ATOM     29  C   LIG d   1       5.063  -5.386 -10.440  0.00  0.00    -0.019 A 
ATOM     30  H   LIG d   1       5.818  -5.934  -8.522  0.00  0.00     0.063 H 
ATOM     31  C   LIG d   1       4.107  -4.658 -11.139  0.00  0.00     0.117 A 
ATOM     32  H   LIG d   1       5.798  -5.966 -10.978  0.00  0.00     0.065 H 
ATOM     33  C   LIG d   1       3.158  -3.910 -10.451  0.00  0.00    -0.019 A 
ATOM     34  C   LIG d   1       3.159  -3.891  -9.074  0.00  0.00    -0.044 A 
ATOM     35  H   LIG d   1       2.417  -3.345 -10.998  0.00  0.00     0.065 H 
ATOM     36  H   LIG d   1       2.418  -3.314  -8.542  0.00  0.00     0.063 H 
BRANCH  31  37
ATOM     37  O   LIG d   1       4.100  -4.677 -12.495  0.00  0.00    -0.507 OA
ATOM     38  H   LIG d   1       3.232  -4.857 -12.882  0.00  0.00     0.292 HD
ENDBRANCH  31  37
ENDBRANCH  25  27
ENDBRANCH  24  25
ENDBRANCH   4  24
BRANCH   6  39
ATOM     39  C   LIG d   1       3.813  -0.255  -6.871  0.00  0.00    -0.040 C 
ATOM     40  H   LIG d   1       2.842  -0.012  -6.441  0.00  0.00     0.028 H 
ATOM     41  H   LIG d   1       4.466   0.614  -6.807  0.00  0.00     0.028 H 
ATOM     42  H   LIG d   1       3.688  -0.538  -7.916  0.00  0.00     0.028 H 
ENDBRANCH   6  39
BRANCH   1  43
ATOM     43  C   LIG d   1       8.458  -3.545  -3.665  0.00  0.00    -0.044 C 
ATOM     44  H   LIG d   1       9.421  -3.865  -4.064  0.00  0.00     0.027 H 
ATOM     45  H   LIG d   1       8.612  -3.026  -2.719  0.00  0.00     0.027 H 
ATOM     46  H   LIG d   1       7.824  -4.417  -3.502  0.00  0.00     0.027 H 
ENDBRANCH   1  43
BRANCH   8  47
ATOM     47  O   LIG d   1       2.308  -0.983  -3.551  0.00  0.00    -0.387 OA
ATOM     48  H   LIG d   1       2.368  -1.930  -3.364  0.00  0.00     0.210 HD
ENDBRANCH   8  47
BRANCH  10  49
ATOM     49  C   LIG d   1       4.319  -0.851  -1.750  0.00  0.00    -0.057 C 
ATOM     50  H   LIG d   1       3.284  -1.099  -1.518  0.00  0.00     0.024 H 
ATOM     51  H   LIG d   1       4.861  -1.759  -2.016  0.00  0.00     0.024 H 
ATOM     52  H   LIG d   1       4.787  -0.392  -0.877  0.00  0.00     0.024 H 
ENDBRANCH  10  49
BRANCH  10  53
ATOM     53  C   LIG d   1       3.805   1.483  -2.478  0.00  0.00    -0.057 C 
ATOM     54  H   LIG d   1       3.675   2.126  -3.348  0.00  0.00     0.024 H 
ATOM     55  H   LIG d   1       2.843   1.337  -1.987  0.00  0.00     0.024 H 
ATOM     56  H   LIG d   1       4.501   1.950  -1.781  0.00  0.00     0.024 H 
ENDBRANCH  10  53
TORSDOF 9
ENDMDL
MODEL 5
REMARK VINA RESULT:      -5.6      2.894      6.601
REMARK  9 active torsions:
REMARK  status: ('A' for Active; 'I' for Inactive)
REMARK    1  A    between atoms: C_1  and  C_2 
REMARK    2  A    between atoms: C_5  and  O_19 
REMARK    3  A    between atoms: C_7  and  C_18 
REMARK    4  A    between atoms: C_9  and  O_17 
REMARK    5  A    between atoms: C_11  and  C_15 
REMARK    6  A    between atoms: C_11  and  C_16 
REMARK    7  A    between atoms: O_19  and  C_20 
REMARK    8  A    between atoms: C_20  and  C_22 
REMARK    9  A    between atoms: C_25  and  O_28 
ROOT
ATOM      1  C   LIG d   1       8.070  -0.444  -5.200  0.00  0.00    -0.076 C 
ATOM      2  C   LIG d   1       7.161   0.339  -4.673  0.00  0.00    -0.081 C 
ATOM      3  C   LIG d   1       6.333  -0.144  -3.510  0.00  0.00     0.007 C 
ATOM      4  C   LIG d   1       4.897  -0.390  -3.975  0.00  0.00     0.128 C 
ATOM      5  H   LIG d   1       4.202   0.036  -3.250  0.00  0.00     0.079 H 
ATOM      6  C   LIG d   1       4.654  -1.873  -4.091  0.00  0.00    -0.034 C 
ATOM      7  C   LIG d   1       5.020  -2.514  -5.173  0.00  0.00    -0.053 C 
ATOM      8  C   LIG d   1       4.774  -3.996  -5.291  0.00  0.00     0.079 C 
ATOM      9  H   LIG d   1       4.420  -4.382  -4.335  0.00  0.00     0.064 H 
ATOM     10  C   LIG d   1       6.079  -4.698  -5.673  0.00  0.00    -0.005 C 
ATOM     11  C   LIG d   1       7.238  -4.082  -4.887  0.00  0.00    -0.045 C 
ATOM     12  C   LIG d   1       7.779  -2.866  -5.644  0.00  0.00    -0.049 C 
ATOM     13  C   LIG d   1       8.288  -1.827  -4.642  0.00  0.00    -0.032 C 
ATOM     14  H   LIG d   1       7.005   1.330  -5.073  0.00  0.00     0.057 H 
ATOM     15  H   LIG d   1       6.337   0.612  -2.725  0.00  0.00     0.035 H 
ATOM     16  H   LIG d   1       6.755  -1.072  -3.124  0.00  0.00     0.035 H 
ATOM     17  H   LIG d   1       5.492  -1.979  -5.984  0.00  0.00     0.060 H 
ATOM     18  H   LIG d   1       8.031  -4.821  -4.771  0.00  0.00     0.027 H 
ATOM     19  H   LIG d   1       6.885  -3.770  -3.903  0.00  0.00     0.027 H 
ATOM     20  H   LIG d   1       6.984  -2.431  -6.247  0.00  0.00     0.027 H 
ATOM     21  H   LIG d   1       8.598  -3.178  -6.292  0.00  0.00     0.027 H 
ATOM     22  H   LIG d   1       9.352  -1.984  -4.465  0.00  0.00     0.031 H 
ATOM     23  H   LIG d   1       7.743  -1.931  -3.703  0.00  0.00     0.031 H 
ENDROOT
BRANCH   4  24
ATOM     24  O   LIG d   1       4.691   0.237  -5.268  0.00  0.00    -0.453 OA
BRANCH  24  25
ATOM     25  C   LIG d   1       3.428   0.273  -5.737  0.00  0.00     0.340 C 
ATOM     26  O   LIG d   1       2.498   0.400  -4.966  0.00  0.00    -0.245 OA
BRANCH  25  27
ATOM     27  C   LIG d   1       3.175   0.158  -7.185  0.00  0.00     0.059 A 
ATOM     28  C   LIG d   1       3.237  -1.091  -7.810  0.00  0.00    -0.044 A 
ATOM     29  C   LIG d   1       3.000  -1.194  -9.162  0.00  0.00    -0.019 A 
ATOM     30  H   LIG d   1       3.470  -1.974  -7.233  0.00  0.00     0.063 H 
ATOM     31  C   LIG d   1       2.700  -0.059  -9.906  0.00  0.00     0.117 A 
ATOM     32  H   LIG d   1       3.048  -2.159  -9.646  0.00  0.00     0.065 H 
ATOM     33  C   LIG d   1       2.638   1.185  -9.288  0.00  0.00    -0.019 A 
ATOM     34  C   LIG d   1       2.868   1.296  -7.935  0.00  0.00    -0.044 A 
ATOM     35  H   LIG d   1       2.406   2.065  -9.870  0.00  0.00     0.065 H 
ATOM     36  H   LIG d   1       2.815   2.262  -7.456  0.00  0.00     0.063 H 
BRANCH  31  37
ATOM     37  O   LIG d   1       2.468  -0.165 -11.239  0.00  0.00    -0.507 OA
ATOM     38  H   LIG d   1       1.973   0.577 -11.612  0.00  0.00     0.292 HD
ENDBRANCH  31  37
ENDBRANCH  25  27
ENDBRANCH  24  25
ENDBRANCH   4  24
BRANCH   6  39
ATOM     39  C   LIG d   1       3.995  -2.620  -2.959  0.00  0.00    -0.040 C 
ATOM     40  H   LIG d   1       3.591  -1.908  -2.240  0.00  0.00     0.028 H 
ATOM     41  H   LIG d   1       3.188  -3.237  -3.352  0.00  0.00     0.028 H 
ATOM     42  H   LIG d   1       4.732  -3.255  -2.467  0.00  0.00     0.028 H 
ENDBRANCH   6  39
BRANCH   1  43
ATOM     43  C   LIG d   1       8.897   0.038  -6.363  0.00  0.00    -0.044 C 
ATOM     44  H   LIG d   1       9.264   1.043  -6.156  0.00  0.00     0.027 H 
ATOM     45  H   LIG d   1       9.743  -0.634  -6.511  0.00  0.00     0.027 H 
ATOM     46  H   LIG d   1       8.284   0.053  -7.264  0.00  0.00     0.027 H 
ENDBRANCH   1  43
BRANCH   8  47
ATOM     47  O   LIG d   1       3.790  -4.241  -6.298  0.00  0.00    -0.387 OA
ATOM     48  H   LIG d   1       3.148  -3.525  -6.402  0.00  0.00     0.210 HD
ENDBRANCH   8  47
BRANCH  10  49
ATOM     49  C   LIG d   1       6.332  -4.525  -7.172  0.00  0.00    -0.057 C 
ATOM     50  H   LIG d   1       7.184  -5.135  -7.470  0.00  0.00     0.024 H 
ATOM     51  H   LIG d   1       5.448  -4.838  -7.728  0.00  0.00     0.024 H 
ATOM     52  H   LIG d   1       6.542  -3.477  -7.387  0.00  0.00     0.024 H 
ENDBRANCH  10  49
BRANCH  10  53
ATOM     53  C   LIG d   1       5.974  -6.188  -5.342  0.00  0.00    -0.057 C 
ATOM     54  H   LIG d   1       6.437  -6.378  -4.374  0.00  0.00     0.024 H 
ATOM     55  H   LIG d   1       4.924  -6.478  -5.305  0.00  0.00     0.024 H 
ATOM     56  H   LIG d   1       6.485  -6.768  -6.110  0.00  0.00     0.024 H 
ENDBRANCH  10  53
TORSDOF 9
ENDMDL
MODEL 6
REMARK VINA RESULT:      -5.6      3.088      6.376
REMARK  9 active torsions:
REMARK  status: ('A' for Active; 'I' for Inactive)
REMARK    1  A    between atoms: C_1  and  C_2 
REMARK    2  A    between atoms: C_5  and  O_19 
REMARK    3  A    between atoms: C_7  and  C_18 
REMARK    4  A    between atoms: C_9  and  O_17 
REMARK    5  A    between atoms: C_11  and  C_15 
REMARK    6  A    between atoms: C_11  and  C_16 
REMARK    7  A    between atoms: O_19  and  C_20 
REMARK    8  A    between atoms: C_20  and  C_22 
REMARK    9  A    between atoms: C_25  and  O_28 
ROOT
ATOM      1  C   LIG d   1       5.884  -4.144  -5.973  0.00  0.00    -0.076 C 
ATOM      2  C   LIG d   1       6.402  -3.555  -7.022  0.00  0.00    -0.081 C 
ATOM      3  C   LIG d   1       7.347  -2.395  -6.843  0.00  0.00     0.007 C 
ATOM      4  C   LIG d   1       6.656  -1.104  -7.287  0.00  0.00     0.128 C 
ATOM      5  H   LIG d   1       7.339  -0.520  -7.905  0.00  0.00     0.079 H 
ATOM      6  C   LIG d   1       6.266  -0.300  -6.073  0.00  0.00    -0.034 C 
ATOM      7  C   LIG d   1       5.154  -0.572  -5.438  0.00  0.00    -0.053 C 
ATOM      8  C   LIG d   1       4.762   0.234  -4.226  0.00  0.00     0.079 C 
ATOM      9  H   LIG d   1       5.584   0.894  -3.948  0.00  0.00     0.064 H 
ATOM     10  C   LIG d   1       4.452  -0.712  -3.065  0.00  0.00    -0.005 C 
ATOM     11  C   LIG d   1       5.479  -1.847  -3.044  0.00  0.00    -0.045 C 
ATOM     12  C   LIG d   1       5.013  -2.975  -3.967  0.00  0.00    -0.049 C 
ATOM     13  C   LIG d   1       6.231  -3.662  -4.588  0.00  0.00    -0.032 C 
ATOM     14  H   LIG d   1       6.153  -3.902  -8.014  0.00  0.00     0.057 H 
ATOM     15  H   LIG d   1       8.239  -2.557  -7.448  0.00  0.00     0.035 H 
ATOM     16  H   LIG d   1       7.629  -2.314  -5.794  0.00  0.00     0.035 H 
ATOM     17  H   LIG d   1       4.514  -1.369  -5.786  0.00  0.00     0.060 H 
ATOM     18  H   LIG d   1       5.580  -2.226  -2.027  0.00  0.00     0.027 H 
ATOM     19  H   LIG d   1       6.443  -1.470  -3.388  0.00  0.00     0.027 H 
ATOM     20  H   LIG d   1       4.387  -2.562  -4.757  0.00  0.00     0.027 H 
ATOM     21  H   LIG d   1       4.440  -3.701  -3.391  0.00  0.00     0.027 H 
ATOM     22  H   LIG d   1       6.524  -4.510  -3.970  0.00  0.00     0.031 H 
ATOM     23  H   LIG d   1       7.057  -2.953  -4.647  0.00  0.00     0.031 H 
ENDROOT
BRANCH   4  24
ATOM     24  O   LIG d   1       5.467  -1.429  -8.055  0.00  0.00    -0.453 OA
BRANCH  24  25
ATOM     25  C   LIG d   1       5.235  -0.698  -9.163  0.00  0.00     0.340 C 
ATOM     26  O   LIG d   1       6.106   0.023  -9.609  0.00  0.00    -0.245 OA
BRANCH  25  27
ATOM     27  C   LIG d   1       3.924  -0.771  -9.833  0.00  0.00     0.059 A 
ATOM     28  C   LIG d   1       2.752  -0.842  -9.075  0.00  0.00    -0.044 A 
ATOM     29  C   LIG d   1       1.530  -0.911  -9.704  0.00  0.00    -0.019 A 
ATOM     30  H   LIG d   1       2.805  -0.844  -7.995  0.00  0.00     0.063 H 
ATOM     31  C   LIG d   1       1.460  -0.910 -11.093  0.00  0.00     0.117 A 
ATOM     32  H   LIG d   1       0.623  -0.966  -9.119  0.00  0.00     0.065 H 
ATOM     33  C   LIG d   1       2.623  -0.839 -11.851  0.00  0.00    -0.019 A 
ATOM     34  C   LIG d   1       3.850  -0.765 -11.229  0.00  0.00    -0.044 A 
ATOM     35  H   LIG d   1       2.565  -0.840 -12.929  0.00  0.00     0.065 H 
ATOM     36  H   LIG d   1       4.751  -0.706 -11.819  0.00  0.00     0.063 H 
BRANCH  31  37
ATOM     37  O   LIG d   1       0.253  -0.978 -11.709  0.00  0.00    -0.507 OA
ATOM     38  H   LIG d   1       0.152  -1.742 -12.293  0.00  0.00     0.292 HD
ENDBRANCH  31  37
ENDBRANCH  25  27
ENDBRANCH  24  25
ENDBRANCH   4  24
BRANCH   6  39
ATOM     39  C   LIG d   1       7.160   0.813  -5.588  0.00  0.00    -0.040 C 
ATOM     40  H   LIG d   1       6.557   1.693  -5.364  0.00  0.00     0.028 H 
ATOM     41  H   LIG d   1       7.683   0.493  -4.688  0.00  0.00     0.028 H 
ATOM     42  H   LIG d   1       7.887   1.058  -6.363  0.00  0.00     0.028 H 
ENDBRANCH   6  39
BRANCH   1  43
ATOM     43  C   LIG d   1       4.939  -5.305  -6.150  0.00  0.00    -0.044 C 
ATOM     44  H   LIG d   1       4.621  -5.667  -5.173  0.00  0.00     0.027 H 
ATOM     45  H   LIG d   1       4.066  -4.980  -6.717  0.00  0.00     0.027 H 
ATOM     46  H   LIG d   1       5.444  -6.106  -6.689  0.00  0.00     0.027 H 
ENDBRANCH   1  43
BRANCH   8  47
ATOM     47  O   LIG d   1       3.604   1.017  -4.524  0.00  0.00    -0.387 OA
ATOM     48  H   LIG d   1       2.887   0.517  -4.937  0.00  0.00     0.210 HD
ENDBRANCH   8  47
BRANCH  10  49
ATOM     49  C   LIG d   1       3.050  -1.299  -3.245  0.00  0.00    -0.057 C 
ATOM     50  H   LIG d   1       2.926  -2.157  -2.585  0.00  0.00     0.024 H 
ATOM     51  H   LIG d   1       2.305  -0.541  -3.001  0.00  0.00     0.024 H 
ATOM     52  H   LIG d   1       2.919  -1.616  -4.281  0.00  0.00     0.024 H 
ENDBRANCH  10  49
BRANCH  10  53
ATOM     53  C   LIG d   1       4.516   0.058  -1.746  0.00  0.00    -0.057 C 
ATOM     54  H   LIG d   1       4.287  -0.616  -0.920  0.00  0.00     0.024 H 
ATOM     55  H   LIG d   1       5.518   0.467  -1.613  0.00  0.00     0.024 H 
ATOM     56  H   LIG d   1       3.791   0.871  -1.763  0.00  0.00     0.024 H 
ENDBRANCH  10  53
TORSDOF 9
ENDMDL
MODEL 7
REMARK VINA RESULT:      -5.6      4.409      7.269
REMARK  9 active torsions:
REMARK  status: ('A' for Active; 'I' for Inactive)
REMARK    1  A    between atoms: C_1  and  C_2 
REMARK    2  A    between atoms: C_5  and  O_19 
REMARK    3  A    between atoms: C_7  and  C_18 
REMARK    4  A    between atoms: C_9  and  O_17 
REMARK    5  A    between atoms: C_11  and  C_15 
REMARK    6  A    between atoms: C_11  and  C_16 
REMARK    7  A    between atoms: O_19  and  C_20 
REMARK    8  A    between atoms: C_20  and  C_22 
REMARK    9  A    between atoms: C_25  and  O_28 
ROOT
ATOM      1  C   LIG d   1       6.804  -7.590  -5.351  0.00  0.00    -0.076 C 
ATOM      2  C   LIG d   1       6.156  -6.601  -5.916  0.00  0.00    -0.081 C 
ATOM      3  C   LIG d   1       6.911  -5.547  -6.683  0.00  0.00     0.007 C 
ATOM      4  C   LIG d   1       6.891  -4.234  -5.898  0.00  0.00     0.128 C 
ATOM      5  H   LIG d   1       6.659  -3.410  -6.574  0.00  0.00     0.079 H 
ATOM      6  C   LIG d   1       8.241  -4.003  -5.270  0.00  0.00    -0.034 C 
ATOM      7  C   LIG d   1       8.540  -4.577  -4.132  0.00  0.00    -0.053 C 
ATOM      8  C   LIG d   1       9.889  -4.344  -3.501  0.00  0.00     0.079 C 
ATOM      9  H   LIG d   1      10.524  -3.796  -4.197  0.00  0.00     0.064 H 
ATOM     10  C   LIG d   1      10.535  -5.691  -3.172  0.00  0.00    -0.005 C 
ATOM     11  C   LIG d   1      10.284  -6.671  -4.321  0.00  0.00    -0.045 C 
ATOM     12  C   LIG d   1       8.939  -7.369  -4.110  0.00  0.00    -0.049 C 
ATOM     13  C   LIG d   1       8.304  -7.673  -5.469  0.00  0.00    -0.032 C 
ATOM     14  H   LIG d   1       5.081  -6.542  -5.832  0.00  0.00     0.057 H 
ATOM     15  H   LIG d   1       6.439  -5.397  -7.654  0.00  0.00     0.035 H 
ATOM     16  H   LIG d   1       7.942  -5.869  -6.826  0.00  0.00     0.035 H 
ATOM     17  H   LIG d   1       7.818  -5.211  -3.640  0.00  0.00     0.060 H 
ATOM     18  H   LIG d   1      11.081  -7.414  -4.344  0.00  0.00     0.027 H 
ATOM     19  H   LIG d   1      10.267  -6.126  -5.266  0.00  0.00     0.027 H 
ATOM     20  H   LIG d   1       8.278  -6.720  -3.537  0.00  0.00     0.027 H 
ATOM     21  H   LIG d   1       9.096  -8.301  -3.565  0.00  0.00     0.027 H 
ATOM     22  H   LIG d   1       8.589  -8.676  -5.786  0.00  0.00     0.031 H 
ATOM     23  H   LIG d   1       8.652  -6.946  -6.203  0.00  0.00     0.031 H 
ENDROOT
BRANCH   4  24
ATOM     24  O   LIG d   1       5.879  -4.306  -4.858  0.00  0.00    -0.453 OA
BRANCH  24  25
ATOM     25  C   LIG d   1       4.885  -3.398  -4.909  0.00  0.00     0.340 C 
ATOM     26  O   LIG d   1       3.978  -3.534  -5.706  0.00  0.00    -0.245 OA
BRANCH  25  27
ATOM     27  C   LIG d   1       4.897  -2.240  -3.996  0.00  0.00     0.059 A 
ATOM     28  C   LIG d   1       5.631  -1.097  -4.325  0.00  0.00    -0.044 A 
ATOM     29  C   LIG d   1       5.640  -0.018  -3.471  0.00  0.00    -0.019 A 
ATOM     30  H   LIG d   1       6.191  -1.060  -5.248  0.00  0.00     0.063 H 
ATOM     31  C   LIG d   1       4.920  -0.063  -2.283  0.00  0.00     0.117 A 
ATOM     32  H   LIG d   1       6.207   0.867  -3.724  0.00  0.00     0.065 H 
ATOM     33  C   LIG d   1       4.189  -1.198  -1.952  0.00  0.00    -0.019 A 
ATOM     34  C   LIG d   1       4.170  -2.280  -2.803  0.00  0.00    -0.044 A 
ATOM     35  H   LIG d   1       3.632  -1.230  -1.027  0.00  0.00     0.065 H 
ATOM     36  H   LIG d   1       3.598  -3.159  -2.547  0.00  0.00     0.063 H 
BRANCH  31  37
ATOM     37  O   LIG d   1       4.932   1.003  -1.443  0.00  0.00    -0.507 OA
ATOM     38  H   LIG d   1       5.575   1.685  -1.681  0.00  0.00     0.292 HD
ENDBRANCH  31  37
ENDBRANCH  25  27
ENDBRANCH  24  25
ENDBRANCH   4  24
BRANCH   6  39
ATOM     39  C   LIG d   1       9.250  -3.117  -5.956  0.00  0.00    -0.040 C 
ATOM     40  H   LIG d   1       8.785  -2.164  -6.207  0.00  0.00     0.028 H 
ATOM     41  H   LIG d   1      10.095  -2.946  -5.291  0.00  0.00     0.028 H 
ATOM     42  H   LIG d   1       9.598  -3.603  -6.868  0.00  0.00     0.028 H 
ENDBRANCH   6  39
BRANCH   1  43
ATOM     43  C   LIG d   1       6.049  -8.645  -4.584  0.00  0.00    -0.044 C 
ATOM     44  H   LIG d   1       5.449  -8.169  -3.808  0.00  0.00     0.027 H 
ATOM     45  H   LIG d   1       5.395  -9.191  -5.263  0.00  0.00     0.027 H 
ATOM     46  H   LIG d   1       6.756  -9.336  -4.125  0.00  0.00     0.027 H 
ENDBRANCH   1  43
BRANCH   8  47
ATOM     47  O   LIG d   1       9.734  -3.584  -2.300  0.00  0.00    -0.387 OA
ATOM     48  H   LIG d   1       9.122  -2.840  -2.382  0.00  0.00     0.210 HD
ENDBRANCH   8  47
BRANCH  10  49
ATOM     49  C   LIG d   1       9.926  -6.248  -1.884  0.00  0.00    -0.057 C 
ATOM     50  H   LIG d   1       9.229  -5.521  -1.467  0.00  0.00     0.024 H 
ATOM     51  H   LIG d   1       9.396  -7.175  -2.105  0.00  0.00     0.024 H 
ATOM     52  H   LIG d   1      10.719  -6.447  -1.163  0.00  0.00     0.024 H 
ENDBRANCH  10  49
BRANCH  10  53
ATOM     53  C   LIG d   1      12.042  -5.502  -2.983  0.00  0.00    -0.057 C 
ATOM     54  H   LIG d   1      12.381  -6.113  -2.147  0.00  0.00     0.024 H 
ATOM     55  H   LIG d   1      12.562  -5.808  -3.891  0.00  0.00     0.024 H 
ATOM     56  H   LIG d   1      12.254  -4.454  -2.777  0.00  0.00     0.024 H 
ENDBRANCH  10  53
TORSDOF 9
ENDMDL
MODEL 8
REMARK VINA RESULT:      -5.4      1.897      4.623
REMARK  9 active torsions:
REMARK  status: ('A' for Active; 'I' for Inactive)
REMARK    1  A    between atoms: C_1  and  C_2 
REMARK    2  A    between atoms: C_5  and  O_19 
REMARK    3  A    between atoms: C_7  and  C_18 
REMARK    4  A    between atoms: C_9  and  O_17 
REMARK    5  A    between atoms: C_11  and  C_15 
REMARK    6  A    between atoms: C_11  and  C_16 
REMARK    7  A    between atoms: O_19  and  C_20 
REMARK    8  A    between atoms: C_20  and  C_22 
REMARK    9  A    between atoms: C_25  and  O_28 
ROOT
ATOM      1  C   LIG d   1       5.759  -3.712  -5.325  0.00  0.00    -0.076 C 
ATOM      2  C   LIG d   1       5.661  -3.046  -4.201  0.00  0.00    -0.081 C 
ATOM      3  C   LIG d   1       4.391  -2.306  -3.872  0.00  0.00     0.007 C 
ATOM      4  C   LIG d   1       4.639  -0.800  -3.970  0.00  0.00     0.128 C 
ATOM      5  H   LIG d   1       4.199  -0.302  -3.106  0.00  0.00     0.079 H 
ATOM      6  C   LIG d   1       4.007  -0.268  -5.232  0.00  0.00    -0.034 C 
ATOM      7  C   LIG d   1       4.645  -0.359  -6.372  0.00  0.00    -0.053 C 
ATOM      8  C   LIG d   1       4.016   0.176  -7.633  0.00  0.00     0.079 C 
ATOM      9  H   LIG d   1       2.985   0.466  -7.428  0.00  0.00     0.064 H 
ATOM     10  C   LIG d   1       4.037  -0.909  -8.710  0.00  0.00    -0.005 C 
ATOM     11  C   LIG d   1       3.683  -2.259  -8.082  0.00  0.00    -0.045 C 
ATOM     12  C   LIG d   1       4.951  -2.913  -7.529  0.00  0.00    -0.049 C 
ATOM     13  C   LIG d   1       4.601  -3.738  -6.289  0.00  0.00    -0.032 C 
ATOM     14  H   LIG d   1       6.491  -3.028  -3.511  0.00  0.00     0.057 H 
ATOM     15  H   LIG d   1       4.076  -2.558  -2.859  0.00  0.00     0.035 H 
ATOM     16  H   LIG d   1       3.610  -2.593  -4.576  0.00  0.00     0.035 H 
ATOM     17  H   LIG d   1       5.626  -0.810  -6.408  0.00  0.00     0.060 H 
ATOM     18  H   LIG d   1       3.239  -2.906  -8.838  0.00  0.00     0.027 H 
ATOM     19  H   LIG d   1       2.970  -2.106  -7.270  0.00  0.00     0.027 H 
ATOM     20  H   LIG d   1       5.671  -2.140  -7.260  0.00  0.00     0.027 H 
ATOM     21  H   LIG d   1       5.384  -3.564  -8.289  0.00  0.00     0.027 H 
ATOM     22  H   LIG d   1       4.396  -4.767  -6.584  0.00  0.00     0.031 H 
ATOM     23  H   LIG d   1       3.719  -3.315  -5.809  0.00  0.00     0.031 H 
ENDROOT
BRANCH   4  24
ATOM     24  O   LIG d   1       6.068  -0.545  -4.000  0.00  0.00    -0.453 OA
BRANCH  24  25
ATOM     25  C   LIG d   1       6.477   0.686  -3.637  0.00  0.00     0.340 C 
ATOM     26  O   LIG d   1       5.947   1.252  -2.701  0.00  0.00    -0.245 OA
BRANCH  25  27
ATOM     27  C   LIG d   1       7.569   1.348  -4.375  0.00  0.00     0.059 A 
ATOM     28  C   LIG d   1       8.379   2.290  -3.734  0.00  0.00    -0.044 A 
ATOM     29  C   LIG d   1       9.397   2.905  -4.426  0.00  0.00    -0.019 A 
ATOM     30  H   LIG d   1       8.205   2.535  -2.696  0.00  0.00     0.063 H 
ATOM     31  C   LIG d   1       9.621   2.591  -5.761  0.00  0.00     0.117 A 
ATOM     32  H   LIG d   1      10.023   3.633  -3.931  0.00  0.00     0.065 H 
ATOM     33  C   LIG d   1       8.818   1.655  -6.403  0.00  0.00    -0.019 A 
ATOM     34  C   LIG d   1       7.801   1.031  -5.716  0.00  0.00    -0.044 A 
ATOM     35  H   LIG d   1       8.995   1.414  -7.441  0.00  0.00     0.065 H 
ATOM     36  H   LIG d   1       7.181   0.301  -6.215  0.00  0.00     0.063 H 
BRANCH  31  37
ATOM     37  O   LIG d   1      10.625   3.200  -6.440  0.00  0.00    -0.507 OA
ATOM     38  H   LIG d   1      10.386   4.062  -6.808  0.00  0.00     0.292 HD
ENDBRANCH  31  37
ENDBRANCH  25  27
ENDBRANCH  24  25
ENDBRANCH   4  24
BRANCH   6  39
ATOM     39  C   LIG d   1       2.639   0.362  -5.181  0.00  0.00    -0.040 C 
ATOM     40  H   LIG d   1       2.380   0.586  -4.147  0.00  0.00     0.028 H 
ATOM     41  H   LIG d   1       2.641   1.282  -5.763  0.00  0.00     0.028 H 
ATOM     42  H   LIG d   1       1.906  -0.330  -5.598  0.00  0.00     0.028 H 
ENDBRANCH   6  39
BRANCH   1  43
ATOM     43  C   LIG d   1       7.030  -4.452  -5.655  0.00  0.00    -0.044 C 
ATOM     44  H   LIG d   1       6.940  -4.906  -6.642  0.00  0.00     0.027 H 
ATOM     45  H   LIG d   1       7.868  -3.755  -5.651  0.00  0.00     0.027 H 
ATOM     46  H   LIG d   1       7.201  -5.231  -4.911  0.00  0.00     0.027 H 
ENDBRANCH   1  43
BRANCH   8  47
ATOM     47  O   LIG d   1       4.748   1.315  -8.090  0.00  0.00    -0.387 OA
ATOM     48  H   LIG d   1       4.814   1.379  -9.052  0.00  0.00     0.210 HD
ENDBRANCH   8  47
BRANCH  10  49
ATOM     49  C   LIG d   1       5.434  -0.987  -9.329  0.00  0.00    -0.057 C 
ATOM     50  H   LIG d   1       5.476  -0.353 -10.215  0.00  0.00     0.024 H 
ATOM     51  H   LIG d   1       6.172  -0.647  -8.603  0.00  0.00     0.024 H 
ATOM     52  H   LIG d   1       5.650  -2.018  -9.610  0.00  0.00     0.024 H 
ENDBRANCH  10  49
BRANCH  10  53
ATOM     53  C   LIG d   1       3.016  -0.570  -9.797  0.00  0.00    -0.057 C 
ATOM     54  H   LIG d   1       2.043  -0.976  -9.521  0.00  0.00     0.024 H 
ATOM     55  H   LIG d   1       2.942   0.512  -9.901  0.00  0.00     0.024 H 
ATOM     56  H   LIG d   1       3.335  -1.005 -10.744  0.00  0.00     0.024 H 
ENDBRANCH  10  53
TORSDOF 9
ENDMDL
MODEL 9
REMARK VINA RESULT:      -5.4      2.675      5.003
REMARK  9 active torsions:
REMARK  status: ('A' for Active; 'I' for Inactive)
REMARK    1  A    between atoms: C_1  and  C_2 
REMARK    2  A    between atoms: C_5  and  O_19 
REMARK    3  A    between atoms: C_7  and  C_18 
REMARK    4  A    between atoms: C_9  and  O_17 
REMARK    5  A    between atoms: C_11  and  C_15 
REMARK    6  A    between atoms: C_11  and  C_16 
REMARK    7  A    between atoms: O_19  and  C_20 
REMARK    8  A    between atoms: C_20  and  C_22 
REMARK    9  A    between atoms: C_25  and  O_28 
ROOT
ATOM      1  C   LIG d   1       7.903   0.888  -9.094  0.00  0.00    -0.076 C 
ATOM      2  C   LIG d   1       8.438  -0.020  -8.317  0.00  0.00    -0.081 C 
ATOM      3  C   LIG d   1       7.980  -1.453  -8.407  0.00  0.00     0.007 C 
ATOM      4  C   LIG d   1       7.177  -1.810  -7.155  0.00  0.00     0.128 C 
ATOM      5  H   LIG d   1       7.499  -2.783  -6.781  0.00  0.00     0.079 H 
ATOM      6  C   LIG d   1       5.710  -1.865  -7.498  0.00  0.00    -0.034 C 
ATOM      7  C   LIG d   1       5.003  -0.763  -7.530  0.00  0.00    -0.053 C 
ATOM      8  C   LIG d   1       3.536  -0.818  -7.869  0.00  0.00     0.079 C 
ATOM      9  H   LIG d   1       3.277  -1.826  -8.195  0.00  0.00     0.064 H 
ATOM     10  C   LIG d   1       3.238   0.175  -8.994  0.00  0.00    -0.005 C 
ATOM     11  C   LIG d   1       4.360   0.120 -10.033  0.00  0.00    -0.045 C 
ATOM     12  C   LIG d   1       5.486   1.070  -9.618  0.00  0.00    -0.049 C 
ATOM     13  C   LIG d   1       6.830   0.501 -10.079  0.00  0.00    -0.032 C 
ATOM     14  H   LIG d   1       9.207   0.258  -7.612  0.00  0.00     0.057 H 
ATOM     15  H   LIG d   1       8.849  -2.107  -8.480  0.00  0.00     0.035 H 
ATOM     16  H   LIG d   1       7.354  -1.580  -9.289  0.00  0.00     0.035 H 
ATOM     17  H   LIG d   1       5.470   0.185  -7.305  0.00  0.00     0.060 H 
ATOM     18  H   LIG d   1       3.970   0.421 -11.005  0.00  0.00     0.027 H 
ATOM     19  H   LIG d   1       4.748  -0.897 -10.096  0.00  0.00     0.027 H 
ATOM     20  H   LIG d   1       5.490   1.178  -8.534  0.00  0.00     0.027 H 
ATOM     21  H   LIG d   1       5.326   2.045 -10.080  0.00  0.00     0.027 H 
ATOM     22  H   LIG d   1       7.076   0.901 -11.062  0.00  0.00     0.031 H 
ATOM     23  H   LIG d   1       6.763  -0.586 -10.135  0.00  0.00     0.031 H 
ENDROOT
BRANCH   4  24
ATOM     24  O   LIG d   1       7.397  -0.802  -6.133  0.00  0.00    -0.453 OA
BRANCH  24  25
ATOM     25  C   LIG d   1       7.210  -1.178  -4.852  0.00  0.00     0.340 C 
ATOM     26  O   LIG d   1       7.894  -2.059  -4.372  0.00  0.00    -0.245 OA
BRANCH  25  27
ATOM     27  C   LIG d   1       6.174  -0.519  -4.035  0.00  0.00     0.059 A 
ATOM     28  C   LIG d   1       6.410   0.746  -3.491  0.00  0.00    -0.044 A 
ATOM     29  C   LIG d   1       5.442   1.357  -2.728  0.00  0.00    -0.019 A 
ATOM     30  H   LIG d   1       7.353   1.244  -3.667  0.00  0.00     0.063 H 
ATOM     31  C   LIG d   1       4.228   0.718  -2.499  0.00  0.00     0.117 A 
ATOM     32  H   LIG d   1       5.623   2.335  -2.306  0.00  0.00     0.065 H 
ATOM     33  C   LIG d   1       3.989  -0.541  -3.039  0.00  0.00    -0.019 A 
ATOM     34  C   LIG d   1       4.951  -1.157  -3.807  0.00  0.00    -0.044 A 
ATOM     35  H   LIG d   1       3.046  -1.034  -2.858  0.00  0.00     0.065 H 
ATOM     36  H   LIG d   1       4.762  -2.132  -4.229  0.00  0.00     0.063 H 
BRANCH  31  37
ATOM     37  O   LIG d   1       3.275   1.324  -1.747  0.00  0.00    -0.507 OA
ATOM     38  H   LIG d   1       3.628   1.894  -1.050  0.00  0.00     0.292 HD
ENDBRANCH  31  37
ENDBRANCH  25  27
ENDBRANCH  24  25
ENDBRANCH   4  24
BRANCH   6  39
ATOM     39  C   LIG d   1       5.059  -3.188  -7.811  0.00  0.00    -0.040 C 
ATOM     40  H   LIG d   1       3.987  -3.119  -7.626  0.00  0.00     0.028 H 
ATOM     41  H   LIG d   1       5.232  -3.440  -8.856  0.00  0.00     0.028 H 
ATOM     42  H   LIG d   1       5.488  -3.963  -7.175  0.00  0.00     0.028 H 
ENDBRANCH   6  39
BRANCH   1  43
ATOM     43  C   LIG d   1       8.360   2.321  -9.004  0.00  0.00    -0.044 C 
ATOM     44  H   LIG d   1       8.321   2.778  -9.994  0.00  0.00     0.027 H 
ATOM     45  H   LIG d   1       7.706   2.870  -8.327  0.00  0.00     0.027 H 
ATOM     46  H   LIG d   1       9.383   2.354  -8.629  0.00  0.00     0.027 H 
ENDBRANCH   1  43
BRANCH   8  47
ATOM     47  O   LIG d   1       2.763  -0.477  -6.716  0.00  0.00    -0.387 OA
ATOM     48  H   LIG d   1       2.497   0.452  -6.682  0.00  0.00     0.210 HD
ENDBRANCH   8  47
BRANCH  10  49
ATOM     49  C   LIG d   1       3.147   1.589  -8.416  0.00  0.00    -0.057 C 
ATOM     50  H   LIG d   1       2.787   1.540  -7.389  0.00  0.00     0.024 H 
ATOM     51  H   LIG d   1       4.133   2.052  -8.435  0.00  0.00     0.024 H 
ATOM     52  H   LIG d   1       2.456   2.182  -9.015  0.00  0.00     0.024 H 
ENDBRANCH  10  49
BRANCH  10  53
ATOM     53  C   LIG d   1       1.910  -0.190  -9.659  0.00  0.00    -0.057 C 
ATOM     54  H   LIG d   1       1.817  -1.275  -9.713  0.00  0.00     0.024 H 
ATOM     55  H   LIG d   1       1.086   0.216  -9.073  0.00  0.00     0.024 H 
ATOM     56  H   LIG d   1       1.880   0.227 -10.666  0.00  0.00     0.024 H 
ENDBRANCH  10  53
TORSDOF 9
ENDMDL
