MODEL 1
REMARK VINA RESULT:      -6.4      0.000      0.000
REMARK  11 active torsions:
REMARK  status: ('A' for Active; 'I' for Inactive)
REMARK    1  A    between atoms: C_1  and  O_2 
REMARK    2  A    between atoms: O_2  and  C_3 
REMARK    3  A    between atoms: C_3  and  C_4 
REMARK       I    between atoms: N_9  and  C_10 
REMARK    4  A    between atoms: C_10  and  C_12 
REMARK    5  A    between atoms: C_12  and  C_13 
REMARK    6  A    between atoms: C_15  and  O_34 
REMARK    7  A    between atoms: C_17  and  O_33 
REMARK    8  A    between atoms: C_19  and  C_22 
REMARK    9  A    between atoms: C_22  and  N_23 
REMARK   10  A    between atoms: N_23  and  S_24 
REMARK   11  A    between atoms: S_24  and  C_27 
ROOT
ATOM      1  C   LIG d   1      10.301   5.052  -3.863  0.00  0.00     0.096 C 
ATOM      2  H   LIG d   1      11.284   5.395  -4.186  0.00  0.00     0.063 H 
ATOM      3  C   LIG d   1      10.454   3.871  -2.886  0.00  0.00     0.110 C 
ATOM      4  H   LIG d   1       9.952   4.088  -1.944  0.00  0.00     0.065 H 
ATOM      5  C   LIG d   1       9.764   2.689  -3.610  0.00  0.00     0.111 C 
ATOM      6  H   LIG d   1       8.742   2.559  -3.257  0.00  0.00     0.065 H 
ATOM      7  C   LIG d   1       9.786   3.155  -5.087  0.00  0.00     0.102 C 
ATOM      8  H   LIG d   1      10.756   2.954  -5.542  0.00  0.00     0.064 H 
ATOM      9  O   LIG d   1       9.553   4.577  -4.995  0.00  0.00    -0.366 OA
ENDROOT
BRANCH   1  10
ATOM     10  C   LIG d   1       9.546   6.196  -3.183  0.00  0.00     0.053 C 
ATOM     11  H   LIG d   1       8.850   6.643  -3.891  0.00  0.00     0.038 H 
ATOM     12  H   LIG d   1       8.995   5.808  -2.326  0.00  0.00     0.038 H 
BRANCH  10  13
ATOM     13  C   LIG d   1      10.529   7.240  -2.718  0.00  0.00     0.218 C 
ATOM     14  N   LIG d   1      10.854   7.326  -1.413  0.00  0.00    -0.296 N 
ATOM     15  C   LIG d   1      11.797   8.288  -0.826  0.00  0.00     0.049 C 
ATOM     16  C   LIG d   1      10.325   6.466  -0.338  0.00  0.00     0.015 C 
ATOM     17  H   LIG d   1      12.782   8.163  -1.276  0.00  0.00     0.052 H 
ATOM     18  C   LIG d   1      11.868   7.996   0.688  0.00  0.00    -0.031 C 
ATOM     19  C   LIG d   1      11.400   6.519   0.777  0.00  0.00    -0.035 C 
ATOM     20  H   LIG d   1      11.193   8.648   1.242  0.00  0.00     0.028 H 
ATOM     21  H   LIG d   1      12.890   8.099   1.051  0.00  0.00     0.028 H 
ATOM     22  H   LIG d   1      10.961   6.307   1.752  0.00  0.00     0.028 H 
ATOM     23  H   LIG d   1      12.220   5.835   0.561  0.00  0.00     0.028 H 
ATOM     24  H   LIG d   1       9.377   6.859   0.030  0.00  0.00     0.046 H 
ATOM     25  H   LIG d   1      10.198   5.445  -0.697  0.00  0.00     0.046 H 
ATOM     26  O   LIG d   1      11.028   8.002  -3.518  0.00  0.00    -0.276 OA
BRANCH  15  27
ATOM     27  C   LIG d   1      11.295   9.715  -1.055  0.00  0.00     0.066 C 
ATOM     28  H   LIG d   1      12.123  10.414  -0.937  0.00  0.00     0.058 H 
ATOM     29  H   LIG d   1      10.889   9.800  -2.063  0.00  0.00     0.058 H 
BRANCH  27  30
ATOM     30  O   LIG d   1      10.274  10.019  -0.103  0.00  0.00    -0.381 OA
BRANCH  30  31
ATOM     31  C   LIG d   1       8.952  10.008  -0.645  0.00  0.00     0.036 C 
ATOM     32  H   LIG d   1       8.863  10.785  -1.406  0.00  0.00     0.052 H 
ATOM     33  H   LIG d   1       8.752   9.035  -1.095  0.00  0.00     0.052 H 
ATOM     34  H   LIG d   1       8.231  10.195   0.151  0.00  0.00     0.052 H 
ENDBRANCH  30  31
ENDBRANCH  27  30
ENDBRANCH  15  27
ENDBRANCH  10  13
ENDBRANCH   1  10
BRANCH   3  35
ATOM     35  O   LIG d   1      11.836   3.582  -2.662  0.00  0.00    -0.387 OA
ATOM     36  H   LIG d   1      12.383   3.636  -3.457  0.00  0.00     0.210 HD
ENDBRANCH   3  35
BRANCH   7  37
ATOM     37  C   LIG d   1       8.669   2.477  -5.883  0.00  0.00     0.046 C 
ATOM     38  H   LIG d   1       9.088   1.666  -6.478  0.00  0.00     0.047 H 
ATOM     39  H   LIG d   1       8.197   3.205  -6.543  0.00  0.00     0.047 H 
BRANCH  37  40
ATOM     40  N   LIG d   1       7.669   1.937  -4.958  0.00  0.00    -0.187 N 
ATOM     41  H   LIG d   1       7.270   2.512  -4.286  0.00  0.00     0.148 HD
BRANCH  40  42
ATOM     42  S   LIG d   1       7.215   0.348  -5.063  0.00  0.00     0.059 S 
ATOM     43  O   LIG d   1       6.474   0.217  -6.268  0.00  0.00    -0.153 OA
ATOM     44  O   LIG d   1       8.377  -0.424  -4.795  0.00  0.00    -0.153 OA
BRANCH  42  45
ATOM     45  C   LIG d   1       6.089   0.040  -3.743  0.00  0.00     0.105 A 
ATOM     46  C   LIG d   1       5.625   1.088  -2.971  0.00  0.00    -0.035 A 
ATOM     47  C   LIG d   1       4.742   0.847  -1.936  0.00  0.00    -0.060 A 
ATOM     48  H   LIG d   1       5.952   2.097  -3.177  0.00  0.00     0.064 H 
ATOM     49  C   LIG d   1       4.323  -0.444  -1.672  0.00  0.00    -0.062 A 
ATOM     50  H   LIG d   1       4.379   1.665  -1.332  0.00  0.00     0.062 H 
ATOM     51  C   LIG d   1       4.786  -1.493  -2.443  0.00  0.00    -0.060 A 
ATOM     52  H   LIG d   1       3.633  -0.633  -0.862  0.00  0.00     0.062 H 
ATOM     53  C   LIG d   1       5.666  -1.251  -3.483  0.00  0.00    -0.035 A 
ATOM     54  H   LIG d   1       4.460  -2.502  -2.237  0.00  0.00     0.062 H 
ATOM     55  H   LIG d   1       6.025  -2.069  -4.089  0.00  0.00     0.064 H 
ENDBRANCH  42  45
ENDBRANCH  40  42
ENDBRANCH  37  40
ENDBRANCH   7  37
BRANCH   5  56
ATOM     56  O   LIG d   1      10.514   1.483  -3.446  0.00  0.00    -0.387 OA
ATOM     57  H   LIG d   1      11.289   1.576  -2.873  0.00  0.00     0.210 HD
ENDBRANCH   5  56
TORSDOF 11
ENDMDL
MODEL 2
REMARK VINA RESULT:      -6.4      7.190     11.140
REMARK  11 active torsions:
REMARK  status: ('A' for Active; 'I' for Inactive)
REMARK    1  A    between atoms: C_1  and  O_2 
REMARK    2  A    between atoms: O_2  and  C_3 
REMARK    3  A    between atoms: C_3  and  C_4 
REMARK       I    between atoms: N_9  and  C_10 
REMARK    4  A    between atoms: C_10  and  C_12 
REMARK    5  A    between atoms: C_12  and  C_13 
REMARK    6  A    between atoms: C_15  and  O_34 
REMARK    7  A    between atoms: C_17  and  O_33 
REMARK    8  A    between atoms: C_19  and  C_22 
REMARK    9  A    between atoms: C_22  and  N_23 
REMARK   10  A    between atoms: N_23  and  S_24 
REMARK   11  A    between atoms: S_24  and  C_27 
ROOT
ATOM      1  C   LIG d   1       4.292   1.170  -9.277  0.00  0.00     0.096 C 
ATOM      2  H   LIG d   1       4.813   2.087  -9.001  0.00  0.00     0.063 H 
ATOM      3  C   LIG d   1       2.952   1.081  -8.523  0.00  0.00     0.110 C 
ATOM      4  H   LIG d   1       2.126   0.973  -9.225  0.00  0.00     0.065 H 
ATOM      5  C   LIG d   1       3.093  -0.189  -7.649  0.00  0.00     0.111 C 
ATOM      6  H   LIG d   1       2.624  -1.047  -8.131  0.00  0.00     0.065 H 
ATOM      7  C   LIG d   1       4.631  -0.365  -7.578  0.00  0.00     0.102 C 
ATOM      8  H   LIG d   1       5.059   0.286  -6.817  0.00  0.00     0.064 H 
ATOM      9  O   LIG d   1       5.076   0.029  -8.893  0.00  0.00    -0.366 OA
ENDROOT
BRANCH   1  10
ATOM     10  C   LIG d   1       4.043   1.147 -10.787  0.00  0.00     0.053 C 
ATOM     11  H   LIG d   1       3.012   1.435 -10.989  0.00  0.00     0.038 H 
ATOM     12  H   LIG d   1       4.719   1.847 -11.278  0.00  0.00     0.038 H 
BRANCH  10  13
ATOM     13  C   LIG d   1       4.289  -0.243 -11.315  0.00  0.00     0.218 C 
ATOM     14  N   LIG d   1       3.249  -1.069 -11.549  0.00  0.00    -0.296 N 
ATOM     15  C   LIG d   1       3.345  -2.441 -12.066  0.00  0.00     0.049 C 
ATOM     16  C   LIG d   1       1.828  -0.743 -11.333  0.00  0.00     0.015 C 
ATOM     17  H   LIG d   1       3.829  -2.436 -13.043  0.00  0.00     0.052 H 
ATOM     18  C   LIG d   1       1.906  -2.985 -12.194  0.00  0.00    -0.031 C 
ATOM     19  C   LIG d   1       1.055  -1.691 -12.284  0.00  0.00    -0.035 C 
ATOM     20  H   LIG d   1       1.631  -3.566 -11.314  0.00  0.00     0.028 H 
ATOM     21  H   LIG d   1       1.801  -3.581 -13.100  0.00  0.00     0.028 H 
ATOM     22  H   LIG d   1       0.041  -1.865 -11.923  0.00  0.00     0.028 H 
ATOM     23  H   LIG d   1       1.045  -1.300 -13.302  0.00  0.00     0.028 H 
ATOM     24  H   LIG d   1       1.547  -0.934 -10.297  0.00  0.00     0.046 H 
ATOM     25  H   LIG d   1       1.634   0.298 -11.592  0.00  0.00     0.046 H 
ATOM     26  O   LIG d   1       5.422  -0.619 -11.530  0.00  0.00    -0.276 OA
BRANCH  15  27
ATOM     27  C   LIG d   1       4.143  -3.311 -11.092  0.00  0.00     0.066 C 
ATOM     28  H   LIG d   1       4.283  -4.302 -11.522  0.00  0.00     0.058 H 
ATOM     29  H   LIG d   1       5.115  -2.853 -10.910  0.00  0.00     0.058 H 
BRANCH  27  30
ATOM     30  O   LIG d   1       3.430  -3.422  -9.859  0.00  0.00    -0.381 OA
BRANCH  30  31
ATOM     31  C   LIG d   1       3.519  -4.711  -9.250  0.00  0.00     0.036 C 
ATOM     32  H   LIG d   1       4.471  -5.173  -9.513  0.00  0.00     0.052 H 
ATOM     33  H   LIG d   1       3.453  -4.607  -8.168  0.00  0.00     0.052 H 
ATOM     34  H   LIG d   1       2.701  -5.338  -9.606  0.00  0.00     0.052 H 
ENDBRANCH  30  31
ENDBRANCH  27  30
ENDBRANCH  15  27
ENDBRANCH  10  13
ENDBRANCH   1  10
BRANCH   3  35
ATOM     35  O   LIG d   1       2.762   2.234  -7.701  0.00  0.00    -0.387 OA
ATOM     36  H   LIG d   1       2.682   2.037  -6.758  0.00  0.00     0.210 HD
ENDBRANCH   3  35
BRANCH   7  37
ATOM     37  C   LIG d   1       4.994  -1.826  -7.301  0.00  0.00     0.046 C 
ATOM     38  H   LIG d   1       6.059  -1.900  -7.081  0.00  0.00     0.047 H 
ATOM     39  H   LIG d   1       4.761  -2.431  -8.177  0.00  0.00     0.047 H 
BRANCH  37  40
ATOM     40  N   LIG d   1       4.223  -2.312  -6.153  0.00  0.00    -0.187 N 
ATOM     41  H   LIG d   1       3.274  -2.489  -6.247  0.00  0.00     0.148 HD
BRANCH  40  42
ATOM     42  S   LIG d   1       4.973  -2.564  -4.699  0.00  0.00     0.059 S 
ATOM     43  O   LIG d   1       4.284  -3.634  -4.068  0.00  0.00    -0.153 OA
ATOM     44  O   LIG d   1       6.368  -2.605  -4.964  0.00  0.00    -0.153 OA
BRANCH  42  45
ATOM     45  C   LIG d   1       4.690  -1.131  -3.711  0.00  0.00     0.105 A 
ATOM     46  C   LIG d   1       5.718  -0.236  -3.483  0.00  0.00    -0.035 A 
ATOM     47  C   LIG d   1       5.496   0.888  -2.709  0.00  0.00    -0.060 A 
ATOM     48  H   LIG d   1       6.694  -0.414  -3.909  0.00  0.00     0.064 H 
ATOM     49  C   LIG d   1       4.247   1.115  -2.164  0.00  0.00    -0.062 A 
ATOM     50  H   LIG d   1       6.299   1.588  -2.530  0.00  0.00     0.062 H 
ATOM     51  C   LIG d   1       3.219   0.221  -2.392  0.00  0.00    -0.060 A 
ATOM     52  H   LIG d   1       4.074   1.994  -1.558  0.00  0.00     0.062 H 
ATOM     53  C   LIG d   1       3.439  -0.901  -3.171  0.00  0.00    -0.035 A 
ATOM     54  H   LIG d   1       2.242   0.398  -1.966  0.00  0.00     0.062 H 
ATOM     55  H   LIG d   1       2.635  -1.598  -3.353  0.00  0.00     0.064 H 
ENDBRANCH  42  45
ENDBRANCH  40  42
ENDBRANCH  37  40
ENDBRANCH   7  37
BRANCH   5  56
ATOM     56  O   LIG d   1       2.544   0.024  -6.347  0.00  0.00    -0.387 OA
ATOM     57  H   LIG d   1       1.625   0.326  -6.353  0.00  0.00     0.210 HD
ENDBRANCH   5  56
TORSDOF 11
ENDMDL
MODEL 3
REMARK VINA RESULT:      -6.4      1.142      1.550
REMARK  11 active torsions:
REMARK  status: ('A' for Active; 'I' for Inactive)
REMARK    1  A    between atoms: C_1  and  O_2 
REMARK    2  A    between atoms: O_2  and  C_3 
REMARK    3  A    between atoms: C_3  and  C_4 
REMARK       I    between atoms: N_9  and  C_10 
REMARK    4  A    between atoms: C_10  and  C_12 
REMARK    5  A    between atoms: C_12  and  C_13 
REMARK    6  A    between atoms: C_15  and  O_34 
REMARK    7  A    between atoms: C_17  and  O_33 
REMARK    8  A    between atoms: C_19  and  C_22 
REMARK    9  A    between atoms: C_22  and  N_23 
REMARK   10  A    between atoms: N_23  and  S_24 
REMARK   11  A    between atoms: S_24  and  C_27 
ROOT
ATOM      1  C   LIG d   1       9.993   5.174  -4.407  0.00  0.00     0.096 C 
ATOM      2  H   LIG d   1      11.049   5.399  -4.559  0.00  0.00     0.063 H 
ATOM      3  C   LIG d   1       9.822   4.275  -3.168  0.00  0.00     0.110 C 
ATOM      4  H   LIG d   1       9.141   4.736  -2.453  0.00  0.00     0.065 H 
ATOM      5  C   LIG d   1       9.214   2.967  -3.732  0.00  0.00     0.111 C 
ATOM      6  H   LIG d   1       8.131   2.957  -3.613  0.00  0.00     0.065 H 
ATOM      7  C   LIG d   1       9.606   3.044  -5.229  0.00  0.00     0.102 C 
ATOM      8  H   LIG d   1      10.633   2.709  -5.377  0.00  0.00     0.064 H 
ATOM      9  O   LIG d   1       9.481   4.449  -5.537  0.00  0.00    -0.366 OA
ENDROOT
BRANCH   1  10
ATOM     10  C   LIG d   1       9.205   6.472  -4.221  0.00  0.00     0.053 C 
ATOM     11  H   LIG d   1       8.657   6.698  -5.134  0.00  0.00     0.038 H 
ATOM     12  H   LIG d   1       8.503   6.355  -3.395  0.00  0.00     0.038 H 
BRANCH  10  13
ATOM     13  C   LIG d   1      10.158   7.599  -3.915  0.00  0.00     0.218 C 
ATOM     14  N   LIG d   1      10.232   8.098  -2.665  0.00  0.00    -0.296 N 
ATOM     15  C   LIG d   1      11.117   9.188  -2.229  0.00  0.00     0.049 C 
ATOM     16  C   LIG d   1       9.441   7.639  -1.508  0.00  0.00     0.015 C 
ATOM     17  H   LIG d   1      12.157   8.912  -2.402  0.00  0.00     0.052 H 
ATOM     18  C   LIG d   1      10.873   9.400  -0.719  0.00  0.00    -0.031 C 
ATOM     19  C   LIG d   1      10.283   8.037  -0.269  0.00  0.00    -0.035 C 
ATOM     20  H   LIG d   1      10.157  10.204  -0.551  0.00  0.00     0.028 H 
ATOM     21  H   LIG d   1      11.811   9.603  -0.204  0.00  0.00     0.028 H 
ATOM     22  H   LIG d   1       9.650   8.157   0.610  0.00  0.00     0.028 H 
ATOM     23  H   LIG d   1      11.074   7.310  -0.085  0.00  0.00     0.028 H 
ATOM     24  H   LIG d   1       8.474   8.140  -1.486  0.00  0.00     0.046 H 
ATOM     25  H   LIG d   1       9.307   6.558  -1.546  0.00  0.00     0.046 H 
ATOM     26  O   LIG d   1      10.859   8.056  -4.792  0.00  0.00    -0.276 OA
BRANCH  15  27
ATOM     27  C   LIG d   1      10.780  10.470  -2.992  0.00  0.00     0.066 C 
ATOM     28  H   LIG d   1      11.673  11.090  -3.072  0.00  0.00     0.058 H 
ATOM     29  H   LIG d   1      10.425  10.215  -3.991  0.00  0.00     0.058 H 
BRANCH  27  30
ATOM     30  O   LIG d   1       9.762  11.188  -2.294  0.00  0.00    -0.381 OA
BRANCH  30  31
ATOM     31  C   LIG d   1       8.616  11.495  -3.090  0.00  0.00     0.036 C 
ATOM     32  H   LIG d   1       8.372  12.553  -2.984  0.00  0.00     0.052 H 
ATOM     33  H   LIG d   1       8.831  11.275  -4.135  0.00  0.00     0.052 H 
ATOM     34  H   LIG d   1       7.770  10.892  -2.758  0.00  0.00     0.052 H 
ENDBRANCH  30  31
ENDBRANCH  27  30
ENDBRANCH  15  27
ENDBRANCH  10  13
ENDBRANCH   1  10
BRANCH   3  35
ATOM     35  O   LIG d   1      11.088   4.015  -2.558  0.00  0.00    -0.387 OA
ATOM     36  H   LIG d   1      11.727   4.734  -2.658  0.00  0.00     0.210 HD
ENDBRANCH   3  35
BRANCH   7  37
ATOM     37  C   LIG d   1       8.643   2.217  -6.082  0.00  0.00     0.046 C 
ATOM     38  H   LIG d   1       9.173   1.362  -6.503  0.00  0.00     0.047 H 
ATOM     39  H   LIG d   1       8.249   2.834  -6.889  0.00  0.00     0.047 H 
BRANCH  37  40
ATOM     40  N   LIG d   1       7.536   1.741  -5.247  0.00  0.00    -0.187 N 
ATOM     41  H   LIG d   1       6.972   2.378  -4.782  0.00  0.00     0.148 HD
BRANCH  40  42
ATOM     42  S   LIG d   1       7.245   0.118  -5.103  0.00  0.00     0.059 S 
ATOM     43  O   LIG d   1       6.562  -0.279  -6.284  0.00  0.00    -0.153 OA
ATOM     44  O   LIG d   1       8.468  -0.479  -4.693  0.00  0.00    -0.153 OA
BRANCH  42  45
ATOM     45  C   LIG d   1       6.111  -0.092  -3.770  0.00  0.00     0.105 A 
ATOM     46  C   LIG d   1       5.650  -1.354  -3.448  0.00  0.00    -0.035 A 
ATOM     47  C   LIG d   1       4.761  -1.519  -2.402  0.00  0.00    -0.060 A 
ATOM     48  H   LIG d   1       5.984  -2.212  -4.012  0.00  0.00     0.064 H 
ATOM     49  C   LIG d   1       4.333  -0.421  -1.679  0.00  0.00    -0.062 A 
ATOM     50  H   LIG d   1       4.400  -2.505  -2.149  0.00  0.00     0.062 H 
ATOM     51  C   LIG d   1       4.795   0.841  -2.001  0.00  0.00    -0.060 A 
ATOM     52  H   LIG d   1       3.638  -0.549  -0.862  0.00  0.00     0.062 H 
ATOM     53  C   LIG d   1       5.688   1.006  -3.044  0.00  0.00    -0.035 A 
ATOM     54  H   LIG d   1       4.461   1.700  -1.437  0.00  0.00     0.062 H 
ATOM     55  H   LIG d   1       6.053   1.991  -3.294  0.00  0.00     0.064 H 
ENDBRANCH  42  45
ENDBRANCH  40  42
ENDBRANCH  37  40
ENDBRANCH   7  37
BRANCH   5  56
ATOM     56  O   LIG d   1       9.802   1.822  -3.110  0.00  0.00    -0.387 OA
ATOM     57  H   LIG d   1       9.160   1.220  -2.706  0.00  0.00     0.210 HD
ENDBRANCH   5  56
TORSDOF 11
ENDMDL
MODEL 4
REMARK VINA RESULT:      -6.3      1.305      2.106
REMARK  11 active torsions:
REMARK  status: ('A' for Active; 'I' for Inactive)
REMARK    1  A    between atoms: C_1  and  O_2 
REMARK    2  A    between atoms: O_2  and  C_3 
REMARK    3  A    between atoms: C_3  and  C_4 
REMARK       I    between atoms: N_9  and  C_10 
REMARK    4  A    between atoms: C_10  and  C_12 
REMARK    5  A    between atoms: C_12  and  C_13 
REMARK    6  A    between atoms: C_15  and  O_34 
REMARK    7  A    between atoms: C_17  and  O_33 
REMARK    8  A    between atoms: C_19  and  C_22 
REMARK    9  A    between atoms: C_22  and  N_23 
REMARK   10  A    between atoms: N_23  and  S_24 
REMARK   11  A    between atoms: S_24  and  C_27 
ROOT
ATOM      1  C   LIG d   1      10.132   5.568  -3.278  0.00  0.00     0.096 C 
ATOM      2  H   LIG d   1      11.106   5.974  -3.555  0.00  0.00     0.063 H 
ATOM      3  C   LIG d   1      10.313   4.397  -2.293  0.00  0.00     0.110 C 
ATOM      4  H   LIG d   1       9.755   4.580  -1.376  0.00  0.00     0.065 H 
ATOM      5  C   LIG d   1       9.735   3.175  -3.048  0.00  0.00     0.111 C 
ATOM      6  H   LIG d   1       8.707   2.980  -2.743  0.00  0.00     0.065 H 
ATOM      7  C   LIG d   1       9.797   3.645  -4.523  0.00  0.00     0.102 C 
ATOM      8  H   LIG d   1      10.798   3.507  -4.931  0.00  0.00     0.064 H 
ATOM      9  O   LIG d   1       9.470   5.049  -4.443  0.00  0.00    -0.366 OA
ENDROOT
BRANCH   1  10
ATOM     10  C   LIG d   1       9.275   6.661  -2.636  0.00  0.00     0.053 C 
ATOM     11  H   LIG d   1       9.025   7.413  -3.383  0.00  0.00     0.038 H 
ATOM     12  H   LIG d   1       8.358   6.219  -2.244  0.00  0.00     0.038 H 
BRANCH  10  13
ATOM     13  C   LIG d   1      10.044   7.306  -1.511  0.00  0.00     0.218 C 
ATOM     14  N   LIG d   1      10.835   8.368  -1.758  0.00  0.00    -0.296 N 
ATOM     15  C   LIG d   1      11.632   9.094  -0.759  0.00  0.00     0.049 C 
ATOM     16  C   LIG d   1      11.040   8.999  -3.075  0.00  0.00     0.015 C 
ATOM     17  H   LIG d   1      10.978   9.498   0.014  0.00  0.00     0.052 H 
ATOM     18  C   LIG d   1      12.353  10.243  -1.494  0.00  0.00    -0.031 C 
ATOM     19  C   LIG d   1      11.475  10.452  -2.756  0.00  0.00    -0.035 C 
ATOM     20  H   LIG d   1      13.366   9.951  -1.773  0.00  0.00     0.028 H 
ATOM     21  H   LIG d   1      12.366  11.143  -0.879  0.00  0.00     0.028 H 
ATOM     22  H   LIG d   1      12.060  10.872  -3.574  0.00  0.00     0.028 H 
ATOM     23  H   LIG d   1      10.611  11.077  -2.532  0.00  0.00     0.028 H 
ATOM     24  H   LIG d   1      11.825   8.480  -3.626  0.00  0.00     0.046 H 
ATOM     25  H   LIG d   1      10.112   8.995  -3.646  0.00  0.00     0.046 H 
ATOM     26  O   LIG d   1       9.950   6.869  -0.384  0.00  0.00    -0.276 OA
BRANCH  15  27
ATOM     27  C   LIG d   1      12.663   8.153  -0.132  0.00  0.00     0.066 C 
ATOM     28  H   LIG d   1      12.632   7.190  -0.641  0.00  0.00     0.058 H 
ATOM     29  H   LIG d   1      13.658   8.586  -0.233  0.00  0.00     0.058 H 
BRANCH  27  30
ATOM     30  O   LIG d   1      12.362   7.970   1.252  0.00  0.00    -0.381 OA
BRANCH  30  31
ATOM     31  C   LIG d   1      11.833   9.133   1.892  0.00  0.00     0.036 C 
ATOM     32  H   LIG d   1      11.197   8.833   2.725  0.00  0.00     0.052 H 
ATOM     33  H   LIG d   1      12.652   9.748   2.263  0.00  0.00     0.052 H 
ATOM     34  H   LIG d   1      11.245   9.706   1.174  0.00  0.00     0.052 H 
ENDBRANCH  30  31
ENDBRANCH  27  30
ENDBRANCH  15  27
ENDBRANCH  10  13
ENDBRANCH   1  10
BRANCH   3  35
ATOM     35  O   LIG d   1      11.698   4.196  -2.004  0.00  0.00    -0.387 OA
ATOM     36  H   LIG d   1      11.980   3.272  -2.049  0.00  0.00     0.210 HD
ENDBRANCH   3  35
BRANCH   7  37
ATOM     37  C   LIG d   1       8.764   2.899  -5.370  0.00  0.00     0.046 C 
ATOM     38  H   LIG d   1       9.271   2.179  -6.012  0.00  0.00     0.047 H 
ATOM     39  H   LIG d   1       8.214   3.611  -5.986  0.00  0.00     0.047 H 
BRANCH  37  40
ATOM     40  N   LIG d   1       7.828   2.193  -4.490  0.00  0.00    -0.187 N 
ATOM     41  H   LIG d   1       7.472   2.637  -3.704  0.00  0.00     0.148 HD
BRANCH  40  42
ATOM     42  S   LIG d   1       7.375   0.639  -4.838  0.00  0.00     0.059 S 
ATOM     43  O   LIG d   1       6.694   0.684  -6.083  0.00  0.00    -0.153 OA
ATOM     44  O   LIG d   1       8.520  -0.175  -4.624  0.00  0.00    -0.153 OA
BRANCH  42  45
ATOM     45  C   LIG d   1       6.184   0.160  -3.629  0.00  0.00     0.105 A 
ATOM     46  C   LIG d   1       5.873  -1.175  -3.458  0.00  0.00    -0.035 A 
ATOM     47  C   LIG d   1       4.940  -1.551  -2.510  0.00  0.00    -0.060 A 
ATOM     48  H   LIG d   1       6.359  -1.926  -4.064  0.00  0.00     0.064 H 
ATOM     49  C   LIG d   1       4.318  -0.591  -1.734  0.00  0.00    -0.062 A 
ATOM     50  H   LIG d   1       4.696  -2.594  -2.375  0.00  0.00     0.062 H 
ATOM     51  C   LIG d   1       4.630   0.745  -1.905  0.00  0.00    -0.060 A 
ATOM     52  H   LIG d   1       3.588  -0.884  -0.993  0.00  0.00     0.062 H 
ATOM     53  C   LIG d   1       5.567   1.121  -2.850  0.00  0.00    -0.035 A 
ATOM     54  H   LIG d   1       4.144   1.496  -1.299  0.00  0.00     0.062 H 
ATOM     55  H   LIG d   1       5.814   2.163  -2.981  0.00  0.00     0.064 H 
ENDBRANCH  42  45
ENDBRANCH  40  42
ENDBRANCH  37  40
ENDBRANCH   7  37
BRANCH   5  56
ATOM     56  O   LIG d   1      10.551   2.019  -2.847  0.00  0.00    -0.387 OA
ATOM     57  H   LIG d   1      10.154   1.197  -3.168  0.00  0.00     0.210 HD
ENDBRANCH   5  56
TORSDOF 11
ENDMDL
MODEL 5
REMARK VINA RESULT:      -6.3      7.383      9.974
REMARK  11 active torsions:
REMARK  status: ('A' for Active; 'I' for Inactive)
REMARK    1  A    between atoms: C_1  and  O_2 
REMARK    2  A    between atoms: O_2  and  C_3 
REMARK    3  A    between atoms: C_3  and  C_4 
REMARK       I    between atoms: N_9  and  C_10 
REMARK    4  A    between atoms: C_10  and  C_12 
REMARK    5  A    between atoms: C_12  and  C_13 
REMARK    6  A    between atoms: C_15  and  O_34 
REMARK    7  A    between atoms: C_17  and  O_33 
REMARK    8  A    between atoms: C_19  and  C_22 
REMARK    9  A    between atoms: C_22  and  N_23 
REMARK   10  A    between atoms: N_23  and  S_24 
REMARK   11  A    between atoms: S_24  and  C_27 
ROOT
ATOM      1  C   LIG d   1       5.784  -4.084  -5.660  0.00  0.00     0.096 C 
ATOM      2  H   LIG d   1       6.276  -4.959  -5.234  0.00  0.00     0.063 H 
ATOM      3  C   LIG d   1       4.275  -4.354  -5.811  0.00  0.00     0.110 C 
ATOM      4  H   LIG d   1       3.697  -3.596  -5.284  0.00  0.00     0.065 H 
ATOM      5  C   LIG d   1       4.026  -4.267  -7.336  0.00  0.00     0.111 C 
ATOM      6  H   LIG d   1       3.651  -3.281  -7.614  0.00  0.00     0.065 H 
ATOM      7  C   LIG d   1       5.445  -4.501  -7.912  0.00  0.00     0.102 C 
ATOM      8  H   LIG d   1       5.677  -5.566  -7.945  0.00  0.00     0.064 H 
ATOM      9  O   LIG d   1       6.306  -3.822  -6.973  0.00  0.00    -0.366 OA
ENDROOT
BRANCH   1  10
ATOM     10  C   LIG d   1       6.008  -2.869  -4.759  0.00  0.00     0.053 C 
ATOM     11  H   LIG d   1       6.705  -3.129  -3.963  0.00  0.00     0.038 H 
ATOM     12  H   LIG d   1       6.421  -2.050  -5.349  0.00  0.00     0.038 H 
BRANCH  10  13
ATOM     13  C   LIG d   1       4.694  -2.442  -4.156  0.00  0.00     0.218 C 
ATOM     14  N   LIG d   1       4.059  -1.351  -4.628  0.00  0.00    -0.296 N 
ATOM     15  C   LIG d   1       2.775  -0.829  -4.138  0.00  0.00     0.049 C 
ATOM     16  C   LIG d   1       4.534  -0.488  -5.725  0.00  0.00     0.015 C 
ATOM     17  H   LIG d   1       1.999  -1.585  -4.252  0.00  0.00     0.052 H 
ATOM     18  C   LIG d   1       2.431   0.412  -4.990  0.00  0.00    -0.031 C 
ATOM     19  C   LIG d   1       3.253   0.182  -6.285  0.00  0.00    -0.035 C 
ATOM     20  H   LIG d   1       2.748   1.327  -4.489  0.00  0.00     0.028 H 
ATOM     21  H   LIG d   1       1.364   0.442  -5.210  0.00  0.00     0.028 H 
ATOM     22  H   LIG d   1       3.489   1.129  -6.771  0.00  0.00     0.028 H 
ATOM     23  H   LIG d   1       2.729  -0.487  -6.967  0.00  0.00     0.028 H 
ATOM     24  H   LIG d   1       5.221   0.267  -5.343  0.00  0.00     0.046 H 
ATOM     25  H   LIG d   1       5.019  -1.087  -6.496  0.00  0.00     0.046 H 
ATOM     26  O   LIG d   1       4.209  -3.080  -3.246  0.00  0.00    -0.276 OA
BRANCH  15  27
ATOM     27  C   LIG d   1       2.903  -0.428  -2.668  0.00  0.00     0.066 C 
ATOM     28  H   LIG d   1       1.916  -0.423  -2.205  0.00  0.00     0.058 H 
ATOM     29  H   LIG d   1       3.543  -1.144  -2.150  0.00  0.00     0.058 H 
BRANCH  27  30
ATOM     30  O   LIG d   1       3.479   0.876  -2.577  0.00  0.00    -0.381 OA
BRANCH  30  31
ATOM     31  C   LIG d   1       4.662   0.936  -1.778  0.00  0.00     0.036 C 
ATOM     32  H   LIG d   1       4.902   1.978  -1.560  0.00  0.00     0.052 H 
ATOM     33  H   LIG d   1       4.497   0.398  -0.845  0.00  0.00     0.052 H 
ATOM     34  H   LIG d   1       5.490   0.479  -2.320  0.00  0.00     0.052 H 
ENDBRANCH  30  31
ENDBRANCH  27  30
ENDBRANCH  15  27
ENDBRANCH  10  13
ENDBRANCH   1  10
BRANCH   3  35
ATOM     35  O   LIG d   1       3.949  -5.658  -5.325  0.00  0.00    -0.387 OA
ATOM     36  H   LIG d   1       4.578  -6.344  -5.587  0.00  0.00     0.210 HD
ENDBRANCH   3  35
BRANCH   7  37
ATOM     37  C   LIG d   1       5.570  -3.882  -9.305  0.00  0.00     0.046 C 
ATOM     38  H   LIG d   1       4.830  -4.327  -9.970  0.00  0.00     0.047 H 
ATOM     39  H   LIG d   1       6.570  -4.068  -9.698  0.00  0.00     0.047 H 
BRANCH  37  40
ATOM     40  N   LIG d   1       5.342  -2.437  -9.220  0.00  0.00    -0.187 N 
ATOM     41  H   LIG d   1       5.765  -1.920  -8.516  0.00  0.00     0.148 HD
BRANCH  40  42
ATOM     42  S   LIG d   1       4.366  -1.685 -10.327  0.00  0.00     0.059 S 
ATOM     43  O   LIG d   1       5.043  -1.749 -11.574  0.00  0.00    -0.153 OA
ATOM     44  O   LIG d   1       3.060  -2.212 -10.139  0.00  0.00    -0.153 OA
BRANCH  42  45
ATOM     45  C   LIG d   1       4.291   0.019  -9.882  0.00  0.00     0.105 A 
ATOM     46  C   LIG d   1       3.084   0.691  -9.926  0.00  0.00    -0.035 A 
ATOM     47  C   LIG d   1       3.024   2.028  -9.577  0.00  0.00    -0.060 A 
ATOM     48  H   LIG d   1       2.187   0.173 -10.233  0.00  0.00     0.064 H 
ATOM     49  C   LIG d   1       4.172   2.691  -9.184  0.00  0.00    -0.062 A 
ATOM     50  H   LIG d   1       2.082   2.554  -9.611  0.00  0.00     0.062 H 
ATOM     51  C   LIG d   1       5.378   2.019  -9.139  0.00  0.00    -0.060 A 
ATOM     52  H   LIG d   1       4.125   3.736  -8.911  0.00  0.00     0.062 H 
ATOM     53  C   LIG d   1       5.437   0.681  -9.484  0.00  0.00    -0.035 A 
ATOM     54  H   LIG d   1       6.275   2.537  -8.833  0.00  0.00     0.062 H 
ATOM     55  H   LIG d   1       6.379   0.154  -9.445  0.00  0.00     0.064 H 
ENDBRANCH  42  45
ENDBRANCH  40  42
ENDBRANCH  37  40
ENDBRANCH   7  37
BRANCH   5  56
ATOM     56  O   LIG d   1       3.126  -5.290  -7.766  0.00  0.00    -0.387 OA
ATOM     57  H   LIG d   1       2.197  -5.019  -7.777  0.00  0.00     0.210 HD
ENDBRANCH   5  56
TORSDOF 11
ENDMDL
MODEL 6
REMARK VINA RESULT:      -5.8      6.063     11.528
REMARK  11 active torsions:
REMARK  status: ('A' for Active; 'I' for Inactive)
REMARK    1  A    between atoms: C_1  and  O_2 
REMARK    2  A    between atoms: O_2  and  C_3 
REMARK    3  A    between atoms: C_3  and  C_4 
REMARK       I    between atoms: N_9  and  C_10 
REMARK    4  A    between atoms: C_10  and  C_12 
REMARK    5  A    between atoms: C_12  and  C_13 
REMARK    6  A    between atoms: C_15  and  O_34 
REMARK    7  A    between atoms: C_17  and  O_33 
REMARK    8  A    between atoms: C_19  and  C_22 
REMARK    9  A    between atoms: C_22  and  N_23 
REMARK   10  A    between atoms: N_23  and  S_24 
REMARK   11  A    between atoms: S_24  and  C_27 
ROOT
ATOM      1  C   LIG d   1       4.097  -0.483  -9.404  0.00  0.00     0.096 C 
ATOM      2  H   LIG d   1       4.215  -0.918 -10.397  0.00  0.00     0.063 H 
ATOM      3  C   LIG d   1       3.958   1.047  -9.516  0.00  0.00     0.110 C 
ATOM      4  H   LIG d   1       3.035   1.382  -9.044  0.00  0.00     0.065 H 
ATOM      5  C   LIG d   1       5.189   1.596  -8.754  0.00  0.00     0.111 C 
ATOM      6  H   LIG d   1       4.925   1.870  -7.733  0.00  0.00     0.065 H 
ATOM      7  C   LIG d   1       6.150   0.380  -8.771  0.00  0.00     0.102 C 
ATOM      8  H   LIG d   1       6.681   0.321  -9.720  0.00  0.00     0.064 H 
ATOM      9  O   LIG d   1       5.266  -0.750  -8.612  0.00  0.00    -0.366 OA
ENDROOT
BRANCH   1  10
ATOM     10  C   LIG d   1       2.860  -1.069  -8.721  0.00  0.00     0.053 C 
ATOM     11  H   LIG d   1       3.141  -1.965  -8.168  0.00  0.00     0.038 H 
ATOM     12  H   LIG d   1       2.441  -0.334  -8.034  0.00  0.00     0.038 H 
BRANCH  10  13
ATOM     13  C   LIG d   1       1.831  -1.425  -9.764  0.00  0.00     0.218 C 
ATOM     14  N   LIG d   1       1.777  -2.679 -10.257  0.00  0.00    -0.296 N 
ATOM     15  C   LIG d   1       0.826  -3.161 -11.268  0.00  0.00     0.049 C 
ATOM     16  C   LIG d   1       2.659  -3.795  -9.866  0.00  0.00     0.015 C 
ATOM     17  H   LIG d   1      -0.195  -3.037 -10.906  0.00  0.00     0.052 H 
ATOM     18  C   LIG d   1       1.124  -4.658 -11.501  0.00  0.00    -0.031 C 
ATOM     19  C   LIG d   1       1.847  -5.074 -10.193  0.00  0.00    -0.035 C 
ATOM     20  H   LIG d   1       1.777  -4.794 -12.363  0.00  0.00     0.028 H 
ATOM     21  H   LIG d   1       0.198  -5.218 -11.625  0.00  0.00     0.028 H 
ATOM     22  H   LIG d   1       2.510  -5.921 -10.366  0.00  0.00     0.028 H 
ATOM     23  H   LIG d   1       1.130  -5.294  -9.402  0.00  0.00     0.028 H 
ATOM     24  H   LIG d   1       3.580  -3.771 -10.447  0.00  0.00     0.046 H 
ATOM     25  H   LIG d   1       2.881  -3.746  -8.800  0.00  0.00     0.046 H 
ATOM     26  O   LIG d   1       1.053  -0.584 -10.160  0.00  0.00    -0.276 OA
BRANCH  15  27
ATOM     27  C   LIG d   1       1.016  -2.386 -12.573  0.00  0.00     0.066 C 
ATOM     28  H   LIG d   1       0.259  -2.698 -13.293  0.00  0.00     0.058 H 
ATOM     29  H   LIG d   1       0.914  -1.318 -12.379  0.00  0.00     0.058 H 
BRANCH  27  30
ATOM     30  O   LIG d   1       2.316  -2.653 -13.101  0.00  0.00    -0.381 OA
BRANCH  30  31
ATOM     31  C   LIG d   1       3.107  -1.483 -13.318  0.00  0.00     0.036 C 
ATOM     32  H   LIG d   1       3.972  -1.737 -13.932  0.00  0.00     0.052 H 
ATOM     33  H   LIG d   1       2.508  -0.729 -13.828  0.00  0.00     0.052 H 
ATOM     34  H   LIG d   1       3.445  -1.090 -12.359  0.00  0.00     0.052 H 
ENDBRANCH  30  31
ENDBRANCH  27  30
ENDBRANCH  15  27
ENDBRANCH  10  13
ENDBRANCH   1  10
BRANCH   3  35
ATOM     35  O   LIG d   1       3.996   1.455 -10.885  0.00  0.00    -0.387 OA
ATOM     36  H   LIG d   1       3.126   1.508 -11.304  0.00  0.00     0.210 HD
ENDBRANCH   3  35
BRANCH   7  37
ATOM     37  C   LIG d   1       7.139   0.459  -7.606  0.00  0.00     0.046 C 
ATOM     38  H   LIG d   1       7.642   1.426  -7.621  0.00  0.00     0.047 H 
ATOM     39  H   LIG d   1       7.878  -0.336  -7.701  0.00  0.00     0.047 H 
BRANCH  37  40
ATOM     40  N   LIG d   1       6.416   0.305  -6.340  0.00  0.00    -0.187 N 
ATOM     41  H   LIG d   1       5.470   0.090  -6.345  0.00  0.00     0.148 HD
BRANCH  40  42
ATOM     42  S   LIG d   1       7.215   0.491  -4.902  0.00  0.00     0.059 S 
ATOM     43  O   LIG d   1       8.234  -0.499  -4.873  0.00  0.00    -0.153 OA
ATOM     44  O   LIG d   1       7.496   1.877  -4.770  0.00  0.00    -0.153 OA
BRANCH  42  45
ATOM     45  C   LIG d   1       6.079   0.082  -3.618  0.00  0.00     0.105 A 
ATOM     46  C   LIG d   1       5.535   1.081  -2.833  0.00  0.00    -0.035 A 
ATOM     47  C   LIG d   1       4.643   0.762  -1.827  0.00  0.00    -0.060 A 
ATOM     48  H   LIG d   1       5.806   2.113  -3.006  0.00  0.00     0.064 H 
ATOM     49  C   LIG d   1       4.296  -0.558  -1.605  0.00  0.00    -0.062 A 
ATOM     50  H   LIG d   1       4.218   1.542  -1.213  0.00  0.00     0.062 H 
ATOM     51  C   LIG d   1       4.840  -1.557  -2.389  0.00  0.00    -0.060 A 
ATOM     52  H   LIG d   1       3.599  -0.808  -0.818  0.00  0.00     0.062 H 
ATOM     53  C   LIG d   1       5.728  -1.237  -3.400  0.00  0.00    -0.035 A 
ATOM     54  H   LIG d   1       4.569  -2.588  -2.216  0.00  0.00     0.062 H 
ATOM     55  H   LIG d   1       6.149  -2.017  -4.016  0.00  0.00     0.064 H 
ENDBRANCH  42  45
ENDBRANCH  40  42
ENDBRANCH  37  40
ENDBRANCH   7  37
BRANCH   5  56
ATOM     56  O   LIG d   1       5.762   2.708  -9.444  0.00  0.00    -0.387 OA
ATOM     57  H   LIG d   1       6.668   2.556  -9.751  0.00  0.00     0.210 HD
ENDBRANCH   5  56
TORSDOF 11
ENDMDL
MODEL 7
REMARK VINA RESULT:      -5.6      4.805      8.102
REMARK  11 active torsions:
REMARK  status: ('A' for Active; 'I' for Inactive)
REMARK    1  A    between atoms: C_1  and  O_2 
REMARK    2  A    between atoms: O_2  and  C_3 
REMARK    3  A    between atoms: C_3  and  C_4 
REMARK       I    between atoms: N_9  and  C_10 
REMARK    4  A    between atoms: C_10  and  C_12 
REMARK    5  A    between atoms: C_12  and  C_13 
REMARK    6  A    between atoms: C_15  and  O_34 
REMARK    7  A    between atoms: C_17  and  O_33 
REMARK    8  A    between atoms: C_19  and  C_22 
REMARK    9  A    between atoms: C_22  and  N_23 
REMARK   10  A    between atoms: N_23  and  S_24 
REMARK   11  A    between atoms: S_24  and  C_27 
ROOT
ATOM      1  C   LIG d   1       5.712  -0.367  -4.190  0.00  0.00     0.096 C 
ATOM      2  H   LIG d   1       6.138  -1.370  -4.153  0.00  0.00     0.063 H 
ATOM      3  C   LIG d   1       4.468  -0.294  -3.284  0.00  0.00     0.110 C 
ATOM      4  H   LIG d   1       4.578   0.501  -2.547  0.00  0.00     0.065 H 
ATOM      5  C   LIG d   1       3.308   0.025  -4.259  0.00  0.00     0.111 C 
ATOM      6  H   LIG d   1       3.089   1.092  -4.268  0.00  0.00     0.065 H 
ATOM      7  C   LIG d   1       3.891  -0.433  -5.619  0.00  0.00     0.102 C 
ATOM      8  H   LIG d   1       3.786  -1.511  -5.741  0.00  0.00     0.064 H 
ATOM      9  O   LIG d   1       5.285  -0.066  -5.529  0.00  0.00    -0.366 OA
ENDROOT
BRANCH   1  10
ATOM     10  C   LIG d   1       6.750   0.659  -3.732  0.00  0.00     0.053 C 
ATOM     11  H   LIG d   1       6.392   1.663  -3.956  0.00  0.00     0.038 H 
ATOM     12  H   LIG d   1       6.908   0.561  -2.657  0.00  0.00     0.038 H 
BRANCH  10  13
ATOM     13  C   LIG d   1       8.050   0.416  -4.455  0.00  0.00     0.218 C 
ATOM     14  N   LIG d   1       8.793   1.459  -4.874  0.00  0.00    -0.296 N 
ATOM     15  C   LIG d   1      10.077   1.366  -5.583  0.00  0.00     0.049 C 
ATOM     16  C   LIG d   1       8.455   2.883  -4.693  0.00  0.00     0.015 C 
ATOM     17  H   LIG d   1      10.801   0.830  -4.969  0.00  0.00     0.052 H 
ATOM     18  C   LIG d   1      10.567   2.807  -5.837  0.00  0.00    -0.031 C 
ATOM     19  C   LIG d   1       9.815   3.624  -4.752  0.00  0.00    -0.035 C 
ATOM     20  H   LIG d   1      10.286   3.143  -6.835  0.00  0.00     0.028 H 
ATOM     21  H   LIG d   1      11.645   2.877  -5.694  0.00  0.00     0.028 H 
ATOM     22  H   LIG d   1       9.681   4.659  -5.066  0.00  0.00     0.028 H 
ATOM     23  H   LIG d   1      10.331   3.569  -3.794  0.00  0.00     0.028 H 
ATOM     24  H   LIG d   1       7.802   3.223  -5.496  0.00  0.00     0.046 H 
ATOM     25  H   LIG d   1       7.978   3.039  -3.725  0.00  0.00     0.046 H 
ATOM     26  O   LIG d   1       8.427  -0.719  -4.659  0.00  0.00    -0.276 OA
BRANCH  15  27
ATOM     27  C   LIG d   1       9.885   0.642  -6.917  0.00  0.00     0.066 C 
ATOM     28  H   LIG d   1      10.857   0.456  -7.373  0.00  0.00     0.058 H 
ATOM     29  H   LIG d   1       9.377  -0.307  -6.745  0.00  0.00     0.058 H 
BRANCH  27  30
ATOM     30  O   LIG d   1       9.096   1.453  -7.789  0.00  0.00    -0.381 OA
BRANCH  30  31
ATOM     31  C   LIG d   1       7.900   0.820  -8.249  0.00  0.00     0.036 C 
ATOM     32  H   LIG d   1       7.072   1.529  -8.203  0.00  0.00     0.052 H 
ATOM     33  H   LIG d   1       8.037   0.488  -9.278  0.00  0.00     0.052 H 
ATOM     34  H   LIG d   1       7.678  -0.040  -7.617  0.00  0.00     0.052 H 
ENDBRANCH  30  31
ENDBRANCH  27  30
ENDBRANCH  15  27
ENDBRANCH  10  13
ENDBRANCH   1  10
BRANCH   3  35
ATOM     35  O   LIG d   1       4.246  -1.548  -2.636  0.00  0.00    -0.387 OA
ATOM     36  H   LIG d   1       4.896  -2.227  -2.861  0.00  0.00     0.210 HD
ENDBRANCH   3  35
BRANCH   7  37
ATOM     37  C   LIG d   1       3.213   0.307  -6.773  0.00  0.00     0.046 C 
ATOM     38  H   LIG d   1       2.688   1.181  -6.386  0.00  0.00     0.047 H 
ATOM     39  H   LIG d   1       2.500  -0.356  -7.263  0.00  0.00     0.047 H 
BRANCH  37  40
ATOM     40  N   LIG d   1       4.225   0.736  -7.742  0.00  0.00    -0.187 N 
ATOM     41  H   LIG d   1       5.151   0.471  -7.624  0.00  0.00     0.148 HD
BRANCH  40  42
ATOM     42  S   LIG d   1       3.789   1.666  -9.041  0.00  0.00     0.059 S 
ATOM     43  O   LIG d   1       2.573   2.310  -8.688  0.00  0.00    -0.153 OA
ATOM     44  O   LIG d   1       4.949   2.387  -9.430  0.00  0.00    -0.153 OA
BRANCH  42  45
ATOM     45  C   LIG d   1       3.411   0.566 -10.365  0.00  0.00     0.105 A 
ATOM     46  C   LIG d   1       4.265   0.469 -11.447  0.00  0.00    -0.035 A 
ATOM     47  C   LIG d   1       3.970  -0.394 -12.486  0.00  0.00    -0.060 A 
ATOM     48  H   LIG d   1       5.165   1.066 -11.481  0.00  0.00     0.064 H 
ATOM     49  C   LIG d   1       2.818  -1.159 -12.442  0.00  0.00    -0.062 A 
ATOM     50  H   LIG d   1       4.636  -0.471 -13.331  0.00  0.00     0.062 H 
ATOM     51  C   LIG d   1       1.964  -1.061 -11.361  0.00  0.00    -0.060 A 
ATOM     52  H   LIG d   1       2.587  -1.832 -13.255  0.00  0.00     0.062 H 
ATOM     53  C   LIG d   1       2.263  -0.202 -10.319  0.00  0.00    -0.035 A 
ATOM     54  H   LIG d   1       1.064  -1.658 -11.326  0.00  0.00     0.062 H 
ATOM     55  H   LIG d   1       1.598  -0.129  -9.471  0.00  0.00     0.064 H 
ENDBRANCH  42  45
ENDBRANCH  40  42
ENDBRANCH  37  40
ENDBRANCH   7  37
BRANCH   5  56
ATOM     56  O   LIG d   1       2.140  -0.729  -3.926  0.00  0.00    -0.387 OA
ATOM     57  H   LIG d   1       2.172  -1.652  -4.215  0.00  0.00     0.210 HD
ENDBRANCH   5  56
TORSDOF 11
ENDMDL
MODEL 8
REMARK VINA RESULT:      -5.6      8.509     13.476
REMARK  11 active torsions:
REMARK  status: ('A' for Active; 'I' for Inactive)
REMARK    1  A    between atoms: C_1  and  O_2 
REMARK    2  A    between atoms: O_2  and  C_3 
REMARK    3  A    between atoms: C_3  and  C_4 
REMARK       I    between atoms: N_9  and  C_10 
REMARK    4  A    between atoms: C_10  and  C_12 
REMARK    5  A    between atoms: C_12  and  C_13 
REMARK    6  A    between atoms: C_15  and  O_34 
REMARK    7  A    between atoms: C_17  and  O_33 
REMARK    8  A    between atoms: C_19  and  C_22 
REMARK    9  A    between atoms: C_22  and  N_23 
REMARK   10  A    between atoms: N_23  and  S_24 
REMARK   11  A    between atoms: S_24  and  C_27 
ROOT
ATOM      1  C   LIG d   1       3.267  -2.336 -11.741  0.00  0.00     0.096 C 
ATOM      2  H   LIG d   1       4.079  -2.543 -12.438  0.00  0.00     0.063 H 
ATOM      3  C   LIG d   1       3.112  -0.815 -11.554  0.00  0.00     0.110 C 
ATOM      4  H   LIG d   1       2.096  -0.502 -11.793  0.00  0.00     0.065 H 
ATOM      5  C   LIG d   1       3.412  -0.586 -10.052  0.00  0.00     0.111 C 
ATOM      6  H   LIG d   1       2.490  -0.526  -9.475  0.00  0.00     0.065 H 
ATOM      7  C   LIG d   1       4.215  -1.859  -9.684  0.00  0.00     0.102 C 
ATOM      8  H   LIG d   1       5.260  -1.755  -9.976  0.00  0.00     0.064 H 
ATOM      9  O   LIG d   1       3.572  -2.897 -10.454  0.00  0.00    -0.366 OA
ENDROOT
BRANCH   1  10
ATOM     10  C   LIG d   1       1.960  -2.931 -12.271  0.00  0.00     0.053 C 
ATOM     11  H   LIG d   1       1.316  -2.129 -12.630  0.00  0.00     0.038 H 
ATOM     12  H   LIG d   1       2.179  -3.616 -13.091  0.00  0.00     0.038 H 
BRANCH  10  13
ATOM     13  C   LIG d   1       1.263  -3.679 -11.164  0.00  0.00     0.218 C 
ATOM     14  N   LIG d   1       1.200  -5.025 -11.196  0.00  0.00    -0.296 N 
ATOM     15  C   LIG d   1       0.559  -5.876 -10.184  0.00  0.00     0.049 C 
ATOM     16  C   LIG d   1       1.767  -5.887 -12.250  0.00  0.00     0.015 C 
ATOM     17  H   LIG d   1       1.027  -5.715  -9.213  0.00  0.00     0.052 H 
ATOM     18  C   LIG d   1       0.756  -7.342 -10.627  0.00  0.00    -0.031 C 
ATOM     19  C   LIG d   1       1.990  -7.258 -11.563  0.00  0.00    -0.035 C 
ATOM     20  H   LIG d   1      -0.116  -7.704 -11.172  0.00  0.00     0.028 H 
ATOM     21  H   LIG d   1       0.965  -7.977  -9.767  0.00  0.00     0.028 H 
ATOM     22  H   LIG d   1       1.982  -8.066 -12.293  0.00  0.00     0.028 H 
ATOM     23  H   LIG d   1       2.917  -7.260 -10.988  0.00  0.00     0.028 H 
ATOM     24  H   LIG d   1       1.064  -5.987 -13.077  0.00  0.00     0.046 H 
ATOM     25  H   LIG d   1       2.713  -5.479 -12.604  0.00  0.00     0.046 H 
ATOM     26  O   LIG d   1       0.760  -3.070 -10.244  0.00  0.00    -0.276 OA
BRANCH  15  27
ATOM     27  C   LIG d   1      -0.935  -5.556 -10.105  0.00  0.00     0.066 C 
ATOM     28  H   LIG d   1      -1.077  -4.476 -10.129  0.00  0.00     0.058 H 
ATOM     29  H   LIG d   1      -1.449  -6.009 -10.953  0.00  0.00     0.058 H 
BRANCH  27  30
ATOM     30  O   LIG d   1      -1.471  -6.080  -8.889  0.00  0.00    -0.381 OA
BRANCH  30  31
ATOM     31  C   LIG d   1      -2.688  -6.810  -9.056  0.00  0.00     0.036 C 
ATOM     32  H   LIG d   1      -3.513  -6.246  -8.619  0.00  0.00     0.052 H 
ATOM     33  H   LIG d   1      -2.876  -6.964 -10.118  0.00  0.00     0.052 H 
ATOM     34  H   LIG d   1      -2.604  -7.776  -8.558  0.00  0.00     0.052 H 
ENDBRANCH  30  31
ENDBRANCH  27  30
ENDBRANCH  15  27
ENDBRANCH  10  13
ENDBRANCH   1  10
BRANCH   3  35
ATOM     35  O   LIG d   1       4.056  -0.112 -12.365  0.00  0.00    -0.387 OA
ATOM     36  H   LIG d   1       4.072  -0.399 -13.288  0.00  0.00     0.210 HD
ENDBRANCH   3  35
BRANCH   7  37
ATOM     37  C   LIG d   1       4.103  -2.151  -8.186  0.00  0.00     0.046 C 
ATOM     38  H   LIG d   1       5.093  -2.107  -7.732  0.00  0.00     0.047 H 
ATOM     39  H   LIG d   1       3.681  -3.146  -8.039  0.00  0.00     0.047 H 
BRANCH  37  40
ATOM     40  N   LIG d   1       3.233  -1.154  -7.557  0.00  0.00    -0.187 N 
ATOM     41  H   LIG d   1       2.286  -1.135  -7.768  0.00  0.00     0.148 HD
BRANCH  40  42
ATOM     42  S   LIG d   1       3.864  -0.064  -6.482  0.00  0.00     0.059 S 
ATOM     43  O   LIG d   1       5.232   0.101  -6.826  0.00  0.00    -0.153 OA
ATOM     44  O   LIG d   1       2.954   1.026  -6.430  0.00  0.00    -0.153 OA
BRANCH  42  45
ATOM     45  C   LIG d   1       3.832  -0.823  -4.891  0.00  0.00     0.105 A 
ATOM     46  C   LIG d   1       2.943  -0.378  -3.931  0.00  0.00    -0.035 A 
ATOM     47  C   LIG d   1       2.917  -0.974  -2.684  0.00  0.00    -0.060 A 
ATOM     48  H   LIG d   1       2.268   0.435  -4.155  0.00  0.00     0.064 H 
ATOM     49  C   LIG d   1       3.782  -2.014  -2.397  0.00  0.00    -0.062 A 
ATOM     50  H   LIG d   1       2.223  -0.627  -1.933  0.00  0.00     0.062 H 
ATOM     51  C   LIG d   1       4.670  -2.459  -3.357  0.00  0.00    -0.060 A 
ATOM     52  H   LIG d   1       3.762  -2.479  -1.422  0.00  0.00     0.062 H 
ATOM     53  C   LIG d   1       4.693  -1.867  -4.607  0.00  0.00    -0.035 A 
ATOM     54  H   LIG d   1       5.346  -3.272  -3.134  0.00  0.00     0.062 H 
ATOM     55  H   LIG d   1       5.383  -2.217  -5.359  0.00  0.00     0.064 H 
ENDBRANCH  42  45
ENDBRANCH  40  42
ENDBRANCH  37  40
ENDBRANCH   7  37
BRANCH   5  56
ATOM     56  O   LIG d   1       4.205   0.588  -9.864  0.00  0.00    -0.387 OA
ATOM     57  H   LIG d   1       4.363   1.090 -10.676  0.00  0.00     0.210 HD
ENDBRANCH   5  56
TORSDOF 11
ENDMDL
MODEL 9
REMARK VINA RESULT:      -5.5      4.949      8.306
REMARK  11 active torsions:
REMARK  status: ('A' for Active; 'I' for Inactive)
REMARK    1  A    between atoms: C_1  and  O_2 
REMARK    2  A    between atoms: O_2  and  C_3 
REMARK    3  A    between atoms: C_3  and  C_4 
REMARK       I    between atoms: N_9  and  C_10 
REMARK    4  A    between atoms: C_10  and  C_12 
REMARK    5  A    between atoms: C_12  and  C_13 
REMARK    6  A    between atoms: C_15  and  O_34 
REMARK    7  A    between atoms: C_17  and  O_33 
REMARK    8  A    between atoms: C_19  and  C_22 
REMARK    9  A    between atoms: C_22  and  N_23 
REMARK   10  A    between atoms: N_23  and  S_24 
REMARK   11  A    between atoms: S_24  and  C_27 
ROOT
ATOM      1  C   LIG d   1      10.085  10.155  -4.992  0.00  0.00     0.096 C 
ATOM      2  H   LIG d   1      10.888  10.639  -5.548  0.00  0.00     0.063 H 
ATOM      3  C   LIG d   1       9.031  11.199  -4.578  0.00  0.00     0.110 C 
ATOM      4  H   LIG d   1       8.046  10.915  -4.947  0.00  0.00     0.065 H 
ATOM      5  C   LIG d   1       9.060  11.173  -3.030  0.00  0.00     0.111 C 
ATOM      6  H   LIG d   1       8.264  10.541  -2.636  0.00  0.00     0.065 H 
ATOM      7  C   LIG d   1      10.451  10.556  -2.741  0.00  0.00     0.102 C 
ATOM      8  H   LIG d   1      11.232  11.314  -2.809  0.00  0.00     0.064 H 
ATOM      9  O   LIG d   1      10.607   9.572  -3.787  0.00  0.00    -0.366 OA
ENDROOT
BRANCH   1  10
ATOM     10  C   LIG d   1       9.433   9.072  -5.854  0.00  0.00     0.053 C 
ATOM     11  H   LIG d   1       9.838   8.098  -5.582  0.00  0.00     0.038 H 
ATOM     12  H   LIG d   1       8.355   9.075  -5.688  0.00  0.00     0.038 H 
BRANCH  10  13
ATOM     13  C   LIG d   1       9.719   9.347  -7.308  0.00  0.00     0.218 C 
ATOM     14  N   LIG d   1       9.803   8.325  -8.183  0.00  0.00    -0.296 N 
ATOM     15  C   LIG d   1      10.070   8.450  -9.623  0.00  0.00     0.049 C 
ATOM     16  C   LIG d   1       9.637   6.897  -7.855  0.00  0.00     0.015 C 
ATOM     17  H   LIG d   1       9.298   9.060 -10.091  0.00  0.00     0.052 H 
ATOM     18  C   LIG d   1      10.050   7.026 -10.219  0.00  0.00    -0.031 C 
ATOM     19  C   LIG d   1       9.206   6.232  -9.187  0.00  0.00    -0.035 C 
ATOM     20  H   LIG d   1      11.059   6.619 -10.286  0.00  0.00     0.028 H 
ATOM     21  H   LIG d   1       9.566   7.026 -11.195  0.00  0.00     0.028 H 
ATOM     22  H   LIG d   1       9.470   5.175  -9.198  0.00  0.00     0.028 H 
ATOM     23  H   LIG d   1       8.140   6.370  -9.365  0.00  0.00     0.028 H 
ATOM     24  H   LIG d   1      10.580   6.475  -7.508  0.00  0.00     0.046 H 
ATOM     25  H   LIG d   1       8.863   6.770  -7.098  0.00  0.00     0.046 H 
ATOM     26  O   LIG d   1       9.873  10.487  -7.691  0.00  0.00    -0.276 OA
BRANCH  15  27
ATOM     27  C   LIG d   1      11.444   9.085  -9.844  0.00  0.00     0.066 C 
ATOM     28  H   LIG d   1      11.852   9.411  -8.888  0.00  0.00     0.058 H 
ATOM     29  H   LIG d   1      12.115   8.351 -10.294  0.00  0.00     0.058 H 
BRANCH  27  30
ATOM     30  O   LIG d   1      11.316  10.208 -10.717  0.00  0.00    -0.381 OA
BRANCH  30  31
ATOM     31  C   LIG d   1      11.511   9.898 -12.098  0.00  0.00     0.036 C 
ATOM     32  H   LIG d   1      12.115   8.995 -12.186  0.00  0.00     0.052 H 
ATOM     33  H   LIG d   1      10.544   9.736 -12.574  0.00  0.00     0.052 H 
ATOM     34  H   LIG d   1      12.022  10.727 -12.588  0.00  0.00     0.052 H 
ENDBRANCH  30  31
ENDBRANCH  27  30
ENDBRANCH  15  27
ENDBRANCH  10  13
ENDBRANCH   1  10
BRANCH   3  35
ATOM     35  O   LIG d   1       9.392  12.494  -5.062  0.00  0.00    -0.387 OA
ATOM     36  H   LIG d   1       9.930  13.009  -4.446  0.00  0.00     0.210 HD
ENDBRANCH   3  35
BRANCH   7  37
ATOM     37  C   LIG d   1      10.469   9.887  -1.365  0.00  0.00     0.046 C 
ATOM     38  H   LIG d   1       9.474   9.938  -0.924  0.00  0.00     0.047 H 
ATOM     39  H   LIG d   1      11.180  10.403  -0.719  0.00  0.00     0.047 H 
BRANCH  37  40
ATOM     40  N   LIG d   1      10.869   8.485  -1.508  0.00  0.00    -0.187 N 
ATOM     41  H   LIG d   1      11.737   8.264  -1.879  0.00  0.00     0.148 HD
BRANCH  40  42
ATOM     42  S   LIG d   1       9.841   7.277  -1.031  0.00  0.00     0.059 S 
ATOM     43  O   LIG d   1      10.418   6.686   0.124  0.00  0.00    -0.153 OA
ATOM     44  O   LIG d   1       8.534   7.835  -1.030  0.00  0.00    -0.153 OA
BRANCH  42  45
ATOM     45  C   LIG d   1       9.862   6.046  -2.292  0.00  0.00     0.105 A 
ATOM     46  C   LIG d   1      10.395   4.798  -2.030  0.00  0.00    -0.035 A 
ATOM     47  C   LIG d   1      10.411   3.832  -3.019  0.00  0.00    -0.060 A 
ATOM     48  H   LIG d   1      10.798   4.577  -1.053  0.00  0.00     0.064 H 
ATOM     49  C   LIG d   1       9.896   4.115  -4.270  0.00  0.00    -0.062 A 
ATOM     50  H   LIG d   1      10.827   2.857  -2.815  0.00  0.00     0.062 H 
ATOM     51  C   LIG d   1       9.364   5.363  -4.532  0.00  0.00    -0.060 A 
ATOM     52  H   LIG d   1       9.910   3.361  -5.043  0.00  0.00     0.062 H 
ATOM     53  C   LIG d   1       9.342   6.328  -3.542  0.00  0.00    -0.035 A 
ATOM     54  H   LIG d   1       8.961   5.585  -5.510  0.00  0.00     0.062 H 
ATOM     55  H   LIG d   1       8.922   7.302  -3.744  0.00  0.00     0.064 H 
ENDBRANCH  42  45
ENDBRANCH  40  42
ENDBRANCH  37  40
ENDBRANCH   7  37
BRANCH   5  56
ATOM     56  O   LIG d   1       8.968  12.495  -2.496  0.00  0.00    -0.387 OA
ATOM     57  H   LIG d   1       8.430  13.098  -3.028  0.00  0.00     0.210 HD
ENDBRANCH   5  56
TORSDOF 11
ENDMDL
