MODEL 1
REMARK VINA RESULT:      -7.1      0.000      0.000
REMARK  4 active torsions:
REMARK  status: ('A' for Active; 'I' for Inactive)
REMARK    1  A    between atoms: C_1  and  C_2 
REMARK    2  A    between atoms: C_5  and  C_12 
REMARK    3  A    between atoms: C_6  and  C_7 
REMARK    4  A    between atoms: C_6  and  C_8 
REMARK       I    between atoms: C_12  and  N_14 
ROOT
ATOM      1  C   LIG d   1       4.609   0.303  -2.758  0.00  0.00     0.032 C 
ATOM      2  C   LIG d   1       5.089  -0.937  -1.942  0.00  0.00    -0.039 C 
ATOM      3  C   LIG d   1       5.272  -2.051  -2.998  0.00  0.00    -0.037 C 
ATOM      4  C   LIG d   1       4.894  -1.373  -4.350  0.00  0.00     0.060 C 
ATOM      5  C   LIG d   1       3.759  -0.397  -3.876  0.00  0.00    -0.009 C 
ATOM      6  C   LIG d   1       6.047  -0.353  -4.606  0.00  0.00     0.021 C 
ATOM      7  C   LIG d   1       5.834   0.752  -3.565  0.00  0.00     0.141 C 
ATOM      8  O   LIG d   1       6.494   1.752  -3.402  0.00  0.00    -0.297 OA
ATOM      9  H   LIG d   1       6.036  -0.723  -1.447  0.00  0.00     0.028 H 
ATOM     10  H   LIG d   1       4.333  -1.226  -1.211  0.00  0.00     0.028 H 
ATOM     11  H   LIG d   1       6.308  -2.390  -3.019  0.00  0.00     0.028 H 
ATOM     12  H   LIG d   1       4.602  -2.886  -2.791  0.00  0.00     0.028 H 
ATOM     13  H   LIG d   1       7.015  -0.834  -4.469  0.00  0.00     0.035 H 
ATOM     14  H   LIG d   1       5.968   0.064  -5.610  0.00  0.00     0.035 H 
ENDROOT
BRANCH   4  15
ATOM     15  C   LIG d   1       4.547  -2.303  -5.484  0.00  0.00     0.223 C 
ATOM     16  O   LIG d   1       4.039  -3.379  -5.252  0.00  0.00    -0.275 OA
ATOM     17  N   LIG d   1       4.801  -1.938  -6.756  0.00  0.00    -0.296 N 
ATOM     18  C   LIG d   1       5.511  -0.692  -7.065  0.00  0.00     0.040 C 
ATOM     19  C   LIG d   1       4.371  -2.770  -7.892  0.00  0.00     0.019 C 
ATOM     20  C   LIG d   1       4.824   0.023  -8.196  0.00  0.00    -0.027 A 
ATOM     21  H   LIG d   1       5.520  -0.051  -6.184  0.00  0.00     0.051 H 
ATOM     22  H   LIG d   1       6.536  -0.921  -7.356  0.00  0.00     0.051 H 
ATOM     23  C   LIG d   1       3.839  -0.571  -8.952  0.00  0.00    -0.041 A 
ATOM     24  C   LIG d   1       5.218   1.325  -8.475  0.00  0.00    -0.057 A 
ATOM     25  C   LIG d   1       3.348  -1.972  -8.699  0.00  0.00    -0.011 C 
ATOM     26  C   LIG d   1       3.259   0.135  -9.999  0.00  0.00    -0.058 A 
ATOM     27  H   LIG d   1       3.176  -2.470  -9.653  0.00  0.00     0.033 H 
ATOM     28  H   LIG d   1       2.410  -1.929  -8.145  0.00  0.00     0.033 H 
ATOM     29  C   LIG d   1       3.656   1.426 -10.279  0.00  0.00    -0.061 A 
ATOM     30  H   LIG d   1       2.491  -0.330 -10.598  0.00  0.00     0.062 H 
ATOM     31  C   LIG d   1       4.638   2.024  -9.513  0.00  0.00    -0.061 A 
ATOM     32  H   LIG d   1       3.201   1.967 -11.096  0.00  0.00     0.062 H 
ATOM     33  H   LIG d   1       4.950   3.037  -9.725  0.00  0.00     0.062 H 
ATOM     34  H   LIG d   1       5.985   1.792  -7.876  0.00  0.00     0.062 H 
ATOM     35  H   LIG d   1       5.230  -3.010  -8.520  0.00  0.00     0.047 H 
ATOM     36  H   LIG d   1       3.916  -3.689  -7.524  0.00  0.00     0.047 H 
ENDBRANCH   4  15
BRANCH   5  37
ATOM     37  C   LIG d   1       3.342   0.581  -4.977  0.00  0.00    -0.058 C 
ATOM     38  H   LIG d   1       2.827   0.037  -5.770  0.00  0.00     0.024 H 
ATOM     39  H   LIG d   1       2.675   1.334  -4.560  0.00  0.00     0.024 H 
ATOM     40  H   LIG d   1       4.229   1.065  -5.387  0.00  0.00     0.024 H 
ENDBRANCH   5  37
BRANCH   5  41
ATOM     41  C   LIG d   1       2.557  -1.148  -3.300  0.00  0.00    -0.058 C 
ATOM     42  H   LIG d   1       1.899  -0.445  -2.789  0.00  0.00     0.024 H 
ATOM     43  H   LIG d   1       2.011  -1.635  -4.107  0.00  0.00     0.024 H 
ATOM     44  H   LIG d   1       2.905  -1.900  -2.591  0.00  0.00     0.024 H 
ENDBRANCH   5  41
BRANCH   1  45
ATOM     45  C   LIG d   1       3.901   1.396  -1.956  0.00  0.00    -0.052 C 
ATOM     46  H   LIG d   1       4.581   1.791  -1.201  0.00  0.00     0.024 H 
ATOM     47  H   LIG d   1       3.597   2.199  -2.627  0.00  0.00     0.024 H 
ATOM     48  H   LIG d   1       3.021   0.976  -1.468  0.00  0.00     0.024 H 
ENDBRANCH   1  45
TORSDOF 4
ENDMDL
MODEL 2
REMARK VINA RESULT:      -7.0      1.793      6.124
REMARK  4 active torsions:
REMARK  status: ('A' for Active; 'I' for Inactive)
REMARK    1  A    between atoms: C_1  and  C_2 
REMARK    2  A    between atoms: C_5  and  C_12 
REMARK    3  A    between atoms: C_6  and  C_7 
REMARK    4  A    between atoms: C_6  and  C_8 
REMARK       I    between atoms: C_12  and  N_14 
ROOT
ATOM      1  C   LIG d   1       3.169  -0.562  -9.391  0.00  0.00     0.032 C 
ATOM      2  C   LIG d   1       4.185  -0.319 -10.549  0.00  0.00    -0.039 C 
ATOM      3  C   LIG d   1       5.533  -0.064  -9.837  0.00  0.00    -0.037 C 
ATOM      4  C   LIG d   1       5.201  -0.187  -8.318  0.00  0.00     0.060 C 
ATOM      5  C   LIG d   1       3.745   0.400  -8.293  0.00  0.00    -0.009 C 
ATOM      6  C   LIG d   1       4.894  -1.702  -8.112  0.00  0.00     0.021 C 
ATOM      7  C   LIG d   1       3.545  -1.929  -8.804  0.00  0.00     0.141 C 
ATOM      8  O   LIG d   1       2.920  -2.960  -8.888  0.00  0.00    -0.297 OA
ATOM      9  H   LIG d   1       4.252  -1.201 -11.187  0.00  0.00     0.028 H 
ATOM     10  H   LIG d   1       3.893   0.553 -11.134  0.00  0.00     0.028 H 
ATOM     11  H   LIG d   1       6.266  -0.816 -10.128  0.00  0.00     0.028 H 
ATOM     12  H   LIG d   1       5.902   0.936 -10.066  0.00  0.00     0.028 H 
ATOM     13  H   LIG d   1       5.673  -2.313  -8.569  0.00  0.00     0.035 H 
ATOM     14  H   LIG d   1       4.807  -1.931  -7.049  0.00  0.00     0.035 H 
ENDROOT
BRANCH   4  15
ATOM     15  C   LIG d   1       6.192   0.439  -7.371  0.00  0.00     0.223 C 
ATOM     16  O   LIG d   1       6.782   1.449  -7.690  0.00  0.00    -0.275 OA
ATOM     17  N   LIG d   1       6.422  -0.124  -6.168  0.00  0.00    -0.296 N 
ATOM     18  C   LIG d   1       5.808  -1.403  -5.794  0.00  0.00     0.040 C 
ATOM     19  C   LIG d   1       7.295   0.522  -5.174  0.00  0.00     0.019 C 
ATOM     20  C   LIG d   1       5.278  -1.325  -4.389  0.00  0.00    -0.027 A 
ATOM     21  H   LIG d   1       4.989  -1.625  -6.478  0.00  0.00     0.051 H 
ATOM     22  H   LIG d   1       6.554  -2.194  -5.854  0.00  0.00     0.051 H 
ATOM     23  C   LIG d   1       5.579  -0.280  -3.545  0.00  0.00    -0.041 A 
ATOM     24  C   LIG d   1       4.466  -2.360  -3.943  0.00  0.00    -0.057 A 
ATOM     25  C   LIG d   1       6.439   0.884  -3.962  0.00  0.00    -0.011 C 
ATOM     26  C   LIG d   1       5.077  -0.279  -2.250  0.00  0.00    -0.058 A 
ATOM     27  H   LIG d   1       7.091   1.163  -3.133  0.00  0.00     0.033 H 
ATOM     28  H   LIG d   1       5.800   1.730  -4.214  0.00  0.00     0.033 H 
ATOM     29  C   LIG d   1       4.275  -1.310  -1.806  0.00  0.00    -0.061 A 
ATOM     30  H   LIG d   1       5.317   0.536  -1.583  0.00  0.00     0.062 H 
ATOM     31  C   LIG d   1       3.966  -2.354  -2.658  0.00  0.00    -0.061 A 
ATOM     32  H   LIG d   1       3.891  -1.302  -0.797  0.00  0.00     0.062 H 
ATOM     33  H   LIG d   1       3.335  -3.163  -2.318  0.00  0.00     0.062 H 
ATOM     34  H   LIG d   1       4.224  -3.175  -4.609  0.00  0.00     0.062 H 
ATOM     35  H   LIG d   1       8.086  -0.166  -4.875  0.00  0.00     0.047 H 
ATOM     36  H   LIG d   1       7.733   1.425  -5.600  0.00  0.00     0.047 H 
ENDBRANCH   4  15
BRANCH   5  37
ATOM     37  C   LIG d   1       3.066   0.195  -6.936  0.00  0.00    -0.058 C 
ATOM     38  H   LIG d   1       3.813  -0.092  -6.195  0.00  0.00     0.024 H 
ATOM     39  H   LIG d   1       2.586   1.123  -6.628  0.00  0.00     0.024 H 
ATOM     40  H   LIG d   1       2.317  -0.592  -7.020  0.00  0.00     0.024 H 
ENDBRANCH   5  37
BRANCH   5  41
ATOM     41  C   LIG d   1       3.706   1.864  -8.732  0.00  0.00    -0.058 C 
ATOM     42  H   LIG d   1       4.714   2.277  -8.711  0.00  0.00     0.024 H 
ATOM     43  H   LIG d   1       3.307   1.930  -9.744  0.00  0.00     0.024 H 
ATOM     44  H   LIG d   1       3.068   2.430  -8.053  0.00  0.00     0.024 H 
ENDBRANCH   5  41
BRANCH   1  45
ATOM     45  C   LIG d   1       1.694  -0.372  -9.747  0.00  0.00    -0.052 C 
ATOM     46  H   LIG d   1       1.476   0.693  -9.838  0.00  0.00     0.024 H 
ATOM     47  H   LIG d   1       1.482  -0.868 -10.694  0.00  0.00     0.024 H 
ATOM     48  H   LIG d   1       1.072  -0.804  -8.963  0.00  0.00     0.024 H 
ENDBRANCH   1  45
TORSDOF 4
ENDMDL
MODEL 3
REMARK VINA RESULT:      -6.9      1.815      5.899
REMARK  4 active torsions:
REMARK  status: ('A' for Active; 'I' for Inactive)
REMARK    1  A    between atoms: C_1  and  C_2 
REMARK    2  A    between atoms: C_5  and  C_12 
REMARK    3  A    between atoms: C_6  and  C_7 
REMARK    4  A    between atoms: C_6  and  C_8 
REMARK       I    between atoms: C_12  and  N_14 
ROOT
ATOM      1  C   LIG d   1       3.935   0.386 -10.125  0.00  0.00     0.032 C 
ATOM      2  C   LIG d   1       2.517   0.374  -9.474  0.00  0.00    -0.039 C 
ATOM      3  C   LIG d   1       2.709  -0.381  -8.138  0.00  0.00    -0.037 C 
ATOM      4  C   LIG d   1       4.225  -0.744  -8.110  0.00  0.00     0.060 C 
ATOM      5  C   LIG d   1       4.490  -0.998  -9.636  0.00  0.00    -0.009 C 
ATOM      6  C   LIG d   1       4.946   0.628  -7.927  0.00  0.00     0.021 C 
ATOM      7  C   LIG d   1       4.765   1.350  -9.267  0.00  0.00     0.141 C 
ATOM      8  O   LIG d   1       5.170   2.445  -9.578  0.00  0.00    -0.297 OA
ATOM      9  H   LIG d   1       2.175   1.393  -9.290  0.00  0.00     0.028 H 
ATOM     10  H   LIG d   1       1.811  -0.156 -10.113  0.00  0.00     0.028 H 
ATOM     11  H   LIG d   1       2.455   0.264  -7.297  0.00  0.00     0.028 H 
ATOM     12  H   LIG d   1       2.101  -1.286  -8.123  0.00  0.00     0.028 H 
ATOM     13  H   LIG d   1       4.487   1.192  -7.116  0.00  0.00     0.035 H 
ATOM     14  H   LIG d   1       6.008   0.475  -7.731  0.00  0.00     0.035 H 
ENDROOT
BRANCH   4  15
ATOM     15  C   LIG d   1       4.624  -1.850  -7.167  0.00  0.00     0.223 C 
ATOM     16  O   LIG d   1       5.293  -2.777  -7.569  0.00  0.00    -0.275 OA
ATOM     17  N   LIG d   1       4.237  -1.808  -5.876  0.00  0.00    -0.296 N 
ATOM     18  C   LIG d   1       3.339  -0.758  -5.384  0.00  0.00     0.040 C 
ATOM     19  C   LIG d   1       4.704  -2.809  -4.904  0.00  0.00     0.019 C 
ATOM     20  C   LIG d   1       3.842  -0.229  -4.068  0.00  0.00    -0.027 A 
ATOM     21  H   LIG d   1       3.298   0.054  -6.108  0.00  0.00     0.051 H 
ATOM     22  H   LIG d   1       2.340  -1.171  -5.246  0.00  0.00     0.051 H 
ATOM     23  C   LIG d   1       4.848  -0.849  -3.362  0.00  0.00    -0.041 A 
ATOM     24  C   LIG d   1       3.250   0.920  -3.562  0.00  0.00    -0.057 A 
ATOM     25  C   LIG d   1       5.548  -2.088  -3.855  0.00  0.00    -0.011 C 
ATOM     26  C   LIG d   1       5.252  -0.323  -2.141  0.00  0.00    -0.058 A 
ATOM     27  H   LIG d   1       5.725  -2.759  -3.014  0.00  0.00     0.033 H 
ATOM     28  H   LIG d   1       6.505  -1.808  -4.296  0.00  0.00     0.033 H 
ATOM     29  C   LIG d   1       4.659   0.815  -1.636  0.00  0.00    -0.061 A 
ATOM     30  H   LIG d   1       6.037  -0.811  -1.582  0.00  0.00     0.062 H 
ATOM     31  C   LIG d   1       3.655   1.441  -2.351  0.00  0.00    -0.061 A 
ATOM     32  H   LIG d   1       4.978   1.216  -0.685  0.00  0.00     0.062 H 
ATOM     33  H   LIG d   1       3.189   2.335  -1.962  0.00  0.00     0.062 H 
ATOM     34  H   LIG d   1       2.466   1.409  -4.121  0.00  0.00     0.062 H 
ATOM     35  H   LIG d   1       3.848  -3.286  -4.425  0.00  0.00     0.047 H 
ATOM     36  H   LIG d   1       5.308  -3.562  -5.411  0.00  0.00     0.047 H 
ENDBRANCH   4  15
BRANCH   5  37
ATOM     37  C   LIG d   1       5.981  -1.159  -9.942  0.00  0.00    -0.058 C 
ATOM     38  H   LIG d   1       6.540  -0.357  -9.459  0.00  0.00     0.024 H 
ATOM     39  H   LIG d   1       6.327  -2.121  -9.564  0.00  0.00     0.024 H 
ATOM     40  H   LIG d   1       6.138  -1.113 -11.019  0.00  0.00     0.024 H 
ENDBRANCH   5  37
BRANCH   5  41
ATOM     41  C   LIG d   1       3.670  -2.171 -10.176  0.00  0.00    -0.058 C 
ATOM     42  H   LIG d   1       4.053  -3.103  -9.763  0.00  0.00     0.024 H 
ATOM     43  H   LIG d   1       2.626  -2.047  -9.889  0.00  0.00     0.024 H 
ATOM     44  H   LIG d   1       3.747  -2.197 -11.263  0.00  0.00     0.024 H 
ENDBRANCH   5  41
BRANCH   1  45
ATOM     45  C   LIG d   1       3.974   0.633 -11.634  0.00  0.00    -0.052 C 
ATOM     46  H   LIG d   1       3.967   1.707 -11.827  0.00  0.00     0.024 H 
ATOM     47  H   LIG d   1       4.881   0.196 -12.050  0.00  0.00     0.024 H 
ATOM     48  H   LIG d   1       3.102   0.175 -12.100  0.00  0.00     0.024 H 
ENDBRANCH   1  45
TORSDOF 4
ENDMDL
MODEL 4
REMARK VINA RESULT:      -6.7      1.531      3.325
REMARK  4 active torsions:
REMARK  status: ('A' for Active; 'I' for Inactive)
REMARK    1  A    between atoms: C_1  and  C_2 
REMARK    2  A    between atoms: C_5  and  C_12 
REMARK    3  A    between atoms: C_6  and  C_7 
REMARK    4  A    between atoms: C_6  and  C_8 
REMARK       I    between atoms: C_12  and  N_14 
ROOT
ATOM      1  C   LIG d   1       4.315  -1.382  -3.412  0.00  0.00     0.032 C 
ATOM      2  C   LIG d   1       2.999  -0.658  -3.832  0.00  0.00    -0.039 C 
ATOM      3  C   LIG d   1       3.303  -0.080  -5.233  0.00  0.00    -0.037 C 
ATOM      4  C   LIG d   1       4.770  -0.518  -5.526  0.00  0.00     0.060 C 
ATOM      5  C   LIG d   1       5.385  -0.450  -4.083  0.00  0.00    -0.009 C 
ATOM      6  C   LIG d   1       4.680  -2.064  -5.716  0.00  0.00     0.021 C 
ATOM      7  C   LIG d   1       4.401  -2.619  -4.315  0.00  0.00     0.141 C 
ATOM      8  O   LIG d   1       4.262  -3.775  -3.990  0.00  0.00    -0.297 OA
ATOM      9  H   LIG d   1       2.174  -1.369  -3.884  0.00  0.00     0.028 H 
ATOM     10  H   LIG d   1       2.767   0.145  -3.132  0.00  0.00     0.028 H 
ATOM     11  H   LIG d   1       2.624  -0.502  -5.974  0.00  0.00     0.028 H 
ATOM     12  H   LIG d   1       3.226   1.008  -5.221  0.00  0.00     0.028 H 
ATOM     13  H   LIG d   1       3.870  -2.315  -6.401  0.00  0.00     0.035 H 
ATOM     14  H   LIG d   1       5.627  -2.457  -6.088  0.00  0.00     0.035 H 
ENDROOT
BRANCH   4  15
ATOM     15  C   LIG d   1       5.491   0.256  -6.599  0.00  0.00     0.223 C 
ATOM     16  O   LIG d   1       6.671   0.506  -6.476  0.00  0.00    -0.275 OA
ATOM     17  N   LIG d   1       4.825   0.669  -7.695  0.00  0.00    -0.296 N 
ATOM     18  C   LIG d   1       3.376   0.477  -7.824  0.00  0.00     0.040 C 
ATOM     19  C   LIG d   1       5.523   1.326  -8.813  0.00  0.00     0.019 C 
ATOM     20  C   LIG d   1       3.047  -0.023  -9.204  0.00  0.00    -0.027 A 
ATOM     21  H   LIG d   1       3.040  -0.249  -7.086  0.00  0.00     0.051 H 
ATOM     22  H   LIG d   1       2.869   1.426  -7.656  0.00  0.00     0.051 H 
ATOM     23  C   LIG d   1       3.973  -0.035 -10.223  0.00  0.00    -0.041 A 
ATOM     24  C   LIG d   1       1.756  -0.475  -9.439  0.00  0.00    -0.057 A 
ATOM     25  C   LIG d   1       5.395   0.425 -10.040  0.00  0.00    -0.011 C 
ATOM     26  C   LIG d   1       3.599  -0.487 -11.483  0.00  0.00    -0.058 A 
ATOM     27  H   LIG d   1       5.710   0.978 -10.925  0.00  0.00     0.033 H 
ATOM     28  H   LIG d   1       6.040  -0.445  -9.915  0.00  0.00     0.033 H 
ATOM     29  C   LIG d   1       2.314  -0.931 -11.716  0.00  0.00    -0.061 A 
ATOM     30  H   LIG d   1       4.321  -0.492 -12.286  0.00  0.00     0.062 H 
ATOM     31  C   LIG d   1       1.389  -0.927 -10.690  0.00  0.00    -0.061 A 
ATOM     32  H   LIG d   1       2.032  -1.280 -12.699  0.00  0.00     0.062 H 
ATOM     33  H   LIG d   1       0.382  -1.278 -10.865  0.00  0.00     0.062 H 
ATOM     34  H   LIG d   1       1.034  -0.473  -8.637  0.00  0.00     0.062 H 
ATOM     35  H   LIG d   1       5.064   2.294  -9.016  0.00  0.00     0.047 H 
ATOM     36  H   LIG d   1       6.574   1.462  -8.562  0.00  0.00     0.047 H 
ENDBRANCH   4  15
BRANCH   5  37
ATOM     37  C   LIG d   1       6.790  -1.056  -4.027  0.00  0.00    -0.058 C 
ATOM     38  H   LIG d   1       7.266  -0.961  -5.003  0.00  0.00     0.024 H 
ATOM     39  H   LIG d   1       7.383  -0.528  -3.280  0.00  0.00     0.024 H 
ATOM     40  H   LIG d   1       6.720  -2.110  -3.758  0.00  0.00     0.024 H 
ENDBRANCH   5  37
BRANCH   5  41
ATOM     41  C   LIG d   1       5.355   0.967  -3.510  0.00  0.00    -0.058 C 
ATOM     42  H   LIG d   1       4.619   1.021  -2.708  0.00  0.00     0.024 H 
ATOM     43  H   LIG d   1       6.340   1.222  -3.117  0.00  0.00     0.024 H 
ATOM     44  H   LIG d   1       5.086   1.671  -4.298  0.00  0.00     0.024 H 
ENDBRANCH   5  41
BRANCH   1  45
ATOM     45  C   LIG d   1       4.487  -1.636  -1.913  0.00  0.00    -0.052 C 
ATOM     46  H   LIG d   1       3.523  -1.536  -1.414  0.00  0.00     0.024 H 
ATOM     47  H   LIG d   1       4.874  -2.643  -1.758  0.00  0.00     0.024 H 
ATOM     48  H   LIG d   1       5.187  -0.910  -1.500  0.00  0.00     0.024 H 
ENDBRANCH   1  45
TORSDOF 4
ENDMDL
MODEL 5
REMARK VINA RESULT:      -6.5      1.479      2.381
REMARK  4 active torsions:
REMARK  status: ('A' for Active; 'I' for Inactive)
REMARK    1  A    between atoms: C_1  and  C_2 
REMARK    2  A    between atoms: C_5  and  C_12 
REMARK    3  A    between atoms: C_6  and  C_7 
REMARK    4  A    between atoms: C_6  and  C_8 
REMARK       I    between atoms: C_12  and  N_14 
ROOT
ATOM      1  C   LIG d   1       4.900   0.316  -3.077  0.00  0.00     0.032 C 
ATOM      2  C   LIG d   1       6.187   0.814  -3.804  0.00  0.00    -0.039 C 
ATOM      3  C   LIG d   1       6.342  -0.135  -5.015  0.00  0.00    -0.037 C 
ATOM      4  C   LIG d   1       5.128  -1.108  -4.905  0.00  0.00     0.060 C 
ATOM      5  C   LIG d   1       4.993  -1.227  -3.345  0.00  0.00    -0.009 C 
ATOM      6  C   LIG d   1       3.889  -0.216  -5.223  0.00  0.00     0.021 C 
ATOM      7  C   LIG d   1       3.739   0.701  -4.004  0.00  0.00     0.141 C 
ATOM      8  O   LIG d   1       2.902   1.552  -3.816  0.00  0.00    -0.297 OA
ATOM      9  H   LIG d   1       6.059   1.843  -4.141  0.00  0.00     0.028 H 
ATOM     10  H   LIG d   1       7.051   0.733  -3.145  0.00  0.00     0.028 H 
ATOM     11  H   LIG d   1       6.296   0.426  -5.947  0.00  0.00     0.028 H 
ATOM     12  H   LIG d   1       7.279  -0.687  -4.947  0.00  0.00     0.028 H 
ATOM     13  H   LIG d   1       4.063   0.367  -6.128  0.00  0.00     0.035 H 
ATOM     14  H   LIG d   1       2.996  -0.832  -5.334  0.00  0.00     0.035 H 
ENDROOT
BRANCH   4  15
ATOM     15  C   LIG d   1       5.245  -2.402  -5.668  0.00  0.00     0.223 C 
ATOM     16  O   LIG d   1       5.529  -3.426  -5.084  0.00  0.00    -0.275 OA
ATOM     17  N   LIG d   1       5.034  -2.422  -6.999  0.00  0.00    -0.296 N 
ATOM     18  C   LIG d   1       4.796  -1.185  -7.751  0.00  0.00     0.040 C 
ATOM     19  C   LIG d   1       5.028  -3.685  -7.755  0.00  0.00     0.019 C 
ATOM     20  C   LIG d   1       3.657  -1.382  -8.713  0.00  0.00    -0.027 A 
ATOM     21  H   LIG d   1       4.550  -0.381  -7.059  0.00  0.00     0.051 H 
ATOM     22  H   LIG d   1       5.695  -0.921  -8.307  0.00  0.00     0.051 H 
ATOM     23  C   LIG d   1       3.129  -2.624  -8.984  0.00  0.00    -0.041 A 
ATOM     24  C   LIG d   1       3.142  -0.259  -9.347  0.00  0.00    -0.057 A 
ATOM     25  C   LIG d   1       3.623  -3.884  -8.324  0.00  0.00    -0.011 C 
ATOM     26  C   LIG d   1       2.092  -2.742  -9.901  0.00  0.00    -0.058 A 
ATOM     27  H   LIG d   1       3.646  -4.689  -9.059  0.00  0.00     0.033 H 
ATOM     28  H   LIG d   1       2.945  -4.156  -7.516  0.00  0.00     0.033 H 
ATOM     29  C   LIG d   1       1.585  -1.626 -10.535  0.00  0.00    -0.061 A 
ATOM     30  H   LIG d   1       1.679  -3.715 -10.121  0.00  0.00     0.062 H 
ATOM     31  C   LIG d   1       2.111  -0.379 -10.255  0.00  0.00    -0.061 A 
ATOM     32  H   LIG d   1       0.780  -1.727 -11.248  0.00  0.00     0.062 H 
ATOM     33  H   LIG d   1       1.715   0.499 -10.745  0.00  0.00     0.062 H 
ATOM     34  H   LIG d   1       3.553   0.715  -9.128  0.00  0.00     0.062 H 
ATOM     35  H   LIG d   1       5.751  -3.632  -8.568  0.00  0.00     0.047 H 
ATOM     36  H   LIG d   1       5.278  -4.513  -7.092  0.00  0.00     0.047 H 
ENDBRANCH   4  15
BRANCH   5  37
ATOM     37  C   LIG d   1       3.715  -1.961  -2.932  0.00  0.00    -0.058 C 
ATOM     38  H   LIG d   1       2.953  -1.823  -3.700  0.00  0.00     0.024 H 
ATOM     39  H   LIG d   1       3.928  -3.023  -2.818  0.00  0.00     0.024 H 
ATOM     40  H   LIG d   1       3.355  -1.557  -1.986  0.00  0.00     0.024 H 
ENDBRANCH   5  37
BRANCH   5  41
ATOM     41  C   LIG d   1       6.236  -1.848  -2.705  0.00  0.00    -0.058 C 
ATOM     42  H   LIG d   1       6.518  -1.273  -1.824  0.00  0.00     0.024 H 
ATOM     43  H   LIG d   1       6.020  -2.876  -2.414  0.00  0.00     0.024 H 
ATOM     44  H   LIG d   1       7.057  -1.839  -3.422  0.00  0.00     0.024 H 
ENDBRANCH   5  41
BRANCH   1  45
ATOM     45  C   LIG d   1       4.754   0.739  -1.614  0.00  0.00    -0.052 C 
ATOM     46  H   LIG d   1       3.823   0.339  -1.211  0.00  0.00     0.024 H 
ATOM     47  H   LIG d   1       5.595   0.352  -1.039  0.00  0.00     0.024 H 
ATOM     48  H   LIG d   1       4.739   1.827  -1.550  0.00  0.00     0.024 H 
ENDBRANCH   1  45
TORSDOF 4
ENDMDL
MODEL 6
REMARK VINA RESULT:      -6.4      1.966      2.676
REMARK  4 active torsions:
REMARK  status: ('A' for Active; 'I' for Inactive)
REMARK    1  A    between atoms: C_1  and  C_2 
REMARK    2  A    between atoms: C_5  and  C_12 
REMARK    3  A    between atoms: C_6  and  C_7 
REMARK    4  A    between atoms: C_6  and  C_8 
REMARK       I    between atoms: C_12  and  N_14 
ROOT
ATOM      1  C   LIG d   1       4.800  -0.988  -3.195  0.00  0.00     0.032 C 
ATOM      2  C   LIG d   1       5.750   0.242  -3.062  0.00  0.00    -0.039 C 
ATOM      3  C   LIG d   1       6.495   0.307  -4.415  0.00  0.00    -0.037 C 
ATOM      4  C   LIG d   1       5.915  -0.885  -5.237  0.00  0.00     0.060 C 
ATOM      5  C   LIG d   1       5.673  -1.934  -4.094  0.00  0.00    -0.009 C 
ATOM      6  C   LIG d   1       4.445  -0.463  -5.542  0.00  0.00     0.021 C 
ATOM      7  C   LIG d   1       3.719  -0.556  -4.196  0.00  0.00     0.141 C 
ATOM      8  O   LIG d   1       2.556  -0.324  -3.963  0.00  0.00    -0.297 OA
ATOM      9  H   LIG d   1       5.173   1.152  -2.901  0.00  0.00     0.028 H 
ATOM     10  H   LIG d   1       6.457   0.089  -2.246  0.00  0.00     0.028 H 
ATOM     11  H   LIG d   1       6.289   1.251  -4.918  0.00  0.00     0.028 H 
ATOM     12  H   LIG d   1       7.567   0.180  -4.266  0.00  0.00     0.028 H 
ATOM     13  H   LIG d   1       4.415   0.555  -5.930  0.00  0.00     0.035 H 
ATOM     14  H   LIG d   1       3.992  -1.154  -6.254  0.00  0.00     0.035 H 
ENDROOT
BRANCH   4  15
ATOM     15  C   LIG d   1       6.744  -1.349  -6.407  0.00  0.00     0.223 C 
ATOM     16  O   LIG d   1       7.390  -2.371  -6.324  0.00  0.00    -0.275 OA
ATOM     17  N   LIG d   1       6.767  -0.627  -7.545  0.00  0.00    -0.296 N 
ATOM     18  C   LIG d   1       6.084   0.667  -7.641  0.00  0.00     0.040 C 
ATOM     19  C   LIG d   1       7.472  -1.110  -8.743  0.00  0.00     0.019 C 
ATOM     20  C   LIG d   1       5.331   0.754  -8.940  0.00  0.00    -0.027 A 
ATOM     21  H   LIG d   1       5.386   0.772  -6.811  0.00  0.00     0.051 H 
ATOM     22  H   LIG d   1       6.820   1.469  -7.598  0.00  0.00     0.051 H 
ATOM     23  C   LIG d   1       5.502  -0.162  -9.953  0.00  0.00    -0.041 A 
ATOM     24  C   LIG d   1       4.444   1.810  -9.107  0.00  0.00    -0.057 A 
ATOM     25  C   LIG d   1       6.433  -1.341  -9.840  0.00  0.00    -0.011 C 
ATOM     26  C   LIG d   1       4.795  -0.012 -11.139  0.00  0.00    -0.058 A 
ATOM     27  H   LIG d   1       6.943  -1.488 -10.792  0.00  0.00     0.033 H 
ATOM     28  H   LIG d   1       5.854  -2.233  -9.603  0.00  0.00     0.033 H 
ATOM     29  C   LIG d   1       3.918   1.040 -11.306  0.00  0.00    -0.061 A 
ATOM     30  H   LIG d   1       4.932  -0.726 -11.938  0.00  0.00     0.062 H 
ATOM     31  C   LIG d   1       3.741   1.954 -10.284  0.00  0.00    -0.061 A 
ATOM     32  H   LIG d   1       3.373   1.150 -12.232  0.00  0.00     0.062 H 
ATOM     33  H   LIG d   1       3.053   2.778 -10.407  0.00  0.00     0.062 H 
ATOM     34  H   LIG d   1       4.305   2.523  -8.308  0.00  0.00     0.062 H 
ATOM     35  H   LIG d   1       8.195  -0.363  -9.072  0.00  0.00     0.047 H 
ATOM     36  H   LIG d   1       7.985  -2.045  -8.518  0.00  0.00     0.047 H 
ENDBRANCH   4  15
BRANCH   5  37
ATOM     37  C   LIG d   1       4.883  -3.149  -4.585  0.00  0.00    -0.058 C 
ATOM     38  H   LIG d   1       4.098  -2.821  -5.267  0.00  0.00     0.024 H 
ATOM     39  H   LIG d   1       5.555  -3.831  -5.107  0.00  0.00     0.024 H 
ATOM     40  H   LIG d   1       4.435  -3.660  -3.733  0.00  0.00     0.024 H 
ENDBRANCH   5  37
BRANCH   5  41
ATOM     41  C   LIG d   1       6.975  -2.344  -3.403  0.00  0.00    -0.058 C 
ATOM     42  H   LIG d   1       7.652  -2.783  -4.135  0.00  0.00     0.024 H 
ATOM     43  H   LIG d   1       7.442  -1.466  -2.956  0.00  0.00     0.024 H 
ATOM     44  H   LIG d   1       6.757  -3.075  -2.624  0.00  0.00     0.024 H 
ENDBRANCH   5  41
BRANCH   1  45
ATOM     45  C   LIG d   1       4.293  -1.585  -1.882  0.00  0.00    -0.052 C 
ATOM     46  H   LIG d   1       3.224  -1.785  -1.962  0.00  0.00     0.024 H 
ATOM     47  H   LIG d   1       4.822  -2.516  -1.678  0.00  0.00     0.024 H 
ATOM     48  H   LIG d   1       4.471  -0.881  -1.070  0.00  0.00     0.024 H 
ENDBRANCH   1  45
TORSDOF 4
ENDMDL
MODEL 7
REMARK VINA RESULT:      -6.2      4.287      6.852
REMARK  4 active torsions:
REMARK  status: ('A' for Active; 'I' for Inactive)
REMARK    1  A    between atoms: C_1  and  C_2 
REMARK    2  A    between atoms: C_5  and  C_12 
REMARK    3  A    between atoms: C_6  and  C_7 
REMARK    4  A    between atoms: C_6  and  C_8 
REMARK       I    between atoms: C_12  and  N_14 
ROOT
ATOM      1  C   LIG d   1      11.178   3.700  -4.392  0.00  0.00     0.032 C 
ATOM      2  C   LIG d   1      10.182   4.186  -5.491  0.00  0.00    -0.039 C 
ATOM      3  C   LIG d   1       9.262   2.971  -5.747  0.00  0.00    -0.037 C 
ATOM      4  C   LIG d   1       9.785   1.872  -4.772  0.00  0.00     0.060 C 
ATOM      5  C   LIG d   1      11.324   2.186  -4.782  0.00  0.00    -0.009 C 
ATOM      6  C   LIG d   1       9.403   2.401  -3.355  0.00  0.00     0.021 C 
ATOM      7  C   LIG d   1      10.341   3.588  -3.110  0.00  0.00     0.141 C 
ATOM      8  O   LIG d   1      10.400   4.296  -2.133  0.00  0.00    -0.297 OA
ATOM      9  H   LIG d   1       9.601   5.034  -5.128  0.00  0.00     0.028 H 
ATOM     10  H   LIG d   1      10.722   4.453  -6.399  0.00  0.00     0.028 H 
ATOM     11  H   LIG d   1       8.227   3.222  -5.517  0.00  0.00     0.028 H 
ATOM     12  H   LIG d   1       9.352   2.637  -6.781  0.00  0.00     0.028 H 
ATOM     13  H   LIG d   1       8.361   2.719  -3.337  0.00  0.00     0.035 H 
ATOM     14  H   LIG d   1       9.579   1.631  -2.603  0.00  0.00     0.035 H 
ENDROOT
BRANCH   4  15
ATOM     15  C   LIG d   1       9.389   0.455  -5.097  0.00  0.00     0.223 C 
ATOM     16  O   LIG d   1      10.225  -0.336  -5.476  0.00  0.00    -0.275 OA
ATOM     17  N   LIG d   1       8.105   0.067  -4.964  0.00  0.00    -0.296 N 
ATOM     18  C   LIG d   1       7.051   1.026  -4.611  0.00  0.00     0.040 C 
ATOM     19  C   LIG d   1       7.704  -1.336  -5.161  0.00  0.00     0.019 C 
ATOM     20  C   LIG d   1       6.151   0.433  -3.562  0.00  0.00    -0.027 A 
ATOM     21  H   LIG d   1       7.505   1.938  -4.226  0.00  0.00     0.051 H 
ATOM     22  H   LIG d   1       6.464   1.260  -5.498  0.00  0.00     0.051 H 
ATOM     23  C   LIG d   1       6.203  -0.898  -3.213  0.00  0.00    -0.041 A 
ATOM     24  C   LIG d   1       5.236   1.274  -2.943  0.00  0.00    -0.057 A 
ATOM     25  C   LIG d   1       7.178  -1.866  -3.828  0.00  0.00    -0.011 C 
ATOM     26  C   LIG d   1       5.327  -1.388  -2.253  0.00  0.00    -0.058 A 
ATOM     27  H   LIG d   1       6.679  -2.821  -3.994  0.00  0.00     0.033 H 
ATOM     28  H   LIG d   1       8.015  -2.014  -3.146  0.00  0.00     0.033 H 
ATOM     29  C   LIG d   1       4.414  -0.553  -1.642  0.00  0.00    -0.061 A 
ATOM     30  H   LIG d   1       5.361  -2.433  -1.981  0.00  0.00     0.062 H 
ATOM     31  C   LIG d   1       4.370   0.784  -1.988  0.00  0.00    -0.061 A 
ATOM     32  H   LIG d   1       3.736  -0.944  -0.898  0.00  0.00     0.062 H 
ATOM     33  H   LIG d   1       3.660   1.445  -1.510  0.00  0.00     0.062 H 
ATOM     34  H   LIG d   1       5.202   2.319  -3.213  0.00  0.00     0.062 H 
ATOM     35  H   LIG d   1       6.920  -1.393  -5.917  0.00  0.00     0.047 H 
ATOM     36  H   LIG d   1       8.565  -1.924  -5.479  0.00  0.00     0.047 H 
ENDBRANCH   4  15
BRANCH   5  37
ATOM     37  C   LIG d   1      12.081   1.389  -3.717  0.00  0.00    -0.058 C 
ATOM     38  H   LIG d   1      12.658   2.072  -3.094  0.00  0.00     0.024 H 
ATOM     39  H   LIG d   1      11.368   0.845  -3.097  0.00  0.00     0.024 H 
ATOM     40  H   LIG d   1      12.754   0.683  -4.203  0.00  0.00     0.024 H 
ENDBRANCH   5  37
BRANCH   5  41
ATOM     41  C   LIG d   1      11.939   2.007  -6.170  0.00  0.00    -0.058 C 
ATOM     42  H   LIG d   1      11.948   0.948  -6.430  0.00  0.00     0.024 H 
ATOM     43  H   LIG d   1      11.350   2.556  -6.904  0.00  0.00     0.024 H 
ATOM     44  H   LIG d   1      12.961   2.388  -6.166  0.00  0.00     0.024 H 
ENDBRANCH   5  41
BRANCH   1  45
ATOM     45  C   LIG d   1      12.479   4.493  -4.272  0.00  0.00    -0.052 C 
ATOM     46  H   LIG d   1      12.893   4.364  -3.271  0.00  0.00     0.024 H 
ATOM     47  H   LIG d   1      13.195   4.131  -5.010  0.00  0.00     0.024 H 
ATOM     48  H   LIG d   1      12.278   5.550  -4.448  0.00  0.00     0.024 H 
ENDBRANCH   1  45
TORSDOF 4
ENDMDL
MODEL 8
REMARK VINA RESULT:      -6.2      3.366      5.174
REMARK  4 active torsions:
REMARK  status: ('A' for Active; 'I' for Inactive)
REMARK    1  A    between atoms: C_1  and  C_2 
REMARK    2  A    between atoms: C_5  and  C_12 
REMARK    3  A    between atoms: C_6  and  C_7 
REMARK    4  A    between atoms: C_6  and  C_8 
REMARK       I    between atoms: C_12  and  N_14 
ROOT
ATOM      1  C   LIG d   1       4.653  -1.042  -2.978  0.00  0.00     0.032 C 
ATOM      2  C   LIG d   1       5.910  -1.894  -2.619  0.00  0.00    -0.039 C 
ATOM      3  C   LIG d   1       7.017  -1.371  -3.562  0.00  0.00    -0.037 C 
ATOM      4  C   LIG d   1       6.324  -0.248  -4.392  0.00  0.00     0.060 C 
ATOM      5  C   LIG d   1       4.873  -0.835  -4.518  0.00  0.00    -0.009 C 
ATOM      6  C   LIG d   1       6.073   0.895  -3.360  0.00  0.00     0.021 C 
ATOM      7  C   LIG d   1       4.958   0.367  -2.450  0.00  0.00     0.141 C 
ATOM      8  O   LIG d   1       4.441   0.926  -1.512  0.00  0.00    -0.297 OA
ATOM      9  H   LIG d   1       6.191  -1.737  -1.578  0.00  0.00     0.028 H 
ATOM     10  H   LIG d   1       5.718  -2.951  -2.807  0.00  0.00     0.028 H 
ATOM     11  H   LIG d   1       7.846  -0.962  -2.986  0.00  0.00     0.028 H 
ATOM     12  H   LIG d   1       7.366  -2.169  -4.219  0.00  0.00     0.028 H 
ATOM     13  H   LIG d   1       6.979   1.095  -2.789  0.00  0.00     0.035 H 
ATOM     14  H   LIG d   1       5.737   1.799  -3.869  0.00  0.00     0.035 H 
ENDROOT
BRANCH   4  15
ATOM     15  C   LIG d   1       7.003   0.140  -5.680  0.00  0.00     0.223 C 
ATOM     16  O   LIG d   1       6.514  -0.178  -6.743  0.00  0.00    -0.275 OA
ATOM     17  N   LIG d   1       8.154   0.840  -5.651  0.00  0.00    -0.296 N 
ATOM     18  C   LIG d   1       8.828   1.147  -4.384  0.00  0.00     0.040 C 
ATOM     19  C   LIG d   1       8.783   1.333  -6.888  0.00  0.00     0.019 C 
ATOM     20  C   LIG d   1       9.279   2.582  -4.379  0.00  0.00    -0.027 A 
ATOM     21  H   LIG d   1       8.139   0.982  -3.558  0.00  0.00     0.051 H 
ATOM     22  H   LIG d   1       9.695   0.497  -4.269  0.00  0.00     0.051 H 
ATOM     23  C   LIG d   1       9.264   3.363  -5.513  0.00  0.00    -0.041 A 
ATOM     24  C   LIG d   1       9.733   3.115  -3.180  0.00  0.00    -0.057 A 
ATOM     25  C   LIG d   1       8.771   2.861  -6.844  0.00  0.00    -0.011 C 
ATOM     26  C   LIG d   1       9.716   4.675  -5.447  0.00  0.00    -0.058 A 
ATOM     27  H   LIG d   1       9.415   3.247  -7.634  0.00  0.00     0.033 H 
ATOM     28  H   LIG d   1       7.753   3.216  -7.008  0.00  0.00     0.033 H 
ATOM     29  C   LIG d   1      10.173   5.201  -4.256  0.00  0.00    -0.061 A 
ATOM     30  H   LIG d   1       9.712   5.288  -6.336  0.00  0.00     0.062 H 
ATOM     31  C   LIG d   1      10.179   4.418  -3.117  0.00  0.00    -0.061 A 
ATOM     32  H   LIG d   1      10.524   6.222  -4.214  0.00  0.00     0.062 H 
ATOM     33  H   LIG d   1      10.532   4.826  -2.180  0.00  0.00     0.062 H 
ATOM     34  H   LIG d   1       9.738   2.503  -2.290  0.00  0.00     0.062 H 
ATOM     35  H   LIG d   1       9.810   0.974  -6.948  0.00  0.00     0.047 H 
ATOM     36  H   LIG d   1       8.219   0.984  -7.753  0.00  0.00     0.047 H 
ENDBRANCH   4  15
BRANCH   5  37
ATOM     37  C   LIG d   1       3.890   0.180  -5.107  0.00  0.00    -0.058 C 
ATOM     38  H   LIG d   1       4.034   0.240  -6.186  0.00  0.00     0.024 H 
ATOM     39  H   LIG d   1       2.870  -0.137  -4.893  0.00  0.00     0.024 H 
ATOM     40  H   LIG d   1       4.068   1.159  -4.662  0.00  0.00     0.024 H 
ENDBRANCH   5  37
BRANCH   5  41
ATOM     41  C   LIG d   1       4.851  -2.158  -5.285  0.00  0.00    -0.058 C 
ATOM     42  H   LIG d   1       4.663  -1.963  -6.341  0.00  0.00     0.024 H 
ATOM     43  H   LIG d   1       5.812  -2.659  -5.173  0.00  0.00     0.024 H 
ATOM     44  H   LIG d   1       4.061  -2.795  -4.888  0.00  0.00     0.024 H 
ENDBRANCH   5  41
BRANCH   1  45
ATOM     45  C   LIG d   1       3.305  -1.633  -2.562  0.00  0.00    -0.052 C 
ATOM     46  H   LIG d   1       2.604  -1.557  -3.394  0.00  0.00     0.024 H 
ATOM     47  H   LIG d   1       3.436  -2.681  -2.292  0.00  0.00     0.024 H 
ATOM     48  H   LIG d   1       2.915  -1.082  -1.707  0.00  0.00     0.024 H 
ENDBRANCH   1  45
TORSDOF 4
ENDMDL
MODEL 9
REMARK VINA RESULT:      -6.0      2.466      6.631
REMARK  4 active torsions:
REMARK  status: ('A' for Active; 'I' for Inactive)
REMARK    1  A    between atoms: C_1  and  C_2 
REMARK    2  A    between atoms: C_5  and  C_12 
REMARK    3  A    between atoms: C_6  and  C_7 
REMARK    4  A    between atoms: C_6  and  C_8 
REMARK       I    between atoms: C_12  and  N_14 
ROOT
ATOM      1  C   LIG d   1       3.887  -3.067 -10.719  0.00  0.00     0.032 C 
ATOM      2  C   LIG d   1       5.272  -2.355 -10.631  0.00  0.00    -0.039 C 
ATOM      3  C   LIG d   1       5.100  -1.305  -9.510  0.00  0.00    -0.037 C 
ATOM      4  C   LIG d   1       3.630  -1.490  -9.025  0.00  0.00     0.060 C 
ATOM      5  C   LIG d   1       2.926  -1.874 -10.374  0.00  0.00    -0.009 C 
ATOM      6  C   LIG d   1       3.633  -2.876  -8.309  0.00  0.00     0.021 C 
ATOM      7  C   LIG d   1       3.781  -3.903  -9.437  0.00  0.00     0.141 C 
ATOM      8  O   LIG d   1       3.823  -5.107  -9.342  0.00  0.00    -0.297 OA
ATOM      9  H   LIG d   1       6.050  -3.071 -10.366  0.00  0.00     0.028 H 
ATOM     10  H   LIG d   1       5.509  -1.867 -11.577  0.00  0.00     0.028 H 
ATOM     11  H   LIG d   1       5.798  -1.499  -8.696  0.00  0.00     0.028 H 
ATOM     12  H   LIG d   1       5.246  -0.299  -9.906  0.00  0.00     0.028 H 
ATOM     13  H   LIG d   1       4.468  -2.941  -7.612  0.00  0.00     0.035 H 
ATOM     14  H   LIG d   1       2.689  -3.035  -7.786  0.00  0.00     0.035 H 
ENDROOT
BRANCH   4  15
ATOM     15  C   LIG d   1       3.033  -0.335  -8.263  0.00  0.00     0.223 C 
ATOM     16  O   LIG d   1       2.166   0.343  -8.771  0.00  0.00    -0.275 OA
ATOM     17  N   LIG d   1       3.463  -0.056  -7.016  0.00  0.00    -0.296 N 
ATOM     18  C   LIG d   1       4.583  -0.788  -6.414  0.00  0.00     0.040 C 
ATOM     19  C   LIG d   1       2.823   0.990  -6.202  0.00  0.00     0.019 C 
ATOM     20  C   LIG d   1       4.250  -1.155  -4.994  0.00  0.00    -0.027 A 
ATOM     21  H   LIG d   1       4.774  -1.694  -6.987  0.00  0.00     0.051 H 
ATOM     22  H   LIG d   1       5.473  -0.159  -6.423  0.00  0.00     0.051 H 
ATOM     23  C   LIG d   1       3.158  -0.637  -4.336  0.00  0.00    -0.041 A 
ATOM     24  C   LIG d   1       5.093  -2.043  -4.339  0.00  0.00    -0.057 A 
ATOM     25  C   LIG d   1       2.190   0.317  -4.985  0.00  0.00    -0.011 C 
ATOM     26  C   LIG d   1       2.918  -0.998  -3.016  0.00  0.00    -0.058 A 
ATOM     27  H   LIG d   1       1.901   1.081  -4.263  0.00  0.00     0.033 H 
ATOM     28  H   LIG d   1       1.302  -0.231  -5.300  0.00  0.00     0.033 H 
ATOM     29  C   LIG d   1       3.760  -1.876  -2.364  0.00  0.00    -0.061 A 
ATOM     30  H   LIG d   1       2.066  -0.588  -2.495  0.00  0.00     0.062 H 
ATOM     31  C   LIG d   1       4.851  -2.402  -3.030  0.00  0.00    -0.061 A 
ATOM     32  H   LIG d   1       3.567  -2.150  -1.337  0.00  0.00     0.062 H 
ATOM     33  H   LIG d   1       5.512  -3.093  -2.526  0.00  0.00     0.062 H 
ATOM     34  H   LIG d   1       5.945  -2.454  -4.859  0.00  0.00     0.062 H 
ATOM     35  H   LIG d   1       3.571   1.713  -5.876  0.00  0.00     0.047 H 
ATOM     36  H   LIG d   1       2.054   1.494  -6.787  0.00  0.00     0.047 H 
ENDBRANCH   4  15
BRANCH   5  37
ATOM     37  C   LIG d   1       1.485  -2.342 -10.159  0.00  0.00    -0.058 C 
ATOM     38  H   LIG d   1       1.363  -3.345 -10.570  0.00  0.00     0.024 H 
ATOM     39  H   LIG d   1       1.264  -2.357  -9.092  0.00  0.00     0.024 H 
ATOM     40  H   LIG d   1       0.802  -1.658 -10.663  0.00  0.00     0.024 H 
ENDBRANCH   5  37
BRANCH   5  41
ATOM     41  C   LIG d   1       3.010  -0.750 -11.408  0.00  0.00    -0.058 C 
ATOM     42  H   LIG d   1       2.572   0.158 -10.994  0.00  0.00     0.024 H 
ATOM     43  H   LIG d   1       4.054  -0.568 -11.663  0.00  0.00     0.024 H 
ATOM     44  H   LIG d   1       2.462  -1.041 -12.305  0.00  0.00     0.024 H 
ENDBRANCH   5  41
BRANCH   1  45
ATOM     45  C   LIG d   1       3.599  -3.808 -12.025  0.00  0.00    -0.052 C 
ATOM     46  H   LIG d   1       2.595  -4.232 -11.989  0.00  0.00     0.024 H 
ATOM     47  H   LIG d   1       3.669  -3.112 -12.861  0.00  0.00     0.024 H 
ATOM     48  H   LIG d   1       4.327  -4.608 -12.157  0.00  0.00     0.024 H 
ENDBRANCH   1  45
TORSDOF 4
ENDMDL
MODEL 10
REMARK VINA RESULT:      -6.0      1.994      5.621
REMARK  4 active torsions:
REMARK  status: ('A' for Active; 'I' for Inactive)
REMARK    1  A    between atoms: C_1  and  C_2 
REMARK    2  A    between atoms: C_5  and  C_12 
REMARK    3  A    between atoms: C_6  and  C_7 
REMARK    4  A    between atoms: C_6  and  C_8 
REMARK       I    between atoms: C_12  and  N_14 
ROOT
ATOM      1  C   LIG d   1       6.715   0.742  -9.019  0.00  0.00     0.032 C 
ATOM      2  C   LIG d   1       6.491  -0.287 -10.170  0.00  0.00    -0.039 C 
ATOM      3  C   LIG d   1       5.837  -1.506  -9.480  0.00  0.00    -0.037 C 
ATOM      4  C   LIG d   1       5.723  -1.092  -7.982  0.00  0.00     0.060 C 
ATOM      5  C   LIG d   1       7.023  -0.225  -7.822  0.00  0.00    -0.009 C 
ATOM      6  C   LIG d   1       4.639   0.030  -7.974  0.00  0.00     0.021 C 
ATOM      7  C   LIG d   1       5.312   1.235  -8.640  0.00  0.00     0.141 C 
ATOM      8  O   LIG d   1       4.841   2.330  -8.840  0.00  0.00    -0.297 OA
ATOM      9  H   LIG d   1       5.822   0.127 -10.925  0.00  0.00     0.028 H 
ATOM     10  H   LIG d   1       7.443  -0.568 -10.619  0.00  0.00     0.028 H 
ATOM     11  H   LIG d   1       4.849  -1.697  -9.899  0.00  0.00     0.028 H 
ATOM     12  H   LIG d   1       6.472  -2.387  -9.584  0.00  0.00     0.028 H 
ATOM     13  H   LIG d   1       3.762  -0.286  -8.538  0.00  0.00     0.035 H 
ATOM     14  H   LIG d   1       4.361   0.281  -6.949  0.00  0.00     0.035 H 
ENDROOT
BRANCH   4  15
ATOM     15  C   LIG d   1       5.543  -2.216  -6.995  0.00  0.00     0.223 C 
ATOM     16  O   LIG d   1       6.094  -3.280  -7.180  0.00  0.00    -0.275 OA
ATOM     17  N   LIG d   1       4.769  -2.039  -5.905  0.00  0.00    -0.296 N 
ATOM     18  C   LIG d   1       4.003  -0.804  -5.707  0.00  0.00     0.040 C 
ATOM     19  C   LIG d   1       4.663  -3.075  -4.865  0.00  0.00     0.019 C 
ATOM     20  C   LIG d   1       4.142  -0.338  -4.284  0.00  0.00    -0.027 A 
ATOM     21  H   LIG d   1       4.378  -0.033  -6.379  0.00  0.00     0.051 H 
ATOM     22  H   LIG d   1       2.951  -0.991  -5.922  0.00  0.00     0.051 H 
ATOM     23  C   LIG d   1       4.702  -1.125  -3.303  0.00  0.00    -0.041 A 
ATOM     24  C   LIG d   1       3.674   0.930  -3.967  0.00  0.00    -0.057 A 
ATOM     25  C   LIG d   1       5.246  -2.503  -3.573  0.00  0.00    -0.011 C 
ATOM     26  C   LIG d   1       4.780  -0.646  -2.001  0.00  0.00    -0.058 A 
ATOM     27  H   LIG d   1       4.987  -3.160  -2.742  0.00  0.00     0.033 H 
ATOM     28  H   LIG d   1       6.331  -2.451  -3.661  0.00  0.00     0.033 H 
ATOM     29  C   LIG d   1       4.310   0.613  -1.687  0.00  0.00    -0.061 A 
ATOM     30  H   LIG d   1       5.213  -1.263  -1.228  0.00  0.00     0.062 H 
ATOM     31  C   LIG d   1       3.756   1.405  -2.675  0.00  0.00    -0.061 A 
ATOM     32  H   LIG d   1       4.373   0.977  -0.672  0.00  0.00     0.062 H 
ATOM     33  H   LIG d   1       3.389   2.393  -2.436  0.00  0.00     0.062 H 
ATOM     34  H   LIG d   1       3.242   1.549  -4.740  0.00  0.00     0.062 H 
ATOM     35  H   LIG d   1       3.617  -3.339  -4.712  0.00  0.00     0.047 H 
ATOM     36  H   LIG d   1       5.227  -3.958  -5.165  0.00  0.00     0.047 H 
ENDBRANCH   4  15
BRANCH   5  37
ATOM     37  C   LIG d   1       7.061   0.514  -6.482  0.00  0.00    -0.058 C 
ATOM     38  H   LIG d   1       6.101   0.399  -5.976  0.00  0.00     0.024 H 
ATOM     39  H   LIG d   1       7.852   0.096  -5.860  0.00  0.00     0.024 H 
ATOM     40  H   LIG d   1       7.255   1.572  -6.656  0.00  0.00     0.024 H 
ENDBRANCH   5  37
BRANCH   5  41
ATOM     41  C   LIG d   1       8.294  -1.044  -8.055  0.00  0.00    -0.058 C 
ATOM     42  H   LIG d   1       8.029  -2.088  -8.219  0.00  0.00     0.024 H 
ATOM     43  H   LIG d   1       8.819  -0.659  -8.930  0.00  0.00     0.024 H 
ATOM     44  H   LIG d   1       8.940  -0.967  -7.180  0.00  0.00     0.024 H 
ENDBRANCH   5  41
BRANCH   1  45
ATOM     45  C   LIG d   1       7.754   1.831  -9.291  0.00  0.00    -0.052 C 
ATOM     46  H   LIG d   1       7.351   2.800  -8.994  0.00  0.00     0.024 H 
ATOM     47  H   LIG d   1       8.657   1.622  -8.717  0.00  0.00     0.024 H 
ATOM     48  H   LIG d   1       7.994   1.847 -10.353  0.00  0.00     0.024 H 
ENDBRANCH   1  45
TORSDOF 4
ENDMDL
