MODEL 1
REMARK VINA RESULT:      -5.3      0.000      0.000
REMARK  3 active torsions:
REMARK  status: ('A' for Active; 'I' for Inactive)
REMARK    1  A    between atoms: C_1  and  C_2 
REMARK    2  A    between atoms: N_7  and  C_8 
REMARK    3  A    between atoms: C_8  and  C_9 
ROOT
ATOM      1  C   LIG d   1       3.796   0.780  -2.723  0.00  0.00     0.181 A 
ATOM      2  C   LIG d   1       3.346   1.926  -3.352  0.00  0.00     0.005 A 
ATOM      3  C   LIG d   1       2.569   1.809  -4.494  0.00  0.00    -0.050 A 
ATOM      4  C   LIG d   1       2.276   0.539  -4.966  0.00  0.00     0.002 A 
ATOM      5  C   LIG d   1       2.764  -0.561  -4.287  0.00  0.00     0.172 A 
ATOM      6  N   LIG d   1       3.501  -0.413  -3.203  0.00  0.00    -0.197 N 
ATOM      7  H   LIG d   1       3.595   2.900  -2.957  0.00  0.00     0.068 H 
ATOM      8  H   LIG d   1       2.200   2.688  -5.004  0.00  0.00     0.062 H 
ATOM      9  H   LIG d   1       1.673   0.411  -5.852  0.00  0.00     0.068 H 
ATOM     10  H   LIG d   1       2.540  -1.554  -4.648  0.00  0.00     0.138 H 
ENDROOT
BRANCH   6  11
ATOM     11  C   LIG d   1       4.000  -1.603  -2.511  0.00  0.00     0.176 C 
ATOM     12  H   LIG d   1       3.182  -2.311  -2.369  0.00  0.00     0.108 H 
ATOM     13  H   LIG d   1       4.404  -1.317  -1.540  0.00  0.00     0.108 H 
BRANCH  11  14
ATOM     14  C   LIG d   1       5.084  -2.247  -3.336  0.00  0.00     0.017 A 
ATOM     15  C   LIG d   1       4.768  -3.264  -4.218  0.00  0.00    -0.053 A 
ATOM     16  C   LIG d   1       5.761  -3.855  -4.976  0.00  0.00    -0.061 A 
ATOM     17  H   LIG d   1       3.745  -3.596  -4.316  0.00  0.00     0.062 H 
ATOM     18  C   LIG d   1       7.071  -3.428  -4.854  0.00  0.00    -0.062 A 
ATOM     19  H   LIG d   1       5.514  -4.649  -5.666  0.00  0.00     0.062 H 
ATOM     20  C   LIG d   1       7.387  -2.412  -3.972  0.00  0.00    -0.061 A 
ATOM     21  H   LIG d   1       7.847  -3.890  -5.446  0.00  0.00     0.062 H 
ATOM     22  C   LIG d   1       6.392  -1.817  -3.217  0.00  0.00    -0.053 A 
ATOM     23  H   LIG d   1       8.410  -2.079  -3.876  0.00  0.00     0.062 H 
ATOM     24  H   LIG d   1       6.638  -1.020  -2.531  0.00  0.00     0.062 H 
ENDBRANCH  11  14
ENDBRANCH   6  11
BRANCH   1  25
ATOM     25  C   LIG d   1       4.637   0.894  -1.478  0.00  0.00     0.021 C 
ATOM     26  H   LIG d   1       5.663   1.140  -1.754  0.00  0.00     0.034 H 
ATOM     27  H   LIG d   1       4.234   1.679  -0.838  0.00  0.00     0.034 H 
ATOM     28  H   LIG d   1       4.622  -0.055  -0.942  0.00  0.00     0.034 H 
ENDBRANCH   1  25
TORSDOF 3
ENDMDL
MODEL 2
REMARK VINA RESULT:      -5.3      3.257      4.813
REMARK  3 active torsions:
REMARK  status: ('A' for Active; 'I' for Inactive)
REMARK    1  A    between atoms: C_1  and  C_2 
REMARK    2  A    between atoms: N_7  and  C_8 
REMARK    3  A    between atoms: C_8  and  C_9 
ROOT
ATOM      1  C   LIG d   1       2.937   0.038  -8.343  0.00  0.00     0.181 A 
ATOM      2  C   LIG d   1       2.100  -0.438  -9.336  0.00  0.00     0.005 A 
ATOM      3  C   LIG d   1       2.136  -1.785  -9.661  0.00  0.00    -0.050 A 
ATOM      4  C   LIG d   1       3.018  -2.606  -8.976  0.00  0.00     0.002 A 
ATOM      5  C   LIG d   1       3.827  -2.059  -7.999  0.00  0.00     0.172 A 
ATOM      6  N   LIG d   1       3.767  -0.772  -7.716  0.00  0.00    -0.197 N 
ATOM      7  H   LIG d   1       1.426   0.231  -9.849  0.00  0.00     0.068 H 
ATOM      8  H   LIG d   1       1.491  -2.185 -10.430  0.00  0.00     0.062 H 
ATOM      9  H   LIG d   1       3.072  -3.660  -9.203  0.00  0.00     0.068 H 
ATOM     10  H   LIG d   1       4.518  -2.692  -7.461  0.00  0.00     0.138 H 
ENDROOT
BRANCH   6  11
ATOM     11  C   LIG d   1       4.641  -0.229  -6.673  0.00  0.00     0.176 C 
ATOM     12  H   LIG d   1       4.610   0.861  -6.705  0.00  0.00     0.108 H 
ATOM     13  H   LIG d   1       5.662  -0.569  -6.841  0.00  0.00     0.108 H 
BRANCH  11  14
ATOM     14  C   LIG d   1       4.168  -0.705  -5.324  0.00  0.00     0.017 A 
ATOM     15  C   LIG d   1       3.106  -0.075  -4.702  0.00  0.00    -0.053 A 
ATOM     16  C   LIG d   1       2.672  -0.511  -3.464  0.00  0.00    -0.061 A 
ATOM     17  H   LIG d   1       2.616   0.759  -5.182  0.00  0.00     0.062 H 
ATOM     18  C   LIG d   1       3.298  -1.580  -2.849  0.00  0.00    -0.062 A 
ATOM     19  H   LIG d   1       1.842  -0.019  -2.979  0.00  0.00     0.062 H 
ATOM     20  C   LIG d   1       4.360  -2.210  -3.471  0.00  0.00    -0.061 A 
ATOM     21  H   LIG d   1       2.959  -1.920  -1.882  0.00  0.00     0.062 H 
ATOM     22  C   LIG d   1       4.791  -1.776  -4.711  0.00  0.00    -0.053 A 
ATOM     23  H   LIG d   1       4.849  -3.044  -2.990  0.00  0.00     0.062 H 
ATOM     24  H   LIG d   1       5.617  -2.272  -5.199  0.00  0.00     0.062 H 
ENDBRANCH  11  14
ENDBRANCH   6  11
BRANCH   1  25
ATOM     25  C   LIG d   1       2.903   1.499  -7.977  0.00  0.00     0.021 C 
ATOM     26  H   LIG d   1       2.341   1.630  -7.053  0.00  0.00     0.034 H 
ATOM     27  H   LIG d   1       3.922   1.862  -7.838  0.00  0.00     0.034 H 
ATOM     28  H   LIG d   1       2.424   2.062  -8.778  0.00  0.00     0.034 H 
ENDBRANCH   1  25
TORSDOF 3
ENDMDL
MODEL 3
REMARK VINA RESULT:      -5.3      2.837      4.864
REMARK  3 active torsions:
REMARK  status: ('A' for Active; 'I' for Inactive)
REMARK    1  A    between atoms: C_1  and  C_2 
REMARK    2  A    between atoms: N_7  and  C_8 
REMARK    3  A    between atoms: C_8  and  C_9 
ROOT
ATOM      1  C   LIG d   1       4.847  -1.920  -4.467  0.00  0.00     0.181 A 
ATOM      2  C   LIG d   1       4.284  -2.338  -3.275  0.00  0.00     0.005 A 
ATOM      3  C   LIG d   1       3.264  -1.588  -2.711  0.00  0.00    -0.050 A 
ATOM      4  C   LIG d   1       2.849  -0.439  -3.366  0.00  0.00     0.002 A 
ATOM      5  C   LIG d   1       3.461  -0.081  -4.551  0.00  0.00     0.172 A 
ATOM      6  N   LIG d   1       4.429  -0.818  -5.060  0.00  0.00    -0.197 N 
ATOM      7  H   LIG d   1       4.633  -3.238  -2.793  0.00  0.00     0.068 H 
ATOM      8  H   LIG d   1       2.803  -1.893  -1.782  0.00  0.00     0.062 H 
ATOM      9  H   LIG d   1       2.056   0.168  -2.954  0.00  0.00     0.068 H 
ATOM     10  H   LIG d   1       3.144   0.813  -5.067  0.00  0.00     0.138 H 
ENDROOT
BRANCH   6  11
ATOM     11  C   LIG d   1       5.054  -0.406  -6.319  0.00  0.00     0.176 C 
ATOM     12  H   LIG d   1       5.863  -1.095  -6.566  0.00  0.00     0.108 H 
ATOM     13  H   LIG d   1       5.454   0.601  -6.214  0.00  0.00     0.108 H 
BRANCH  11  14
ATOM     14  C   LIG d   1       4.025  -0.427  -7.420  0.00  0.00     0.017 A 
ATOM     15  C   LIG d   1       3.477   0.758  -7.875  0.00  0.00    -0.053 A 
ATOM     16  C   LIG d   1       2.533   0.740  -8.885  0.00  0.00    -0.061 A 
ATOM     17  H   LIG d   1       3.786   1.698  -7.442  0.00  0.00     0.062 H 
ATOM     18  C   LIG d   1       2.138  -0.463  -9.441  0.00  0.00    -0.062 A 
ATOM     19  H   LIG d   1       2.106   1.666  -9.241  0.00  0.00     0.062 H 
ATOM     20  C   LIG d   1       2.687  -1.648  -8.986  0.00  0.00    -0.061 A 
ATOM     21  H   LIG d   1       1.401  -0.477 -10.230  0.00  0.00     0.062 H 
ATOM     22  C   LIG d   1       3.634  -1.629  -7.978  0.00  0.00    -0.053 A 
ATOM     23  H   LIG d   1       2.378  -2.587  -9.420  0.00  0.00     0.062 H 
ATOM     24  H   LIG d   1       4.066  -2.554  -7.626  0.00  0.00     0.062 H 
ENDBRANCH  11  14
ENDBRANCH   6  11
BRANCH   1  25
ATOM     25  C   LIG d   1       5.952  -2.729  -5.093  0.00  0.00     0.021 C 
ATOM     26  H   LIG d   1       6.102  -3.644  -4.521  0.00  0.00     0.034 H 
ATOM     27  H   LIG d   1       5.682  -2.982  -6.119  0.00  0.00     0.034 H 
ATOM     28  H   LIG d   1       6.873  -2.146  -5.094  0.00  0.00     0.034 H 
ENDBRANCH   1  25
TORSDOF 3
ENDMDL
MODEL 4
REMARK VINA RESULT:      -5.2      2.848      4.326
REMARK  3 active torsions:
REMARK  status: ('A' for Active; 'I' for Inactive)
REMARK    1  A    between atoms: C_1  and  C_2 
REMARK    2  A    between atoms: N_7  and  C_8 
REMARK    3  A    between atoms: C_8  and  C_9 
ROOT
ATOM      1  C   LIG d   1       5.230  -0.078  -7.575  0.00  0.00     0.181 A 
ATOM      2  C   LIG d   1       5.119   0.802  -8.636  0.00  0.00     0.005 A 
ATOM      3  C   LIG d   1       3.918   1.462  -8.842  0.00  0.00    -0.050 A 
ATOM      4  C   LIG d   1       2.867   1.208  -7.975  0.00  0.00     0.002 A 
ATOM      5  C   LIG d   1       3.050   0.312  -6.940  0.00  0.00     0.172 A 
ATOM      6  N   LIG d   1       4.207  -0.300  -6.773  0.00  0.00    -0.197 N 
ATOM      7  H   LIG d   1       5.959   0.976  -9.291  0.00  0.00     0.068 H 
ATOM      8  H   LIG d   1       3.805   2.160  -9.660  0.00  0.00     0.062 H 
ATOM      9  H   LIG d   1       1.918   1.705  -8.106  0.00  0.00     0.068 H 
ATOM     10  H   LIG d   1       2.236   0.107  -6.260  0.00  0.00     0.138 H 
ENDROOT
BRANCH   6  11
ATOM     11  C   LIG d   1       4.363  -1.243  -5.664  0.00  0.00     0.176 C 
ATOM     12  H   LIG d   1       5.305  -1.781  -5.774  0.00  0.00     0.108 H 
ATOM     13  H   LIG d   1       3.537  -1.953  -5.672  0.00  0.00     0.108 H 
BRANCH  11  14
ATOM     14  C   LIG d   1       4.365  -0.489  -4.359  0.00  0.00     0.017 A 
ATOM     15  C   LIG d   1       3.215  -0.424  -3.596  0.00  0.00    -0.053 A 
ATOM     16  C   LIG d   1       3.217   0.268  -2.400  0.00  0.00    -0.061 A 
ATOM     17  H   LIG d   1       2.314  -0.914  -3.935  0.00  0.00     0.062 H 
ATOM     18  C   LIG d   1       4.370   0.894  -1.965  0.00  0.00    -0.062 A 
ATOM     19  H   LIG d   1       2.317   0.318  -1.803  0.00  0.00     0.062 H 
ATOM     20  C   LIG d   1       5.521   0.829  -2.728  0.00  0.00    -0.061 A 
ATOM     21  H   LIG d   1       4.372   1.434  -1.029  0.00  0.00     0.062 H 
ATOM     22  C   LIG d   1       5.520   0.133  -3.923  0.00  0.00    -0.053 A 
ATOM     23  H   LIG d   1       6.422   1.318  -2.388  0.00  0.00     0.062 H 
ATOM     24  H   LIG d   1       6.420   0.078  -4.516  0.00  0.00     0.062 H 
ENDBRANCH  11  14
ENDBRANCH   6  11
BRANCH   1  25
ATOM     25  C   LIG d   1       6.533  -0.798  -7.337  0.00  0.00     0.021 C 
ATOM     26  H   LIG d   1       7.074  -0.311  -6.526  0.00  0.00     0.034 H 
ATOM     27  H   LIG d   1       6.330  -1.835  -7.069  0.00  0.00     0.034 H 
ATOM     28  H   LIG d   1       7.134  -0.769  -8.246  0.00  0.00     0.034 H 
ENDBRANCH   1  25
TORSDOF 3
ENDMDL
MODEL 5
REMARK VINA RESULT:      -5.2      2.579      4.182
REMARK  3 active torsions:
REMARK  status: ('A' for Active; 'I' for Inactive)
REMARK    1  A    between atoms: C_1  and  C_2 
REMARK    2  A    between atoms: N_7  and  C_8 
REMARK    3  A    between atoms: C_8  and  C_9 
ROOT
ATOM      1  C   LIG d   1       4.655  -1.317  -3.132  0.00  0.00     0.181 A 
ATOM      2  C   LIG d   1       4.283  -0.778  -1.914  0.00  0.00     0.005 A 
ATOM      3  C   LIG d   1       4.614   0.537  -1.629  0.00  0.00    -0.050 A 
ATOM      4  C   LIG d   1       5.313   1.264  -2.580  0.00  0.00     0.002 A 
ATOM      5  C   LIG d   1       5.656   0.657  -3.773  0.00  0.00     0.172 A 
ATOM      6  N   LIG d   1       5.325  -0.598  -4.011  0.00  0.00    -0.197 N 
ATOM      7  H   LIG d   1       3.739  -1.374  -1.197  0.00  0.00     0.068 H 
ATOM      8  H   LIG d   1       4.332   0.986  -0.687  0.00  0.00     0.062 H 
ATOM      9  H   LIG d   1       5.587   2.291  -2.391  0.00  0.00     0.068 H 
ATOM     10  H   LIG d   1       6.202   1.216  -4.519  0.00  0.00     0.138 H 
ENDROOT
BRANCH   6  11
ATOM     11  C   LIG d   1       5.706  -1.206  -5.288  0.00  0.00     0.176 C 
ATOM     12  H   LIG d   1       5.411  -2.257  -5.292  0.00  0.00     0.108 H 
ATOM     13  H   LIG d   1       6.785  -1.132  -5.419  0.00  0.00     0.108 H 
BRANCH  11  14
ATOM     14  C   LIG d   1       5.011  -0.486  -6.414  0.00  0.00     0.017 A 
ATOM     15  C   LIG d   1       3.634  -0.367  -6.413  0.00  0.00    -0.053 A 
ATOM     16  C   LIG d   1       2.996   0.294  -7.446  0.00  0.00    -0.061 A 
ATOM     17  H   LIG d   1       3.056  -0.791  -5.605  0.00  0.00     0.062 H 
ATOM     18  C   LIG d   1       3.736   0.838  -8.480  0.00  0.00    -0.062 A 
ATOM     19  H   LIG d   1       1.920   0.387  -7.444  0.00  0.00     0.062 H 
ATOM     20  C   LIG d   1       5.113   0.719  -8.481  0.00  0.00    -0.061 A 
ATOM     21  H   LIG d   1       3.237   1.354  -9.287  0.00  0.00     0.062 H 
ATOM     22  C   LIG d   1       5.751   0.062  -7.446  0.00  0.00    -0.053 A 
ATOM     23  H   LIG d   1       5.690   1.144  -9.289  0.00  0.00     0.062 H 
ATOM     24  H   LIG d   1       6.827  -0.027  -7.444  0.00  0.00     0.062 H 
ENDBRANCH  11  14
ENDBRANCH   6  11
BRANCH   1  25
ATOM     25  C   LIG d   1       4.297  -2.745  -3.456  0.00  0.00     0.021 C 
ATOM     26  H   LIG d   1       5.074  -3.181  -4.083  0.00  0.00     0.034 H 
ATOM     27  H   LIG d   1       4.212  -3.316  -2.531  0.00  0.00     0.034 H 
ATOM     28  H   LIG d   1       3.345  -2.768  -3.986  0.00  0.00     0.034 H 
ENDBRANCH   1  25
TORSDOF 3
ENDMDL
MODEL 6
REMARK VINA RESULT:      -5.1      2.845      3.918
REMARK  3 active torsions:
REMARK  status: ('A' for Active; 'I' for Inactive)
REMARK    1  A    between atoms: C_1  and  C_2 
REMARK    2  A    between atoms: N_7  and  C_8 
REMARK    3  A    between atoms: C_8  and  C_9 
ROOT
ATOM      1  C   LIG d   1       4.698  -1.391  -3.424  0.00  0.00     0.181 A 
ATOM      2  C   LIG d   1       3.340  -1.225  -3.216  0.00  0.00     0.005 A 
ATOM      3  C   LIG d   1       2.883  -0.046  -2.650  0.00  0.00    -0.050 A 
ATOM      4  C   LIG d   1       3.811   0.925  -2.306  0.00  0.00     0.002 A 
ATOM      5  C   LIG d   1       5.152   0.688  -2.539  0.00  0.00     0.172 A 
ATOM      6  N   LIG d   1       5.552  -0.447  -3.080  0.00  0.00    -0.197 N 
ATOM      7  H   LIG d   1       2.646  -2.003  -3.496  0.00  0.00     0.068 H 
ATOM      8  H   LIG d   1       1.828   0.113  -2.480  0.00  0.00     0.062 H 
ATOM      9  H   LIG d   1       3.490   1.856  -1.863  0.00  0.00     0.068 H 
ATOM     10  H   LIG d   1       5.881   1.439  -2.274  0.00  0.00     0.138 H 
ENDROOT
BRANCH   6  11
ATOM     11  C   LIG d   1       6.982  -0.662  -3.312  0.00  0.00     0.176 C 
ATOM     12  H   LIG d   1       7.141  -1.674  -3.687  0.00  0.00     0.108 H 
ATOM     13  H   LIG d   1       7.526  -0.532  -2.377  0.00  0.00     0.108 H 
BRANCH  11  14
ATOM     14  C   LIG d   1       7.482   0.334  -4.326  0.00  0.00     0.017 A 
ATOM     15  C   LIG d   1       7.248   0.125  -5.673  0.00  0.00    -0.053 A 
ATOM     16  C   LIG d   1       7.707   1.037  -6.604  0.00  0.00    -0.061 A 
ATOM     17  H   LIG d   1       6.708  -0.752  -5.998  0.00  0.00     0.062 H 
ATOM     18  C   LIG d   1       8.397   2.161  -6.189  0.00  0.00    -0.062 A 
ATOM     19  H   LIG d   1       7.523   0.874  -7.656  0.00  0.00     0.062 H 
ATOM     20  C   LIG d   1       8.631   2.370  -4.842  0.00  0.00    -0.061 A 
ATOM     21  H   LIG d   1       8.755   2.875  -6.916  0.00  0.00     0.062 H 
ATOM     22  C   LIG d   1       8.169   1.459  -3.911  0.00  0.00    -0.053 A 
ATOM     23  H   LIG d   1       9.171   3.248  -4.519  0.00  0.00     0.062 H 
ATOM     24  H   LIG d   1       8.347   1.625  -2.859  0.00  0.00     0.062 H 
ENDBRANCH  11  14
ENDBRANCH   6  11
BRANCH   1  25
ATOM     25  C   LIG d   1       5.206  -2.666  -4.044  0.00  0.00     0.021 C 
ATOM     26  H   LIG d   1       5.895  -3.155  -3.356  0.00  0.00     0.034 H 
ATOM     27  H   LIG d   1       4.366  -3.329  -4.252  0.00  0.00     0.034 H 
ATOM     28  H   LIG d   1       5.725  -2.435  -4.975  0.00  0.00     0.034 H 
ENDBRANCH   1  25
TORSDOF 3
ENDMDL
MODEL 7
REMARK VINA RESULT:      -5.0      3.066      4.991
REMARK  3 active torsions:
REMARK  status: ('A' for Active; 'I' for Inactive)
REMARK    1  A    between atoms: C_1  and  C_2 
REMARK    2  A    between atoms: N_7  and  C_8 
REMARK    3  A    between atoms: C_8  and  C_9 
ROOT
ATOM      1  C   LIG d   1       5.237  -0.478  -4.606  0.00  0.00     0.181 A 
ATOM      2  C   LIG d   1       5.416  -0.021  -3.313  0.00  0.00     0.005 A 
ATOM      3  C   LIG d   1       4.364   0.612  -2.670  0.00  0.00    -0.050 A 
ATOM      4  C   LIG d   1       3.168   0.767  -3.353  0.00  0.00     0.002 A 
ATOM      5  C   LIG d   1       3.065   0.289  -4.646  0.00  0.00     0.172 A 
ATOM      6  N   LIG d   1       4.087  -0.308  -5.228  0.00  0.00    -0.197 N 
ATOM      7  H   LIG d   1       6.361  -0.159  -2.811  0.00  0.00     0.068 H 
ATOM      8  H   LIG d   1       4.474   0.975  -1.657  0.00  0.00     0.062 H 
ATOM      9  H   LIG d   1       2.328   1.255  -2.882  0.00  0.00     0.068 H 
ATOM     10  H   LIG d   1       2.137   0.407  -5.186  0.00  0.00     0.138 H 
ENDROOT
BRANCH   6  11
ATOM     11  C   LIG d   1       3.938  -0.801  -6.599  0.00  0.00     0.176 C 
ATOM     12  H   LIG d   1       2.991  -1.335  -6.693  0.00  0.00     0.108 H 
ATOM     13  H   LIG d   1       4.760  -1.477  -6.833  0.00  0.00     0.108 H 
BRANCH  11  14
ATOM     14  C   LIG d   1       3.955   0.362  -7.556  0.00  0.00     0.017 A 
ATOM     15  C   LIG d   1       5.133   0.723  -8.184  0.00  0.00    -0.053 A 
ATOM     16  C   LIG d   1       5.149   1.790  -9.062  0.00  0.00    -0.061 A 
ATOM     17  H   LIG d   1       6.040   0.171  -7.989  0.00  0.00     0.062 H 
ATOM     18  C   LIG d   1       3.987   2.496  -9.314  0.00  0.00    -0.062 A 
ATOM     19  H   LIG d   1       6.069   2.071  -9.553  0.00  0.00     0.062 H 
ATOM     20  C   LIG d   1       2.810   2.136  -8.686  0.00  0.00    -0.061 A 
ATOM     21  H   LIG d   1       4.000   3.330 -10.000  0.00  0.00     0.062 H 
ATOM     22  C   LIG d   1       2.793   1.065  -7.811  0.00  0.00    -0.053 A 
ATOM     23  H   LIG d   1       1.903   2.688  -8.883  0.00  0.00     0.062 H 
ATOM     24  H   LIG d   1       1.872   0.780  -7.324  0.00  0.00     0.062 H 
ENDBRANCH  11  14
ENDBRANCH   6  11
BRANCH   1  25
ATOM     25  C   LIG d   1       6.371  -1.172  -5.314  0.00  0.00     0.021 C 
ATOM     26  H   LIG d   1       7.276  -1.100  -4.710  0.00  0.00     0.034 H 
ATOM     27  H   LIG d   1       6.117  -2.221  -5.465  0.00  0.00     0.034 H 
ATOM     28  H   LIG d   1       6.540  -0.697  -6.281  0.00  0.00     0.034 H 
ENDBRANCH   1  25
TORSDOF 3
ENDMDL
MODEL 8
REMARK VINA RESULT:      -5.0      2.395      4.772
REMARK  3 active torsions:
REMARK  status: ('A' for Active; 'I' for Inactive)
REMARK    1  A    between atoms: C_1  and  C_2 
REMARK    2  A    between atoms: N_7  and  C_8 
REMARK    3  A    between atoms: C_8  and  C_9 
ROOT
ATOM      1  C   LIG d   1       4.593  -4.379  -6.369  0.00  0.00     0.181 A 
ATOM      2  C   LIG d   1       3.832  -4.431  -7.522  0.00  0.00     0.005 A 
ATOM      3  C   LIG d   1       3.737  -3.303  -8.321  0.00  0.00    -0.050 A 
ATOM      4  C   LIG d   1       4.410  -2.156  -7.926  0.00  0.00     0.002 A 
ATOM      5  C   LIG d   1       5.147  -2.177  -6.758  0.00  0.00     0.172 A 
ATOM      6  N   LIG d   1       5.215  -3.269  -6.022  0.00  0.00    -0.197 N 
ATOM      7  H   LIG d   1       3.321  -5.342  -7.799  0.00  0.00     0.068 H 
ATOM      8  H   LIG d   1       3.153  -3.316  -9.230  0.00  0.00     0.062 H 
ATOM      9  H   LIG d   1       4.358  -1.259  -8.525  0.00  0.00     0.068 H 
ATOM     10  H   LIG d   1       5.673  -1.287  -6.444  0.00  0.00     0.138 H 
ENDROOT
BRANCH   6  11
ATOM     11  C   LIG d   1       6.008  -3.251  -4.790  0.00  0.00     0.176 C 
ATOM     12  H   LIG d   1       7.027  -2.936  -5.019  0.00  0.00     0.108 H 
ATOM     13  H   LIG d   1       6.025  -4.250  -4.355  0.00  0.00     0.108 H 
BRANCH  11  14
ATOM     14  C   LIG d   1       5.392  -2.286  -3.811  0.00  0.00     0.017 A 
ATOM     15  C   LIG d   1       4.161  -2.566  -3.246  0.00  0.00    -0.053 A 
ATOM     16  C   LIG d   1       3.596  -1.681  -2.348  0.00  0.00    -0.061 A 
ATOM     17  H   LIG d   1       3.641  -3.475  -3.507  0.00  0.00     0.062 H 
ATOM     18  C   LIG d   1       4.262  -0.517  -2.012  0.00  0.00    -0.062 A 
ATOM     19  H   LIG d   1       2.634  -1.900  -1.906  0.00  0.00     0.062 H 
ATOM     20  C   LIG d   1       5.492  -0.237  -2.576  0.00  0.00    -0.061 A 
ATOM     21  H   LIG d   1       3.820   0.175  -1.309  0.00  0.00     0.062 H 
ATOM     22  C   LIG d   1       6.060  -1.125  -3.472  0.00  0.00    -0.053 A 
ATOM     23  H   LIG d   1       6.012   0.673  -2.314  0.00  0.00     0.062 H 
ATOM     24  H   LIG d   1       7.023  -0.909  -3.909  0.00  0.00     0.062 H 
ENDBRANCH  11  14
ENDBRANCH   6  11
BRANCH   1  25
ATOM     25  C   LIG d   1       4.708  -5.601  -5.496  0.00  0.00     0.021 C 
ATOM     26  H   LIG d   1       5.713  -5.656  -5.078  0.00  0.00     0.034 H 
ATOM     27  H   LIG d   1       3.980  -5.539  -4.686  0.00  0.00     0.034 H 
ATOM     28  H   LIG d   1       4.513  -6.493  -6.092  0.00  0.00     0.034 H 
ENDBRANCH   1  25
TORSDOF 3
ENDMDL
MODEL 9
REMARK VINA RESULT:      -4.9      2.657      4.556
REMARK  3 active torsions:
REMARK  status: ('A' for Active; 'I' for Inactive)
REMARK    1  A    between atoms: C_1  and  C_2 
REMARK    2  A    between atoms: N_7  and  C_8 
REMARK    3  A    between atoms: C_8  and  C_9 
ROOT
ATOM      1  C   LIG d   1       3.957   0.490  -7.682  0.00  0.00     0.181 A 
ATOM      2  C   LIG d   1       4.990   0.317  -8.585  0.00  0.00     0.005 A 
ATOM      3  C   LIG d   1       6.053  -0.505  -8.246  0.00  0.00    -0.050 A 
ATOM      4  C   LIG d   1       6.041  -1.122  -7.005  0.00  0.00     0.002 A 
ATOM      5  C   LIG d   1       4.978  -0.898  -6.152  0.00  0.00     0.172 A 
ATOM      6  N   LIG d   1       3.982  -0.109  -6.507  0.00  0.00    -0.197 N 
ATOM      7  H   LIG d   1       4.966   0.814  -9.544  0.00  0.00     0.068 H 
ATOM      8  H   LIG d   1       6.872  -0.662  -8.934  0.00  0.00     0.062 H 
ATOM      9  H   LIG d   1       6.853  -1.769  -6.708  0.00  0.00     0.068 H 
ATOM     10  H   LIG d   1       4.961  -1.375  -5.183  0.00  0.00     0.138 H 
ENDROOT
BRANCH   6  11
ATOM     11  C   LIG d   1       2.872   0.103  -5.576  0.00  0.00     0.176 C 
ATOM     12  H   LIG d   1       2.099  -0.646  -5.756  0.00  0.00     0.108 H 
ATOM     13  H   LIG d   1       2.455   1.098  -5.727  0.00  0.00     0.108 H 
BRANCH  11  14
ATOM     14  C   LIG d   1       3.372  -0.024  -4.161  0.00  0.00     0.017 A 
ATOM     15  C   LIG d   1       3.427  -1.265  -3.555  0.00  0.00    -0.053 A 
ATOM     16  C   LIG d   1       3.886  -1.381  -2.256  0.00  0.00    -0.061 A 
ATOM     17  H   LIG d   1       3.110  -2.144  -4.095  0.00  0.00     0.062 H 
ATOM     18  C   LIG d   1       4.293  -0.256  -1.563  0.00  0.00    -0.062 A 
ATOM     19  H   LIG d   1       3.929  -2.352  -1.783  0.00  0.00     0.062 H 
ATOM     20  C   LIG d   1       4.239   0.985  -2.169  0.00  0.00    -0.061 A 
ATOM     21  H   LIG d   1       4.652  -0.347  -0.549  0.00  0.00     0.062 H 
ATOM     22  C   LIG d   1       3.783   1.101  -3.470  0.00  0.00    -0.053 A 
ATOM     23  H   LIG d   1       4.557   1.864  -1.628  0.00  0.00     0.062 H 
ATOM     24  H   LIG d   1       3.746   2.070  -3.944  0.00  0.00     0.062 H 
ENDBRANCH  11  14
ENDBRANCH   6  11
BRANCH   1  25
ATOM     25  C   LIG d   1       2.793   1.377  -8.041  0.00  0.00     0.021 C 
ATOM     26  H   LIG d   1       2.468   1.156  -9.058  0.00  0.00     0.034 H 
ATOM     27  H   LIG d   1       1.971   1.195  -7.348  0.00  0.00     0.034 H 
ATOM     28  H   LIG d   1       3.100   2.421  -7.976  0.00  0.00     0.034 H 
ENDBRANCH   1  25
TORSDOF 3
ENDMDL
