MODEL 1
REMARK VINA RESULT:      -4.7      0.000      0.000
REMARK  15 active torsions:
REMARK  status: ('A' for Active; 'I' for Inactive)
REMARK    1  A    between atoms: C_1  and  C_2 
REMARK    2  A    between atoms: C_7  and  O_31 
REMARK    3  A    between atoms: C_8  and  O_29 
REMARK    4  A    between atoms: C_9  and  O_27 
REMARK    5  A    between atoms: C_14  and  O_21 
REMARK    6  A    between atoms: C_15  and  O_19 
REMARK    7  A    between atoms: C_16  and  O_17 
REMARK    8  A    between atoms: O_17  and  C_18 
REMARK    9  A    between atoms: O_19  and  C_20 
REMARK   10  A    between atoms: O_21  and  C_22 
REMARK   11  A    between atoms: C_24  and  C_25 
REMARK   12  A    between atoms: C_24  and  O_26 
REMARK   13  A    between atoms: O_27  and  C_28 
REMARK   14  A    between atoms: O_29  and  C_30 
REMARK   15  A    between atoms: O_31  and  C_32 
ROOT
ATOM      1  C   LIG d   1       3.884  -0.898  -4.356  0.00  0.00    -0.011 C 
ATOM      2  H   LIG d   1       3.046  -1.591  -4.423  0.00  0.00     0.033 H 
ATOM      3  C   LIG d   1       4.901  -1.202  -5.492  0.00  0.00    -0.022 C 
ATOM      4  C   LIG d   1       5.431  -2.636  -5.413  0.00  0.00    -0.032 A 
ATOM      5  C   LIG d   1       4.791  -3.809  -5.451  0.00  0.00    -0.012 A 
ATOM      6  C   LIG d   1       5.548  -4.987  -5.434  0.00  0.00     0.166 A 
ATOM      7  C   LIG d   1       6.936  -4.916  -5.387  0.00  0.00     0.204 A 
ATOM      8  C   LIG d   1       7.596  -3.691  -5.332  0.00  0.00     0.173 A 
ATOM      9  C   LIG d   1       6.854  -2.527  -5.325  0.00  0.00     0.035 A 
ATOM     10  C   LIG d   1       7.358  -1.156  -5.136  0.00  0.00     0.035 A 
ATOM     11  C   LIG d   1       6.882  -0.498  -3.962  0.00  0.00    -0.030 A 
ATOM     12  C   LIG d   1       7.164   0.778  -3.677  0.00  0.00    -0.012 A 
ATOM     13  C   LIG d   1       8.007   1.488  -4.541  0.00  0.00     0.166 A 
ATOM     14  C   LIG d   1       8.532   0.861  -5.666  0.00  0.00     0.204 A 
ATOM     15  C   LIG d   1       8.212  -0.460  -5.971  0.00  0.00     0.173 A 
ATOM     16  C   LIG d   1       6.066  -1.540  -3.195  0.00  0.00     0.002 C 
ATOM     17  C   LIG d   1       4.608  -1.071  -2.952  0.00  0.00     0.070 C 
ATOM     18  H   LIG d   1       5.737  -0.509  -5.413  0.00  0.00     0.032 H 
ATOM     19  H   LIG d   1       4.409  -1.056  -6.454  0.00  0.00     0.032 H 
ATOM     20  H   LIG d   1       3.712  -3.849  -5.491  0.00  0.00     0.066 H 
ATOM     21  H   LIG d   1       6.751   1.251  -2.799  0.00  0.00     0.066 H 
ATOM     22  H   LIG d   1       6.543  -1.726  -2.233  0.00  0.00     0.034 H 
ATOM     23  H   LIG d   1       6.049  -2.468  -3.767  0.00  0.00     0.034 H 
ENDROOT
BRANCH  17  24
ATOM     24  C   LIG d   1       3.863  -2.115  -2.117  0.00  0.00    -0.035 C 
ATOM     25  H   LIG d   1       4.479  -3.008  -2.018  0.00  0.00     0.026 H 
ATOM     26  H   LIG d   1       3.652  -1.708  -1.129  0.00  0.00     0.026 H 
ATOM     27  H   LIG d   1       2.926  -2.374  -2.610  0.00  0.00     0.026 H 
ENDBRANCH  17  24
BRANCH  17  28
ATOM     28  O   LIG d   1       4.615   0.179  -2.259  0.00  0.00    -0.388 OA
ATOM     29  H   LIG d   1       5.244   0.219  -1.526  0.00  0.00     0.210 HD
ENDBRANCH  17  28
BRANCH   1  30
ATOM     30  C   LIG d   1       3.376   0.537  -4.496  0.00  0.00    -0.059 C 
ATOM     31  H   LIG d   1       4.139   1.230  -4.140  0.00  0.00     0.023 H 
ATOM     32  H   LIG d   1       3.157   0.745  -5.544  0.00  0.00     0.023 H 
ATOM     33  H   LIG d   1       2.469   0.661  -3.904  0.00  0.00     0.023 H 
ENDBRANCH   1  30
BRANCH  15  34
ATOM     34  O   LIG d   1       8.733  -1.058  -7.075  0.00  0.00    -0.491 OA
BRANCH  34  35
ATOM     35  C   LIG d   1       7.903  -1.113  -8.236  0.00  0.00     0.079 C 
ATOM     36  H   LIG d   1       8.184  -0.314  -8.922  0.00  0.00     0.066 H 
ATOM     37  H   LIG d   1       8.030  -2.077  -8.729  0.00  0.00     0.066 H 
ATOM     38  H   LIG d   1       6.860  -0.990  -7.944  0.00  0.00     0.066 H 
ENDBRANCH  34  35
ENDBRANCH  15  34
BRANCH  13  39
ATOM     39  O   LIG d   1       8.312   2.787  -4.281  0.00  0.00    -0.491 OA
BRANCH  39  40
ATOM     40  C   LIG d   1       9.398   3.031  -3.384  0.00  0.00     0.079 C 
ATOM     41  H   LIG d   1       9.034   3.010  -2.357  0.00  0.00     0.066 H 
ATOM     42  H   LIG d   1      10.159   2.262  -3.516  0.00  0.00     0.066 H 
ATOM     43  H   LIG d   1       9.831   4.009  -3.595  0.00  0.00     0.066 H 
ENDBRANCH  39  40
ENDBRANCH  13  39
BRANCH   8  44
ATOM     44  O   LIG d   1       8.954  -3.642  -5.287  0.00  0.00    -0.491 OA
BRANCH  44  45
ATOM     45  C   LIG d   1       9.561  -3.649  -3.993  0.00  0.00     0.079 C 
ATOM     46  H   LIG d   1      10.619  -3.402  -4.086  0.00  0.00     0.066 H 
ATOM     47  H   LIG d   1       9.070  -2.912  -3.357  0.00  0.00     0.066 H 
ATOM     48  H   LIG d   1       9.457  -4.638  -3.548  0.00  0.00     0.066 H 
ENDBRANCH  44  45
ENDBRANCH   8  44
BRANCH   6  49
ATOM     49  O   LIG d   1       4.928  -6.197  -5.468  0.00  0.00    -0.491 OA
BRANCH  49  50
ATOM     50  C   LIG d   1       4.508  -6.673  -6.748  0.00  0.00     0.079 C 
ATOM     51  H   LIG d   1       5.214  -7.423  -7.106  0.00  0.00     0.066 H 
ATOM     52  H   LIG d   1       3.516  -7.120  -6.662  0.00  0.00     0.066 H 
ATOM     53  H   LIG d   1       4.472  -5.842  -7.452  0.00  0.00     0.066 H 
ENDBRANCH  49  50
ENDBRANCH   6  49
BRANCH  14  54
ATOM     54  O   LIG d   1       9.374   1.550  -6.483  0.00  0.00    -0.488 OA
BRANCH  54  55
ATOM     55  C   LIG d   1       8.778   2.319  -7.529  0.00  0.00     0.079 C 
ATOM     56  H   LIG d   1       9.152   3.342  -7.486  0.00  0.00     0.066 H 
ATOM     57  H   LIG d   1       9.032   1.880  -8.493  0.00  0.00     0.066 H 
ATOM     58  H   LIG d   1       7.695   2.324  -7.406  0.00  0.00     0.066 H 
ENDBRANCH  54  55
ENDBRANCH  14  54
BRANCH   7  59
ATOM     59  O   LIG d   1       7.664  -6.067  -5.394  0.00  0.00    -0.488 OA
BRANCH  59  60
ATOM     60  C   LIG d   1       8.158  -6.513  -6.659  0.00  0.00     0.079 C 
ATOM     61  H   LIG d   1       7.322  -6.675  -7.339  0.00  0.00     0.066 H 
ATOM     62  H   LIG d   1       8.825  -5.759  -7.075  0.00  0.00     0.066 H 
ATOM     63  H   LIG d   1       8.704  -7.448  -6.526  0.00  0.00     0.066 H 
ENDBRANCH  59  60
ENDBRANCH   7  59
TORSDOF 15
ENDMDL
MODEL 2
REMARK VINA RESULT:      -4.6      2.648      4.730
REMARK  15 active torsions:
REMARK  status: ('A' for Active; 'I' for Inactive)
REMARK    1  A    between atoms: C_1  and  C_2 
REMARK    2  A    between atoms: C_7  and  O_31 
REMARK    3  A    between atoms: C_8  and  O_29 
REMARK    4  A    between atoms: C_9  and  O_27 
REMARK    5  A    between atoms: C_14  and  O_21 
REMARK    6  A    between atoms: C_15  and  O_19 
REMARK    7  A    between atoms: C_16  and  O_17 
REMARK    8  A    between atoms: O_17  and  C_18 
REMARK    9  A    between atoms: O_19  and  C_20 
REMARK   10  A    between atoms: O_21  and  C_22 
REMARK   11  A    between atoms: C_24  and  C_25 
REMARK   12  A    between atoms: C_24  and  O_26 
REMARK   13  A    between atoms: O_27  and  C_28 
REMARK   14  A    between atoms: O_29  and  C_30 
REMARK   15  A    between atoms: O_31  and  C_32 
ROOT
ATOM      1  C   LIG d   1       4.394  -1.275  -3.292  0.00  0.00    -0.011 C 
ATOM      2  H   LIG d   1       4.811  -1.477  -2.306  0.00  0.00     0.033 H 
ATOM      3  C   LIG d   1       4.711  -2.462  -4.243  0.00  0.00    -0.022 C 
ATOM      4  C   LIG d   1       6.218  -2.696  -4.377  0.00  0.00    -0.032 A 
ATOM      5  C   LIG d   1       7.146  -2.975  -3.456  0.00  0.00    -0.012 A 
ATOM      6  C   LIG d   1       8.459  -3.218  -3.878  0.00  0.00     0.166 A 
ATOM      7  C   LIG d   1       8.768  -3.175  -5.234  0.00  0.00     0.204 A 
ATOM      8  C   LIG d   1       7.800  -2.869  -6.187  0.00  0.00     0.173 A 
ATOM      9  C   LIG d   1       6.509  -2.605  -5.774  0.00  0.00     0.035 A 
ATOM     10  C   LIG d   1       5.391  -2.136  -6.609  0.00  0.00     0.035 A 
ATOM     11  C   LIG d   1       4.891  -0.843  -6.270  0.00  0.00    -0.030 A 
ATOM     12  C   LIG d   1       3.822  -0.296  -6.862  0.00  0.00    -0.012 A 
ATOM     13  C   LIG d   1       3.196  -1.001  -7.898  0.00  0.00     0.166 A 
ATOM     14  C   LIG d   1       3.691  -2.240  -8.291  0.00  0.00     0.204 A 
ATOM     15  C   LIG d   1       4.787  -2.814  -7.651  0.00  0.00     0.173 A 
ATOM     16  C   LIG d   1       5.816  -0.304  -5.177  0.00  0.00     0.002 C 
ATOM     17  C   LIG d   1       5.040   0.052  -3.882  0.00  0.00     0.070 C 
ATOM     18  H   LIG d   1       4.296  -2.248  -5.227  0.00  0.00     0.032 H 
ATOM     19  H   LIG d   1       4.244  -3.364  -3.849  0.00  0.00     0.032 H 
ATOM     20  H   LIG d   1       6.890  -3.009  -2.407  0.00  0.00     0.066 H 
ATOM     21  H   LIG d   1       3.450   0.668  -6.548  0.00  0.00     0.066 H 
ATOM     22  H   LIG d   1       6.317   0.590  -5.547  0.00  0.00     0.034 H 
ATOM     23  H   LIG d   1       6.566  -1.060  -4.944  0.00  0.00     0.034 H 
ENDROOT
BRANCH  17  24
ATOM     24  C   LIG d   1       6.000   0.655  -2.856  0.00  0.00    -0.035 C 
ATOM     25  H   LIG d   1       5.461   1.358  -2.222  0.00  0.00     0.026 H 
ATOM     26  H   LIG d   1       6.421  -0.140  -2.240  0.00  0.00     0.026 H 
ATOM     27  H   LIG d   1       6.806   1.176  -3.373  0.00  0.00     0.026 H 
ENDBRANCH  17  24
BRANCH  17  28
ATOM     28  O   LIG d   1       4.009   0.994  -4.185  0.00  0.00    -0.388 OA
ATOM     29  H   LIG d   1       4.134   1.459  -5.023  0.00  0.00     0.210 HD
ENDBRANCH  17  28
BRANCH   1  30
ATOM     30  C   LIG d   1       2.878  -1.099  -3.182  0.00  0.00    -0.059 C 
ATOM     31  H   LIG d   1       2.646  -0.467  -2.323  0.00  0.00     0.023 H 
ATOM     32  H   LIG d   1       2.499  -0.630  -4.090  0.00  0.00     0.023 H 
ATOM     33  H   LIG d   1       2.407  -2.074  -3.053  0.00  0.00     0.023 H 
ENDBRANCH   1  30
BRANCH  15  34
ATOM     34  O   LIG d   1       5.258  -4.026  -8.047  0.00  0.00    -0.491 OA
BRANCH  34  35
ATOM     35  C   LIG d   1       4.713  -5.177  -7.399  0.00  0.00     0.079 C 
ATOM     36  H   LIG d   1       4.597  -5.982  -8.125  0.00  0.00     0.066 H 
ATOM     37  H   LIG d   1       5.385  -5.499  -6.604  0.00  0.00     0.066 H 
ATOM     38  H   LIG d   1       3.740  -4.929  -6.974  0.00  0.00     0.066 H 
ENDBRANCH  34  35
ENDBRANCH  15  34
BRANCH  13  39
ATOM     39  O   LIG d   1       2.108  -0.474  -8.519  0.00  0.00    -0.491 OA
BRANCH  39  40
ATOM     40  C   LIG d   1       2.343   0.579  -9.457  0.00  0.00     0.079 C 
ATOM     41  H   LIG d   1       3.365   0.513  -9.830  0.00  0.00     0.066 H 
ATOM     42  H   LIG d   1       1.645   0.487 -10.290  0.00  0.00     0.066 H 
ATOM     43  H   LIG d   1       2.197   1.542  -8.967  0.00  0.00     0.066 H 
ENDBRANCH  39  40
ENDBRANCH  13  39
BRANCH   8  44
ATOM     44  O   LIG d   1       8.122  -2.832  -7.507  0.00  0.00    -0.491 OA
BRANCH  44  45
ATOM     45  C   LIG d   1       8.420  -1.551  -8.067  0.00  0.00     0.079 C 
ATOM     46  H   LIG d   1       9.433  -1.260  -7.790  0.00  0.00     0.066 H 
ATOM     47  H   LIG d   1       8.340  -1.601  -9.153  0.00  0.00     0.066 H 
ATOM     48  H   LIG d   1       7.713  -0.814  -7.686  0.00  0.00     0.066 H 
ENDBRANCH  44  45
ENDBRANCH   8  44
BRANCH   6  49
ATOM     49  O   LIG d   1       9.427  -3.501  -2.966  0.00  0.00    -0.491 OA
BRANCH  49  50
ATOM     50  C   LIG d   1       9.580  -4.870  -2.588  0.00  0.00     0.079 C 
ATOM     51  H   LIG d   1      10.493  -4.985  -2.003  0.00  0.00     0.066 H 
ATOM     52  H   LIG d   1       8.723  -5.179  -1.988  0.00  0.00     0.066 H 
ATOM     53  H   LIG d   1       9.641  -5.490  -3.481  0.00  0.00     0.066 H 
ENDBRANCH  49  50
ENDBRANCH   6  49
BRANCH  14  54
ATOM     54  O   LIG d   1       3.094  -2.902  -9.319  0.00  0.00    -0.488 OA
BRANCH  54  55
ATOM     55  C   LIG d   1       3.651  -2.715 -10.621  0.00  0.00     0.079 C 
ATOM     56  H   LIG d   1       3.350  -1.741 -11.008  0.00  0.00     0.066 H 
ATOM     57  H   LIG d   1       4.738  -2.761 -10.562  0.00  0.00     0.066 H 
ATOM     58  H   LIG d   1       3.289  -3.497 -11.288  0.00  0.00     0.066 H 
ENDBRANCH  54  55
ENDBRANCH  14  54
BRANCH   7  59
ATOM     59  O   LIG d   1      10.042  -3.436  -5.636  0.00  0.00    -0.488 OA
BRANCH  59  60
ATOM     60  C   LIG d   1      10.975  -2.355  -5.575  0.00  0.00     0.079 C 
ATOM     61  H   LIG d   1      11.534  -2.409  -4.641  0.00  0.00     0.066 H 
ATOM     62  H   LIG d   1      11.665  -2.422  -6.416  0.00  0.00     0.066 H 
ATOM     63  H   LIG d   1      10.437  -1.408  -5.621  0.00  0.00     0.066 H 
ENDBRANCH  59  60
ENDBRANCH   7  59
TORSDOF 15
ENDMDL
MODEL 3
REMARK VINA RESULT:      -4.5      8.047     13.254
REMARK  15 active torsions:
REMARK  status: ('A' for Active; 'I' for Inactive)
REMARK    1  A    between atoms: C_1  and  C_2 
REMARK    2  A    between atoms: C_7  and  O_31 
REMARK    3  A    between atoms: C_8  and  O_29 
REMARK    4  A    between atoms: C_9  and  O_27 
REMARK    5  A    between atoms: C_14  and  O_21 
REMARK    6  A    between atoms: C_15  and  O_19 
REMARK    7  A    between atoms: C_16  and  O_17 
REMARK    8  A    between atoms: O_17  and  C_18 
REMARK    9  A    between atoms: O_19  and  C_20 
REMARK   10  A    between atoms: O_21  and  C_22 
REMARK   11  A    between atoms: C_24  and  C_25 
REMARK   12  A    between atoms: C_24  and  O_26 
REMARK   13  A    between atoms: O_27  and  C_28 
REMARK   14  A    between atoms: O_29  and  C_30 
REMARK   15  A    between atoms: O_31  and  C_32 
ROOT
ATOM      1  C   LIG d   1      12.700   6.448  -0.248  0.00  0.00    -0.011 C 
ATOM      2  H   LIG d   1      13.250   6.576   0.684  0.00  0.00     0.033 H 
ATOM      3  C   LIG d   1      12.729   7.777  -1.054  0.00  0.00    -0.022 C 
ATOM      4  C   LIG d   1      12.113   8.934  -0.264  0.00  0.00    -0.032 A 
ATOM      5  C   LIG d   1      12.440   9.458   0.922  0.00  0.00    -0.012 A 
ATOM      6  C   LIG d   1      11.738  10.581   1.375  0.00  0.00     0.166 A 
ATOM      7  C   LIG d   1      10.732  11.133   0.589  0.00  0.00     0.204 A 
ATOM      8  C   LIG d   1      10.386  10.574  -0.639  0.00  0.00     0.173 A 
ATOM      9  C   LIG d   1      11.058   9.451  -1.080  0.00  0.00     0.035 A 
ATOM     10  C   LIG d   1      10.748   8.646  -2.274  0.00  0.00     0.035 A 
ATOM     11  C   LIG d   1      10.356   7.300  -2.003  0.00  0.00    -0.030 A 
ATOM     12  C   LIG d   1      10.125   6.401  -2.967  0.00  0.00    -0.012 A 
ATOM     13  C   LIG d   1      10.220   6.811  -4.303  0.00  0.00     0.166 A 
ATOM     14  C   LIG d   1      10.547   8.129  -4.601  0.00  0.00     0.204 A 
ATOM     15  C   LIG d   1      10.813   9.052  -3.593  0.00  0.00     0.173 A 
ATOM     16  C   LIG d   1      10.267   7.183  -0.480  0.00  0.00     0.002 C 
ATOM     17  C   LIG d   1      11.191   6.067   0.072  0.00  0.00     0.070 C 
ATOM     18  H   LIG d   1      12.172   7.641  -1.980  0.00  0.00     0.032 H 
ATOM     19  H   LIG d   1      13.764   8.021  -1.294  0.00  0.00     0.032 H 
ATOM     20  H   LIG d   1      13.226   9.022   1.520  0.00  0.00     0.066 H 
ATOM     21  H   LIG d   1       9.869   5.381  -2.720  0.00  0.00     0.066 H 
ATOM     22  H   LIG d   1       9.237   6.960  -0.203  0.00  0.00     0.034 H 
ATOM     23  H   LIG d   1      10.555   8.135  -0.035  0.00  0.00     0.034 H 
ENDROOT
BRANCH  17  24
ATOM     24  C   LIG d   1      11.003   5.945   1.585  0.00  0.00    -0.035 C 
ATOM     25  H   LIG d   1      11.332   4.960   1.914  0.00  0.00     0.026 H 
ATOM     26  H   LIG d   1      11.593   6.711   2.088  0.00  0.00     0.026 H 
ATOM     27  H   LIG d   1       9.950   6.078   1.833  0.00  0.00     0.026 H 
ENDBRANCH  17  24
BRANCH  17  28
ATOM     28  O   LIG d   1      10.868   4.823  -0.553  0.00  0.00    -0.388 OA
ATOM     29  H   LIG d   1      10.969   4.055   0.024  0.00  0.00     0.210 HD
ENDBRANCH  17  28
BRANCH   1  30
ATOM     30  C   LIG d   1      13.344   5.335  -1.076  0.00  0.00    -0.059 C 
ATOM     31  H   LIG d   1      13.518   5.690  -2.092  0.00  0.00     0.023 H 
ATOM     32  H   LIG d   1      14.295   5.050  -0.624  0.00  0.00     0.023 H 
ATOM     33  H   LIG d   1      12.681   4.470  -1.101  0.00  0.00     0.023 H 
ENDBRANCH   1  30
BRANCH  15  34
ATOM     34  O   LIG d   1      11.132  10.337  -3.902  0.00  0.00    -0.491 OA
BRANCH  34  35
ATOM     35  C   LIG d   1      12.518  10.637  -4.078  0.00  0.00     0.079 C 
ATOM     36  H   LIG d   1      12.620  11.561  -4.647  0.00  0.00     0.066 H 
ATOM     37  H   LIG d   1      12.991  10.756  -3.103  0.00  0.00     0.066 H 
ATOM     38  H   LIG d   1      13.001   9.823  -4.619  0.00  0.00     0.066 H 
ENDBRANCH  34  35
ENDBRANCH  15  34
BRANCH  13  39
ATOM     39  O   LIG d   1       9.992   5.922  -5.305  0.00  0.00    -0.491 OA
BRANCH  39  40
ATOM     40  C   LIG d   1       9.498   4.634  -4.931  0.00  0.00     0.079 C 
ATOM     41  H   LIG d   1       9.091   4.680  -3.920  0.00  0.00     0.066 H 
ATOM     42  H   LIG d   1       8.715   4.328  -5.624  0.00  0.00     0.066 H 
ATOM     43  H   LIG d   1      10.312   3.909  -4.961  0.00  0.00     0.066 H 
ENDBRANCH  39  40
ENDBRANCH  13  39
BRANCH   8  44
ATOM     44  O   LIG d   1       9.399  11.127  -1.393  0.00  0.00    -0.491 OA
BRANCH  44  45
ATOM     45  C   LIG d   1       9.741  12.281  -2.165  0.00  0.00     0.079 C 
ATOM     46  H   LIG d   1       9.779  13.154  -1.515  0.00  0.00     0.066 H 
ATOM     47  H   LIG d   1      10.716  12.130  -2.630  0.00  0.00     0.066 H 
ATOM     48  H   LIG d   1       8.990  12.436  -2.939  0.00  0.00     0.066 H 
ENDBRANCH  44  45
ENDBRANCH   8  44
BRANCH   6  49
ATOM     49  O   LIG d   1      12.044  11.136   2.579  0.00  0.00    -0.491 OA
BRANCH  49  50
ATOM     50  C   LIG d   1      12.588  10.267   3.574  0.00  0.00     0.079 C 
ATOM     51  H   LIG d   1      12.219  10.563   4.556  0.00  0.00     0.066 H 
ATOM     52  H   LIG d   1      12.283   9.241   3.365  0.00  0.00     0.066 H 
ATOM     53  H   LIG d   1      13.675  10.333   3.560  0.00  0.00     0.066 H 
ENDBRANCH  49  50
ENDBRANCH   6  49
BRANCH  14  54
ATOM     54  O   LIG d   1      10.607   8.524  -5.902  0.00  0.00    -0.488 OA
BRANCH  54  55
ATOM     55  C   LIG d   1       9.401   9.018  -6.486  0.00  0.00     0.079 C 
ATOM     56  H   LIG d   1       9.023   8.293  -7.207  0.00  0.00     0.066 H 
ATOM     57  H   LIG d   1       8.657   9.175  -5.706  0.00  0.00     0.066 H 
ATOM     58  H   LIG d   1       9.602   9.962  -6.992  0.00  0.00     0.066 H 
ENDBRANCH  54  55
ENDBRANCH  14  54
BRANCH   7  59
ATOM     59  O   LIG d   1      10.072  12.239   1.029  0.00  0.00    -0.488 OA
BRANCH  59  60
ATOM     60  C   LIG d   1      10.722  13.499   0.843  0.00  0.00     0.079 C 
ATOM     61  H   LIG d   1      10.934  13.645  -0.216  0.00  0.00     0.066 H 
ATOM     62  H   LIG d   1      10.073  14.298   1.198  0.00  0.00     0.066 H 
ATOM     63  H   LIG d   1      11.657  13.512   1.405  0.00  0.00     0.066 H 
ENDBRANCH  59  60
ENDBRANCH   7  59
TORSDOF 15
ENDMDL
MODEL 4
REMARK VINA RESULT:      -4.4      7.482     11.609
REMARK  15 active torsions:
REMARK  status: ('A' for Active; 'I' for Inactive)
REMARK    1  A    between atoms: C_1  and  C_2 
REMARK    2  A    between atoms: C_7  and  O_31 
REMARK    3  A    between atoms: C_8  and  O_29 
REMARK    4  A    between atoms: C_9  and  O_27 
REMARK    5  A    between atoms: C_14  and  O_21 
REMARK    6  A    between atoms: C_15  and  O_19 
REMARK    7  A    between atoms: C_16  and  O_17 
REMARK    8  A    between atoms: O_17  and  C_18 
REMARK    9  A    between atoms: O_19  and  C_20 
REMARK   10  A    between atoms: O_21  and  C_22 
REMARK   11  A    between atoms: C_24  and  C_25 
REMARK   12  A    between atoms: C_24  and  O_26 
REMARK   13  A    between atoms: O_27  and  C_28 
REMARK   14  A    between atoms: O_29  and  C_30 
REMARK   15  A    between atoms: O_31  and  C_32 
ROOT
ATOM      1  C   LIG d   1      11.460   4.993  -4.285  0.00  0.00    -0.011 C 
ATOM      2  H   LIG d   1      11.942   4.267  -3.632  0.00  0.00     0.033 H 
ATOM      3  C   LIG d   1      11.968   6.420  -3.940  0.00  0.00    -0.022 C 
ATOM      4  C   LIG d   1      11.679   6.790  -2.484  0.00  0.00    -0.032 A 
ATOM      5  C   LIG d   1      12.052   6.205  -1.340  0.00  0.00    -0.012 A 
ATOM      6  C   LIG d   1      11.700   6.813  -0.130  0.00  0.00     0.166 A 
ATOM      7  C   LIG d   1      10.986   8.007  -0.136  0.00  0.00     0.204 A 
ATOM      8  C   LIG d   1      10.586   8.603  -1.330  0.00  0.00     0.173 A 
ATOM      9  C   LIG d   1      10.910   7.995  -2.527  0.00  0.00     0.035 A 
ATOM     10  C   LIG d   1      10.466   8.396  -3.873  0.00  0.00     0.035 A 
ATOM     11  C   LIG d   1       9.653   7.436  -4.546  0.00  0.00    -0.030 A 
ATOM     12  C   LIG d   1       9.234   7.593  -5.807  0.00  0.00    -0.012 A 
ATOM     13  C   LIG d   1       9.563   8.776  -6.481  0.00  0.00     0.166 A 
ATOM     14  C   LIG d   1      10.309   9.756  -5.835  0.00  0.00     0.204 A 
ATOM     15  C   LIG d   1      10.764   9.574  -4.532  0.00  0.00     0.173 A 
ATOM     16  C   LIG d   1       9.404   6.311  -3.540  0.00  0.00     0.002 C 
ATOM     17  C   LIG d   1       9.886   4.937  -4.074  0.00  0.00     0.070 C 
ATOM     18  H   LIG d   1      11.476   7.139  -4.594  0.00  0.00     0.032 H 
ATOM     19  H   LIG d   1      13.044   6.463  -4.112  0.00  0.00     0.032 H 
ATOM     20  H   LIG d   1      12.611   5.281  -1.350  0.00  0.00     0.066 H 
ATOM     21  H   LIG d   1       8.654   6.823  -6.296  0.00  0.00     0.066 H 
ATOM     22  H   LIG d   1       8.336   6.255  -3.329  0.00  0.00     0.034 H 
ATOM     23  H   LIG d   1       9.936   6.538  -2.616  0.00  0.00     0.034 H 
ENDROOT
BRANCH  17  24
ATOM     24  C   LIG d   1       9.543   3.842  -3.062  0.00  0.00    -0.035 C 
ATOM     25  H   LIG d   1       9.542   2.873  -3.560  0.00  0.00     0.026 H 
ATOM     26  H   LIG d   1      10.285   3.840  -2.264  0.00  0.00     0.026 H 
ATOM     27  H   LIG d   1       8.557   4.033  -2.639  0.00  0.00     0.026 H 
ENDBRANCH  17  24
BRANCH  17  28
ATOM     28  O   LIG d   1       9.244   4.655  -5.320  0.00  0.00    -0.388 OA
ATOM     29  H   LIG d   1       8.605   3.931  -5.279  0.00  0.00     0.210 HD
ENDBRANCH  17  28
BRANCH   1  30
ATOM     30  C   LIG d   1      11.791   4.671  -5.744  0.00  0.00    -0.059 C 
ATOM     31  H   LIG d   1      12.104   3.629  -5.824  0.00  0.00     0.023 H 
ATOM     32  H   LIG d   1      10.908   4.833  -6.362  0.00  0.00     0.023 H 
ATOM     33  H   LIG d   1      12.598   5.320  -6.085  0.00  0.00     0.023 H 
ENDBRANCH   1  30
BRANCH  15  34
ATOM     34  O   LIG d   1      11.492  10.542  -3.915  0.00  0.00    -0.491 OA
BRANCH  34  35
ATOM     35  C   LIG d   1      12.913  10.465  -4.042  0.00  0.00     0.079 C 
ATOM     36  H   LIG d   1      13.364  11.366  -3.624  0.00  0.00     0.066 H 
ATOM     37  H   LIG d   1      13.279   9.592  -3.503  0.00  0.00     0.066 H 
ATOM     38  H   LIG d   1      13.180  10.380  -5.095  0.00  0.00     0.066 H 
ENDBRANCH  34  35
ENDBRANCH  15  34
BRANCH  13  39
ATOM     39  O   LIG d   1       9.154   8.965  -7.764  0.00  0.00    -0.491 OA
BRANCH  39  40
ATOM     40  C   LIG d   1       9.169   7.825  -8.625  0.00  0.00     0.079 C 
ATOM     41  H   LIG d   1       8.631   8.056  -9.544  0.00  0.00     0.066 H 
ATOM     42  H   LIG d   1      10.199   7.562  -8.863  0.00  0.00     0.066 H 
ATOM     43  H   LIG d   1       8.687   6.985  -8.124  0.00  0.00     0.066 H 
ENDBRANCH  39  40
ENDBRANCH  13  39
BRANCH   8  44
ATOM     44  O   LIG d   1       9.888   9.769  -1.317  0.00  0.00    -0.491 OA
BRANCH  44  45
ATOM     45  C   LIG d   1       8.488   9.684  -1.039  0.00  0.00     0.079 C 
ATOM     46  H   LIG d   1       8.254  10.290  -0.164  0.00  0.00     0.066 H 
ATOM     47  H   LIG d   1       7.925  10.051  -1.897  0.00  0.00     0.066 H 
ATOM     48  H   LIG d   1       8.218   8.646  -0.845  0.00  0.00     0.066 H 
ENDBRANCH  44  45
ENDBRANCH   8  44
BRANCH   6  49
ATOM     49  O   LIG d   1      12.062   6.242   1.050  0.00  0.00    -0.491 OA
BRANCH  49  50
ATOM     50  C   LIG d   1      11.045   5.544   1.772  0.00  0.00     0.079 C 
ATOM     51  H   LIG d   1      10.120   6.120   1.745  0.00  0.00     0.066 H 
ATOM     52  H   LIG d   1      10.879   4.569   1.312  0.00  0.00     0.066 H 
ATOM     53  H   LIG d   1      11.360   5.409   2.806  0.00  0.00     0.066 H 
ENDBRANCH  49  50
ENDBRANCH   6  49
BRANCH  14  54
ATOM     54  O   LIG d   1      10.597  10.914  -6.489  0.00  0.00    -0.488 OA
BRANCH  54  55
ATOM     55  C   LIG d   1       9.692  12.004  -6.307  0.00  0.00     0.079 C 
ATOM     56  H   LIG d   1      10.257  12.926  -6.169  0.00  0.00     0.066 H 
ATOM     57  H   LIG d   1       9.055  12.098  -7.186  0.00  0.00     0.066 H 
ATOM     58  H   LIG d   1       9.074  11.822  -5.428  0.00  0.00     0.066 H 
ENDBRANCH  54  55
ENDBRANCH  14  54
BRANCH   7  59
ATOM     59  O   LIG d   1      10.669   8.601   1.046  0.00  0.00    -0.488 OA
BRANCH  59  60
ATOM     60  C   LIG d   1      11.628   9.510   1.592  0.00  0.00     0.079 C 
ATOM     61  H   LIG d   1      12.587   9.367   1.096  0.00  0.00     0.066 H 
ATOM     62  H   LIG d   1      11.287  10.534   1.437  0.00  0.00     0.066 H 
ATOM     63  H   LIG d   1      11.739   9.322   2.660  0.00  0.00     0.066 H 
ENDBRANCH  59  60
ENDBRANCH   7  59
TORSDOF 15
ENDMDL
MODEL 5
REMARK VINA RESULT:      -4.3      3.701      6.680
REMARK  15 active torsions:
REMARK  status: ('A' for Active; 'I' for Inactive)
REMARK    1  A    between atoms: C_1  and  C_2 
REMARK    2  A    between atoms: C_7  and  O_31 
REMARK    3  A    between atoms: C_8  and  O_29 
REMARK    4  A    between atoms: C_9  and  O_27 
REMARK    5  A    between atoms: C_14  and  O_21 
REMARK    6  A    between atoms: C_15  and  O_19 
REMARK    7  A    between atoms: C_16  and  O_17 
REMARK    8  A    between atoms: O_17  and  C_18 
REMARK    9  A    between atoms: O_19  and  C_20 
REMARK   10  A    between atoms: O_21  and  C_22 
REMARK   11  A    between atoms: C_24  and  C_25 
REMARK   12  A    between atoms: C_24  and  O_26 
REMARK   13  A    between atoms: O_27  and  C_28 
REMARK   14  A    between atoms: O_29  and  C_30 
REMARK   15  A    between atoms: O_31  and  C_32 
ROOT
ATOM      1  C   LIG d   1       2.422   0.247  -9.200  0.00  0.00    -0.011 C 
ATOM      2  H   LIG d   1       1.807   0.901  -8.581  0.00  0.00     0.033 H 
ATOM      3  C   LIG d   1       2.785  -1.034  -8.400  0.00  0.00    -0.022 C 
ATOM      4  C   LIG d   1       3.546  -0.704  -7.113  0.00  0.00    -0.032 A 
ATOM      5  C   LIG d   1       3.205   0.050  -6.063  0.00  0.00    -0.012 A 
ATOM      6  C   LIG d   1       4.079   0.116  -4.972  0.00  0.00     0.166 A 
ATOM      7  C   LIG d   1       5.270  -0.604  -4.995  0.00  0.00     0.204 A 
ATOM      8  C   LIG d   1       5.626  -1.376  -6.098  0.00  0.00     0.173 A 
ATOM      9  C   LIG d   1       4.778  -1.425  -7.186  0.00  0.00     0.035 A 
ATOM     10  C   LIG d   1       5.041  -2.069  -8.485  0.00  0.00     0.035 A 
ATOM     11  C   LIG d   1       5.088  -1.177  -9.598  0.00  0.00    -0.030 A 
ATOM     12  C   LIG d   1       5.227  -1.595 -10.861  0.00  0.00    -0.012 A 
ATOM     13  C   LIG d   1       5.386  -2.966 -11.100  0.00  0.00     0.166 A 
ATOM     14  C   LIG d   1       5.398  -3.858 -10.033  0.00  0.00     0.204 A 
ATOM     15  C   LIG d   1       5.226  -3.418  -8.723  0.00  0.00     0.173 A 
ATOM     16  C   LIG d   1       4.968   0.232  -9.016  0.00  0.00     0.002 C 
ATOM     17  C   LIG d   1       3.759   1.003  -9.607  0.00  0.00     0.070 C 
ATOM     18  H   LIG d   1       3.405  -1.677  -9.024  0.00  0.00     0.032 H 
ATOM     19  H   LIG d   1       1.867  -1.564  -8.145  0.00  0.00     0.032 H 
ATOM     20  H   LIG d   1       2.275   0.600  -6.057  0.00  0.00     0.066 H 
ATOM     21  H   LIG d   1       5.217  -0.891 -11.680  0.00  0.00     0.066 H 
ATOM     22  H   LIG d   1       5.881   0.785  -9.234  0.00  0.00     0.034 H 
ATOM     23  H   LIG d   1       4.848   0.160  -7.935  0.00  0.00     0.034 H 
ENDROOT
BRANCH  17  24
ATOM     24  C   LIG d   1       3.733   2.427  -9.049  0.00  0.00    -0.035 C 
ATOM     25  H   LIG d   1       4.722   2.690  -8.676  0.00  0.00     0.026 H 
ATOM     26  H   LIG d   1       3.445   3.122  -9.837  0.00  0.00     0.026 H 
ATOM     27  H   LIG d   1       3.011   2.486  -8.234  0.00  0.00     0.026 H 
ENDBRANCH  17  24
BRANCH  17  28
ATOM     28  O   LIG d   1       3.869   1.049 -11.031  0.00  0.00    -0.388 OA
ATOM     29  H   LIG d   1       4.203   0.233 -11.427  0.00  0.00     0.210 HD
ENDBRANCH  17  28
BRANCH   1  30
ATOM     30  C   LIG d   1       1.649  -0.140 -10.462  0.00  0.00    -0.059 C 
ATOM     31  H   LIG d   1       0.593  -0.263 -10.219  0.00  0.00     0.023 H 
ATOM     32  H   LIG d   1       1.760   0.645 -11.211  0.00  0.00     0.023 H 
ATOM     33  H   LIG d   1       2.042  -1.077 -10.856  0.00  0.00     0.023 H 
ENDBRANCH   1  30
BRANCH  15  34
ATOM     34  O   LIG d   1       5.240  -4.303  -7.692  0.00  0.00    -0.491 OA
BRANCH  34  35
ATOM     35  C   LIG d   1       3.982  -4.845  -7.284  0.00  0.00     0.079 C 
ATOM     36  H   LIG d   1       3.622  -5.537  -8.045  0.00  0.00     0.066 H 
ATOM     37  H   LIG d   1       4.104  -5.375  -6.339  0.00  0.00     0.066 H 
ATOM     38  H   LIG d   1       3.262  -4.037  -7.158  0.00  0.00     0.066 H 
ENDBRANCH  34  35
ENDBRANCH  15  34
BRANCH  13  39
ATOM     39  O   LIG d   1       5.528  -3.424 -12.372  0.00  0.00    -0.491 OA
BRANCH  39  40
ATOM     40  C   LIG d   1       4.361  -3.421 -13.197  0.00  0.00     0.079 C 
ATOM     41  H   LIG d   1       4.493  -4.127 -14.017  0.00  0.00     0.066 H 
ATOM     42  H   LIG d   1       3.494  -3.711 -12.603  0.00  0.00     0.066 H 
ATOM     43  H   LIG d   1       4.204  -2.421 -13.601  0.00  0.00     0.066 H 
ENDBRANCH  39  40
ENDBRANCH  13  39
BRANCH   8  44
ATOM     44  O   LIG d   1       6.794  -2.072  -6.102  0.00  0.00    -0.491 OA
BRANCH  44  45
ATOM     45  C   LIG d   1       7.913  -1.458  -6.746  0.00  0.00     0.079 C 
ATOM     46  H   LIG d   1       7.713  -0.397  -6.890  0.00  0.00     0.066 H 
ATOM     47  H   LIG d   1       8.801  -1.581  -6.124  0.00  0.00     0.066 H 
ATOM     48  H   LIG d   1       8.080  -1.931  -7.713  0.00  0.00     0.066 H 
ENDBRANCH  44  45
ENDBRANCH   8  44
BRANCH   6  49
ATOM     49  O   LIG d   1       3.764   0.877  -3.890  0.00  0.00    -0.491 OA
BRANCH  49  50
ATOM     50  C   LIG d   1       3.130   0.214  -2.794  0.00  0.00     0.079 C 
ATOM     51  H   LIG d   1       2.895   0.941  -2.016  0.00  0.00     0.066 H 
ATOM     52  H   LIG d   1       2.210  -0.259  -3.139  0.00  0.00     0.066 H 
ATOM     53  H   LIG d   1       3.800  -0.545  -2.391  0.00  0.00     0.066 H 
ENDBRANCH  49  50
ENDBRANCH   6  49
BRANCH  14  54
ATOM     54  O   LIG d   1       5.583  -5.185 -10.274  0.00  0.00    -0.488 OA
BRANCH  54  55
ATOM     55  C   LIG d   1       6.928  -5.666 -10.257  0.00  0.00     0.079 C 
ATOM     56  H   LIG d   1       6.923  -6.756 -10.252  0.00  0.00     0.066 H 
ATOM     57  H   LIG d   1       7.453  -5.309 -11.143  0.00  0.00     0.066 H 
ATOM     58  H   LIG d   1       7.434  -5.301  -9.363  0.00  0.00     0.066 H 
ENDBRANCH  54  55
ENDBRANCH  14  54
BRANCH   7  59
ATOM     59  O   LIG d   1       6.102  -0.551  -3.919  0.00  0.00    -0.488 OA
BRANCH  59  60
ATOM     60  C   LIG d   1       6.992   0.564  -3.842  0.00  0.00     0.079 C 
ATOM     61  H   LIG d   1       6.490   1.456  -4.214  0.00  0.00     0.066 H 
ATOM     62  H   LIG d   1       7.291   0.720  -2.806  0.00  0.00     0.066 H 
ATOM     63  H   LIG d   1       7.876   0.366  -4.449  0.00  0.00     0.066 H 
ENDBRANCH  59  60
ENDBRANCH   7  59
TORSDOF 15
ENDMDL
MODEL 6
REMARK VINA RESULT:      -4.3      7.759     11.974
REMARK  15 active torsions:
REMARK  status: ('A' for Active; 'I' for Inactive)
REMARK    1  A    between atoms: C_1  and  C_2 
REMARK    2  A    between atoms: C_7  and  O_31 
REMARK    3  A    between atoms: C_8  and  O_29 
REMARK    4  A    between atoms: C_9  and  O_27 
REMARK    5  A    between atoms: C_14  and  O_21 
REMARK    6  A    between atoms: C_15  and  O_19 
REMARK    7  A    between atoms: C_16  and  O_17 
REMARK    8  A    between atoms: O_17  and  C_18 
REMARK    9  A    between atoms: O_19  and  C_20 
REMARK   10  A    between atoms: O_21  and  C_22 
REMARK   11  A    between atoms: C_24  and  C_25 
REMARK   12  A    between atoms: C_24  and  O_26 
REMARK   13  A    between atoms: O_27  and  C_28 
REMARK   14  A    between atoms: O_29  and  C_30 
REMARK   15  A    between atoms: O_31  and  C_32 
ROOT
ATOM      1  C   LIG d   1       9.832   5.185  -4.506  0.00  0.00    -0.011 C 
ATOM      2  H   LIG d   1       9.342   4.965  -5.454  0.00  0.00     0.033 H 
ATOM      3  C   LIG d   1       9.348   6.565  -3.981  0.00  0.00    -0.022 C 
ATOM      4  C   LIG d   1       9.653   7.690  -4.973  0.00  0.00    -0.032 A 
ATOM      5  C   LIG d   1       9.277   7.862  -6.245  0.00  0.00    -0.012 A 
ATOM      6  C   LIG d   1       9.647   9.043  -6.900  0.00  0.00     0.166 A 
ATOM      7  C   LIG d   1      10.380  10.010  -6.221  0.00  0.00     0.204 A 
ATOM      8  C   LIG d   1      10.781   9.819  -4.901  0.00  0.00     0.173 A 
ATOM      9  C   LIG d   1      10.440   8.646  -4.258  0.00  0.00     0.035 A 
ATOM     10  C   LIG d   1      10.882   8.207  -2.923  0.00  0.00     0.035 A 
ATOM     11  C   LIG d   1      11.675   7.020  -2.915  0.00  0.00    -0.030 A 
ATOM     12  C   LIG d   1      12.088   6.429  -1.788  0.00  0.00    -0.012 A 
ATOM     13  C   LIG d   1      11.774   7.027  -0.561  0.00  0.00     0.166 A 
ATOM     14  C   LIG d   1      11.048   8.214  -0.536  0.00  0.00     0.204 A 
ATOM     15  C   LIG d   1      10.598   8.809  -1.712  0.00  0.00     0.173 A 
ATOM     16  C   LIG d   1      11.913   6.659  -4.382  0.00  0.00     0.002 C 
ATOM     17  C   LIG d   1      11.406   5.232  -4.718  0.00  0.00     0.070 C 
ATOM     18  H   LIG d   1       9.847   6.779  -3.036  0.00  0.00     0.032 H 
ATOM     19  H   LIG d   1       8.272   6.521  -3.811  0.00  0.00     0.032 H 
ATOM     20  H   LIG d   1       8.704   7.104  -6.758  0.00  0.00     0.066 H 
ATOM     21  H   LIG d   1      12.653   5.508  -1.823  0.00  0.00     0.066 H 
ATOM     22  H   LIG d   1      12.981   6.714  -4.592  0.00  0.00     0.034 H 
ATOM     23  H   LIG d   1      11.390   7.379  -5.012  0.00  0.00     0.034 H 
ENDROOT
BRANCH  17  24
ATOM     24  C   LIG d   1      11.738   4.897  -6.173  0.00  0.00    -0.035 C 
ATOM     25  H   LIG d   1      11.155   4.033  -6.490  0.00  0.00     0.026 H 
ATOM     26  H   LIG d   1      11.496   5.750  -6.807  0.00  0.00     0.026 H 
ATOM     27  H   LIG d   1      12.800   4.671  -6.261  0.00  0.00     0.026 H 
ENDBRANCH  17  24
BRANCH  17  28
ATOM     28  O   LIG d   1      12.035   4.284  -3.853  0.00  0.00    -0.388 OA
ATOM     29  H   LIG d   1      12.734   4.658  -3.301  0.00  0.00     0.210 HD
ENDBRANCH  17  28
BRANCH   1  30
ATOM     30  C   LIG d   1       9.485   4.100  -3.486  0.00  0.00    -0.059 C 
ATOM     31  H   LIG d   1       9.569   3.119  -3.955  0.00  0.00     0.023 H 
ATOM     32  H   LIG d   1      10.176   4.159  -2.643  0.00  0.00     0.023 H 
ATOM     33  H   LIG d   1       8.466   4.247  -3.130  0.00  0.00     0.023 H 
ENDBRANCH   1  30
BRANCH  15  34
ATOM     34  O   LIG d   1       9.890   9.968  -1.669  0.00  0.00    -0.491 OA
BRANCH  34  35
ATOM     35  C   LIG d   1       8.536   9.885  -1.220  0.00  0.00     0.079 C 
ATOM     36  H   LIG d   1       7.874   9.781  -2.080  0.00  0.00     0.066 H 
ATOM     37  H   LIG d   1       8.422   9.021  -0.566  0.00  0.00     0.066 H 
ATOM     38  H   LIG d   1       8.278  10.792  -0.672  0.00  0.00     0.066 H 
ENDBRANCH  34  35
ENDBRANCH  15  34
BRANCH  13  39
ATOM     39  O   LIG d   1      12.177   6.450   0.602  0.00  0.00    -0.491 OA
BRANCH  39  40
ATOM     40  C   LIG d   1      11.211   5.670   1.308  0.00  0.00     0.079 C 
ATOM     41  H   LIG d   1      10.527   6.331   1.841  0.00  0.00     0.066 H 
ATOM     42  H   LIG d   1      10.649   5.059   0.602  0.00  0.00     0.066 H 
ATOM     43  H   LIG d   1      11.719   5.022   2.023  0.00  0.00     0.066 H 
ENDBRANCH  39  40
ENDBRANCH  13  39
BRANCH   8  44
ATOM     44  O   LIG d   1      11.498  10.776  -4.254  0.00  0.00    -0.491 OA
BRANCH  44  45
ATOM     45  C   LIG d   1      12.922  10.691  -4.343  0.00  0.00     0.079 C 
ATOM     46  H   LIG d   1      13.257  11.151  -5.273  0.00  0.00     0.066 H 
ATOM     47  H   LIG d   1      13.371  11.213  -3.497  0.00  0.00     0.066 H 
ATOM     48  H   LIG d   1      13.226   9.645  -4.326  0.00  0.00     0.066 H 
ENDBRANCH  44  45
ENDBRANCH   8  44
BRANCH   6  49
ATOM     49  O   LIG d   1       9.284   9.246  -8.195  0.00  0.00    -0.491 OA
BRANCH  49  50
ATOM     50  C   LIG d   1       9.959   8.472  -9.187  0.00  0.00     0.079 C 
ATOM     51  H   LIG d   1      10.948   8.895  -9.368  0.00  0.00     0.066 H 
ATOM     52  H   LIG d   1      10.063   7.444  -8.837  0.00  0.00     0.066 H 
ATOM     53  H   LIG d   1       9.384   8.484 -10.112  0.00  0.00     0.066 H 
ENDBRANCH  49  50
ENDBRANCH   6  49
BRANCH  14  54
ATOM     54  O   LIG d   1      10.773   8.803   0.660  0.00  0.00    -0.488 OA
BRANCH  54  55
ATOM     55  C   LIG d   1      11.735   9.733   1.160  0.00  0.00     0.079 C 
ATOM     56  H   LIG d   1      11.227  10.639   1.489  0.00  0.00     0.066 H 
ATOM     57  H   LIG d   1      12.266   9.289   2.002  0.00  0.00     0.066 H 
ATOM     58  H   LIG d   1      12.446   9.981   0.372  0.00  0.00     0.066 H 
ENDBRANCH  54  55
ENDBRANCH  14  54
BRANCH   7  59
ATOM     59  O   LIG d   1      10.714  11.165  -6.860  0.00  0.00    -0.488 OA
BRANCH  59  60
ATOM     60  C   LIG d   1       9.792  12.252  -6.757  0.00  0.00     0.079 C 
ATOM     61  H   LIG d   1       9.975  12.796  -5.831  0.00  0.00     0.066 H 
ATOM     62  H   LIG d   1       9.926  12.923  -7.605  0.00  0.00     0.066 H 
ATOM     63  H   LIG d   1       8.773  11.866  -6.756  0.00  0.00     0.066 H 
ENDBRANCH  59  60
ENDBRANCH   7  59
TORSDOF 15
ENDMDL
MODEL 7
REMARK VINA RESULT:      -4.2      6.508      9.695
REMARK  15 active torsions:
REMARK  status: ('A' for Active; 'I' for Inactive)
REMARK    1  A    between atoms: C_1  and  C_2 
REMARK    2  A    between atoms: C_7  and  O_31 
REMARK    3  A    between atoms: C_8  and  O_29 
REMARK    4  A    between atoms: C_9  and  O_27 
REMARK    5  A    between atoms: C_14  and  O_21 
REMARK    6  A    between atoms: C_15  and  O_19 
REMARK    7  A    between atoms: C_16  and  O_17 
REMARK    8  A    between atoms: O_17  and  C_18 
REMARK    9  A    between atoms: O_19  and  C_20 
REMARK   10  A    between atoms: O_21  and  C_22 
REMARK   11  A    between atoms: C_24  and  C_25 
REMARK   12  A    between atoms: C_24  and  O_26 
REMARK   13  A    between atoms: O_27  and  C_28 
REMARK   14  A    between atoms: O_29  and  C_30 
REMARK   15  A    between atoms: O_31  and  C_32 
ROOT
ATOM      1  C   LIG d   1      11.411   8.026  -5.675  0.00  0.00    -0.011 C 
ATOM      2  H   LIG d   1      11.989   7.996  -6.598  0.00  0.00     0.033 H 
ATOM      3  C   LIG d   1      12.117   7.165  -4.592  0.00  0.00    -0.022 C 
ATOM      4  C   LIG d   1      12.274   5.709  -5.036  0.00  0.00    -0.032 A 
ATOM      5  C   LIG d   1      12.896   5.178  -6.094  0.00  0.00    -0.012 A 
ATOM      6  C   LIG d   1      12.946   3.784  -6.213  0.00  0.00     0.166 A 
ATOM      7  C   LIG d   1      12.364   2.984  -5.235  0.00  0.00     0.204 A 
ATOM      8  C   LIG d   1      11.705   3.543  -4.143  0.00  0.00     0.173 A 
ATOM      9  C   LIG d   1      11.632   4.918  -4.033  0.00  0.00     0.035 A 
ATOM     10  C   LIG d   1      10.870   5.687  -3.034  0.00  0.00     0.035 A 
ATOM     11  C   LIG d   1       9.822   6.494  -3.571  0.00  0.00    -0.030 A 
ATOM     12  C   LIG d   1       9.087   7.325  -2.823  0.00  0.00    -0.012 A 
ATOM     13  C   LIG d   1       9.320   7.368  -1.442  0.00  0.00     0.166 A 
ATOM     14  C   LIG d   1      10.297   6.554  -0.879  0.00  0.00     0.204 A 
ATOM     15  C   LIG d   1      11.076   5.712  -1.668  0.00  0.00     0.173 A 
ATOM     16  C   LIG d   1       9.764   6.173  -5.065  0.00  0.00     0.002 C 
ATOM     17  C   LIG d   1       9.957   7.440  -5.939  0.00  0.00     0.070 C 
ATOM     18  H   LIG d   1      11.529   7.196  -3.675  0.00  0.00     0.032 H 
ATOM     19  H   LIG d   1      13.103   7.585  -4.394  0.00  0.00     0.032 H 
ATOM     20  H   LIG d   1      13.348   5.811  -6.844  0.00  0.00     0.066 H 
ATOM     21  H   LIG d   1       8.330   7.950  -3.274  0.00  0.00     0.066 H 
ATOM     22  H   LIG d   1       8.795   5.730  -5.294  0.00  0.00     0.034 H 
ATOM     23  H   LIG d   1      10.547   5.454  -5.304  0.00  0.00     0.034 H 
ENDROOT
BRANCH  17  24
ATOM     24  C   LIG d   1       9.813   7.073  -7.417  0.00  0.00    -0.035 C 
ATOM     25  H   LIG d   1      10.776   6.742  -7.806  0.00  0.00     0.026 H 
ATOM     26  H   LIG d   1       9.084   6.270  -7.523  0.00  0.00     0.026 H 
ATOM     27  H   LIG d   1       9.476   7.945  -7.977  0.00  0.00     0.026 H 
ENDBRANCH  17  24
BRANCH  17  28
ATOM     28  O   LIG d   1       8.975   8.418  -5.590  0.00  0.00    -0.388 OA
ATOM     29  H   LIG d   1       8.718   8.995  -6.322  0.00  0.00     0.210 HD
ENDBRANCH  17  28
BRANCH   1  30
ATOM     30  C   LIG d   1      11.298   9.471  -5.186  0.00  0.00    -0.059 C 
ATOM     31  H   LIG d   1      11.701   9.546  -4.175  0.00  0.00     0.023 H 
ATOM     32  H   LIG d   1      11.864  10.125  -5.851  0.00  0.00     0.023 H 
ATOM     33  H   LIG d   1      10.251   9.774  -5.184  0.00  0.00     0.023 H 
ENDBRANCH   1  30
BRANCH  15  34
ATOM     34  O   LIG d   1      12.028   4.923  -1.101  0.00  0.00    -0.491 OA
BRANCH  34  35
ATOM     35  C   LIG d   1      13.363   5.432  -1.079  0.00  0.00     0.079 C 
ATOM     36  H   LIG d   1      13.363   6.431  -0.643  0.00  0.00     0.066 H 
ATOM     37  H   LIG d   1      13.992   4.774  -0.480  0.00  0.00     0.066 H 
ATOM     38  H   LIG d   1      13.751   5.480  -2.096  0.00  0.00     0.066 H 
ENDBRANCH  34  35
ENDBRANCH  15  34
BRANCH  13  39
ATOM     39  O   LIG d   1       8.591   8.203  -0.654  0.00  0.00    -0.491 OA
BRANCH  39  40
ATOM     40  C   LIG d   1       8.714   9.604  -0.906  0.00  0.00     0.079 C 
ATOM     41  H   LIG d   1       9.006   9.763  -1.944  0.00  0.00     0.066 H 
ATOM     42  H   LIG d   1       7.758  10.093  -0.719  0.00  0.00     0.066 H 
ATOM     43  H   LIG d   1       9.472  10.027  -0.247  0.00  0.00     0.066 H 
ENDBRANCH  39  40
ENDBRANCH  13  39
BRANCH   8  44
ATOM     44  O   LIG d   1      11.141   2.746  -3.197  0.00  0.00    -0.491 OA
BRANCH  44  45
ATOM     45  C   LIG d   1       9.775   2.375  -3.391  0.00  0.00     0.079 C 
ATOM     46  H   LIG d   1       9.130   3.218  -3.146  0.00  0.00     0.066 H 
ATOM     47  H   LIG d   1       9.620   2.089  -4.432  0.00  0.00     0.066 H 
ATOM     48  H   LIG d   1       9.532   1.532  -2.744  0.00  0.00     0.066 H 
ENDBRANCH  44  45
ENDBRANCH   8  44
BRANCH   6  49
ATOM     49  O   LIG d   1      13.568   3.212  -7.279  0.00  0.00    -0.491 OA
BRANCH  49  50
ATOM     50  C   LIG d   1      13.521   3.926  -8.516  0.00  0.00     0.079 C 
ATOM     51  H   LIG d   1      12.699   4.642  -8.493  0.00  0.00     0.066 H 
ATOM     52  H   LIG d   1      14.462   4.459  -8.664  0.00  0.00     0.066 H 
ATOM     53  H   LIG d   1      13.369   3.225  -9.336  0.00  0.00     0.066 H 
ENDBRANCH  49  50
ENDBRANCH   6  49
BRANCH  14  54
ATOM     54  O   LIG d   1      10.494   6.582   0.467  0.00  0.00    -0.488 OA
BRANCH  54  55
ATOM     55  C   LIG d   1      11.313   7.634   0.982  0.00  0.00     0.079 C 
ATOM     56  H   LIG d   1      12.348   7.297   1.031  0.00  0.00     0.066 H 
ATOM     57  H   LIG d   1      11.244   8.501   0.326  0.00  0.00     0.066 H 
ATOM     58  H   LIG d   1      10.972   7.905   1.981  0.00  0.00     0.066 H 
ENDBRANCH  54  55
ENDBRANCH  14  54
BRANCH   7  59
ATOM     59  O   LIG d   1      12.439   1.630  -5.349  0.00  0.00    -0.488 OA
BRANCH  59  60
ATOM     60  C   LIG d   1      13.550   0.987  -4.720  0.00  0.00     0.079 C 
ATOM     61  H   LIG d   1      13.961   1.641  -3.952  0.00  0.00     0.066 H 
ATOM     62  H   LIG d   1      13.220   0.054  -4.265  0.00  0.00     0.066 H 
ATOM     63  H   LIG d   1      14.317   0.777  -5.466  0.00  0.00     0.066 H 
ENDBRANCH  59  60
ENDBRANCH   7  59
TORSDOF 15
ENDMDL
MODEL 8
REMARK VINA RESULT:      -4.2      5.453     11.351
REMARK  15 active torsions:
REMARK  status: ('A' for Active; 'I' for Inactive)
REMARK    1  A    between atoms: C_1  and  C_2 
REMARK    2  A    between atoms: C_7  and  O_31 
REMARK    3  A    between atoms: C_8  and  O_29 
REMARK    4  A    between atoms: C_9  and  O_27 
REMARK    5  A    between atoms: C_14  and  O_21 
REMARK    6  A    between atoms: C_15  and  O_19 
REMARK    7  A    between atoms: C_16  and  O_17 
REMARK    8  A    between atoms: O_17  and  C_18 
REMARK    9  A    between atoms: O_19  and  C_20 
REMARK   10  A    between atoms: O_21  and  C_22 
REMARK   11  A    between atoms: C_24  and  C_25 
REMARK   12  A    between atoms: C_24  and  O_26 
REMARK   13  A    between atoms: O_27  and  C_28 
REMARK   14  A    between atoms: O_29  and  C_30 
REMARK   15  A    between atoms: O_31  and  C_32 
ROOT
ATOM      1  C   LIG d   1      12.088   6.818  -1.473  0.00  0.00    -0.011 C 
ATOM      2  H   LIG d   1      12.578   7.686  -1.032  0.00  0.00     0.033 H 
ATOM      3  C   LIG d   1      12.154   6.916  -3.022  0.00  0.00    -0.022 C 
ATOM      4  C   LIG d   1      11.479   8.188  -3.541  0.00  0.00    -0.032 A 
ATOM      5  C   LIG d   1      11.727   9.477  -3.288  0.00  0.00    -0.012 A 
ATOM      6  C   LIG d   1      10.988  10.450  -3.972  0.00  0.00     0.166 A 
ATOM      7  C   LIG d   1      10.027  10.063  -4.900  0.00  0.00     0.204 A 
ATOM      8  C   LIG d   1       9.762   8.718  -5.149  0.00  0.00     0.173 A 
ATOM      9  C   LIG d   1      10.471   7.755  -4.459  0.00  0.00     0.035 A 
ATOM     10  C   LIG d   1      10.243   6.299  -4.484  0.00  0.00     0.035 A 
ATOM     11  C   LIG d   1       9.848   5.733  -3.235  0.00  0.00    -0.030 A 
ATOM     12  C   LIG d   1       9.685   4.418  -3.051  0.00  0.00    -0.012 A 
ATOM     13  C   LIG d   1       9.858   3.561  -4.145  0.00  0.00     0.166 A 
ATOM     14  C   LIG d   1      10.190   4.085  -5.390  0.00  0.00     0.204 A 
ATOM     15  C   LIG d   1      10.385   5.453  -5.567  0.00  0.00     0.173 A 
ATOM     16  C   LIG d   1       9.666   6.910  -2.275  0.00  0.00     0.002 C 
ATOM     17  C   LIG d   1      10.566   6.779  -1.019  0.00  0.00     0.070 C 
ATOM     18  H   LIG d   1      11.656   6.048  -3.453  0.00  0.00     0.032 H 
ATOM     19  H   LIG d   1      13.199   6.916  -3.332  0.00  0.00     0.032 H 
ATOM     20  H   LIG d   1      12.479   9.763  -2.568  0.00  0.00     0.066 H 
ATOM     21  H   LIG d   1       9.425   4.025  -2.079  0.00  0.00     0.066 H 
ATOM     22  H   LIG d   1       8.623   6.953  -1.962  0.00  0.00     0.034 H 
ATOM     23  H   LIG d   1       9.917   7.834  -2.796  0.00  0.00     0.034 H 
ENDROOT
BRANCH  17  24
ATOM     24  C   LIG d   1      10.286   7.940  -0.062  0.00  0.00    -0.035 C 
ATOM     25  H   LIG d   1       9.853   7.555   0.861  0.00  0.00     0.026 H 
ATOM     26  H   LIG d   1      11.218   8.459   0.162  0.00  0.00     0.026 H 
ATOM     27  H   LIG d   1       9.588   8.635  -0.528  0.00  0.00     0.026 H 
ENDBRANCH  17  24
BRANCH  17  28
ATOM     28  O   LIG d   1      10.293   5.540  -0.361  0.00  0.00    -0.388 OA
ATOM     29  H   LIG d   1      10.325   5.591   0.604  0.00  0.00     0.210 HD
ENDBRANCH  17  28
BRANCH   1  30
ATOM     30  C   LIG d   1      12.792   5.542  -1.011  0.00  0.00    -0.059 C 
ATOM     31  H   LIG d   1      12.220   4.672  -1.336  0.00  0.00     0.023 H 
ATOM     32  H   LIG d   1      13.792   5.501  -1.445  0.00  0.00     0.023 H 
ATOM     33  H   LIG d   1      12.867   5.541   0.076  0.00  0.00     0.023 H 
ENDBRANCH   1  30
BRANCH  15  34
ATOM     34  O   LIG d   1      10.711   5.949  -6.790  0.00  0.00    -0.491 OA
BRANCH  34  35
ATOM     35  C   LIG d   1      12.102   6.073  -7.091  0.00  0.00     0.079 C 
ATOM     36  H   LIG d   1      12.519   6.914  -6.536  0.00  0.00     0.066 H 
ATOM     37  H   LIG d   1      12.619   5.157  -6.807  0.00  0.00     0.066 H 
ATOM     38  H   LIG d   1      12.229   6.245  -8.160  0.00  0.00     0.066 H 
ENDBRANCH  34  35
ENDBRANCH  15  34
BRANCH  13  39
ATOM     39  O   LIG d   1       9.701   2.219  -3.991  0.00  0.00    -0.491 OA
BRANCH  39  40
ATOM     40  C   LIG d   1       8.367   1.739  -3.812  0.00  0.00     0.079 C 
ATOM     41  H   LIG d   1       7.769   1.990  -4.688  0.00  0.00     0.066 H 
ATOM     42  H   LIG d   1       8.384   0.657  -3.683  0.00  0.00     0.066 H 
ATOM     43  H   LIG d   1       7.929   2.203  -2.928  0.00  0.00     0.066 H 
ENDBRANCH  39  40
ENDBRANCH  13  39
BRANCH   8  44
ATOM     44  O   LIG d   1       8.819   8.359  -6.059  0.00  0.00    -0.491 OA
BRANCH  44  45
ATOM     45  C   LIG d   1       9.168   8.484  -7.440  0.00  0.00     0.079 C 
ATOM     46  H   LIG d   1       8.497   9.195  -7.922  0.00  0.00     0.066 H 
ATOM     47  H   LIG d   1      10.196   8.839  -7.524  0.00  0.00     0.066 H 
ATOM     48  H   LIG d   1       9.079   7.513  -7.927  0.00  0.00     0.066 H 
ENDBRANCH  44  45
ENDBRANCH   8  44
BRANCH   6  49
ATOM     49  O   LIG d   1      11.214  11.770  -3.735  0.00  0.00    -0.491 OA
BRANCH  49  50
ATOM     50  C   LIG d   1      10.651  12.320  -2.543  0.00  0.00     0.079 C 
ATOM     51  H   LIG d   1      11.365  12.220  -1.724  0.00  0.00     0.066 H 
ATOM     52  H   LIG d   1      10.425  13.374  -2.701  0.00  0.00     0.066 H 
ATOM     53  H   LIG d   1       9.735  11.785  -2.293  0.00  0.00     0.066 H 
ENDBRANCH  49  50
ENDBRANCH   6  49
BRANCH  14  54
ATOM     54  O   LIG d   1      10.327   3.247  -6.453  0.00  0.00    -0.488 OA
BRANCH  54  55
ATOM     55  C   LIG d   1       9.168   3.028  -7.259  0.00  0.00     0.079 C 
ATOM     56  H   LIG d   1       8.278   3.323  -6.703  0.00  0.00     0.066 H 
ATOM     57  H   LIG d   1       9.241   3.622  -8.169  0.00  0.00     0.066 H 
ATOM     58  H   LIG d   1       9.099   1.971  -7.519  0.00  0.00     0.066 H 
ENDBRANCH  54  55
ENDBRANCH  14  54
BRANCH   7  59
ATOM     59  O   LIG d   1       9.331  11.016  -5.577  0.00  0.00    -0.488 OA
BRANCH  59  60
ATOM     60  C   LIG d   1      10.024  11.709  -6.618  0.00  0.00     0.079 C 
ATOM     61  H   LIG d   1       9.525  12.656  -6.819  0.00  0.00     0.066 H 
ATOM     62  H   LIG d   1      11.051  11.898  -6.307  0.00  0.00     0.066 H 
ATOM     63  H   LIG d   1      10.024  11.099  -7.522  0.00  0.00     0.066 H 
ENDBRANCH  59  60
ENDBRANCH   7  59
TORSDOF 15
ENDMDL
MODEL 9
REMARK VINA RESULT:      -4.1      6.907     11.174
REMARK  15 active torsions:
REMARK  status: ('A' for Active; 'I' for Inactive)
REMARK    1  A    between atoms: C_1  and  C_2 
REMARK    2  A    between atoms: C_7  and  O_31 
REMARK    3  A    between atoms: C_8  and  O_29 
REMARK    4  A    between atoms: C_9  and  O_27 
REMARK    5  A    between atoms: C_14  and  O_21 
REMARK    6  A    between atoms: C_15  and  O_19 
REMARK    7  A    between atoms: C_16  and  O_17 
REMARK    8  A    between atoms: O_17  and  C_18 
REMARK    9  A    between atoms: O_19  and  C_20 
REMARK   10  A    between atoms: O_21  and  C_22 
REMARK   11  A    between atoms: C_24  and  C_25 
REMARK   12  A    between atoms: C_24  and  O_26 
REMARK   13  A    between atoms: O_27  and  C_28 
REMARK   14  A    between atoms: O_29  and  C_30 
REMARK   15  A    between atoms: O_31  and  C_32 
ROOT
ATOM      1  C   LIG d   1      11.197   8.745  -7.508  0.00  0.00    -0.011 C 
ATOM      2  H   LIG d   1      11.481   7.959  -8.206  0.00  0.00     0.033 H 
ATOM      3  C   LIG d   1      11.722   8.394  -6.088  0.00  0.00    -0.022 C 
ATOM      4  C   LIG d   1      11.165   7.058  -5.590  0.00  0.00    -0.032 A 
ATOM      5  C   LIG d   1      11.252   5.826  -6.104  0.00  0.00    -0.012 A 
ATOM      6  C   LIG d   1      10.701   4.759  -5.385  0.00  0.00     0.166 A 
ATOM      7  C   LIG d   1      10.089   4.994  -4.158  0.00  0.00     0.204 A 
ATOM      8  C   LIG d   1       9.988   6.281  -3.635  0.00  0.00     0.173 A 
ATOM      9  C   LIG d   1      10.509   7.340  -4.352  0.00  0.00     0.035 A 
ATOM     10  C   LIG d   1      10.381   8.772  -4.033  0.00  0.00     0.035 A 
ATOM     11  C   LIG d   1       9.660   9.539  -4.996  0.00  0.00    -0.030 A 
ATOM     12  C   LIG d   1       9.523  10.868  -4.915  0.00  0.00    -0.012 A 
ATOM     13  C   LIG d   1      10.067  11.532  -3.808  0.00  0.00     0.166 A 
ATOM     14  C   LIG d   1      10.730  10.808  -2.823  0.00  0.00     0.204 A 
ATOM     15  C   LIG d   1      10.892   9.428  -2.928  0.00  0.00     0.173 A 
ATOM     16  C   LIG d   1       9.130   8.538  -6.023  0.00  0.00     0.002 C 
ATOM     17  C   LIG d   1       9.613   8.868  -7.460  0.00  0.00     0.070 C 
ATOM     18  H   LIG d   1      11.428   9.182  -5.396  0.00  0.00     0.032 H 
ATOM     19  H   LIG d   1      12.810   8.336  -6.119  0.00  0.00     0.032 H 
ATOM     20  H   LIG d   1      11.734   5.658  -7.056  0.00  0.00     0.066 H 
ATOM     21  H   LIG d   1       9.004  11.417  -5.687  0.00  0.00     0.066 H 
ATOM     22  H   LIG d   1       8.040   8.553  -6.004  0.00  0.00     0.034 H 
ATOM     23  H   LIG d   1       9.474   7.539  -5.755  0.00  0.00     0.034 H 
ENDROOT
BRANCH  17  24
ATOM     24  C   LIG d   1       8.992   7.883  -8.452  0.00  0.00    -0.035 C 
ATOM     25  H   LIG d   1       8.937   6.894  -7.997  0.00  0.00     0.026 H 
ATOM     26  H   LIG d   1       7.990   8.217  -8.717  0.00  0.00     0.026 H 
ATOM     27  H   LIG d   1       9.608   7.835  -9.350  0.00  0.00     0.026 H 
ENDBRANCH  17  24
BRANCH  17  28
ATOM     28  O   LIG d   1       9.225  10.201  -7.802  0.00  0.00    -0.388 OA
ATOM     29  H   LIG d   1       8.272  10.316  -7.914  0.00  0.00     0.210 HD
ENDBRANCH  17  28
BRANCH   1  30
ATOM     30  C   LIG d   1      11.799  10.076  -7.960  0.00  0.00    -0.059 C 
ATOM     31  H   LIG d   1      12.689  10.294  -7.367  0.00  0.00     0.023 H 
ATOM     32  H   LIG d   1      12.073  10.012  -9.014  0.00  0.00     0.023 H 
ATOM     33  H   LIG d   1      11.067  10.872  -7.823  0.00  0.00     0.023 H 
ENDBRANCH   1  30
BRANCH  15  34
ATOM     34  O   LIG d   1      11.543   8.736  -1.957  0.00  0.00    -0.491 OA
BRANCH  34  35
ATOM     35  C   LIG d   1      12.953   8.564  -2.116  0.00  0.00     0.079 C 
ATOM     36  H   LIG d   1      13.184   8.422  -3.172  0.00  0.00     0.066 H 
ATOM     37  H   LIG d   1      13.471   9.449  -1.747  0.00  0.00     0.066 H 
ATOM     38  H   LIG d   1      13.279   7.690  -1.552  0.00  0.00     0.066 H 
ENDBRANCH  34  35
ENDBRANCH  15  34
BRANCH  13  39
ATOM     39  O   LIG d   1       9.946  12.881  -3.697  0.00  0.00    -0.491 OA
BRANCH  39  40
ATOM     40  C   LIG d   1       8.676  13.387  -3.280  0.00  0.00     0.079 C 
ATOM     41  H   LIG d   1       8.766  13.817  -2.282  0.00  0.00     0.066 H 
ATOM     42  H   LIG d   1       8.343  14.155  -3.978  0.00  0.00     0.066 H 
ATOM     43  H   LIG d   1       7.950  12.575  -3.262  0.00  0.00     0.066 H 
ENDBRANCH  39  40
ENDBRANCH  13  39
BRANCH   8  44
ATOM     44  O   LIG d   1       9.386   6.491  -2.435  0.00  0.00    -0.491 OA
BRANCH  44  45
ATOM     45  C   LIG d   1      10.146   6.181  -1.264  0.00  0.00     0.079 C 
ATOM     46  H   LIG d   1      10.729   7.053  -0.968  0.00  0.00     0.066 H 
ATOM     47  H   LIG d   1       9.470   5.903  -0.455  0.00  0.00     0.066 H 
ATOM     48  H   LIG d   1      10.819   5.350  -1.476  0.00  0.00     0.066 H 
ENDBRANCH  44  45
ENDBRANCH   8  44
BRANCH   6  49
ATOM     49  O   LIG d   1      10.770   3.494  -5.882  0.00  0.00    -0.491 OA
BRANCH  49  50
ATOM     50  C   LIG d   1       9.833   3.147  -6.903  0.00  0.00     0.079 C 
ATOM     51  H   LIG d   1       9.003   2.594  -6.461  0.00  0.00     0.066 H 
ATOM     52  H   LIG d   1       9.455   4.055  -7.373  0.00  0.00     0.066 H 
ATOM     53  H   LIG d   1      10.324   2.527  -7.652  0.00  0.00     0.066 H 
ENDBRANCH  49  50
ENDBRANCH   6  49
BRANCH  14  54
ATOM     54  O   LIG d   1      11.228  11.459  -1.738  0.00  0.00    -0.488 OA
BRANCH  54  55
ATOM     55  C   LIG d   1      10.397  11.515  -0.577  0.00  0.00     0.079 C 
ATOM     56  H   LIG d   1      10.987  11.849   0.276  0.00  0.00     0.066 H 
ATOM     57  H   LIG d   1       9.580  12.214  -0.749  0.00  0.00     0.066 H 
ATOM     58  H   LIG d   1       9.992  10.524  -0.371  0.00  0.00     0.066 H 
ENDBRANCH  54  55
ENDBRANCH  14  54
BRANCH   7  59
ATOM     59  O   LIG d   1       9.578   3.945  -3.456  0.00  0.00    -0.488 OA
BRANCH  59  60
ATOM     60  C   LIG d   1      10.514   3.073  -2.820  0.00  0.00     0.079 C 
ATOM     61  H   LIG d   1       9.999   2.472  -2.070  0.00  0.00     0.066 H 
ATOM     62  H   LIG d   1      10.964   2.417  -3.565  0.00  0.00     0.066 H 
ATOM     63  H   LIG d   1      11.293   3.665  -2.339  0.00  0.00     0.066 H 
ENDBRANCH  59  60
ENDBRANCH   7  59
TORSDOF 15
ENDMDL
MODEL 10
REMARK VINA RESULT:      -4.1      3.619      5.457
REMARK  15 active torsions:
REMARK  status: ('A' for Active; 'I' for Inactive)
REMARK    1  A    between atoms: C_1  and  C_2 
REMARK    2  A    between atoms: C_7  and  O_31 
REMARK    3  A    between atoms: C_8  and  O_29 
REMARK    4  A    between atoms: C_9  and  O_27 
REMARK    5  A    between atoms: C_14  and  O_21 
REMARK    6  A    between atoms: C_15  and  O_19 
REMARK    7  A    between atoms: C_16  and  O_17 
REMARK    8  A    between atoms: O_17  and  C_18 
REMARK    9  A    between atoms: O_19  and  C_20 
REMARK   10  A    between atoms: O_21  and  C_22 
REMARK   11  A    between atoms: C_24  and  C_25 
REMARK   12  A    between atoms: C_24  and  O_26 
REMARK   13  A    between atoms: O_27  and  C_28 
REMARK   14  A    between atoms: O_29  and  C_30 
REMARK   15  A    between atoms: O_31  and  C_32 
ROOT
ATOM      1  C   LIG d   1       4.656   0.423  -9.582  0.00  0.00    -0.011 C 
ATOM      2  H   LIG d   1       4.792   0.365 -10.661  0.00  0.00     0.033 H 
ATOM      3  C   LIG d   1       5.380  -0.773  -8.903  0.00  0.00    -0.022 C 
ATOM      4  C   LIG d   1       4.847  -2.118  -9.401  0.00  0.00    -0.032 A 
ATOM      5  C   LIG d   1       4.797  -2.639 -10.632  0.00  0.00    -0.012 A 
ATOM      6  C   LIG d   1       4.317  -3.944 -10.789  0.00  0.00     0.166 A 
ATOM      7  C   LIG d   1       3.915  -4.673  -9.674  0.00  0.00     0.204 A 
ATOM      8  C   LIG d   1       3.956  -4.120  -8.396  0.00  0.00     0.173 A 
ATOM      9  C   LIG d   1       4.406  -2.824  -8.239  0.00  0.00     0.035 A 
ATOM     10  C   LIG d   1       4.395  -2.028  -6.999  0.00  0.00     0.035 A 
ATOM     11  C   LIG d   1       3.568  -0.865  -7.041  0.00  0.00    -0.030 A 
ATOM     12  C   LIG d   1       3.506   0.021  -6.040  0.00  0.00    -0.012 A 
ATOM     13  C   LIG d   1       4.246  -0.228  -4.877  0.00  0.00     0.166 A 
ATOM     14  C   LIG d   1       5.021  -1.379  -4.782  0.00  0.00     0.204 A 
ATOM     15  C   LIG d   1       5.101  -2.283  -5.839  0.00  0.00     0.173 A 
ATOM     16  C   LIG d   1       2.839  -0.912  -8.385  0.00  0.00     0.002 C 
ATOM     17  C   LIG d   1       3.107   0.357  -9.235  0.00  0.00     0.070 C 
ATOM     18  H   LIG d   1       5.234  -0.710  -7.825  0.00  0.00     0.032 H 
ATOM     19  H   LIG d   1       6.446  -0.709  -9.120  0.00  0.00     0.032 H 
ATOM     20  H   LIG d   1       5.116  -2.063 -11.488  0.00  0.00     0.066 H 
ATOM     21  H   LIG d   1       2.898   0.909  -6.127  0.00  0.00     0.066 H 
ATOM     22  H   LIG d   1       1.767  -0.998  -8.203  0.00  0.00     0.034 H 
ATOM     23  H   LIG d   1       3.175  -1.789  -8.939  0.00  0.00     0.034 H 
ENDROOT
BRANCH  17  24
ATOM     24  C   LIG d   1       2.294   0.290 -10.530  0.00  0.00    -0.035 C 
ATOM     25  H   LIG d   1       1.356  -0.232 -10.344  0.00  0.00     0.026 H 
ATOM     26  H   LIG d   1       2.086   1.300 -10.881  0.00  0.00     0.026 H 
ATOM     27  H   LIG d   1       2.864  -0.247 -11.289  0.00  0.00     0.026 H 
ENDBRANCH  17  24
BRANCH  17  28
ATOM     28  O   LIG d   1       2.731   1.519  -8.494  0.00  0.00    -0.388 OA
ATOM     29  H   LIG d   1       1.816   1.796  -8.634  0.00  0.00     0.210 HD
ENDBRANCH  17  28
BRANCH   1  30
ATOM     30  C   LIG d   1       5.241   1.737  -9.061  0.00  0.00    -0.059 C 
ATOM     31  H   LIG d   1       6.322   1.737  -9.205  0.00  0.00     0.023 H 
ATOM     32  H   LIG d   1       4.802   2.572  -9.609  0.00  0.00     0.023 H 
ATOM     33  H   LIG d   1       5.016   1.840  -8.000  0.00  0.00     0.023 H 
ENDBRANCH   1  30
BRANCH  15  34
ATOM     34  O   LIG d   1       5.864  -3.403  -5.730  0.00  0.00    -0.491 OA
BRANCH  34  35
ATOM     35  C   LIG d   1       7.174  -3.353  -6.297  0.00  0.00     0.079 C 
ATOM     36  H   LIG d   1       7.636  -4.339  -6.231  0.00  0.00     0.066 H 
ATOM     37  H   LIG d   1       7.107  -3.053  -7.343  0.00  0.00     0.066 H 
ATOM     38  H   LIG d   1       7.780  -2.631  -5.750  0.00  0.00     0.066 H 
ENDBRANCH  34  35
ENDBRANCH  15  34
BRANCH  13  39
ATOM     39  O   LIG d   1       4.206   0.653  -3.843  0.00  0.00    -0.491 OA
BRANCH  39  40
ATOM     40  C   LIG d   1       3.227   0.419  -2.828  0.00  0.00     0.079 C 
ATOM     41  H   LIG d   1       3.631  -0.269  -2.085  0.00  0.00     0.066 H 
ATOM     42  H   LIG d   1       2.968   1.362  -2.347  0.00  0.00     0.066 H 
ATOM     43  H   LIG d   1       2.334  -0.016  -3.277  0.00  0.00     0.066 H 
ENDBRANCH  39  40
ENDBRANCH  13  39
BRANCH   8  44
ATOM     44  O   LIG d   1       3.559  -4.847  -7.319  0.00  0.00    -0.491 OA
BRANCH  44  45
ATOM     45  C   LIG d   1       4.381  -5.955  -6.944  0.00  0.00     0.079 C 
ATOM     46  H   LIG d   1       5.056  -5.653  -6.144  0.00  0.00     0.066 H 
ATOM     47  H   LIG d   1       3.750  -6.774  -6.598  0.00  0.00     0.066 H 
ATOM     48  H   LIG d   1       4.962  -6.283  -7.805  0.00  0.00     0.066 H 
ENDBRANCH  44  45
ENDBRANCH   8  44
BRANCH   6  49
ATOM     49  O   LIG d   1       4.249  -4.502 -12.028  0.00  0.00    -0.491 OA
BRANCH  49  50
ATOM     50  C   LIG d   1       3.244  -4.000 -12.910  0.00  0.00     0.079 C 
ATOM     51  H   LIG d   1       2.282  -3.989 -12.397  0.00  0.00     0.066 H 
ATOM     52  H   LIG d   1       3.504  -2.986 -13.217  0.00  0.00     0.066 H 
ATOM     53  H   LIG d   1       3.180  -4.640 -13.790  0.00  0.00     0.066 H 
ENDBRANCH  49  50
ENDBRANCH   6  49
BRANCH  14  54
ATOM     54  O   LIG d   1       5.712  -1.626  -3.637  0.00  0.00    -0.488 OA
BRANCH  54  55
ATOM     55  C   LIG d   1       6.981  -0.988  -3.494  0.00  0.00     0.079 C 
ATOM     56  H   LIG d   1       6.885   0.070  -3.740  0.00  0.00     0.066 H 
ATOM     57  H   LIG d   1       7.327  -1.091  -2.466  0.00  0.00     0.066 H 
ATOM     58  H   LIG d   1       7.700  -1.452  -4.169  0.00  0.00     0.066 H 
ENDBRANCH  54  55
ENDBRANCH  14  54
BRANCH   7  59
ATOM     59  O   LIG d   1       3.472  -5.950  -9.835  0.00  0.00    -0.488 OA
BRANCH  59  60
ATOM     60  C   LIG d   1       2.069  -6.128 -10.042  0.00  0.00     0.079 C 
ATOM     61  H   LIG d   1       1.533  -5.888  -9.124  0.00  0.00     0.066 H 
ATOM     62  H   LIG d   1       1.733  -5.468 -10.842  0.00  0.00     0.066 H 
ATOM     63  H   LIG d   1       1.871  -7.164 -10.318  0.00  0.00     0.066 H 
ENDBRANCH  59  60
ENDBRANCH   7  59
TORSDOF 15
ENDMDL
