MODEL 1
REMARK VINA RESULT:      -7.8      0.000      0.000
REMARK  12 active torsions:
REMARK  status: ('A' for Active; 'I' for Inactive)
REMARK    1  A    between atoms: C_1  and  C_2 
REMARK    2  A    between atoms: C_13  and  C_14 
REMARK    3  A    between atoms: C_13  and  O_15 
REMARK    4  A    between atoms: N_21  and  O_22 
REMARK    5  A    between atoms: O_22  and  C_23 
REMARK    6  A    between atoms: C_23  and  C_24 
REMARK       I    between atoms: C_24  and  N_26 
REMARK    7  A    between atoms: N_26  and  C_27 
REMARK    8  A    between atoms: C_27  and  C_28 
REMARK    9  A    between atoms: C_28  and  C_30 
REMARK   10  A    between atoms: C_28  and  C_34 
REMARK   11  A    between atoms: C_30  and  C_31 
REMARK   12  A    between atoms: C_42  and  C_43 
ROOT
ATOM      1  C   LIG d   1       5.120  -0.247  -3.674  0.00  0.00    -0.000 C 
ATOM      2  C   LIG d   1       6.567   0.113  -3.443  0.00  0.00    -0.044 C 
ATOM      3  C   LIG d   1       7.444  -0.925  -4.180  0.00  0.00    -0.048 C 
ATOM      4  C   LIG d   1       7.192  -2.321  -3.643  0.00  0.00    -0.025 C 
ATOM      5  H   LIG d   1       7.452  -2.286  -2.566  0.00  0.00     0.032 H 
ATOM      6  C   LIG d   1       5.713  -2.717  -3.696  0.00  0.00    -0.033 C 
ATOM      7  H   LIG d   1       5.603  -3.629  -3.068  0.00  0.00     0.031 H 
ATOM      8  C   LIG d   1       4.859  -1.651  -3.092  0.00  0.00    -0.030 C 
ATOM      9  H   LIG d   1       5.090  -1.621  -2.003  0.00  0.00     0.031 H 
ATOM     10  C   LIG d   1       3.337  -1.770  -3.217  0.00  0.00    -0.047 C 
ATOM     11  C   LIG d   1       2.849  -0.356  -2.793  0.00  0.00    -0.024 C 
ATOM     12  C   LIG d   1       4.067   0.594  -2.938  0.00  0.00     0.069 C 
ATOM     13  C   LIG d   1       5.363  -3.114  -5.126  0.00  0.00    -0.046 C 
ATOM     14  C   LIG d   1       5.958  -4.510  -5.352  0.00  0.00    -0.030 C 
ATOM     15  C   LIG d   1       7.376  -4.559  -4.836  0.00  0.00    -0.058 C 
ATOM     16  C   LIG d   1       8.014  -5.727  -4.995  0.00  0.00    -0.033 C 
ATOM     17  C   LIG d   1       9.392  -5.884  -4.468  0.00  0.00     0.102 C 
ATOM     18  N   LIG d   1      10.183  -6.849  -4.880  0.00  0.00    -0.085 NA
ATOM     19  C   LIG d   1       9.834  -4.921  -3.424  0.00  0.00    -0.036 C 
ATOM     20  C   LIG d   1       9.189  -3.763  -3.298  0.00  0.00    -0.072 C 
ATOM     21  C   LIG d   1       8.073  -3.393  -4.231  0.00  0.00     0.011 C 
ATOM     22  H   LIG d   1       6.780   1.106  -3.840  0.00  0.00     0.027 H 
ATOM     23  H   LIG d   1       6.819   0.077  -2.382  0.00  0.00     0.027 H 
ATOM     24  H   LIG d   1       7.238  -0.856  -5.240  0.00  0.00     0.027 H 
ATOM     25  H   LIG d   1       8.486  -0.643  -3.991  0.00  0.00     0.027 H 
ATOM     26  H   LIG d   1       3.030  -2.005  -4.231  0.00  0.00     0.027 H 
ATOM     27  H   LIG d   1       2.957  -2.525  -2.522  0.00  0.00     0.027 H 
ATOM     28  H   LIG d   1       2.039  -0.029  -3.444  0.00  0.00     0.029 H 
ATOM     29  H   LIG d   1       2.514  -0.374  -1.757  0.00  0.00     0.029 H 
ATOM     30  H   LIG d   1       4.284  -3.151  -5.264  0.00  0.00     0.027 H 
ATOM     31  H   LIG d   1       5.815  -2.430  -5.844  0.00  0.00     0.027 H 
ATOM     32  H   LIG d   1       5.361  -5.246  -4.815  0.00  0.00     0.031 H 
ATOM     33  H   LIG d   1       5.957  -4.736  -6.416  0.00  0.00     0.031 H 
ATOM     34  H   LIG d   1       7.519  -6.557  -5.512  0.00  0.00     0.064 H 
ATOM     35  H   LIG d   1      10.676  -5.163  -2.769  0.00  0.00     0.064 H 
ATOM     36  H   LIG d   1       9.470  -3.068  -2.502  0.00  0.00     0.058 H 
ENDROOT
BRANCH  18  37
ATOM     37  O   LIG d   1      11.492  -6.965  -4.353  0.00  0.00    -0.384 OA
BRANCH  37  38
ATOM     38  C   LIG d   1      12.172  -8.160  -4.744  0.00  0.00     0.193 C 
ATOM     39  H   LIG d   1      11.684  -8.585  -5.622  0.00  0.00     0.082 H 
ATOM     40  H   LIG d   1      13.209  -7.927  -4.983  0.00  0.00     0.082 H 
BRANCH  38  41
ATOM     41  C   LIG d   1      12.128  -9.155  -3.613  0.00  0.00     0.253 C 
ATOM     42  O   LIG d   1      12.728 -10.205  -3.705  0.00  0.00    -0.272 OA
ATOM     43  N   LIG d   1      11.420  -8.880  -2.500  0.00  0.00    -0.312 N 
ATOM     44  H   LIG d   1      10.940  -8.040  -2.426  0.00  0.00     0.149 HD
BRANCH  43  45
ATOM     45  C   LIG d   1      11.377  -9.847  -1.400  0.00  0.00     0.019 C 
ATOM     46  H   LIG d   1      11.245 -10.851  -1.805  0.00  0.00     0.047 H 
ATOM     47  H   LIG d   1      12.310  -9.802  -0.840  0.00  0.00     0.047 H 
BRANCH  45  48
ATOM     48  C   LIG d   1      10.208  -9.514  -0.472  0.00  0.00     0.005 C 
ATOM     49  H   LIG d   1       9.955  -8.457  -0.571  0.00  0.00     0.037 H 
BRANCH  48  50
ATOM     50  C   LIG d   1       8.995 -10.365  -0.854  0.00  0.00    -0.005 C 
ATOM     51  H   LIG d   1       9.294 -11.120  -1.580  0.00  0.00     0.033 H 
ATOM     52  H   LIG d   1       8.600 -10.854   0.038  0.00  0.00     0.033 H 
BRANCH  50  53
ATOM     53  C   LIG d   1       7.930  -9.484  -1.455  0.00  0.00     0.042 C 
ATOM     54  O   LIG d   1       8.238  -8.617  -2.256  0.00  0.00    -0.550 OA
ATOM     55  O   LIG d   1       6.763  -9.638  -1.142  0.00  0.00    -0.550 OA
ENDBRANCH  50  53
ENDBRANCH  48  50
BRANCH  48  56
ATOM     56  C   LIG d   1      10.598  -9.805   0.954  0.00  0.00    -0.043 A 
ATOM     57  C   LIG d   1      11.002  -8.776   1.784  0.00  0.00    -0.058 A 
ATOM     58  C   LIG d   1      11.357  -9.044   3.093  0.00  0.00    -0.061 A 
ATOM     59  H   LIG d   1      11.038  -7.764   1.411  0.00  0.00     0.062 H 
ATOM     60  C   LIG d   1      11.316 -10.341   3.570  0.00  0.00    -0.062 A 
ATOM     61  H   LIG d   1      11.668  -8.239   3.743  0.00  0.00     0.062 H 
ATOM     62  C   LIG d   1      10.917 -11.371   2.737  0.00  0.00    -0.061 A 
ATOM     63  H   LIG d   1      11.596 -10.550   4.591  0.00  0.00     0.062 H 
ATOM     64  C   LIG d   1      10.558 -11.103   1.429  0.00  0.00    -0.058 A 
ATOM     65  H   LIG d   1      10.885 -12.384   3.109  0.00  0.00     0.062 H 
ATOM     66  H   LIG d   1      10.247 -11.906   0.780  0.00  0.00     0.062 H 
ENDBRANCH  48  56
ENDBRANCH  45  48
ENDBRANCH  43  45
ENDBRANCH  38  41
ENDBRANCH  37  38
ENDBRANCH  18  37
BRANCH  21  67
ATOM     67  C   LIG d   1       8.805  -2.758  -5.418  0.00  0.00    -0.052 C 
ATOM     68  H   LIG d   1       8.863  -1.679  -5.274  0.00  0.00     0.024 H 
ATOM     69  H   LIG d   1       9.812  -3.169  -5.487  0.00  0.00     0.024 H 
ATOM     70  H   LIG d   1       8.262  -2.973  -6.337  0.00  0.00     0.024 H 
ENDBRANCH  21  67
BRANCH   1  71
ATOM     71  C   LIG d   1       4.784  -0.161  -5.166  0.00  0.00    -0.057 C 
ATOM     72  H   LIG d   1       5.102   0.807  -5.555  0.00  0.00     0.024 H 
ATOM     73  H   LIG d   1       5.301  -0.956  -5.702  0.00  0.00     0.024 H 
ATOM     74  H   LIG d   1       3.708  -0.271  -5.303  0.00  0.00     0.024 H 
ENDBRANCH   1  71
BRANCH  12  75
ATOM     75  C   LIG d   1       4.560   1.046  -1.569  0.00  0.00    -0.036 C 
ATOM     76  H   LIG d   1       4.213   2.060  -1.374  0.00  0.00     0.026 H 
ATOM     77  H   LIG d   1       4.172   0.375  -0.803  0.00  0.00     0.026 H 
ATOM     78  H   LIG d   1       5.650   1.025  -1.550  0.00  0.00     0.026 H 
ENDBRANCH  12  75
BRANCH  12  79
ATOM     79  O   LIG d   1       3.712   1.724  -3.739  0.00  0.00    -0.388 OA
ATOM     80  H   LIG d   1       3.528   1.509  -4.664  0.00  0.00     0.210 HD
ENDBRANCH  12  79
TORSDOF 12
ENDMDL
MODEL 2
REMARK VINA RESULT:      -7.7      2.213      4.038
REMARK  12 active torsions:
REMARK  status: ('A' for Active; 'I' for Inactive)
REMARK    1  A    between atoms: C_1  and  C_2 
REMARK    2  A    between atoms: C_13  and  C_14 
REMARK    3  A    between atoms: C_13  and  O_15 
REMARK    4  A    between atoms: N_21  and  O_22 
REMARK    5  A    between atoms: O_22  and  C_23 
REMARK    6  A    between atoms: C_23  and  C_24 
REMARK       I    between atoms: C_24  and  N_26 
REMARK    7  A    between atoms: N_26  and  C_27 
REMARK    8  A    between atoms: C_27  and  C_28 
REMARK    9  A    between atoms: C_28  and  C_30 
REMARK   10  A    between atoms: C_28  and  C_34 
REMARK   11  A    between atoms: C_30  and  C_31 
REMARK   12  A    between atoms: C_42  and  C_43 
ROOT
ATOM      1  C   LIG d   1       5.145  -0.277  -3.693  0.00  0.00    -0.000 C 
ATOM      2  C   LIG d   1       6.587   0.125  -3.496  0.00  0.00    -0.044 C 
ATOM      3  C   LIG d   1       7.477  -0.899  -4.237  0.00  0.00    -0.048 C 
ATOM      4  C   LIG d   1       7.273  -2.294  -3.678  0.00  0.00    -0.025 C 
ATOM      5  H   LIG d   1       7.553  -2.239  -2.607  0.00  0.00     0.032 H 
ATOM      6  C   LIG d   1       5.804  -2.730  -3.696  0.00  0.00    -0.033 C 
ATOM      7  H   LIG d   1       5.731  -3.637  -3.056  0.00  0.00     0.031 H 
ATOM      8  C   LIG d   1       4.934  -1.680  -3.089  0.00  0.00    -0.030 C 
ATOM      9  H   LIG d   1       5.185  -1.630  -2.005  0.00  0.00     0.031 H 
ATOM     10  C   LIG d   1       3.413  -1.841  -3.182  0.00  0.00    -0.047 C 
ATOM     11  C   LIG d   1       2.896  -0.435  -2.766  0.00  0.00    -0.024 C 
ATOM     12  C   LIG d   1       4.084   0.546  -2.947  0.00  0.00     0.069 C 
ATOM     13  C   LIG d   1       5.437  -3.154  -5.115  0.00  0.00    -0.046 C 
ATOM     14  C   LIG d   1       6.064  -4.537  -5.335  0.00  0.00    -0.030 C 
ATOM     15  C   LIG d   1       7.493  -4.542  -4.847  0.00  0.00    -0.058 C 
ATOM     16  C   LIG d   1       8.159  -5.694  -5.004  0.00  0.00    -0.033 C 
ATOM     17  C   LIG d   1       9.551  -5.808  -4.503  0.00  0.00     0.102 C 
ATOM     18  N   LIG d   1      10.359  -6.757  -4.918  0.00  0.00    -0.085 NA
ATOM     19  C   LIG d   1       9.987  -4.820  -3.480  0.00  0.00    -0.036 C 
ATOM     20  C   LIG d   1       9.314  -3.678  -3.355  0.00  0.00    -0.072 C 
ATOM     21  C   LIG d   1       8.170  -3.350  -4.270  0.00  0.00     0.011 C 
ATOM     22  H   LIG d   1       6.765   1.118  -3.908  0.00  0.00     0.027 H 
ATOM     23  H   LIG d   1       6.861   0.109  -2.439  0.00  0.00     0.027 H 
ATOM     24  H   LIG d   1       7.248  -0.850  -5.293  0.00  0.00     0.027 H 
ATOM     25  H   LIG d   1       8.514  -0.587  -4.072  0.00  0.00     0.027 H 
ATOM     26  H   LIG d   1       3.093  -2.097  -4.187  0.00  0.00     0.027 H 
ATOM     27  H   LIG d   1       3.067  -2.596  -2.471  0.00  0.00     0.027 H 
ATOM     28  H   LIG d   1       2.065  -0.138  -3.404  0.00  0.00     0.029 H 
ATOM     29  H   LIG d   1       2.582  -0.448  -1.723  0.00  0.00     0.029 H 
ATOM     30  H   LIG d   1       4.357  -3.222  -5.231  0.00  0.00     0.027 H 
ATOM     31  H   LIG d   1       5.856  -2.468  -5.850  0.00  0.00     0.027 H 
ATOM     32  H   LIG d   1       5.498  -5.282  -4.778  0.00  0.00     0.031 H 
ATOM     33  H   LIG d   1       6.049  -4.777  -6.396  0.00  0.00     0.031 H 
ATOM     34  H   LIG d   1       7.676  -6.543  -5.501  0.00  0.00     0.064 H 
ATOM     35  H   LIG d   1      10.848  -5.031  -2.839  0.00  0.00     0.064 H 
ATOM     36  H   LIG d   1       9.591  -2.966  -2.573  0.00  0.00     0.058 H 
ENDROOT
BRANCH  18  37
ATOM     37  O   LIG d   1      11.681  -6.832  -4.417  0.00  0.00    -0.384 OA
BRANCH  37  38
ATOM     38  C   LIG d   1      12.033  -8.114  -3.895  0.00  0.00     0.193 C 
ATOM     39  H   LIG d   1      13.036  -8.380  -4.230  0.00  0.00     0.082 H 
ATOM     40  H   LIG d   1      12.010  -8.082  -2.806  0.00  0.00     0.082 H 
BRANCH  38  41
ATOM     41  C   LIG d   1      11.049  -9.144  -4.388  0.00  0.00     0.253 C 
ATOM     42  O   LIG d   1      11.275  -9.759  -5.408  0.00  0.00    -0.272 OA
ATOM     43  N   LIG d   1       9.918  -9.381  -3.695  0.00  0.00    -0.312 N 
ATOM     44  H   LIG d   1       9.737  -8.891  -2.878  0.00  0.00     0.149 HD
BRANCH  43  45
ATOM     45  C   LIG d   1       8.961 -10.383  -4.173  0.00  0.00     0.019 C 
ATOM     46  H   LIG d   1       9.005 -10.435  -5.262  0.00  0.00     0.047 H 
ATOM     47  H   LIG d   1       9.212 -11.356  -3.752  0.00  0.00     0.047 H 
BRANCH  45  48
ATOM     48  C   LIG d   1       7.548  -9.988  -3.739  0.00  0.00     0.005 C 
ATOM     49  H   LIG d   1       6.985 -10.884  -3.477  0.00  0.00     0.037 H 
BRANCH  48  50
ATOM     50  C   LIG d   1       7.628  -9.062  -2.523  0.00  0.00    -0.005 C 
ATOM     51  H   LIG d   1       8.558  -8.495  -2.558  0.00  0.00     0.033 H 
ATOM     52  H   LIG d   1       6.782  -8.375  -2.534  0.00  0.00     0.033 H 
BRANCH  50  53
ATOM     53  C   LIG d   1       7.589  -9.886  -1.261  0.00  0.00     0.042 C 
ATOM     54  O   LIG d   1       8.624 -10.149  -0.673  0.00  0.00    -0.550 OA
ATOM     55  O   LIG d   1       6.522 -10.288  -0.829  0.00  0.00    -0.550 OA
ENDBRANCH  50  53
ENDBRANCH  48  50
BRANCH  48  56
ATOM     56  C   LIG d   1       6.856  -9.272  -4.871  0.00  0.00    -0.043 A 
ATOM     57  C   LIG d   1       5.610  -8.708  -4.672  0.00  0.00    -0.058 A 
ATOM     58  C   LIG d   1       4.977  -8.049  -5.709  0.00  0.00    -0.061 A 
ATOM     59  H   LIG d   1       5.132  -8.779  -3.707  0.00  0.00     0.062 H 
ATOM     60  C   LIG d   1       5.586  -7.961  -6.948  0.00  0.00    -0.062 A 
ATOM     61  H   LIG d   1       4.006  -7.604  -5.553  0.00  0.00     0.062 H 
ATOM     62  C   LIG d   1       6.831  -8.530  -7.147  0.00  0.00    -0.061 A 
ATOM     63  H   LIG d   1       5.091  -7.449  -7.759  0.00  0.00     0.062 H 
ATOM     64  C   LIG d   1       7.466  -9.186  -6.109  0.00  0.00    -0.058 A 
ATOM     65  H   LIG d   1       7.307  -8.463  -8.114  0.00  0.00     0.062 H 
ATOM     66  H   LIG d   1       8.437  -9.630  -6.264  0.00  0.00     0.062 H 
ENDBRANCH  48  56
ENDBRANCH  45  48
ENDBRANCH  43  45
ENDBRANCH  38  41
ENDBRANCH  37  38
ENDBRANCH  18  37
BRANCH  21  67
ATOM     67  C   LIG d   1       8.862  -2.711  -5.479  0.00  0.00    -0.052 C 
ATOM     68  H   LIG d   1       9.938  -2.676  -5.306  0.00  0.00     0.024 H 
ATOM     69  H   LIG d   1       8.657  -3.302  -6.371  0.00  0.00     0.024 H 
ATOM     70  H   LIG d   1       8.484  -1.698  -5.621  0.00  0.00     0.024 H 
ENDBRANCH  21  67
BRANCH   1  71
ATOM     71  C   LIG d   1       4.778  -0.219  -5.179  0.00  0.00    -0.057 C 
ATOM     72  H   LIG d   1       5.690  -0.213  -5.778  0.00  0.00     0.024 H 
ATOM     73  H   LIG d   1       4.177  -1.089  -5.440  0.00  0.00     0.024 H 
ATOM     74  H   LIG d   1       4.208   0.689  -5.377  0.00  0.00     0.024 H 
ENDBRANCH   1  71
BRANCH  12  75
ATOM     75  C   LIG d   1       4.593   1.028  -1.593  0.00  0.00    -0.036 C 
ATOM     76  H   LIG d   1       3.800   1.571  -1.080  0.00  0.00     0.026 H 
ATOM     77  H   LIG d   1       4.893   0.170  -0.992  0.00  0.00     0.026 H 
ATOM     78  H   LIG d   1       5.449   1.686  -1.740  0.00  0.00     0.026 H 
ENDBRANCH  12  75
BRANCH  12  79
ATOM     79  O   LIG d   1       3.684   1.655  -3.754  0.00  0.00    -0.388 OA
ATOM     80  H   LIG d   1       3.085   2.271  -3.309  0.00  0.00     0.210 HD
ENDBRANCH  12  79
TORSDOF 12
ENDMDL
MODEL 3
REMARK VINA RESULT:      -7.7      6.509     10.410
REMARK  12 active torsions:
REMARK  status: ('A' for Active; 'I' for Inactive)
REMARK    1  A    between atoms: C_1  and  C_2 
REMARK    2  A    between atoms: C_13  and  C_14 
REMARK    3  A    between atoms: C_13  and  O_15 
REMARK    4  A    between atoms: N_21  and  O_22 
REMARK    5  A    between atoms: O_22  and  C_23 
REMARK    6  A    between atoms: C_23  and  C_24 
REMARK       I    between atoms: C_24  and  N_26 
REMARK    7  A    between atoms: N_26  and  C_27 
REMARK    8  A    between atoms: C_27  and  C_28 
REMARK    9  A    between atoms: C_28  and  C_30 
REMARK   10  A    between atoms: C_28  and  C_34 
REMARK   11  A    between atoms: C_30  and  C_31 
REMARK   12  A    between atoms: C_42  and  C_43 
ROOT
ATOM      1  C   LIG d   1      11.656   7.020  -0.526  0.00  0.00    -0.000 C 
ATOM      2  C   LIG d   1      12.122   5.599  -0.324  0.00  0.00    -0.044 C 
ATOM      3  C   LIG d   1      11.988   4.853  -1.672  0.00  0.00    -0.048 C 
ATOM      4  C   LIG d   1      10.544   4.838  -2.138  0.00  0.00    -0.025 C 
ATOM      5  H   LIG d   1       9.972   4.315  -1.345  0.00  0.00     0.032 H 
ATOM      6  C   LIG d   1       9.936   6.242  -2.225  0.00  0.00    -0.033 C 
ATOM      7  H   LIG d   1       8.836   6.108  -2.330  0.00  0.00     0.031 H 
ATOM      8  C   LIG d   1      10.177   7.001  -0.962  0.00  0.00    -0.030 C 
ATOM      9  H   LIG d   1       9.588   6.503  -0.160  0.00  0.00     0.031 H 
ATOM     10  C   LIG d   1       9.813   8.489  -0.918  0.00  0.00    -0.047 C 
ATOM     11  C   LIG d   1      10.513   8.972   0.384  0.00  0.00    -0.024 C 
ATOM     12  C   LIG d   1      11.602   7.919   0.719  0.00  0.00     0.069 C 
ATOM     13  C   LIG d   1      10.429   6.911  -3.504  0.00  0.00    -0.046 C 
ATOM     14  C   LIG d   1       9.646   6.276  -4.661  0.00  0.00    -0.030 C 
ATOM     15  C   LIG d   1       9.621   4.774  -4.507  0.00  0.00    -0.058 C 
ATOM     16  C   LIG d   1       8.980   4.099  -5.471  0.00  0.00    -0.033 C 
ATOM     17  C   LIG d   1       8.857   2.624  -5.372  0.00  0.00     0.102 C 
ATOM     18  N   LIG d   1       8.559   1.885  -6.418  0.00  0.00    -0.085 NA
ATOM     19  C   LIG d   1       9.050   2.014  -4.030  0.00  0.00    -0.036 C 
ATOM     20  C   LIG d   1       9.701   2.703  -3.095  0.00  0.00    -0.072 C 
ATOM     21  C   LIG d   1      10.295   4.048  -3.396  0.00  0.00     0.011 C 
ATOM     22  H   LIG d   1      13.165   5.581  -0.008  0.00  0.00     0.027 H 
ATOM     23  H   LIG d   1      11.504   5.081   0.412  0.00  0.00     0.027 H 
ATOM     24  H   LIG d   1      12.640   5.329  -2.392  0.00  0.00     0.027 H 
ATOM     25  H   LIG d   1      12.326   3.826  -1.494  0.00  0.00     0.027 H 
ATOM     26  H   LIG d   1      10.184   9.023  -1.786  0.00  0.00     0.027 H 
ATOM     27  H   LIG d   1       8.730   8.612  -0.832  0.00  0.00     0.027 H 
ATOM     28  H   LIG d   1      10.971   9.947   0.223  0.00  0.00     0.029 H 
ATOM     29  H   LIG d   1       9.789   9.028   1.196  0.00  0.00     0.029 H 
ATOM     30  H   LIG d   1      10.237   7.982  -3.479  0.00  0.00     0.027 H 
ATOM     31  H   LIG d   1      11.489   6.719  -3.662  0.00  0.00     0.027 H 
ATOM     32  H   LIG d   1       8.624   6.649  -4.651  0.00  0.00     0.031 H 
ATOM     33  H   LIG d   1      10.125   6.529  -5.604  0.00  0.00     0.031 H 
ATOM     34  H   LIG d   1       8.554   4.637  -6.326  0.00  0.00     0.064 H 
ATOM     35  H   LIG d   1       8.661   1.015  -3.815  0.00  0.00     0.064 H 
ATOM     36  H   LIG d   1       9.806   2.289  -2.088  0.00  0.00     0.058 H 
ENDROOT
BRANCH  18  37
ATOM     37  O   LIG d   1       8.451   0.480  -6.283  0.00  0.00    -0.384 OA
BRANCH  37  38
ATOM     38  C   LIG d   1       7.787  -0.159  -7.375  0.00  0.00     0.193 C 
ATOM     39  H   LIG d   1       7.924   0.433  -8.281  0.00  0.00     0.082 H 
ATOM     40  H   LIG d   1       8.206  -1.153  -7.525  0.00  0.00     0.082 H 
BRANCH  38  41
ATOM     41  C   LIG d   1       6.316  -0.275  -7.069  0.00  0.00     0.253 C 
ATOM     42  O   LIG d   1       5.579   0.669  -7.263  0.00  0.00    -0.272 OA
ATOM     43  N   LIG d   1       5.818  -1.428  -6.580  0.00  0.00    -0.312 N 
ATOM     44  H   LIG d   1       6.406  -2.183  -6.426  0.00  0.00     0.149 HD
BRANCH  43  45
ATOM     45  C   LIG d   1       4.388  -1.541  -6.282  0.00  0.00     0.019 C 
ATOM     46  H   LIG d   1       3.929  -0.552  -6.321  0.00  0.00     0.047 H 
ATOM     47  H   LIG d   1       3.914  -2.190  -7.019  0.00  0.00     0.047 H 
BRANCH  45  48
ATOM     48  C   LIG d   1       4.202  -2.135  -4.885  0.00  0.00     0.005 C 
ATOM     49  H   LIG d   1       3.279  -2.714  -4.856  0.00  0.00     0.037 H 
BRANCH  48  50
ATOM     50  C   LIG d   1       5.386  -3.047  -4.557  0.00  0.00    -0.005 C 
ATOM     51  H   LIG d   1       6.312  -2.573  -4.883  0.00  0.00     0.033 H 
ATOM     52  H   LIG d   1       5.424  -3.218  -3.480  0.00  0.00     0.033 H 
BRANCH  50  53
ATOM     53  C   LIG d   1       5.218  -4.365  -5.269  0.00  0.00     0.042 C 
ATOM     54  O   LIG d   1       5.992  -4.681  -6.156  0.00  0.00    -0.550 OA
ATOM     55  O   LIG d   1       4.309  -5.114  -4.956  0.00  0.00    -0.550 OA
ENDBRANCH  50  53
ENDBRANCH  48  50
BRANCH  48  56
ATOM     56  C   LIG d   1       4.129  -1.022  -3.872  0.00  0.00    -0.043 A 
ATOM     57  C   LIG d   1       3.552   0.187  -4.213  0.00  0.00    -0.058 A 
ATOM     58  C   LIG d   1       3.482   1.206  -3.282  0.00  0.00    -0.061 A 
ATOM     59  H   LIG d   1       3.154   0.335  -5.205  0.00  0.00     0.062 H 
ATOM     60  C   LIG d   1       3.995   1.020  -2.011  0.00  0.00    -0.062 A 
ATOM     61  H   LIG d   1       3.027   2.149  -3.547  0.00  0.00     0.062 H 
ATOM     62  C   LIG d   1       4.577  -0.188  -1.672  0.00  0.00    -0.061 A 
ATOM     63  H   LIG d   1       3.942   1.817  -1.285  0.00  0.00     0.062 H 
ATOM     64  C   LIG d   1       4.644  -1.209  -2.602  0.00  0.00    -0.058 A 
ATOM     65  H   LIG d   1       4.978  -0.334  -0.680  0.00  0.00     0.062 H 
ATOM     66  H   LIG d   1       5.097  -2.152  -2.337  0.00  0.00     0.062 H 
ENDBRANCH  48  56
ENDBRANCH  45  48
ENDBRANCH  43  45
ENDBRANCH  38  41
ENDBRANCH  37  38
ENDBRANCH  18  37
BRANCH  21  67
ATOM     67  C   LIG d   1      11.669   3.702  -3.978  0.00  0.00    -0.052 C 
ATOM     68  H   LIG d   1      11.567   2.882  -4.689  0.00  0.00     0.024 H 
ATOM     69  H   LIG d   1      12.080   4.574  -4.486  0.00  0.00     0.024 H 
ATOM     70  H   LIG d   1      12.340   3.402  -3.172  0.00  0.00     0.024 H 
ENDBRANCH  21  67
BRANCH   1  71
ATOM     71  C   LIG d   1      12.556   7.733  -1.540  0.00  0.00    -0.057 C 
ATOM     72  H   LIG d   1      13.600   7.609  -1.250  0.00  0.00     0.024 H 
ATOM     73  H   LIG d   1      12.400   7.304  -2.530  0.00  0.00     0.024 H 
ATOM     74  H   LIG d   1      12.309   8.795  -1.562  0.00  0.00     0.024 H 
ENDBRANCH   1  71
BRANCH  12  75
ATOM     75  C   LIG d   1      11.221   7.132   1.967  0.00  0.00    -0.036 C 
ATOM     76  H   LIG d   1      11.024   6.094   1.696  0.00  0.00     0.026 H 
ATOM     77  H   LIG d   1      12.039   7.171   2.685  0.00  0.00     0.026 H 
ATOM     78  H   LIG d   1      10.326   7.567   2.412  0.00  0.00     0.026 H 
ENDBRANCH  12  75
BRANCH  12  79
ATOM     79  O   LIG d   1      12.865   8.563   0.900  0.00  0.00    -0.388 OA
ATOM     80  H   LIG d   1      13.598   8.126   0.445  0.00  0.00     0.210 HD
ENDBRANCH  12  79
TORSDOF 12
ENDMDL
MODEL 4
REMARK VINA RESULT:      -7.5      5.591      9.538
REMARK  12 active torsions:
REMARK  status: ('A' for Active; 'I' for Inactive)
REMARK    1  A    between atoms: C_1  and  C_2 
REMARK    2  A    between atoms: C_13  and  C_14 
REMARK    3  A    between atoms: C_13  and  O_15 
REMARK    4  A    between atoms: N_21  and  O_22 
REMARK    5  A    between atoms: O_22  and  C_23 
REMARK    6  A    between atoms: C_23  and  C_24 
REMARK       I    between atoms: C_24  and  N_26 
REMARK    7  A    between atoms: N_26  and  C_27 
REMARK    8  A    between atoms: C_27  and  C_28 
REMARK    9  A    between atoms: C_28  and  C_30 
REMARK   10  A    between atoms: C_28  and  C_34 
REMARK   11  A    between atoms: C_30  and  C_31 
REMARK   12  A    between atoms: C_42  and  C_43 
ROOT
ATOM      1  C   LIG d   1      10.629   6.237  -3.105  0.00  0.00    -0.000 C 
ATOM      2  C   LIG d   1      10.409   4.933  -2.376  0.00  0.00    -0.044 C 
ATOM      3  C   LIG d   1      10.475   3.787  -3.411  0.00  0.00    -0.048 C 
ATOM      4  C   LIG d   1       9.398   3.950  -4.466  0.00  0.00    -0.025 C 
ATOM      5  H   LIG d   1       8.432   3.929  -3.923  0.00  0.00     0.032 H 
ATOM      6  C   LIG d   1       9.449   5.317  -5.157  0.00  0.00    -0.033 C 
ATOM      7  H   LIG d   1       8.494   5.428  -5.718  0.00  0.00     0.031 H 
ATOM      8  C   LIG d   1       9.509   6.417  -4.150  0.00  0.00    -0.030 C 
ATOM      9  H   LIG d   1       8.535   6.424  -3.612  0.00  0.00     0.031 H 
ATOM     10  C   LIG d   1       9.756   7.848  -4.637  0.00  0.00    -0.047 C 
ATOM     11  C   LIG d   1      10.088   8.604  -3.319  0.00  0.00    -0.024 C 
ATOM     12  C   LIG d   1      10.496   7.526  -2.281  0.00  0.00     0.069 C 
ATOM     13  C   LIG d   1      10.572   5.302  -6.189  0.00  0.00    -0.046 C 
ATOM     14  C   LIG d   1      10.061   4.486  -7.383  0.00  0.00    -0.030 C 
ATOM     15  C   LIG d   1       9.406   3.215  -6.901  0.00  0.00    -0.058 C 
ATOM     16  C   LIG d   1       8.934   2.402  -7.856  0.00  0.00    -0.033 C 
ATOM     17  C   LIG d   1       8.225   1.157  -7.472  0.00  0.00     0.102 C 
ATOM     18  N   LIG d   1       8.049   0.172  -8.324  0.00  0.00    -0.085 NA
ATOM     19  C   LIG d   1       7.689   1.080  -6.087  0.00  0.00    -0.036 C 
ATOM     20  C   LIG d   1       8.186   1.891  -5.155  0.00  0.00    -0.072 C 
ATOM     21  C   LIG d   1       9.317   2.827  -5.467  0.00  0.00     0.011 C 
ATOM     22  H   LIG d   1      11.184   4.781  -1.625  0.00  0.00     0.027 H 
ATOM     23  H   LIG d   1       9.426   4.906  -1.903  0.00  0.00     0.027 H 
ATOM     24  H   LIG d   1      11.467   3.774  -3.845  0.00  0.00     0.027 H 
ATOM     25  H   LIG d   1      10.307   2.857  -2.857  0.00  0.00     0.027 H 
ATOM     26  H   LIG d   1      10.581   7.901  -5.340  0.00  0.00     0.027 H 
ATOM     27  H   LIG d   1       8.848   8.257  -5.088  0.00  0.00     0.027 H 
ATOM     28  H   LIG d   1      10.912   9.297  -3.484  0.00  0.00     0.029 H 
ATOM     29  H   LIG d   1       9.209   9.143  -2.969  0.00  0.00     0.029 H 
ATOM     30  H   LIG d   1      10.813   6.313  -6.513  0.00  0.00     0.027 H 
ATOM     31  H   LIG d   1      11.460   4.809  -5.794  0.00  0.00     0.027 H 
ATOM     32  H   LIG d   1       9.328   5.074  -7.932  0.00  0.00     0.031 H 
ATOM     33  H   LIG d   1      10.895   4.233  -8.033  0.00  0.00     0.031 H 
ATOM     34  H   LIG d   1       9.074   2.659  -8.912  0.00  0.00     0.064 H 
ATOM     35  H   LIG d   1       6.896   0.368  -5.839  0.00  0.00     0.064 H 
ATOM     36  H   LIG d   1       7.766   1.881  -4.146  0.00  0.00     0.058 H 
ENDROOT
BRANCH  18  37
ATOM     37  O   LIG d   1       7.368  -1.002  -7.919  0.00  0.00    -0.384 OA
BRANCH  37  38
ATOM     38  C   LIG d   1       5.955  -0.951  -8.119  0.00  0.00     0.193 C 
ATOM     39  H   LIG d   1       5.645   0.083  -8.270  0.00  0.00     0.082 H 
ATOM     40  H   LIG d   1       5.691  -1.540  -8.997  0.00  0.00     0.082 H 
BRANCH  38  41
ATOM     41  C   LIG d   1       5.256  -1.513  -6.908  0.00  0.00     0.253 C 
ATOM     42  O   LIG d   1       4.103  -1.215  -6.680  0.00  0.00    -0.272 OA
ATOM     43  N   LIG d   1       5.912  -2.347  -6.078  0.00  0.00    -0.312 N 
ATOM     44  H   LIG d   1       6.834  -2.587  -6.260  0.00  0.00     0.149 HD
BRANCH  43  45
ATOM     45  C   LIG d   1       5.233  -2.894  -4.900  0.00  0.00     0.019 C 
ATOM     46  H   LIG d   1       4.181  -2.610  -4.924  0.00  0.00     0.047 H 
ATOM     47  H   LIG d   1       5.316  -3.980  -4.904  0.00  0.00     0.047 H 
BRANCH  45  48
ATOM     48  C   LIG d   1       5.883  -2.337  -3.632  0.00  0.00     0.005 C 
ATOM     49  H   LIG d   1       5.861  -3.096  -2.849  0.00  0.00     0.037 H 
BRANCH  48  50
ATOM     50  C   LIG d   1       7.334  -1.954  -3.928  0.00  0.00    -0.005 C 
ATOM     51  H   LIG d   1       7.402  -1.535  -4.932  0.00  0.00     0.033 H 
ATOM     52  H   LIG d   1       7.669  -1.213  -3.201  0.00  0.00     0.033 H 
BRANCH  50  53
ATOM     53  C   LIG d   1       8.207  -3.179  -3.833  0.00  0.00     0.042 C 
ATOM     54  O   LIG d   1       8.442  -3.838  -4.832  0.00  0.00    -0.550 OA
ATOM     55  O   LIG d   1       8.679  -3.509  -2.759  0.00  0.00    -0.550 OA
ENDBRANCH  50  53
ENDBRANCH  48  50
BRANCH  48  56
ATOM     56  C   LIG d   1       5.125  -1.119  -3.172  0.00  0.00    -0.043 A 
ATOM     57  C   LIG d   1       5.805   0.044  -2.864  0.00  0.00    -0.058 A 
ATOM     58  C   LIG d   1       5.109   1.162  -2.445  0.00  0.00    -0.061 A 
ATOM     59  H   LIG d   1       6.881   0.080  -2.953  0.00  0.00     0.062 H 
ATOM     60  C   LIG d   1       3.732   1.115  -2.326  0.00  0.00    -0.062 A 
ATOM     61  H   LIG d   1       5.640   2.072  -2.209  0.00  0.00     0.062 H 
ATOM     62  C   LIG d   1       3.051  -0.050  -2.629  0.00  0.00    -0.061 A 
ATOM     63  H   LIG d   1       3.188   1.988  -1.997  0.00  0.00     0.062 H 
ATOM     64  C   LIG d   1       3.748  -1.167  -3.052  0.00  0.00    -0.058 A 
ATOM     65  H   LIG d   1       1.976  -0.087  -2.536  0.00  0.00     0.062 H 
ATOM     66  H   LIG d   1       3.217  -2.077  -3.289  0.00  0.00     0.062 H 
ENDBRANCH  48  56
ENDBRANCH  45  48
ENDBRANCH  43  45
ENDBRANCH  38  41
ENDBRANCH  37  38
ENDBRANCH  18  37
BRANCH  21  67
ATOM     67  C   LIG d   1      10.561   1.957  -5.253  0.00  0.00    -0.052 C 
ATOM     68  H   LIG d   1      10.616   1.653  -4.207  0.00  0.00     0.024 H 
ATOM     69  H   LIG d   1      10.500   1.073  -5.886  0.00  0.00     0.024 H 
ATOM     70  H   LIG d   1      11.452   2.528  -5.512  0.00  0.00     0.024 H 
ENDBRANCH  21  67
BRANCH   1  71
ATOM     71  C   LIG d   1      12.026   6.262  -3.734  0.00  0.00    -0.057 C 
ATOM     72  H   LIG d   1      12.128   7.151  -4.357  0.00  0.00     0.024 H 
ATOM     73  H   LIG d   1      12.780   6.279  -2.948  0.00  0.00     0.024 H 
ATOM     74  H   LIG d   1      12.163   5.372  -4.349  0.00  0.00     0.024 H 
ENDBRANCH   1  71
BRANCH  12  75
ATOM     75  C   LIG d   1       9.434   7.396  -1.197  0.00  0.00    -0.036 C 
ATOM     76  H   LIG d   1       9.869   7.646  -0.230  0.00  0.00     0.026 H 
ATOM     77  H   LIG d   1       8.611   8.077  -1.411  0.00  0.00     0.026 H 
ATOM     78  H   LIG d   1       9.061   6.372  -1.173  0.00  0.00     0.026 H 
ENDBRANCH  12  75
BRANCH  12  79
ATOM     79  O   LIG d   1      11.762   7.858  -1.704  0.00  0.00    -0.388 OA
ATOM     80  H   LIG d   1      11.881   8.803  -1.535  0.00  0.00     0.210 HD
ENDBRANCH  12  79
TORSDOF 12
ENDMDL
MODEL 5
REMARK VINA RESULT:      -7.5      2.388      3.873
REMARK  12 active torsions:
REMARK  status: ('A' for Active; 'I' for Inactive)
REMARK    1  A    between atoms: C_1  and  C_2 
REMARK    2  A    between atoms: C_13  and  C_14 
REMARK    3  A    between atoms: C_13  and  O_15 
REMARK    4  A    between atoms: N_21  and  O_22 
REMARK    5  A    between atoms: O_22  and  C_23 
REMARK    6  A    between atoms: C_23  and  C_24 
REMARK       I    between atoms: C_24  and  N_26 
REMARK    7  A    between atoms: N_26  and  C_27 
REMARK    8  A    between atoms: C_27  and  C_28 
REMARK    9  A    between atoms: C_28  and  C_30 
REMARK   10  A    between atoms: C_28  and  C_34 
REMARK   11  A    between atoms: C_30  and  C_31 
REMARK   12  A    between atoms: C_42  and  C_43 
ROOT
ATOM      1  C   LIG d   1       5.025  -0.196  -3.684  0.00  0.00    -0.000 C 
ATOM      2  C   LIG d   1       6.502   0.057  -3.506  0.00  0.00    -0.044 C 
ATOM      3  C   LIG d   1       7.274  -1.007  -4.319  0.00  0.00    -0.048 C 
ATOM      4  C   LIG d   1       6.950  -2.404  -3.823  0.00  0.00    -0.025 C 
ATOM      5  H   LIG d   1       7.257  -2.429  -2.758  0.00  0.00     0.032 H 
ATOM      6  C   LIG d   1       5.446  -2.698  -3.823  0.00  0.00    -0.033 C 
ATOM      7  H   LIG d   1       5.301  -3.625  -3.225  0.00  0.00     0.031 H 
ATOM      8  C   LIG d   1       4.694  -1.602  -3.142  0.00  0.00    -0.030 C 
ATOM      9  H   LIG d   1       4.973  -1.631  -2.065  0.00  0.00     0.031 H 
ATOM     10  C   LIG d   1       3.163  -1.614  -3.203  0.00  0.00    -0.047 C 
ATOM     11  C   LIG d   1       2.792  -0.188  -2.706  0.00  0.00    -0.024 C 
ATOM     12  C   LIG d   1       4.064   0.684  -2.871  0.00  0.00     0.069 C 
ATOM     13  C   LIG d   1       5.009  -3.014  -5.249  0.00  0.00    -0.046 C 
ATOM     14  C   LIG d   1       5.497  -4.436  -5.553  0.00  0.00    -0.030 C 
ATOM     15  C   LIG d   1       6.928  -4.601  -5.104  0.00  0.00    -0.058 C 
ATOM     16  C   LIG d   1       7.478  -5.801  -5.334  0.00  0.00    -0.033 C 
ATOM     17  C   LIG d   1       8.863  -6.070  -4.875  0.00  0.00     0.102 C 
ATOM     18  N   LIG d   1       9.568  -7.069  -5.358  0.00  0.00    -0.085 NA
ATOM     19  C   LIG d   1       9.414  -5.181  -3.819  0.00  0.00    -0.036 C 
ATOM     20  C   LIG d   1       8.856  -3.988  -3.621  0.00  0.00    -0.072 C 
ATOM     21  C   LIG d   1       7.729  -3.508  -4.488  0.00  0.00     0.011 C 
ATOM     22  H   LIG d   1       6.765   1.049  -3.875  0.00  0.00     0.027 H 
ATOM     23  H   LIG d   1       6.796  -0.037  -2.460  0.00  0.00     0.027 H 
ATOM     24  H   LIG d   1       7.028  -0.883  -5.366  0.00  0.00     0.027 H 
ATOM     25  H   LIG d   1       8.340  -0.803  -4.167  0.00  0.00     0.027 H 
ATOM     26  H   LIG d   1       2.798  -1.787  -4.210  0.00  0.00     0.027 H 
ATOM     27  H   LIG d   1       2.762  -2.368  -2.520  0.00  0.00     0.027 H 
ATOM     28  H   LIG d   1       1.979   0.218  -3.307  0.00  0.00     0.029 H 
ATOM     29  H   LIG d   1       2.500  -0.224  -1.657  0.00  0.00     0.029 H 
ATOM     30  H   LIG d   1       3.925  -2.972  -5.340  0.00  0.00     0.027 H 
ATOM     31  H   LIG d   1       5.475  -2.333  -5.962  0.00  0.00     0.027 H 
ATOM     32  H   LIG d   1       4.875  -5.151  -5.017  0.00  0.00     0.031 H 
ATOM     33  H   LIG d   1       5.436  -4.620  -6.623  0.00  0.00     0.031 H 
ATOM     34  H   LIG d   1       6.906  -6.575  -5.858  0.00  0.00     0.064 H 
ATOM     35  H   LIG d   1      10.265  -5.504  -3.212  0.00  0.00     0.064 H 
ATOM     36  H   LIG d   1       9.217  -3.346  -2.814  0.00  0.00     0.058 H 
ENDROOT
BRANCH  18  37
ATOM     37  O   LIG d   1      10.887  -7.293  -4.896  0.00  0.00    -0.384 OA
BRANCH  37  38
ATOM     38  C   LIG d   1      11.075  -8.562  -4.265  0.00  0.00     0.193 C 
ATOM     39  H   LIG d   1      10.917  -9.357  -4.995  0.00  0.00     0.082 H 
ATOM     40  H   LIG d   1      12.089  -8.626  -3.872  0.00  0.00     0.082 H 
BRANCH  38  41
ATOM     41  C   LIG d   1      10.087  -8.713  -3.137  0.00  0.00     0.253 C 
ATOM     42  O   LIG d   1      10.396  -8.383  -2.012  0.00  0.00    -0.272 OA
ATOM     43  N   LIG d   1       8.860  -9.215  -3.379  0.00  0.00    -0.312 N 
ATOM     44  H   LIG d   1       8.612  -9.478  -4.279  0.00  0.00     0.149 HD
BRANCH  43  45
ATOM     45  C   LIG d   1       7.899  -9.362  -2.282  0.00  0.00     0.019 C 
ATOM     46  H   LIG d   1       8.380  -9.099  -1.340  0.00  0.00     0.047 H 
ATOM     47  H   LIG d   1       7.049  -8.702  -2.453  0.00  0.00     0.047 H 
BRANCH  45  48
ATOM     48  C   LIG d   1       7.414 -10.812  -2.219  0.00  0.00     0.005 C 
ATOM     49  H   LIG d   1       8.176 -11.469  -2.641  0.00  0.00     0.037 H 
BRANCH  48  50
ATOM     50  C   LIG d   1       7.158 -11.201  -0.761  0.00  0.00    -0.005 C 
ATOM     51  H   LIG d   1       8.036 -10.964  -0.162  0.00  0.00     0.033 H 
ATOM     52  H   LIG d   1       6.299 -10.646  -0.384  0.00  0.00     0.033 H 
BRANCH  50  53
ATOM     53  C   LIG d   1       6.876 -12.679  -0.678  0.00  0.00     0.042 C 
ATOM     54  O   LIG d   1       7.679 -13.479  -1.128  0.00  0.00    -0.550 OA
ATOM     55  O   LIG d   1       5.847 -13.075  -0.159  0.00  0.00    -0.550 OA
ENDBRANCH  50  53
ENDBRANCH  48  50
BRANCH  48  56
ATOM     56  C   LIG d   1       6.138 -10.950  -3.009  0.00  0.00    -0.043 A 
ATOM     57  C   LIG d   1       6.113 -11.727  -4.151  0.00  0.00    -0.058 A 
ATOM     58  C   LIG d   1       4.942 -11.857  -4.873  0.00  0.00    -0.061 A 
ATOM     59  H   LIG d   1       7.008 -12.235  -4.479  0.00  0.00     0.062 H 
ATOM     60  C   LIG d   1       3.796 -11.204  -4.457  0.00  0.00    -0.062 A 
ATOM     61  H   LIG d   1       4.921 -12.467  -5.764  0.00  0.00     0.062 H 
ATOM     62  C   LIG d   1       3.823 -10.422  -3.316  0.00  0.00    -0.061 A 
ATOM     63  H   LIG d   1       2.882 -11.302  -5.022  0.00  0.00     0.062 H 
ATOM     64  C   LIG d   1       4.994 -10.295  -2.592  0.00  0.00    -0.058 A 
ATOM     65  H   LIG d   1       2.929  -9.911  -2.991  0.00  0.00     0.062 H 
ATOM     66  H   LIG d   1       5.015  -9.686  -1.702  0.00  0.00     0.062 H 
ENDBRANCH  48  56
ENDBRANCH  45  48
ENDBRANCH  43  45
ENDBRANCH  38  41
ENDBRANCH  37  38
ENDBRANCH  18  37
BRANCH  21  67
ATOM     67  C   LIG d   1       8.452  -2.877  -5.683  0.00  0.00    -0.052 C 
ATOM     68  H   LIG d   1       8.367  -3.535  -6.548  0.00  0.00     0.024 H 
ATOM     69  H   LIG d   1       8.000  -1.913  -5.915  0.00  0.00     0.024 H 
ATOM     70  H   LIG d   1       9.504  -2.734  -5.437  0.00  0.00     0.024 H 
ENDBRANCH  21  67
BRANCH   1  71
ATOM     71  C   LIG d   1       4.632  -0.029  -5.155  0.00  0.00    -0.057 C 
ATOM     72  H   LIG d   1       4.784  -0.973  -5.681  0.00  0.00     0.024 H 
ATOM     73  H   LIG d   1       3.584   0.260  -5.222  0.00  0.00     0.024 H 
ATOM     74  H   LIG d   1       5.252   0.744  -5.611  0.00  0.00     0.024 H 
ENDBRANCH   1  71
BRANCH  12  75
ATOM     75  C   LIG d   1       4.646   1.047  -1.510  0.00  0.00    -0.036 C 
ATOM     76  H   LIG d   1       4.323   0.315  -0.770  0.00  0.00     0.026 H 
ATOM     77  H   LIG d   1       5.734   1.049  -1.569  0.00  0.00     0.026 H 
ATOM     78  H   LIG d   1       4.296   2.037  -1.218  0.00  0.00     0.026 H 
ENDBRANCH  12  75
BRANCH  12  79
ATOM     79  O   LIG d   1       3.754   1.865  -3.614  0.00  0.00    -0.388 OA
ATOM     80  H   LIG d   1       2.963   1.788  -4.165  0.00  0.00     0.210 HD
ENDBRANCH  12  79
TORSDOF 12
ENDMDL
MODEL 6
REMARK VINA RESULT:      -7.5      6.033      9.398
REMARK  12 active torsions:
REMARK  status: ('A' for Active; 'I' for Inactive)
REMARK    1  A    between atoms: C_1  and  C_2 
REMARK    2  A    between atoms: C_13  and  C_14 
REMARK    3  A    between atoms: C_13  and  O_15 
REMARK    4  A    between atoms: N_21  and  O_22 
REMARK    5  A    between atoms: O_22  and  C_23 
REMARK    6  A    between atoms: C_23  and  C_24 
REMARK       I    between atoms: C_24  and  N_26 
REMARK    7  A    between atoms: N_26  and  C_27 
REMARK    8  A    between atoms: C_27  and  C_28 
REMARK    9  A    between atoms: C_28  and  C_30 
REMARK   10  A    between atoms: C_28  and  C_34 
REMARK   11  A    between atoms: C_30  and  C_31 
REMARK   12  A    between atoms: C_42  and  C_43 
ROOT
ATOM      1  C   LIG d   1       2.388  -2.136 -10.217  0.00  0.00    -0.000 C 
ATOM      2  C   LIG d   1       3.081  -2.872  -9.095  0.00  0.00    -0.044 C 
ATOM      3  C   LIG d   1       3.874  -1.840  -8.261  0.00  0.00    -0.048 C 
ATOM      4  C   LIG d   1       4.918  -1.146  -9.113  0.00  0.00    -0.025 C 
ATOM      5  H   LIG d   1       5.590  -1.945  -9.485  0.00  0.00     0.032 H 
ATOM      6  C   LIG d   1       4.322  -0.495 -10.366  0.00  0.00    -0.033 C 
ATOM      7  H   LIG d   1       5.177  -0.237 -11.030  0.00  0.00     0.031 H 
ATOM      8  C   LIG d   1       3.456  -1.463 -11.103  0.00  0.00    -0.030 C 
ATOM      9  H   LIG d   1       4.122  -2.260 -11.505  0.00  0.00     0.031 H 
ATOM     10  C   LIG d   1       2.618  -0.952 -12.279  0.00  0.00    -0.047 C 
ATOM     11  C   LIG d   1       1.638  -2.131 -12.536  0.00  0.00    -0.024 C 
ATOM     12  C   LIG d   1       1.625  -2.986 -11.242  0.00  0.00     0.069 C 
ATOM     13  C   LIG d   1       3.656   0.817  -9.966  0.00  0.00    -0.046 C 
ATOM     14  C   LIG d   1       4.785   1.828  -9.727  0.00  0.00    -0.030 C 
ATOM     15  C   LIG d   1       5.874   1.201  -8.891  0.00  0.00    -0.058 C 
ATOM     16  C   LIG d   1       6.913   1.994  -8.595  0.00  0.00    -0.033 C 
ATOM     17  C   LIG d   1       8.055   1.445  -7.824  0.00  0.00     0.102 C 
ATOM     18  N   LIG d   1       8.918   2.228  -7.217  0.00  0.00    -0.085 NA
ATOM     19  C   LIG d   1       8.206  -0.034  -7.794  0.00  0.00    -0.036 C 
ATOM     20  C   LIG d   1       7.153  -0.798  -8.080  0.00  0.00    -0.072 C 
ATOM     21  C   LIG d   1       5.811  -0.190  -8.365  0.00  0.00     0.011 C 
ATOM     22  H   LIG d   1       2.349  -3.364  -8.454  0.00  0.00     0.027 H 
ATOM     23  H   LIG d   1       3.787  -3.608  -9.483  0.00  0.00     0.027 H 
ATOM     24  H   LIG d   1       3.173  -1.138  -7.829  0.00  0.00     0.027 H 
ATOM     25  H   LIG d   1       4.369  -2.402  -7.460  0.00  0.00     0.027 H 
ATOM     26  H   LIG d   1       2.082  -0.042 -12.030  0.00  0.00     0.027 H 
ATOM     27  H   LIG d   1       3.253  -0.791 -13.155  0.00  0.00     0.027 H 
ATOM     28  H   LIG d   1       0.639  -1.749 -12.743  0.00  0.00     0.029 H 
ATOM     29  H   LIG d   1       1.991  -2.732 -13.374  0.00  0.00     0.029 H 
ATOM     30  H   LIG d   1       3.005   1.179 -10.760  0.00  0.00     0.027 H 
ATOM     31  H   LIG d   1       3.095   0.705  -9.038  0.00  0.00     0.027 H 
ATOM     32  H   LIG d   1       5.205   2.130 -10.685  0.00  0.00     0.031 H 
ATOM     33  H   LIG d   1       4.390   2.696  -9.205  0.00  0.00     0.031 H 
ATOM     34  H   LIG d   1       6.913   3.041  -8.921  0.00  0.00     0.064 H 
ATOM     35  H   LIG d   1       9.170  -0.487  -7.542  0.00  0.00     0.064 H 
ATOM     36  H   LIG d   1       7.263  -1.885  -8.112  0.00  0.00     0.058 H 
ENDROOT
BRANCH  18  37
ATOM     37  O   LIG d   1       9.995   1.666  -6.490  0.00  0.00    -0.384 OA
BRANCH  37  38
ATOM     38  C   LIG d   1      10.274   2.332  -5.257  0.00  0.00     0.193 C 
ATOM     39  H   LIG d   1      11.255   2.026  -4.892  0.00  0.00     0.082 H 
ATOM     40  H   LIG d   1      10.266   3.409  -5.415  0.00  0.00     0.082 H 
BRANCH  38  41
ATOM     41  C   LIG d   1       9.224   1.965  -4.240  0.00  0.00     0.253 C 
ATOM     42  O   LIG d   1       8.940   2.743  -3.354  0.00  0.00    -0.272 OA
ATOM     43  N   LIG d   1       8.602   0.771  -4.313  0.00  0.00    -0.312 N 
ATOM     44  H   LIG d   1       8.829   0.149  -5.022  0.00  0.00     0.149 HD
BRANCH  43  45
ATOM     45  C   LIG d   1       7.582   0.414  -3.325  0.00  0.00     0.019 C 
ATOM     46  H   LIG d   1       8.065   0.135  -2.388  0.00  0.00     0.047 H 
ATOM     47  H   LIG d   1       6.927   1.268  -3.154  0.00  0.00     0.047 H 
BRANCH  45  48
ATOM     48  C   LIG d   1       6.758  -0.765  -3.844  0.00  0.00     0.005 C 
ATOM     49  H   LIG d   1       6.802  -0.787  -4.934  0.00  0.00     0.037 H 
BRANCH  48  50
ATOM     50  C   LIG d   1       7.328  -2.071  -3.286  0.00  0.00    -0.005 C 
ATOM     51  H   LIG d   1       8.058  -1.846  -2.509  0.00  0.00     0.033 H 
ATOM     52  H   LIG d   1       6.519  -2.668  -2.864  0.00  0.00     0.033 H 
BRANCH  50  53
ATOM     53  C   LIG d   1       7.996  -2.843  -4.395  0.00  0.00     0.042 C 
ATOM     54  O   LIG d   1       7.692  -4.006  -4.596  0.00  0.00    -0.550 OA
ATOM     55  O   LIG d   1       8.839  -2.303  -5.091  0.00  0.00    -0.550 OA
ENDBRANCH  50  53
ENDBRANCH  48  50
BRANCH  48  56
ATOM     56  C   LIG d   1       5.326  -0.612  -3.402  0.00  0.00    -0.043 A 
ATOM     57  C   LIG d   1       4.498  -1.717  -3.342  0.00  0.00    -0.058 A 
ATOM     58  C   LIG d   1       3.186  -1.577  -2.933  0.00  0.00    -0.061 A 
ATOM     59  H   LIG d   1       4.878  -2.692  -3.612  0.00  0.00     0.062 H 
ATOM     60  C   LIG d   1       2.697  -0.329  -2.591  0.00  0.00    -0.062 A 
ATOM     61  H   LIG d   1       2.540  -2.441  -2.882  0.00  0.00     0.062 H 
ATOM     62  C   LIG d   1       3.524   0.778  -2.657  0.00  0.00    -0.061 A 
ATOM     63  H   LIG d   1       1.671  -0.219  -2.275  0.00  0.00     0.062 H 
ATOM     64  C   LIG d   1       4.838   0.637  -3.062  0.00  0.00    -0.058 A 
ATOM     65  H   LIG d   1       3.142   1.752  -2.390  0.00  0.00     0.062 H 
ATOM     66  H   LIG d   1       5.483   1.500  -3.113  0.00  0.00     0.062 H 
ENDBRANCH  48  56
ENDBRANCH  45  48
ENDBRANCH  43  45
ENDBRANCH  38  41
ENDBRANCH  37  38
ENDBRANCH  18  37
BRANCH  21  67
ATOM     67  C   LIG d   1       5.201  -0.019  -6.970  0.00  0.00    -0.052 C 
ATOM     68  H   LIG d   1       4.686   0.941  -6.914  0.00  0.00     0.024 H 
ATOM     69  H   LIG d   1       4.490  -0.823  -6.782  0.00  0.00     0.024 H 
ATOM     70  H   LIG d   1       5.992  -0.051  -6.221  0.00  0.00     0.024 H 
ENDBRANCH  21  67
BRANCH   1  71
ATOM     71  C   LIG d   1       1.383  -1.129  -9.647  0.00  0.00    -0.057 C 
ATOM     72  H   LIG d   1       0.803  -1.604  -8.856  0.00  0.00     0.024 H 
ATOM     73  H   LIG d   1       1.917  -0.271  -9.242  0.00  0.00     0.024 H 
ATOM     74  H   LIG d   1       0.712  -0.799 -10.440  0.00  0.00     0.024 H 
ENDBRANCH   1  71
BRANCH  12  75
ATOM     75  C   LIG d   1       2.305  -4.329 -11.479  0.00  0.00    -0.036 C 
ATOM     76  H   LIG d   1       3.382  -4.183 -11.553  0.00  0.00     0.026 H 
ATOM     77  H   LIG d   1       2.085  -5.000 -10.649  0.00  0.00     0.026 H 
ATOM     78  H   LIG d   1       1.933  -4.766 -12.406  0.00  0.00     0.026 H 
ENDBRANCH  12  75
BRANCH  12  79
ATOM     79  O   LIG d   1       0.280  -3.179 -10.797  0.00  0.00    -0.388 OA
ATOM     80  H   LIG d   1      -0.056  -2.465 -10.238  0.00  0.00     0.210 HD
ENDBRANCH  12  79
TORSDOF 12
ENDMDL
MODEL 7
REMARK VINA RESULT:      -7.3      6.769     10.004
REMARK  12 active torsions:
REMARK  status: ('A' for Active; 'I' for Inactive)
REMARK    1  A    between atoms: C_1  and  C_2 
REMARK    2  A    between atoms: C_13  and  C_14 
REMARK    3  A    between atoms: C_13  and  O_15 
REMARK    4  A    between atoms: N_21  and  O_22 
REMARK    5  A    between atoms: O_22  and  C_23 
REMARK    6  A    between atoms: C_23  and  C_24 
REMARK       I    between atoms: C_24  and  N_26 
REMARK    7  A    between atoms: N_26  and  C_27 
REMARK    8  A    between atoms: C_27  and  C_28 
REMARK    9  A    between atoms: C_28  and  C_30 
REMARK   10  A    between atoms: C_28  and  C_34 
REMARK   11  A    between atoms: C_30  and  C_31 
REMARK   12  A    between atoms: C_42  and  C_43 
ROOT
ATOM      1  C   LIG d   1      10.638   6.757  -2.545  0.00  0.00    -0.000 C 
ATOM      2  C   LIG d   1      10.394   5.646  -1.552  0.00  0.00    -0.044 C 
ATOM      3  C   LIG d   1      10.731   4.304  -2.240  0.00  0.00    -0.048 C 
ATOM      4  C   LIG d   1       9.847   4.083  -3.453  0.00  0.00    -0.025 C 
ATOM      5  H   LIG d   1       8.805   4.076  -3.075  0.00  0.00     0.032 H 
ATOM      6  C   LIG d   1       9.914   5.243  -4.452  0.00  0.00    -0.033 C 
ATOM      7  H   LIG d   1       9.067   5.104  -5.160  0.00  0.00     0.031 H 
ATOM      8  C   LIG d   1       9.710   6.549  -3.759  0.00  0.00    -0.030 C 
ATOM      9  H   LIG d   1       8.658   6.569  -3.395  0.00  0.00     0.031 H 
ATOM     10  C   LIG d   1       9.927   7.843  -4.551  0.00  0.00    -0.047 C 
ATOM     11  C   LIG d   1       9.962   8.924  -3.433  0.00  0.00    -0.024 C 
ATOM     12  C   LIG d   1      10.263   8.179  -2.106  0.00  0.00     0.069 C 
ATOM     13  C   LIG d   1      11.199   5.117  -5.263  0.00  0.00    -0.046 C 
ATOM     14  C   LIG d   1      10.971   3.987  -6.275  0.00  0.00    -0.030 C 
ATOM     15  C   LIG d   1      10.342   2.797  -5.590  0.00  0.00    -0.058 C 
ATOM     16  C   LIG d   1      10.110   1.731  -6.369  0.00  0.00    -0.033 C 
ATOM     17  C   LIG d   1       9.444   0.538  -5.793  0.00  0.00     0.102 C 
ATOM     18  N   LIG d   1       9.497  -0.635  -6.384  0.00  0.00    -0.085 NA
ATOM     19  C   LIG d   1       8.679   0.728  -4.532  0.00  0.00    -0.036 C 
ATOM     20  C   LIG d   1       8.939   1.790  -3.772  0.00  0.00    -0.072 C 
ATOM     21  C   LIG d   1      10.031   2.753  -4.136  0.00  0.00     0.011 C 
ATOM     22  H   LIG d   1      11.034   5.770  -0.678  0.00  0.00     0.027 H 
ATOM     23  H   LIG d   1       9.348   5.615  -1.243  0.00  0.00     0.027 H 
ATOM     24  H   LIG d   1      11.781   4.306  -2.501  0.00  0.00     0.027 H 
ATOM     25  H   LIG d   1      10.539   3.518  -1.500  0.00  0.00     0.027 H 
ATOM     26  H   LIG d   1      10.857   7.825  -5.110  0.00  0.00     0.027 H 
ATOM     27  H   LIG d   1       9.084   8.022  -5.223  0.00  0.00     0.027 H 
ATOM     28  H   LIG d   1      10.746   9.651  -3.641  0.00  0.00     0.029 H 
ATOM     29  H   LIG d   1       8.995   9.422  -3.369  0.00  0.00     0.029 H 
ATOM     30  H   LIG d   1      11.414   6.043  -5.793  0.00  0.00     0.027 H 
ATOM     31  H   LIG d   1      12.039   4.841  -4.625  0.00  0.00     0.027 H 
ATOM     32  H   LIG d   1      10.303   4.336  -7.060  0.00  0.00     0.031 H 
ATOM     33  H   LIG d   1      11.925   3.687  -6.704  0.00  0.00     0.031 H 
ATOM     34  H   LIG d   1      10.414   1.745  -7.422  0.00  0.00     0.064 H 
ATOM     35  H   LIG d   1       7.912   0.006  -4.235  0.00  0.00     0.064 H 
ATOM     36  H   LIG d   1       8.350   1.970  -2.870  0.00  0.00     0.058 H 
ENDROOT
BRANCH  18  37
ATOM     37  O   LIG d   1       8.849  -1.751  -5.803  0.00  0.00    -0.384 OA
BRANCH  37  38
ATOM     38  C   LIG d   1       8.309  -2.670  -6.755  0.00  0.00     0.193 C 
ATOM     39  H   LIG d   1       8.634  -2.389  -7.757  0.00  0.00     0.082 H 
ATOM     40  H   LIG d   1       8.660  -3.676  -6.529  0.00  0.00     0.082 H 
BRANCH  38  41
ATOM     41  C   LIG d   1       6.804  -2.636  -6.688  0.00  0.00     0.253 C 
ATOM     42  O   LIG d   1       6.174  -3.671  -6.645  0.00  0.00    -0.272 OA
ATOM     43  N   LIG d   1       6.157  -1.453  -6.678  0.00  0.00    -0.312 N 
ATOM     44  H   LIG d   1       6.660  -0.625  -6.712  0.00  0.00     0.149 HD
BRANCH  43  45
ATOM     45  C   LIG d   1       4.693  -1.419  -6.613  0.00  0.00     0.019 C 
ATOM     46  H   LIG d   1       4.286  -1.351  -7.622  0.00  0.00     0.047 H 
ATOM     47  H   LIG d   1       4.329  -2.329  -6.136  0.00  0.00     0.047 H 
BRANCH  45  48
ATOM     48  C   LIG d   1       4.246  -0.203  -5.800  0.00  0.00     0.005 C 
ATOM     49  H   LIG d   1       4.913   0.636  -6.004  0.00  0.00     0.037 H 
BRANCH  48  50
ATOM     50  C   LIG d   1       2.816   0.176  -6.193  0.00  0.00    -0.005 C 
ATOM     51  H   LIG d   1       2.167  -0.692  -6.084  0.00  0.00     0.033 H 
ATOM     52  H   LIG d   1       2.463   0.978  -5.544  0.00  0.00     0.033 H 
BRANCH  50  53
ATOM     53  C   LIG d   1       2.796   0.644  -7.626  0.00  0.00     0.042 C 
ATOM     54  O   LIG d   1       2.217  -0.015  -8.473  0.00  0.00    -0.550 OA
ATOM     55  O   LIG d   1       3.357   1.680  -7.936  0.00  0.00    -0.550 OA
ENDBRANCH  50  53
ENDBRANCH  48  50
BRANCH  48  56
ATOM     56  C   LIG d   1       4.293  -0.535  -4.331  0.00  0.00    -0.043 A 
ATOM     57  C   LIG d   1       3.973  -1.809  -3.899  0.00  0.00    -0.058 A 
ATOM     58  C   LIG d   1       4.019  -2.114  -2.552  0.00  0.00    -0.061 A 
ATOM     59  H   LIG d   1       3.689  -2.566  -4.615  0.00  0.00     0.062 H 
ATOM     60  C   LIG d   1       4.379  -1.144  -1.635  0.00  0.00    -0.062 A 
ATOM     61  H   LIG d   1       3.773  -3.110  -2.215  0.00  0.00     0.062 H 
ATOM     62  C   LIG d   1       4.694   0.132  -2.066  0.00  0.00    -0.061 A 
ATOM     63  H   LIG d   1       4.412  -1.381  -0.582  0.00  0.00     0.062 H 
ATOM     64  C   LIG d   1       4.651   0.436  -3.414  0.00  0.00    -0.058 A 
ATOM     65  H   LIG d   1       4.974   0.890  -1.350  0.00  0.00     0.062 H 
ATOM     66  H   LIG d   1       4.897   1.431  -3.751  0.00  0.00     0.062 H 
ENDBRANCH  48  56
ENDBRANCH  45  48
ENDBRANCH  43  45
ENDBRANCH  38  41
ENDBRANCH  37  38
ENDBRANCH  18  37
BRANCH  21  67
ATOM     67  C   LIG d   1      11.281   2.113  -3.522  0.00  0.00    -0.052 C 
ATOM     68  H   LIG d   1      11.085   1.860  -2.480  0.00  0.00     0.024 H 
ATOM     69  H   LIG d   1      11.535   1.208  -4.073  0.00  0.00     0.024 H 
ATOM     70  H   LIG d   1      12.113   2.816  -3.575  0.00  0.00     0.024 H 
ENDBRANCH  21  67
BRANCH   1  71
ATOM     71  C   LIG d   1      12.118   6.797  -2.941  0.00  0.00    -0.057 C 
ATOM     72  H   LIG d   1      12.319   7.712  -3.500  0.00  0.00     0.024 H 
ATOM     73  H   LIG d   1      12.735   6.775  -2.044  0.00  0.00     0.024 H 
ATOM     74  H   LIG d   1      12.351   5.933  -3.563  0.00  0.00     0.024 H 
ENDBRANCH   1  71
BRANCH  12  75
ATOM     75  C   LIG d   1       9.038   8.186  -1.199  0.00  0.00    -0.036 C 
ATOM     76  H   LIG d   1       8.376   9.001  -1.487  0.00  0.00     0.026 H 
ATOM     77  H   LIG d   1       8.510   7.238  -1.295  0.00  0.00     0.026 H 
ATOM     78  H   LIG d   1       9.353   8.322  -0.164  0.00  0.00     0.026 H 
ENDBRANCH  12  75
BRANCH  12  79
ATOM     79  O   LIG d   1      11.376   8.787  -1.447  0.00  0.00    -0.388 OA
ATOM     80  H   LIG d   1      12.237   8.500  -1.783  0.00  0.00     0.210 HD
ENDBRANCH  12  79
TORSDOF 12
ENDMDL
MODEL 8
REMARK VINA RESULT:      -7.2      2.531      3.918
REMARK  12 active torsions:
REMARK  status: ('A' for Active; 'I' for Inactive)
REMARK    1  A    between atoms: C_1  and  C_2 
REMARK    2  A    between atoms: C_13  and  C_14 
REMARK    3  A    between atoms: C_13  and  O_15 
REMARK    4  A    between atoms: N_21  and  O_22 
REMARK    5  A    between atoms: O_22  and  C_23 
REMARK    6  A    between atoms: C_23  and  C_24 
REMARK       I    between atoms: C_24  and  N_26 
REMARK    7  A    between atoms: N_26  and  C_27 
REMARK    8  A    between atoms: C_27  and  C_28 
REMARK    9  A    between atoms: C_28  and  C_30 
REMARK   10  A    between atoms: C_28  and  C_34 
REMARK   11  A    between atoms: C_30  and  C_31 
REMARK   12  A    between atoms: C_42  and  C_43 
ROOT
ATOM      1  C   LIG d   1       5.104  -0.203  -3.635  0.00  0.00    -0.000 C 
ATOM      2  C   LIG d   1       6.503   0.246  -3.287  0.00  0.00    -0.044 C 
ATOM      3  C   LIG d   1       7.500  -0.730  -3.950  0.00  0.00    -0.048 C 
ATOM      4  C   LIG d   1       7.294  -2.143  -3.437  0.00  0.00    -0.025 C 
ATOM      5  H   LIG d   1       7.463  -2.099  -2.343  0.00  0.00     0.032 H 
ATOM      6  C   LIG d   1       5.852  -2.631  -3.611  0.00  0.00    -0.033 C 
ATOM      7  H   LIG d   1       5.749  -3.552  -2.996  0.00  0.00     0.031 H 
ATOM      8  C   LIG d   1       4.886  -1.625  -3.078  0.00  0.00    -0.030 C 
ATOM      9  H   LIG d   1       5.026  -1.587  -1.974  0.00  0.00     0.031 H 
ATOM     10  C   LIG d   1       3.389  -1.838  -3.327  0.00  0.00    -0.047 C 
ATOM     11  C   LIG d   1       2.781  -0.459  -2.943  0.00  0.00    -0.024 C 
ATOM     12  C   LIG d   1       3.944   0.566  -2.986  0.00  0.00     0.069 C 
ATOM     13  C   LIG d   1       5.645  -3.040  -5.066  0.00  0.00    -0.046 C 
ATOM     14  C   LIG d   1       6.343  -4.394  -5.244  0.00  0.00    -0.030 C 
ATOM     15  C   LIG d   1       7.714  -4.358  -4.615  0.00  0.00    -0.058 C 
ATOM     16  C   LIG d   1       8.436  -5.482  -4.722  0.00  0.00    -0.033 C 
ATOM     17  C   LIG d   1       9.774  -5.555  -4.084  0.00  0.00     0.102 C 
ATOM     18  N   LIG d   1      10.655  -6.467  -4.431  0.00  0.00    -0.085 NA
ATOM     19  C   LIG d   1      10.068  -4.573  -3.007  0.00  0.00    -0.036 C 
ATOM     20  C   LIG d   1       9.343  -3.459  -2.932  0.00  0.00    -0.072 C 
ATOM     21  C   LIG d   1       8.285  -3.153  -3.953  0.00  0.00     0.011 C 
ATOM     22  H   LIG d   1       6.684   1.253  -3.663  0.00  0.00     0.027 H 
ATOM     23  H   LIG d   1       6.669   0.219  -2.209  0.00  0.00     0.027 H 
ATOM     24  H   LIG d   1       7.377  -0.668  -5.024  0.00  0.00     0.027 H 
ATOM     25  H   LIG d   1       8.503  -0.384  -3.676  0.00  0.00     0.027 H 
ATOM     26  H   LIG d   1       3.182  -2.085  -4.363  0.00  0.00     0.027 H 
ATOM     27  H   LIG d   1       3.003  -2.619  -2.666  0.00  0.00     0.027 H 
ATOM     28  H   LIG d   1       2.007  -0.180  -3.657  0.00  0.00     0.029 H 
ATOM     29  H   LIG d   1       2.364  -0.505  -1.937  0.00  0.00     0.029 H 
ATOM     30  H   LIG d   1       4.585  -3.143  -5.292  0.00  0.00     0.027 H 
ATOM     31  H   LIG d   1       6.110  -2.324  -5.744  0.00  0.00     0.027 H 
ATOM     32  H   LIG d   1       5.753  -5.169  -4.759  0.00  0.00     0.031 H 
ATOM     33  H   LIG d   1       6.444  -4.613  -6.305  0.00  0.00     0.031 H 
ATOM     34  H   LIG d   1       8.038  -6.338  -5.279  0.00  0.00     0.064 H 
ATOM     35  H   LIG d   1      10.868  -4.766  -2.286  0.00  0.00     0.064 H 
ATOM     36  H   LIG d   1       9.513  -2.753  -2.115  0.00  0.00     0.058 H 
ENDROOT
BRANCH  18  37
ATOM     37  O   LIG d   1      11.921  -6.504  -3.800  0.00  0.00    -0.384 OA
BRANCH  37  38
ATOM     38  C   LIG d   1      12.154  -7.687  -3.034  0.00  0.00     0.193 C 
ATOM     39  H   LIG d   1      12.817  -8.354  -3.587  0.00  0.00     0.082 H 
ATOM     40  H   LIG d   1      12.618  -7.420  -2.085  0.00  0.00     0.082 H 
BRANCH  38  41
ATOM     41  C   LIG d   1      10.843  -8.383  -2.774  0.00  0.00     0.253 C 
ATOM     42  O   LIG d   1      10.234  -8.168  -1.748  0.00  0.00    -0.272 OA
ATOM     43  N   LIG d   1      10.348  -9.247  -3.683  0.00  0.00    -0.312 N 
ATOM     44  H   LIG d   1      10.834  -9.420  -4.504  0.00  0.00     0.149 HD
BRANCH  43  45
ATOM     45  C   LIG d   1       9.073  -9.925  -3.431  0.00  0.00     0.019 C 
ATOM     46  H   LIG d   1       9.220 -11.004  -3.480  0.00  0.00     0.047 H 
ATOM     47  H   LIG d   1       8.706  -9.653  -2.442  0.00  0.00     0.047 H 
BRANCH  45  48
ATOM     48  C   LIG d   1       8.052  -9.501  -4.489  0.00  0.00     0.005 C 
ATOM     49  H   LIG d   1       8.158  -8.434  -4.689  0.00  0.00     0.037 H 
BRANCH  48  50
ATOM     50  C   LIG d   1       8.297 -10.287  -5.779  0.00  0.00    -0.005 C 
ATOM     51  H   LIG d   1       9.070 -11.036  -5.607  0.00  0.00     0.033 H 
ATOM     52  H   LIG d   1       7.374 -10.780  -6.083  0.00  0.00     0.033 H 
BRANCH  50  53
ATOM     53  C   LIG d   1       8.744  -9.344  -6.866  0.00  0.00     0.042 C 
ATOM     54  O   LIG d   1       8.000  -9.094  -7.799  0.00  0.00    -0.550 OA
ATOM     55  O   LIG d   1       9.848  -8.830  -6.810  0.00  0.00    -0.550 OA
ENDBRANCH  50  53
ENDBRANCH  48  50
BRANCH  48  56
ATOM     56  C   LIG d   1       6.660  -9.782  -3.985  0.00  0.00    -0.043 A 
ATOM     57  C   LIG d   1       6.472 -10.622  -2.904  0.00  0.00    -0.058 A 
ATOM     58  C   LIG d   1       5.196 -10.877  -2.440  0.00  0.00    -0.061 A 
ATOM     59  H   LIG d   1       7.323 -11.078  -2.419  0.00  0.00     0.062 H 
ATOM     60  C   LIG d   1       4.105 -10.297  -3.062  0.00  0.00    -0.062 A 
ATOM     61  H   LIG d   1       5.049 -11.530  -1.592  0.00  0.00     0.062 H 
ATOM     62  C   LIG d   1       4.293  -9.460  -4.147  0.00  0.00    -0.061 A 
ATOM     63  H   LIG d   1       3.107 -10.498  -2.702  0.00  0.00     0.062 H 
ATOM     64  C   LIG d   1       5.570  -9.203  -4.609  0.00  0.00    -0.058 A 
ATOM     65  H   LIG d   1       3.442  -9.008  -4.634  0.00  0.00     0.062 H 
ATOM     66  H   LIG d   1       5.717  -8.550  -5.455  0.00  0.00     0.062 H 
ENDBRANCH  48  56
ENDBRANCH  45  48
ENDBRANCH  43  45
ENDBRANCH  38  41
ENDBRANCH  37  38
ENDBRANCH  18  37
BRANCH  21  67
ATOM     67  C   LIG d   1       9.070  -2.466  -5.075  0.00  0.00    -0.052 C 
ATOM     68  H   LIG d   1       8.873  -2.973  -6.020  0.00  0.00     0.024 H 
ATOM     69  H   LIG d   1       8.761  -1.424  -5.151  0.00  0.00     0.024 H 
ATOM     70  H   LIG d   1      10.136  -2.513  -4.854  0.00  0.00     0.024 H 
ENDBRANCH  21  67
BRANCH   1  71
ATOM     71  C   LIG d   1       4.886  -0.129  -5.149  0.00  0.00    -0.057 C 
ATOM     72  H   LIG d   1       5.235   0.836  -5.520  0.00  0.00     0.024 H 
ATOM     73  H   LIG d   1       5.443  -0.928  -5.637  0.00  0.00     0.024 H 
ATOM     74  H   LIG d   1       3.824  -0.239  -5.369  0.00  0.00     0.024 H 
ENDBRANCH   1  71
BRANCH  12  75
ATOM     75  C   LIG d   1       4.295   1.039  -1.581  0.00  0.00    -0.036 C 
ATOM     76  H   LIG d   1       5.364   0.912  -1.412  0.00  0.00     0.026 H 
ATOM     77  H   LIG d   1       4.033   2.091  -1.476  0.00  0.00     0.026 H 
ATOM     78  H   LIG d   1       3.739   0.452  -0.850  0.00  0.00     0.026 H 
ENDBRANCH  12  75
BRANCH  12  79
ATOM     79  O   LIG d   1       3.585   1.676  -3.812  0.00  0.00    -0.388 OA
ATOM     80  H   LIG d   1       3.066   1.435  -4.593  0.00  0.00     0.210 HD
ENDBRANCH  12  79
TORSDOF 12
ENDMDL
MODEL 9
REMARK VINA RESULT:      -7.1      2.195      2.711
REMARK  12 active torsions:
REMARK  status: ('A' for Active; 'I' for Inactive)
REMARK    1  A    between atoms: C_1  and  C_2 
REMARK    2  A    between atoms: C_13  and  C_14 
REMARK    3  A    between atoms: C_13  and  O_15 
REMARK    4  A    between atoms: N_21  and  O_22 
REMARK    5  A    between atoms: O_22  and  C_23 
REMARK    6  A    between atoms: C_23  and  C_24 
REMARK       I    between atoms: C_24  and  N_26 
REMARK    7  A    between atoms: N_26  and  C_27 
REMARK    8  A    between atoms: C_27  and  C_28 
REMARK    9  A    between atoms: C_28  and  C_30 
REMARK   10  A    between atoms: C_28  and  C_34 
REMARK   11  A    between atoms: C_30  and  C_31 
REMARK   12  A    between atoms: C_42  and  C_43 
ROOT
ATOM      1  C   LIG d   1       5.160  -0.293  -3.636  0.00  0.00    -0.000 C 
ATOM      2  C   LIG d   1       6.568   0.216  -3.447  0.00  0.00    -0.044 C 
ATOM      3  C   LIG d   1       7.533  -0.764  -4.153  0.00  0.00    -0.048 C 
ATOM      4  C   LIG d   1       7.426  -2.152  -3.551  0.00  0.00    -0.025 C 
ATOM      5  H   LIG d   1       7.695  -2.043  -2.481  0.00  0.00     0.032 H 
ATOM      6  C   LIG d   1       5.992  -2.692  -3.560  0.00  0.00    -0.033 C 
ATOM      7  H   LIG d   1       5.980  -3.581  -2.892  0.00  0.00     0.031 H 
ATOM      8  C   LIG d   1       5.046  -1.688  -2.989  0.00  0.00    -0.030 C 
ATOM      9  H   LIG d   1       5.287  -1.587  -1.907  0.00  0.00     0.031 H 
ATOM     10  C   LIG d   1       3.541  -1.960  -3.082  0.00  0.00    -0.047 C 
ATOM     11  C   LIG d   1       2.923  -0.582  -2.712  0.00  0.00    -0.024 C 
ATOM     12  C   LIG d   1       4.039   0.475  -2.919  0.00  0.00     0.069 C 
ATOM     13  C   LIG d   1       5.663  -3.185  -4.966  0.00  0.00    -0.046 C 
ATOM     14  C   LIG d   1       6.389  -4.526  -5.141  0.00  0.00    -0.030 C 
ATOM     15  C   LIG d   1       7.811  -4.414  -4.649  0.00  0.00    -0.058 C 
ATOM     16  C   LIG d   1       8.559  -5.520  -4.767  0.00  0.00    -0.033 C 
ATOM     17  C   LIG d   1       9.952  -5.518  -4.258  0.00  0.00     0.102 C 
ATOM     18  N   LIG d   1      10.829  -6.420  -4.641  0.00  0.00    -0.085 NA
ATOM     19  C   LIG d   1      10.312  -4.471  -3.265  0.00  0.00    -0.036 C 
ATOM     20  C   LIG d   1       9.558  -3.376  -3.178  0.00  0.00    -0.072 C 
ATOM     21  C   LIG d   1       8.399  -3.158  -4.107  0.00  0.00     0.011 C 
ATOM     22  H   LIG d   1       6.678   1.207  -3.890  0.00  0.00     0.027 H 
ATOM     23  H   LIG d   1       6.837   0.253  -2.390  0.00  0.00     0.027 H 
ATOM     24  H   LIG d   1       7.307  -0.764  -5.211  0.00  0.00     0.027 H 
ATOM     25  H   LIG d   1       8.544  -0.373  -3.994  0.00  0.00     0.027 H 
ATOM     26  H   LIG d   1       3.245  -2.269  -4.079  0.00  0.00     0.027 H 
ATOM     27  H   LIG d   1       3.246  -2.715  -2.348  0.00  0.00     0.027 H 
ATOM     28  H   LIG d   1       2.076  -0.365  -3.362  0.00  0.00     0.029 H 
ATOM     29  H   LIG d   1       2.605  -0.586  -1.670  0.00  0.00     0.029 H 
ATOM     30  H   LIG d   1       4.591  -3.333  -5.083  0.00  0.00     0.027 H 
ATOM     31  H   LIG d   1       6.036  -2.494  -5.721  0.00  0.00     0.027 H 
ATOM     32  H   LIG d   1       5.874  -5.291  -4.562  0.00  0.00     0.031 H 
ATOM     33  H   LIG d   1       6.397  -4.799  -6.193  0.00  0.00     0.031 H 
ATOM     34  H   LIG d   1       8.140  -6.416  -5.239  0.00  0.00     0.064 H 
ATOM     35  H   LIG d   1      11.183  -4.599  -2.615  0.00  0.00     0.064 H 
ATOM     36  H   LIG d   1       9.780  -2.622  -2.419  0.00  0.00     0.058 H 
ENDROOT
BRANCH  18  37
ATOM     37  O   LIG d   1      12.149  -6.384  -4.133  0.00  0.00    -0.384 OA
BRANCH  37  38
ATOM     38  C   LIG d   1      12.649  -7.658  -3.724  0.00  0.00     0.193 C 
ATOM     39  H   LIG d   1      12.596  -8.356  -4.560  0.00  0.00     0.082 H 
ATOM     40  H   LIG d   1      13.685  -7.557  -3.402  0.00  0.00     0.082 H 
BRANCH  38  41
ATOM     41  C   LIG d   1      11.817  -8.181  -2.581  0.00  0.00     0.253 C 
ATOM     42  O   LIG d   1      11.212  -9.225  -2.698  0.00  0.00    -0.272 OA
ATOM     43  N   LIG d   1      11.743  -7.486  -1.428  0.00  0.00    -0.312 N 
ATOM     44  H   LIG d   1      12.227  -6.651  -1.334  0.00  0.00     0.149 HD
BRANCH  43  45
ATOM     45  C   LIG d   1      10.934  -7.993  -0.317  0.00  0.00     0.019 C 
ATOM     46  H   LIG d   1      10.170  -7.259  -0.060  0.00  0.00     0.047 H 
ATOM     47  H   LIG d   1      10.456  -8.926  -0.612  0.00  0.00     0.047 H 
BRANCH  45  48
ATOM     48  C   LIG d   1      11.831  -8.241   0.897  0.00  0.00     0.005 C 
ATOM     49  H   LIG d   1      12.385  -7.331   1.131  0.00  0.00     0.037 H 
BRANCH  48  50
ATOM     50  C   LIG d   1      10.968  -8.634   2.098  0.00  0.00    -0.005 C 
ATOM     51  H   LIG d   1      10.136  -7.937   2.191  0.00  0.00     0.033 H 
ATOM     52  H   LIG d   1      10.583  -9.644   1.952  0.00  0.00     0.033 H 
BRANCH  50  53
ATOM     53  C   LIG d   1      11.803  -8.592   3.352  0.00  0.00     0.042 C 
ATOM     54  O   LIG d   1      12.375  -7.563   3.669  0.00  0.00    -0.550 OA
ATOM     55  O   LIG d   1      11.905  -9.586   4.049  0.00  0.00    -0.550 OA
ENDBRANCH  50  53
ENDBRANCH  48  50
BRANCH  48  56
ATOM     56  C   LIG d   1      12.800  -9.353   0.587  0.00  0.00    -0.043 A 
ATOM     57  C   LIG d   1      12.331 -10.630   0.343  0.00  0.00    -0.058 A 
ATOM     58  C   LIG d   1      13.220 -11.649   0.056  0.00  0.00    -0.061 A 
ATOM     59  H   LIG d   1      11.271 -10.832   0.374  0.00  0.00     0.062 H 
ATOM     60  C   LIG d   1      14.578 -11.393   0.020  0.00  0.00    -0.062 A 
ATOM     61  H   LIG d   1      12.853 -12.646  -0.139  0.00  0.00     0.062 H 
ATOM     62  C   LIG d   1      15.047 -10.116   0.270  0.00  0.00    -0.061 A 
ATOM     63  H   LIG d   1      15.273 -12.189  -0.201  0.00  0.00     0.062 H 
ATOM     64  C   LIG d   1      14.158  -9.096   0.553  0.00  0.00    -0.058 A 
ATOM     65  H   LIG d   1      16.108  -9.916   0.243  0.00  0.00     0.062 H 
ATOM     66  H   LIG d   1      14.524  -8.099   0.748  0.00  0.00     0.062 H 
ENDBRANCH  48  56
ENDBRANCH  45  48
ENDBRANCH  43  45
ENDBRANCH  38  41
ENDBRANCH  37  38
ENDBRANCH  18  37
BRANCH  21  67
ATOM     67  C   LIG d   1       9.050  -2.510  -5.333  0.00  0.00    -0.052 C 
ATOM     68  H   LIG d   1       8.557  -1.562  -5.548  0.00  0.00     0.024 H 
ATOM     69  H   LIG d   1      10.106  -2.332  -5.133  0.00  0.00     0.024 H 
ATOM     70  H   LIG d   1       8.950  -3.174  -6.191  0.00  0.00     0.024 H 
ENDBRANCH  21  67
BRANCH   1  71
ATOM     71  C   LIG d   1       4.798  -0.307  -5.124  0.00  0.00    -0.057 C 
ATOM     72  H   LIG d   1       4.914   0.696  -5.536  0.00  0.00     0.024 H 
ATOM     73  H   LIG d   1       5.456  -0.996  -5.653  0.00  0.00     0.024 H 
ATOM     74  H   LIG d   1       3.763  -0.631  -5.243  0.00  0.00     0.024 H 
ENDBRANCH   1  71
BRANCH  12  75
ATOM     75  C   LIG d   1       4.505   1.034  -1.580  0.00  0.00    -0.036 C 
ATOM     76  H   LIG d   1       3.641   1.373  -1.009  0.00  0.00     0.026 H 
ATOM     77  H   LIG d   1       5.026   0.256  -1.023  0.00  0.00     0.026 H 
ATOM     78  H   LIG d   1       5.180   1.872  -1.751  0.00  0.00     0.026 H 
ENDBRANCH  12  75
BRANCH  12  79
ATOM     79  O   LIG d   1       3.565   1.527  -3.763  0.00  0.00    -0.388 OA
ATOM     80  H   LIG d   1       2.631   1.744  -3.634  0.00  0.00     0.210 HD
ENDBRANCH  12  79
TORSDOF 12
ENDMDL
