MODEL 1
REMARK VINA RESULT:      -5.1      0.000      0.000
REMARK  9 active torsions:
REMARK  status: ('A' for Active; 'I' for Inactive)
REMARK    1  A    between atoms: C_1  and  C_2 
REMARK    2  A    between atoms: C_4  and  C_19 
REMARK    3  A    between atoms: C_6  and  C_16 
REMARK    4  A    between atoms: C_9  and  C_11 
REMARK    5  A    between atoms: C_11  and  C_12 
REMARK       I    between atoms: C_12  and  N_14 
REMARK    6  A    between atoms: N_14  and  C_15 
REMARK    7  A    between atoms: C_16  and  C_17 
REMARK    8  A    between atoms: C_16  and  C_18 
REMARK    9  A    between atoms: C_19  and  O_20 
ROOT
ATOM      1  C   LIG d   1       3.548   1.524  -9.720  0.00  0.00    -0.073 C 
ATOM      2  C   LIG d   1       3.861   1.198 -10.932  0.00  0.00    -0.079 C 
ATOM      3  C   LIG d   1       3.343  -0.022 -11.636  0.00  0.00     0.004 C 
ATOM      4  H   LIG d   1       2.551   0.295 -12.330  0.00  0.00     0.037 H 
ATOM      5  C   LIG d   1       2.769  -1.012 -10.620  0.00  0.00    -0.030 C 
ATOM      6  H   LIG d   1       3.581  -1.468 -10.036  0.00  0.00     0.031 H 
ATOM      7  C   LIG d   1       1.811  -0.254  -9.692  0.00  0.00    -0.042 C 
ATOM      8  C   LIG d   1       2.630   0.722  -8.844  0.00  0.00    -0.012 C 
ATOM      9  H   LIG d   1       1.954   1.421  -8.330  0.00  0.00     0.035 H 
ATOM     10  H   LIG d   1       4.547   1.832 -11.512  0.00  0.00     0.058 H 
ATOM     11  H   LIG d   1       1.076   0.299 -10.296  0.00  0.00     0.027 H 
ATOM     12  H   LIG d   1       1.287  -0.969  -9.041  0.00  0.00     0.027 H 
ENDROOT
BRANCH   8  13
ATOM     13  C   LIG d   1       3.459  -0.064  -7.826  0.00  0.00     0.030 C 
ATOM     14  H   LIG d   1       3.274  -1.141  -7.955  0.00  0.00     0.036 H 
ATOM     15  H   LIG d   1       4.528   0.145  -7.983  0.00  0.00     0.036 H 
BRANCH  13  16
ATOM     16  C   LIG d   1       3.067   0.349  -6.431  0.00  0.00     0.213 C 
ATOM     17  O   LIG d   1       2.709   1.488  -6.215  0.00  0.00    -0.276 OA
ATOM     18  N   LIG d   1       3.114  -0.545  -5.424  0.00  0.00    -0.318 N 
ATOM     19  H   LIG d   1       3.438  -1.577  -5.621  0.00  0.00     0.148 HD
BRANCH  18  20
ATOM     20  C   LIG d   1       2.732  -0.142  -4.069  0.00  0.00     0.000 C 
ATOM     21  H   LIG d   1       3.590  -0.275  -3.392  0.00  0.00     0.043 H 
ATOM     22  H   LIG d   1       1.894  -0.764  -3.723  0.00  0.00     0.043 H 
ATOM     23  H   LIG d   1       2.428   0.915  -4.071  0.00  0.00     0.043 H 
ENDBRANCH  18  20
ENDBRANCH  13  16
ENDBRANCH   8  13
BRANCH   1  24
ATOM     24  C   LIG d   1       4.140   2.788  -9.152  0.00  0.00    -0.043 C 
ATOM     25  H   LIG d   1       4.979   3.115  -9.783  0.00  0.00     0.027 H 
ATOM     26  H   LIG d   1       4.502   2.597  -8.131  0.00  0.00     0.027 H 
ATOM     27  H   LIG d   1       3.371   3.574  -9.126  0.00  0.00     0.027 H 
ENDBRANCH   1  24
BRANCH   5  28
ATOM     28  C   LIG d   1       2.006  -2.118 -11.353  0.00  0.00    -0.043 C 
ATOM     29  H   LIG d   1       2.678  -2.614 -12.069  0.00  0.00     0.030 H 
BRANCH  28  30
ATOM     30  C   LIG d   1       0.821  -1.507 -12.105  0.00  0.00    -0.062 C 
ATOM     31  H   LIG d   1       1.032  -0.450 -12.324  0.00  0.00     0.023 H 
ATOM     32  H   LIG d   1      -0.084  -1.578 -11.482  0.00  0.00     0.023 H 
ATOM     33  H   LIG d   1       0.662  -2.053 -13.046  0.00  0.00     0.023 H 
ENDBRANCH  28  30
BRANCH  28  34
ATOM     34  C   LIG d   1       1.493  -3.143 -10.340  0.00  0.00    -0.062 C 
ATOM     35  H   LIG d   1       2.142  -3.137  -9.452  0.00  0.00     0.023 H 
ATOM     36  H   LIG d   1       1.501  -4.144 -10.794  0.00  0.00     0.023 H 
ATOM     37  H   LIG d   1       0.465  -2.882 -10.045  0.00  0.00     0.023 H 
ENDBRANCH  28  34
ENDBRANCH   5  28
BRANCH   3  38
ATOM     38  C   LIG d   1       4.487  -0.690 -12.402  0.00  0.00     0.051 C 
ATOM     39  H   LIG d   1       5.429  -0.550 -11.850  0.00  0.00     0.056 H 
ATOM     40  H   LIG d   1       4.280  -1.765 -12.508  0.00  0.00     0.056 H 
BRANCH  38  41
ATOM     41  O   LIG d   1       4.602  -0.098 -13.697  0.00  0.00    -0.394 OA
ATOM     42  H   LIG d   1       4.369   0.969 -13.836  0.00  0.00     0.209 HD
ENDBRANCH  38  41
ENDBRANCH   3  38
TORSDOF 9
ENDMDL
MODEL 2
REMARK VINA RESULT:      -5.0      5.735      7.753
REMARK  9 active torsions:
REMARK  status: ('A' for Active; 'I' for Inactive)
REMARK    1  A    between atoms: C_1  and  C_2 
REMARK    2  A    between atoms: C_4  and  C_19 
REMARK    3  A    between atoms: C_6  and  C_16 
REMARK    4  A    between atoms: C_9  and  C_11 
REMARK    5  A    between atoms: C_11  and  C_12 
REMARK       I    between atoms: C_12  and  N_14 
REMARK    6  A    between atoms: N_14  and  C_15 
REMARK    7  A    between atoms: C_16  and  C_17 
REMARK    8  A    between atoms: C_16  and  C_18 
REMARK    9  A    between atoms: C_19  and  O_20 
ROOT
ATOM      1  C   LIG d   1       6.701  -2.962  -4.229  0.00  0.00    -0.073 C 
ATOM      2  C   LIG d   1       7.177  -1.839  -3.796  0.00  0.00    -0.079 C 
ATOM      3  C   LIG d   1       6.331  -0.698  -3.312  0.00  0.00     0.004 C 
ATOM      4  H   LIG d   1       6.357  -0.697  -2.213  0.00  0.00     0.037 H 
ATOM      5  C   LIG d   1       4.888  -0.871  -3.791  0.00  0.00    -0.030 C 
ATOM      6  H   LIG d   1       4.827  -0.698  -4.875  0.00  0.00     0.031 H 
ATOM      7  C   LIG d   1       4.434  -2.298  -3.456  0.00  0.00    -0.042 C 
ATOM      8  C   LIG d   1       5.236  -3.276  -4.318  0.00  0.00    -0.012 C 
ATOM      9  H   LIG d   1       5.085  -4.301  -3.949  0.00  0.00     0.035 H 
ATOM     10  H   LIG d   1       8.264  -1.678  -3.766  0.00  0.00     0.058 H 
ATOM     11  H   LIG d   1       4.616  -2.500  -2.389  0.00  0.00     0.027 H 
ATOM     12  H   LIG d   1       3.360  -2.402  -3.670  0.00  0.00     0.027 H 
ENDROOT
BRANCH   8  13
ATOM     13  C   LIG d   1       4.779  -3.160  -5.773  0.00  0.00     0.030 C 
ATOM     14  H   LIG d   1       3.940  -2.452  -5.839  0.00  0.00     0.036 H 
ATOM     15  H   LIG d   1       5.615  -2.799  -6.392  0.00  0.00     0.036 H 
BRANCH  13  16
ATOM     16  C   LIG d   1       4.336  -4.512  -6.270  0.00  0.00     0.213 C 
ATOM     17  O   LIG d   1       3.920  -5.339  -5.486  0.00  0.00    -0.276 OA
ATOM     18  N   LIG d   1       4.400  -4.802  -7.584  0.00  0.00    -0.318 N 
ATOM     19  H   LIG d   1       4.777  -4.051  -8.295  0.00  0.00     0.148 HD
BRANCH  18  20
ATOM     20  C   LIG d   1       3.969  -6.116  -8.066  0.00  0.00     0.000 C 
ATOM     21  H   LIG d   1       3.282  -6.567  -7.334  0.00  0.00     0.043 H 
ATOM     22  H   LIG d   1       4.846  -6.767  -8.193  0.00  0.00     0.043 H 
ATOM     23  H   LIG d   1       3.453  -6.003  -9.030  0.00  0.00     0.043 H 
ENDBRANCH  18  20
ENDBRANCH  13  16
ENDBRANCH   8  13
BRANCH   1  24
ATOM     24  C   LIG d   1       7.677  -4.021  -4.671  0.00  0.00    -0.043 C 
ATOM     25  H   LIG d   1       8.705  -3.661  -4.512  0.00  0.00     0.027 H 
ATOM     26  H   LIG d   1       7.526  -4.237  -5.738  0.00  0.00     0.027 H 
ATOM     27  H   LIG d   1       7.515  -4.938  -4.085  0.00  0.00     0.027 H 
ENDBRANCH   1  24
BRANCH   5  28
ATOM     28  C   LIG d   1       3.984   0.137  -3.078  0.00  0.00    -0.043 C 
ATOM     29  H   LIG d   1       4.034   1.105  -3.597  0.00  0.00     0.030 H 
BRANCH  28  30
ATOM     30  C   LIG d   1       4.455   0.309  -1.632  0.00  0.00    -0.062 C 
ATOM     31  H   LIG d   1       4.820   1.337  -1.485  0.00  0.00     0.023 H 
ATOM     32  H   LIG d   1       5.270  -0.401  -1.424  0.00  0.00     0.023 H 
ATOM     33  H   LIG d   1       3.617   0.116  -0.947  0.00  0.00     0.023 H 
ENDBRANCH  28  30
BRANCH  28  34
ATOM     34  C   LIG d   1       2.543  -0.374  -3.086  0.00  0.00    -0.062 C 
ATOM     35  H   LIG d   1       2.118  -0.289  -2.076  0.00  0.00     0.023 H 
ATOM     36  H   LIG d   1       2.529  -1.428  -3.403  0.00  0.00     0.023 H 
ATOM     37  H   LIG d   1       1.945   0.227  -3.788  0.00  0.00     0.023 H 
ENDBRANCH  28  34
ENDBRANCH   5  28
BRANCH   3  38
ATOM     38  C   LIG d   1       6.891   0.617  -3.860  0.00  0.00     0.051 C 
ATOM     39  H   LIG d   1       6.352   1.462  -3.407  0.00  0.00     0.056 H 
ATOM     40  H   LIG d   1       7.961   0.690  -3.615  0.00  0.00     0.056 H 
BRANCH  38  41
ATOM     41  O   LIG d   1       6.724   0.650  -5.278  0.00  0.00    -0.394 OA
ATOM     42  H   LIG d   1       6.160  -0.148  -5.784  0.00  0.00     0.209 HD
ENDBRANCH  38  41
ENDBRANCH   3  38
TORSDOF 9
ENDMDL
MODEL 3
REMARK VINA RESULT:      -4.7      3.112      6.787
REMARK  9 active torsions:
REMARK  status: ('A' for Active; 'I' for Inactive)
REMARK    1  A    between atoms: C_1  and  C_2 
REMARK    2  A    between atoms: C_4  and  C_19 
REMARK    3  A    between atoms: C_6  and  C_16 
REMARK    4  A    between atoms: C_9  and  C_11 
REMARK    5  A    between atoms: C_11  and  C_12 
REMARK       I    between atoms: C_12  and  N_14 
REMARK    6  A    between atoms: N_14  and  C_15 
REMARK    7  A    between atoms: C_16  and  C_17 
REMARK    8  A    between atoms: C_16  and  C_18 
REMARK    9  A    between atoms: C_19  and  O_20 
ROOT
ATOM      1  C   LIG d   1       5.943  -0.684  -6.609  0.00  0.00    -0.073 C 
ATOM      2  C   LIG d   1       6.826  -0.299  -5.744  0.00  0.00    -0.079 C 
ATOM      3  C   LIG d   1       6.582  -0.236  -4.265  0.00  0.00     0.004 C 
ATOM      4  H   LIG d   1       7.064  -1.109  -3.803  0.00  0.00     0.037 H 
ATOM      5  C   LIG d   1       5.079  -0.268  -3.976  0.00  0.00    -0.030 C 
ATOM      6  H   LIG d   1       4.616   0.683  -4.279  0.00  0.00     0.031 H 
ATOM      7  C   LIG d   1       4.459  -1.432  -4.760  0.00  0.00    -0.042 C 
ATOM      8  C   LIG d   1       4.549  -1.111  -6.254  0.00  0.00    -0.012 C 
ATOM      9  H   LIG d   1       4.310  -2.012  -6.839  0.00  0.00     0.035 H 
ATOM     10  H   LIG d   1       7.827   0.007  -6.080  0.00  0.00     0.058 H 
ATOM     11  H   LIG d   1       5.013  -2.357  -4.541  0.00  0.00     0.027 H 
ATOM     12  H   LIG d   1       3.408  -1.555  -4.465  0.00  0.00     0.027 H 
ENDROOT
BRANCH   8  13
ATOM     13  C   LIG d   1       3.571   0.017  -6.589  0.00  0.00     0.030 C 
ATOM     14  H   LIG d   1       2.804   0.083  -5.804  0.00  0.00     0.036 H 
ATOM     15  H   LIG d   1       4.118   0.970  -6.648  0.00  0.00     0.036 H 
BRANCH  13  16
ATOM     16  C   LIG d   1       2.912  -0.266  -7.914  0.00  0.00     0.213 C 
ATOM     17  O   LIG d   1       2.491   0.650  -8.589  0.00  0.00    -0.276 OA
ATOM     18  N   LIG d   1       2.790  -1.535  -8.350  0.00  0.00    -0.318 N 
ATOM     19  H   LIG d   1       3.172  -2.365  -7.738  0.00  0.00     0.148 HD
BRANCH  18  20
ATOM     20  C   LIG d   1       2.149  -1.809  -9.638  0.00  0.00     0.000 C 
ATOM     21  H   LIG d   1       1.074  -1.587  -9.566  0.00  0.00     0.043 H 
ATOM     22  H   LIG d   1       2.287  -2.867  -9.899  0.00  0.00     0.043 H 
ATOM     23  H   LIG d   1       2.602  -1.177 -10.415  0.00  0.00     0.043 H 
ENDBRANCH  18  20
ENDBRANCH  13  16
ENDBRANCH   8  13
BRANCH   1  24
ATOM     24  C   LIG d   1       6.339  -0.706  -8.063  0.00  0.00    -0.043 C 
ATOM     25  H   LIG d   1       5.504  -1.093  -8.665  0.00  0.00     0.027 H 
ATOM     26  H   LIG d   1       7.217  -1.355  -8.194  0.00  0.00     0.027 H 
ATOM     27  H   LIG d   1       6.586   0.315  -8.391  0.00  0.00     0.027 H 
ENDBRANCH   1  24
BRANCH   5  28
ATOM     28  C   LIG d   1       4.847  -0.475  -2.478  0.00  0.00    -0.043 C 
ATOM     29  H   LIG d   1       5.816  -0.542  -1.962  0.00  0.00     0.030 H 
BRANCH  28  30
ATOM     30  C   LIG d   1       4.062  -1.770  -2.259  0.00  0.00    -0.062 C 
ATOM     31  H   LIG d   1       3.427  -1.667  -1.367  0.00  0.00     0.023 H 
ATOM     32  H   LIG d   1       4.765  -2.605  -2.113  0.00  0.00     0.023 H 
ATOM     33  H   LIG d   1       3.432  -1.971  -3.137  0.00  0.00     0.023 H 
ENDBRANCH  28  30
BRANCH  28  34
ATOM     34  C   LIG d   1       4.050   0.704  -1.917  0.00  0.00    -0.062 C 
ATOM     35  H   LIG d   1       4.127   1.559  -2.605  0.00  0.00     0.023 H 
ATOM     36  H   LIG d   1       4.455   0.986  -0.934  0.00  0.00     0.023 H 
ATOM     37  H   LIG d   1       2.994   0.414  -1.808  0.00  0.00     0.023 H 
ENDBRANCH  28  34
ENDBRANCH   5  28
BRANCH   3  38
ATOM     38  C   LIG d   1       7.177   1.059  -3.708  0.00  0.00     0.051 C 
ATOM     39  H   LIG d   1       6.824   1.912  -4.307  0.00  0.00     0.056 H 
ATOM     40  H   LIG d   1       6.860   1.189  -2.663  0.00  0.00     0.056 H 
BRANCH  38  41
ATOM     41  O   LIG d   1       8.602   0.992  -3.768  0.00  0.00    -0.394 OA
ATOM     42  H   LIG d   1       9.137   0.181  -3.251  0.00  0.00     0.209 HD
ENDBRANCH  38  41
ENDBRANCH   3  38
TORSDOF 9
ENDMDL
MODEL 4
REMARK VINA RESULT:      -4.7      6.355      7.618
REMARK  9 active torsions:
REMARK  status: ('A' for Active; 'I' for Inactive)
REMARK    1  A    between atoms: C_1  and  C_2 
REMARK    2  A    between atoms: C_4  and  C_19 
REMARK    3  A    between atoms: C_6  and  C_16 
REMARK    4  A    between atoms: C_9  and  C_11 
REMARK    5  A    between atoms: C_11  and  C_12 
REMARK       I    between atoms: C_12  and  N_14 
REMARK    6  A    between atoms: N_14  and  C_15 
REMARK    7  A    between atoms: C_16  and  C_17 
REMARK    8  A    between atoms: C_16  and  C_18 
REMARK    9  A    between atoms: C_19  and  O_20 
ROOT
ATOM      1  C   LIG d   1       5.047  -1.663  -3.198  0.00  0.00    -0.073 C 
ATOM      2  C   LIG d   1       4.542  -2.747  -3.692  0.00  0.00    -0.079 C 
ATOM      3  C   LIG d   1       5.319  -3.747  -4.496  0.00  0.00     0.004 C 
ATOM      4  H   LIG d   1       5.549  -4.603  -3.845  0.00  0.00     0.037 H 
ATOM      5  C   LIG d   1       6.621  -3.122  -5.000  0.00  0.00    -0.030 C 
ATOM      6  H   LIG d   1       6.406  -2.383  -5.785  0.00  0.00     0.031 H 
ATOM      7  C   LIG d   1       7.325  -2.446  -3.815  0.00  0.00    -0.042 C 
ATOM      8  C   LIG d   1       6.480  -1.249  -3.370  0.00  0.00    -0.012 C 
ATOM      9  H   LIG d   1       6.846  -0.881  -2.400  0.00  0.00     0.035 H 
ATOM     10  H   LIG d   1       3.479  -2.980  -3.531  0.00  0.00     0.058 H 
ATOM     11  H   LIG d   1       7.423  -3.165  -2.988  0.00  0.00     0.027 H 
ATOM     12  H   LIG d   1       8.323  -2.106  -4.125  0.00  0.00     0.027 H 
ENDROOT
BRANCH   8  13
ATOM     13  C   LIG d   1       6.567  -0.147  -4.427  0.00  0.00     0.030 C 
ATOM     14  H   LIG d   1       7.103  -0.526  -5.309  0.00  0.00     0.036 H 
ATOM     15  H   LIG d   1       5.552   0.163  -4.718  0.00  0.00     0.036 H 
BRANCH  13  16
ATOM     16  C   LIG d   1       7.309   1.036  -3.859  0.00  0.00     0.213 C 
ATOM     17  O   LIG d   1       6.702   1.907  -3.272  0.00  0.00    -0.276 OA
ATOM     18  N   LIG d   1       8.645   1.127  -4.004  0.00  0.00    -0.318 N 
ATOM     19  H   LIG d   1       9.195   0.337  -4.536  0.00  0.00     0.148 HD
BRANCH  18  20
ATOM     20  C   LIG d   1       9.365   2.277  -3.452  0.00  0.00     0.000 C 
ATOM     21  H   LIG d   1      10.446   2.140  -3.604  0.00  0.00     0.043 H 
ATOM     22  H   LIG d   1       9.155   2.359  -2.376  0.00  0.00     0.043 H 
ATOM     23  H   LIG d   1       9.037   3.195  -3.961  0.00  0.00     0.043 H 
ENDBRANCH  18  20
ENDBRANCH  13  16
ENDBRANCH   8  13
BRANCH   1  24
ATOM     24  C   LIG d   1       4.143  -0.759  -2.401  0.00  0.00    -0.043 C 
ATOM     25  H   LIG d   1       3.239  -0.536  -2.988  0.00  0.00     0.027 H 
ATOM     26  H   LIG d   1       4.670   0.178  -2.171  0.00  0.00     0.027 H 
ATOM     27  H   LIG d   1       3.858  -1.259  -1.464  0.00  0.00     0.027 H 
ENDBRANCH   1  24
BRANCH   5  28
ATOM     28  C   LIG d   1       7.525  -4.211  -5.580  0.00  0.00    -0.043 C 
ATOM     29  H   LIG d   1       6.908  -5.047  -5.940  0.00  0.00     0.030 H 
BRANCH  28  30
ATOM     30  C   LIG d   1       8.481  -4.712  -4.495  0.00  0.00    -0.062 C 
ATOM     31  H   LIG d   1       7.940  -5.386  -3.814  0.00  0.00     0.023 H 
ATOM     32  H   LIG d   1       8.873  -3.855  -3.927  0.00  0.00     0.023 H 
ATOM     33  H   LIG d   1       9.315  -5.255  -4.962  0.00  0.00     0.023 H 
ENDBRANCH  28  30
BRANCH  28  34
ATOM     34  C   LIG d   1       8.334  -3.636  -6.745  0.00  0.00    -0.062 C 
ATOM     35  H   LIG d   1       7.648  -3.279  -7.527  0.00  0.00     0.023 H 
ATOM     36  H   LIG d   1       8.988  -4.418  -7.159  0.00  0.00     0.023 H 
ATOM     37  H   LIG d   1       8.949  -2.798  -6.384  0.00  0.00     0.023 H 
ENDBRANCH  28  34
ENDBRANCH   5  28
BRANCH   3  38
ATOM     38  C   LIG d   1       4.479  -4.199  -5.693  0.00  0.00     0.051 C 
ATOM     39  H   LIG d   1       3.679  -3.467  -5.877  0.00  0.00     0.056 H 
ATOM     40  H   LIG d   1       5.120  -4.275  -6.584  0.00  0.00     0.056 H 
BRANCH  38  41
ATOM     41  O   LIG d   1       3.901  -5.475  -5.413  0.00  0.00    -0.394 OA
ATOM     42  H   LIG d   1       2.852  -5.674  -5.680  0.00  0.00     0.209 HD
ENDBRANCH  38  41
ENDBRANCH   3  38
TORSDOF 9
ENDMDL
MODEL 5
REMARK VINA RESULT:      -4.7      5.154      7.786
REMARK  9 active torsions:
REMARK  status: ('A' for Active; 'I' for Inactive)
REMARK    1  A    between atoms: C_1  and  C_2 
REMARK    2  A    between atoms: C_4  and  C_19 
REMARK    3  A    between atoms: C_6  and  C_16 
REMARK    4  A    between atoms: C_9  and  C_11 
REMARK    5  A    between atoms: C_11  and  C_12 
REMARK       I    between atoms: C_12  and  N_14 
REMARK    6  A    between atoms: N_14  and  C_15 
REMARK    7  A    between atoms: C_16  and  C_17 
REMARK    8  A    between atoms: C_16  and  C_18 
REMARK    9  A    between atoms: C_19  and  O_20 
ROOT
ATOM      1  C   LIG d   1       7.469  -1.086  -5.486  0.00  0.00    -0.073 C 
ATOM      2  C   LIG d   1       6.420  -0.425  -5.856  0.00  0.00    -0.079 C 
ATOM      3  C   LIG d   1       5.185  -0.270  -5.018  0.00  0.00     0.004 C 
ATOM      4  H   LIG d   1       5.197   0.738  -4.578  0.00  0.00     0.037 H 
ATOM      5  C   LIG d   1       5.169  -1.317  -3.902  0.00  0.00    -0.030 C 
ATOM      6  H   LIG d   1       4.980  -2.315  -4.324  0.00  0.00     0.031 H 
ATOM      7  C   LIG d   1       6.530  -1.291  -3.194  0.00  0.00    -0.042 C 
ATOM      8  C   LIG d   1       7.594  -1.797  -4.171  0.00  0.00    -0.012 C 
ATOM      9  H   LIG d   1       8.595  -1.589  -3.766  0.00  0.00     0.035 H 
ATOM     10  H   LIG d   1       6.397   0.065  -6.840  0.00  0.00     0.058 H 
ATOM     11  H   LIG d   1       6.763  -0.260  -2.886  0.00  0.00     0.027 H 
ATOM     12  H   LIG d   1       6.495  -1.939  -2.307  0.00  0.00     0.027 H 
ENDROOT
BRANCH   8  13
ATOM     13  C   LIG d   1       7.408  -3.300  -4.387  0.00  0.00     0.030 C 
ATOM     14  H   LIG d   1       6.559  -3.656  -3.784  0.00  0.00     0.036 H 
ATOM     15  H   LIG d   1       7.209  -3.496  -5.451  0.00  0.00     0.036 H 
BRANCH  13  16
ATOM     16  C   LIG d   1       8.660  -4.027  -3.968  0.00  0.00     0.213 C 
ATOM     17  O   LIG d   1       8.727  -5.233  -4.081  0.00  0.00    -0.276 OA
ATOM     18  N   LIG d   1       9.705  -3.338  -3.469  0.00  0.00    -0.318 N 
ATOM     19  H   LIG d   1       9.644  -2.244  -3.368  0.00  0.00     0.148 HD
BRANCH  18  20
ATOM     20  C   LIG d   1      10.922  -4.046  -3.063  0.00  0.00     0.000 C 
ATOM     21  H   LIG d   1      10.759  -4.520  -2.084  0.00  0.00     0.043 H 
ATOM     22  H   LIG d   1      11.754  -3.332  -2.990  0.00  0.00     0.043 H 
ATOM     23  H   LIG d   1      11.164  -4.816  -3.808  0.00  0.00     0.043 H 
ENDBRANCH  18  20
ENDBRANCH  13  16
ENDBRANCH   8  13
BRANCH   1  24
ATOM     24  C   LIG d   1       8.639  -1.145  -6.434  0.00  0.00    -0.043 C 
ATOM     25  H   LIG d   1       8.325  -1.624  -7.374  0.00  0.00     0.027 H 
ATOM     26  H   LIG d   1       9.451  -1.728  -5.979  0.00  0.00     0.027 H 
ATOM     27  H   LIG d   1       8.993  -0.124  -6.643  0.00  0.00     0.027 H 
ENDBRANCH   1  24
BRANCH   5  28
ATOM     28  C   LIG d   1       4.062  -0.985  -2.900  0.00  0.00    -0.043 C 
ATOM     29  H   LIG d   1       3.185  -0.596  -3.438  0.00  0.00     0.030 H 
BRANCH  28  30
ATOM     30  C   LIG d   1       4.566   0.071  -1.914  0.00  0.00    -0.062 C 
ATOM     31  H   LIG d   1       3.727   0.429  -1.300  0.00  0.00     0.023 H 
ATOM     32  H   LIG d   1       4.998   0.916  -2.472  0.00  0.00     0.023 H 
ATOM     33  H   LIG d   1       5.334  -0.371  -1.264  0.00  0.00     0.023 H 
ENDBRANCH  28  30
BRANCH  28  34
ATOM     34  C   LIG d   1       3.670  -2.251  -2.135  0.00  0.00    -0.062 C 
ATOM     35  H   LIG d   1       2.595  -2.222  -1.905  0.00  0.00     0.023 H 
ATOM     36  H   LIG d   1       4.244  -2.305  -1.198  0.00  0.00     0.023 H 
ATOM     37  H   LIG d   1       3.890  -3.135  -2.752  0.00  0.00     0.023 H 
ENDBRANCH  28  34
ENDBRANCH   5  28
BRANCH   3  38
ATOM     38  C   LIG d   1       3.947  -0.451  -5.899  0.00  0.00     0.051 C 
ATOM     39  H   LIG d   1       4.260  -0.643  -6.936  0.00  0.00     0.056 H 
ATOM     40  H   LIG d   1       3.355  -1.302  -5.531  0.00  0.00     0.056 H 
BRANCH  38  41
ATOM     41  O   LIG d   1       3.152   0.736  -5.853  0.00  0.00    -0.394 OA
ATOM     42  H   LIG d   1       3.579   1.696  -6.179  0.00  0.00     0.209 HD
ENDBRANCH  38  41
ENDBRANCH   3  38
TORSDOF 9
ENDMDL
MODEL 6
REMARK VINA RESULT:      -4.5      3.539      6.990
REMARK  9 active torsions:
REMARK  status: ('A' for Active; 'I' for Inactive)
REMARK    1  A    between atoms: C_1  and  C_2 
REMARK    2  A    between atoms: C_4  and  C_19 
REMARK    3  A    between atoms: C_6  and  C_16 
REMARK    4  A    between atoms: C_9  and  C_11 
REMARK    5  A    between atoms: C_11  and  C_12 
REMARK       I    between atoms: C_12  and  N_14 
REMARK    6  A    between atoms: N_14  and  C_15 
REMARK    7  A    between atoms: C_16  and  C_17 
REMARK    8  A    between atoms: C_16  and  C_18 
REMARK    9  A    between atoms: C_19  and  O_20 
ROOT
ATOM      1  C   LIG d   1       5.813  -2.550  -6.532  0.00  0.00    -0.073 C 
ATOM      2  C   LIG d   1       6.604  -2.966  -5.596  0.00  0.00    -0.079 C 
ATOM      3  C   LIG d   1       6.398  -2.687  -4.136  0.00  0.00     0.004 C 
ATOM      4  H   LIG d   1       5.987  -3.595  -3.670  0.00  0.00     0.037 H 
ATOM      5  C   LIG d   1       5.416  -1.528  -3.954  0.00  0.00    -0.030 C 
ATOM      6  H   LIG d   1       5.888  -0.582  -4.257  0.00  0.00     0.031 H 
ATOM      7  C   LIG d   1       4.177  -1.801  -4.817  0.00  0.00    -0.042 C 
ATOM      8  C   LIG d   1       4.587  -1.720  -6.289  0.00  0.00    -0.012 C 
ATOM      9  H   LIG d   1       3.777  -2.118  -6.919  0.00  0.00     0.035 H 
ATOM     10  H   LIG d   1       7.490  -3.565  -5.851  0.00  0.00     0.058 H 
ATOM     11  H   LIG d   1       3.787  -2.805  -4.590  0.00  0.00     0.027 H 
ATOM     12  H   LIG d   1       3.405  -1.050  -4.599  0.00  0.00     0.027 H 
ENDROOT
BRANCH   8  13
ATOM     13  C   LIG d   1       4.878  -0.263  -6.654  0.00  0.00     0.030 C 
ATOM     14  H   LIG d   1       4.929   0.342  -5.737  0.00  0.00     0.036 H 
ATOM     15  H   LIG d   1       5.840  -0.204  -7.186  0.00  0.00     0.036 H 
BRANCH  13  16
ATOM     16  C   LIG d   1       3.781   0.262  -7.543  0.00  0.00     0.213 C 
ATOM     17  O   LIG d   1       2.778  -0.396  -7.721  0.00  0.00    -0.276 OA
ATOM     18  N   LIG d   1       3.914   1.463  -8.140  0.00  0.00    -0.318 N 
ATOM     19  H   LIG d   1       4.823   2.060  -7.978  0.00  0.00     0.148 HD
BRANCH  18  20
ATOM     20  C   LIG d   1       2.846   1.973  -9.003  0.00  0.00     0.000 C 
ATOM     21  H   LIG d   1       1.953   1.341  -8.893  0.00  0.00     0.043 H 
ATOM     22  H   LIG d   1       3.181   1.954 -10.051  0.00  0.00     0.043 H 
ATOM     23  H   LIG d   1       2.602   3.006  -8.716  0.00  0.00     0.043 H 
ENDBRANCH  18  20
ENDBRANCH  13  16
ENDBRANCH   8  13
BRANCH   1  24
ATOM     24  C   LIG d   1       6.145  -2.920  -7.954  0.00  0.00    -0.043 C 
ATOM     25  H   LIG d   1       6.970  -3.648  -7.961  0.00  0.00     0.027 H 
ATOM     26  H   LIG d   1       6.447  -2.020  -8.508  0.00  0.00     0.027 H 
ATOM     27  H   LIG d   1       5.260  -3.365  -8.434  0.00  0.00     0.027 H 
ENDBRANCH   1  24
BRANCH   5  28
ATOM     28  C   LIG d   1       5.006  -1.426  -2.483  0.00  0.00    -0.043 C 
ATOM     29  H   LIG d   1       5.797  -1.857  -1.851  0.00  0.00     0.030 H 
BRANCH  28  30
ATOM     30  C   LIG d   1       3.702  -2.197  -2.264  0.00  0.00    -0.062 C 
ATOM     31  H   LIG d   1       3.453  -2.763  -3.173  0.00  0.00     0.023 H 
ATOM     32  H   LIG d   1       2.890  -1.487  -2.042  0.00  0.00     0.023 H 
ATOM     33  H   LIG d   1       3.822  -2.891  -1.420  0.00  0.00     0.023 H 
ENDBRANCH  28  30
BRANCH  28  34
ATOM     34  C   LIG d   1       4.798   0.043  -2.111  0.00  0.00    -0.062 C 
ATOM     35  H   LIG d   1       4.268   0.556  -2.926  0.00  0.00     0.023 H 
ATOM     36  H   LIG d   1       5.775   0.522  -1.949  0.00  0.00     0.023 H 
ATOM     37  H   LIG d   1       4.202   0.105  -1.188  0.00  0.00     0.023 H 
ENDBRANCH  28  34
ENDBRANCH   5  28
BRANCH   3  38
ATOM     38  C   LIG d   1       7.739  -2.320  -3.496  0.00  0.00     0.051 C 
ATOM     39  H   LIG d   1       7.623  -2.275  -2.403  0.00  0.00     0.056 H 
ATOM     40  H   LIG d   1       8.490  -3.079  -3.755  0.00  0.00     0.056 H 
BRANCH  38  41
ATOM     41  O   LIG d   1       8.164  -1.045  -3.982  0.00  0.00    -0.394 OA
ATOM     42  H   LIG d   1       7.933  -0.746  -5.015  0.00  0.00     0.209 HD
ENDBRANCH  38  41
ENDBRANCH   3  38
TORSDOF 9
ENDMDL
MODEL 7
REMARK VINA RESULT:      -4.5     10.562     13.147
REMARK  9 active torsions:
REMARK  status: ('A' for Active; 'I' for Inactive)
REMARK    1  A    between atoms: C_1  and  C_2 
REMARK    2  A    between atoms: C_4  and  C_19 
REMARK    3  A    between atoms: C_6  and  C_16 
REMARK    4  A    between atoms: C_9  and  C_11 
REMARK    5  A    between atoms: C_11  and  C_12 
REMARK       I    between atoms: C_12  and  N_14 
REMARK    6  A    between atoms: N_14  and  C_15 
REMARK    7  A    between atoms: C_16  and  C_17 
REMARK    8  A    between atoms: C_16  and  C_18 
REMARK    9  A    between atoms: C_19  and  O_20 
ROOT
ATOM      1  C   LIG d   1      10.251   6.601  -3.601  0.00  0.00    -0.073 C 
ATOM      2  C   LIG d   1       9.938   7.728  -3.048  0.00  0.00    -0.079 C 
ATOM      3  C   LIG d   1      10.201   8.061  -1.608  0.00  0.00     0.004 C 
ATOM      4  H   LIG d   1      11.082   8.719  -1.566  0.00  0.00     0.037 H 
ATOM      5  C   LIG d   1      10.478   6.783  -0.814  0.00  0.00    -0.030 C 
ATOM      6  H   LIG d   1       9.552   6.201  -0.701  0.00  0.00     0.031 H 
ATOM      7  C   LIG d   1      11.531   5.961  -1.569  0.00  0.00    -0.042 C 
ATOM      8  C   LIG d   1      10.911   5.464  -2.877  0.00  0.00    -0.012 C 
ATOM      9  H   LIG d   1      11.699   5.059  -3.528  0.00  0.00     0.035 H 
ATOM     10  H   LIG d   1       9.448   8.514  -3.641  0.00  0.00     0.058 H 
ATOM     11  H   LIG d   1      12.405   6.594  -1.784  0.00  0.00     0.027 H 
ATOM     12  H   LIG d   1      11.841   5.106  -0.951  0.00  0.00     0.027 H 
ENDROOT
BRANCH   8  13
ATOM     13  C   LIG d   1       9.870   4.387  -2.566  0.00  0.00     0.030 C 
ATOM     14  H   LIG d   1       9.715   4.328  -1.479  0.00  0.00     0.036 H 
ATOM     15  H   LIG d   1       8.919   4.642  -3.059  0.00  0.00     0.036 H 
BRANCH  13  16
ATOM     16  C   LIG d   1      10.356   3.055  -3.077  0.00  0.00     0.213 C 
ATOM     17  O   LIG d   1       9.559   2.220  -3.447  0.00  0.00    -0.276 OA
ATOM     18  N   LIG d   1      11.677   2.792  -3.121  0.00  0.00    -0.318 N 
ATOM     19  H   LIG d   1      12.401   3.550  -2.786  0.00  0.00     0.148 HD
BRANCH  18  20
ATOM     20  C   LIG d   1      12.149   1.497  -3.618  0.00  0.00     0.000 C 
ATOM     21  H   LIG d   1      12.085   1.481  -4.716  0.00  0.00     0.043 H 
ATOM     22  H   LIG d   1      11.523   0.695  -3.203  0.00  0.00     0.043 H 
ATOM     23  H   LIG d   1      13.193   1.344  -3.310  0.00  0.00     0.043 H 
ENDBRANCH  18  20
ENDBRANCH  13  16
ENDBRANCH   8  13
BRANCH   1  24
ATOM     24  C   LIG d   1       9.932   6.417  -5.062  0.00  0.00    -0.043 C 
ATOM     25  H   LIG d   1       8.870   6.154  -5.175  0.00  0.00     0.027 H 
ATOM     26  H   LIG d   1      10.555   5.611  -5.475  0.00  0.00     0.027 H 
ATOM     27  H   LIG d   1      10.138   7.353  -5.603  0.00  0.00     0.027 H 
ENDBRANCH   1  24
BRANCH   5  28
ATOM     28  C   LIG d   1      11.007   7.144   0.576  0.00  0.00    -0.043 C 
ATOM     29  H   LIG d   1      10.319   7.856   1.056  0.00  0.00     0.030 H 
BRANCH  28  30
ATOM     30  C   LIG d   1      12.392   7.782   0.444  0.00  0.00    -0.062 C 
ATOM     31  H   LIG d   1      12.436   8.692   1.060  0.00  0.00     0.023 H 
ATOM     32  H   LIG d   1      12.575   8.045  -0.610  0.00  0.00     0.023 H 
ATOM     33  H   LIG d   1      13.158   7.071   0.783  0.00  0.00     0.023 H 
ENDBRANCH  28  30
BRANCH  28  34
ATOM     34  C   LIG d   1      11.109   5.878   1.428  0.00  0.00    -0.062 C 
ATOM     35  H   LIG d   1      10.608   5.047   0.912  0.00  0.00     0.023 H 
ATOM     36  H   LIG d   1      10.625   6.051   2.401  0.00  0.00     0.023 H 
ATOM     37  H   LIG d   1      12.169   5.628   1.586  0.00  0.00     0.023 H 
ENDBRANCH  28  34
ENDBRANCH   5  28
BRANCH   3  38
ATOM     38  C   LIG d   1       8.979   8.768  -1.019  0.00  0.00     0.051 C 
ATOM     39  H   LIG d   1       9.200   9.085   0.011  0.00  0.00     0.056 H 
ATOM     40  H   LIG d   1       8.735   9.650  -1.630  0.00  0.00     0.056 H 
BRANCH  38  41
ATOM     41  O   LIG d   1       7.868   7.871  -1.013  0.00  0.00    -0.394 OA
ATOM     42  H   LIG d   1       7.903   6.955  -0.403  0.00  0.00     0.209 HD
ENDBRANCH  38  41
ENDBRANCH   3  38
TORSDOF 9
ENDMDL
MODEL 8
REMARK VINA RESULT:      -4.4      5.634      6.902
REMARK  9 active torsions:
REMARK  status: ('A' for Active; 'I' for Inactive)
REMARK    1  A    between atoms: C_1  and  C_2 
REMARK    2  A    between atoms: C_4  and  C_19 
REMARK    3  A    between atoms: C_6  and  C_16 
REMARK    4  A    between atoms: C_9  and  C_11 
REMARK    5  A    between atoms: C_11  and  C_12 
REMARK       I    between atoms: C_12  and  N_14 
REMARK    6  A    between atoms: N_14  and  C_15 
REMARK    7  A    between atoms: C_16  and  C_17 
REMARK    8  A    between atoms: C_16  and  C_18 
REMARK    9  A    between atoms: C_19  and  O_20 
ROOT
ATOM      1  C   LIG d   1       6.586  -1.045  -6.475  0.00  0.00    -0.073 C 
ATOM      2  C   LIG d   1       5.848  -2.106  -6.549  0.00  0.00    -0.079 C 
ATOM      3  C   LIG d   1       4.791  -2.468  -5.547  0.00  0.00     0.004 C 
ATOM      4  H   LIG d   1       3.812  -2.218  -5.980  0.00  0.00     0.037 H 
ATOM      5  C   LIG d   1       4.997  -1.674  -4.254  0.00  0.00    -0.030 C 
ATOM      6  H   LIG d   1       5.886  -2.042  -3.723  0.00  0.00     0.031 H 
ATOM      7  C   LIG d   1       5.171  -0.193  -4.617  0.00  0.00    -0.042 C 
ATOM      8  C   LIG d   1       6.493  -0.033  -5.371  0.00  0.00    -0.012 C 
ATOM      9  H   LIG d   1       6.540   0.969  -5.824  0.00  0.00     0.035 H 
ATOM     10  H   LIG d   1       5.978  -2.808  -7.385  0.00  0.00     0.058 H 
ATOM     11  H   LIG d   1       4.334   0.129  -5.253  0.00  0.00     0.027 H 
ATOM     12  H   LIG d   1       5.187   0.410  -3.698  0.00  0.00     0.027 H 
ENDROOT
BRANCH   8  13
ATOM     13  C   LIG d   1       7.658  -0.233  -4.400  0.00  0.00     0.030 C 
ATOM     14  H   LIG d   1       7.334  -0.871  -3.565  0.00  0.00     0.036 H 
ATOM     15  H   LIG d   1       8.496  -0.715  -4.926  0.00  0.00     0.036 H 
BRANCH  13  16
ATOM     16  C   LIG d   1       8.104   1.104  -3.867  0.00  0.00     0.213 C 
ATOM     17  O   LIG d   1       7.286   1.884  -3.426  0.00  0.00    -0.276 OA
ATOM     18  N   LIG d   1       9.411   1.433  -3.879  0.00  0.00    -0.318 N 
ATOM     19  H   LIG d   1      10.152   0.725  -4.279  0.00  0.00     0.148 HD
BRANCH  18  20
ATOM     20  C   LIG d   1       9.843   2.733  -3.360  0.00  0.00     0.000 C 
ATOM     21  H   LIG d   1       9.822   2.713  -2.261  0.00  0.00     0.043 H 
ATOM     22  H   LIG d   1       9.165   3.518  -3.725  0.00  0.00     0.043 H 
ATOM     23  H   LIG d   1      10.866   2.944  -3.703  0.00  0.00     0.043 H 
ENDBRANCH  18  20
ENDBRANCH  13  16
ENDBRANCH   8  13
BRANCH   1  24
ATOM     24  C   LIG d   1       7.599  -0.811  -7.565  0.00  0.00    -0.043 C 
ATOM     25  H   LIG d   1       8.255   0.026  -7.282  0.00  0.00     0.027 H 
ATOM     26  H   LIG d   1       7.080  -0.568  -8.503  0.00  0.00     0.027 H 
ATOM     27  H   LIG d   1       8.204  -1.719  -7.705  0.00  0.00     0.027 H 
ENDBRANCH   1  24
BRANCH   5  28
ATOM     28  C   LIG d   1       3.776  -1.841  -3.348  0.00  0.00    -0.043 C 
ATOM     29  H   LIG d   1       3.307  -2.818  -3.540  0.00  0.00     0.030 H 
BRANCH  28  30
ATOM     30  C   LIG d   1       2.769  -0.726  -3.639  0.00  0.00    -0.062 C 
ATOM     31  H   LIG d   1       2.411  -0.817  -4.676  0.00  0.00     0.023 H 
ATOM     32  H   LIG d   1       3.256   0.252  -3.504  0.00  0.00     0.023 H 
ATOM     33  H   LIG d   1       1.917  -0.810  -2.949  0.00  0.00     0.023 H 
ENDBRANCH  28  30
BRANCH  28  34
ATOM     34  C   LIG d   1       4.212  -1.763  -1.884  0.00  0.00    -0.062 C 
ATOM     35  H   LIG d   1       3.809  -0.847  -1.430  0.00  0.00     0.023 H 
ATOM     36  H   LIG d   1       5.310  -1.748  -1.828  0.00  0.00     0.023 H 
ATOM     37  H   LIG d   1       3.829  -2.641  -1.341  0.00  0.00     0.023 H 
ENDBRANCH  28  34
ENDBRANCH   5  28
BRANCH   3  38
ATOM     38  C   LIG d   1       4.873  -3.965  -5.240  0.00  0.00     0.051 C 
ATOM     39  H   LIG d   1       5.782  -4.383  -5.697  0.00  0.00     0.056 H 
ATOM     40  H   LIG d   1       4.906  -4.115  -4.151  0.00  0.00     0.056 H 
BRANCH  38  41
ATOM     41  O   LIG d   1       3.724  -4.623  -5.777  0.00  0.00    -0.394 OA
ATOM     42  H   LIG d   1       2.752  -4.107  -5.794  0.00  0.00     0.209 HD
ENDBRANCH  38  41
ENDBRANCH   3  38
TORSDOF 9
ENDMDL
MODEL 9
REMARK VINA RESULT:      -4.3      4.046      7.492
REMARK  9 active torsions:
REMARK  status: ('A' for Active; 'I' for Inactive)
REMARK    1  A    between atoms: C_1  and  C_2 
REMARK    2  A    between atoms: C_4  and  C_19 
REMARK    3  A    between atoms: C_6  and  C_16 
REMARK    4  A    between atoms: C_9  and  C_11 
REMARK    5  A    between atoms: C_11  and  C_12 
REMARK       I    between atoms: C_12  and  N_14 
REMARK    6  A    between atoms: N_14  and  C_15 
REMARK    7  A    between atoms: C_16  and  C_17 
REMARK    8  A    between atoms: C_16  and  C_18 
REMARK    9  A    between atoms: C_19  and  O_20 
ROOT
ATOM      1  C   LIG d   1       4.746  -1.501  -3.083  0.00  0.00    -0.073 C 
ATOM      2  C   LIG d   1       5.925  -2.003  -2.895  0.00  0.00    -0.079 C 
ATOM      3  C   LIG d   1       7.178  -1.462  -3.519  0.00  0.00     0.004 C 
ATOM      4  H   LIG d   1       7.718  -0.885  -2.753  0.00  0.00     0.037 H 
ATOM      5  C   LIG d   1       6.830  -0.549  -4.697  0.00  0.00    -0.030 C 
ATOM      6  H   LIG d   1       6.450  -1.147  -5.538  0.00  0.00     0.031 H 
ATOM      7  C   LIG d   1       5.763   0.453  -4.235  0.00  0.00    -0.042 C 
ATOM      8  C   LIG d   1       4.468  -0.314  -3.957  0.00  0.00    -0.012 C 
ATOM      9  H   LIG d   1       3.759   0.340  -3.427  0.00  0.00     0.035 H 
ATOM     10  H   LIG d   1       6.051  -2.880  -2.245  0.00  0.00     0.058 H 
ATOM     11  H   LIG d   1       6.106   0.957  -3.319  0.00  0.00     0.027 H 
ATOM     12  H   LIG d   1       5.596   1.200  -5.024  0.00  0.00     0.027 H 
ENDROOT
BRANCH   8  13
ATOM     13  C   LIG d   1       3.866  -0.788  -5.281  0.00  0.00     0.030 C 
ATOM     14  H   LIG d   1       4.651  -1.257  -5.894  0.00  0.00     0.036 H 
ATOM     15  H   LIG d   1       3.071  -1.522  -5.080  0.00  0.00     0.036 H 
BRANCH  13  16
ATOM     16  C   LIG d   1       3.287   0.389  -6.022  0.00  0.00     0.213 C 
ATOM     17  O   LIG d   1       2.628   1.215  -5.426  0.00  0.00    -0.276 OA
ATOM     18  N   LIG d   1       3.502   0.525  -7.345  0.00  0.00    -0.318 N 
ATOM     19  H   LIG d   1       4.100  -0.224  -7.885  0.00  0.00     0.148 HD
BRANCH  18  20
ATOM     20  C   LIG d   1       2.939   1.671  -8.064  0.00  0.00     0.000 C 
ATOM     21  H   LIG d   1       3.461   2.589  -7.756  0.00  0.00     0.043 H 
ATOM     22  H   LIG d   1       1.869   1.761  -7.829  0.00  0.00     0.043 H 
ATOM     23  H   LIG d   1       3.065   1.523  -9.146  0.00  0.00     0.043 H 
ENDBRANCH  18  20
ENDBRANCH  13  16
ENDBRANCH   8  13
BRANCH   1  24
ATOM     24  C   LIG d   1       3.582  -2.147  -2.378  0.00  0.00    -0.043 C 
ATOM     25  H   LIG d   1       3.749  -2.118  -1.291  0.00  0.00     0.027 H 
ATOM     26  H   LIG d   1       3.489  -3.193  -2.706  0.00  0.00     0.027 H 
ATOM     27  H   LIG d   1       2.657  -1.603  -2.623  0.00  0.00     0.027 H 
ENDBRANCH   1  24
BRANCH   5  28
ATOM     28  C   LIG d   1       8.081   0.205  -5.151  0.00  0.00    -0.043 C 
ATOM     29  H   LIG d   1       8.935  -0.489  -5.187  0.00  0.00     0.030 H 
BRANCH  28  30
ATOM     30  C   LIG d   1       8.383   1.334  -4.164  0.00  0.00    -0.062 C 
ATOM     31  H   LIG d   1       8.781   2.202  -4.710  0.00  0.00     0.023 H 
ATOM     32  H   LIG d   1       9.128   0.990  -3.430  0.00  0.00     0.023 H 
ATOM     33  H   LIG d   1       7.459   1.622  -3.641  0.00  0.00     0.023 H 
ENDBRANCH  28  30
BRANCH  28  34
ATOM     34  C   LIG d   1       7.845   0.795  -6.543  0.00  0.00    -0.062 C 
ATOM     35  H   LIG d   1       8.806   1.105  -6.977  0.00  0.00     0.023 H 
ATOM     36  H   LIG d   1       7.179   1.667  -6.463  0.00  0.00     0.023 H 
ATOM     37  H   LIG d   1       7.378   0.035  -7.188  0.00  0.00     0.023 H 
ENDBRANCH  28  34
ENDBRANCH   5  28
BRANCH   3  38
ATOM     38  C   LIG d   1       8.040  -2.624  -4.016  0.00  0.00     0.051 C 
ATOM     39  H   LIG d   1       7.390  -3.418  -4.414  0.00  0.00     0.056 H 
ATOM     40  H   LIG d   1       8.713  -2.269  -4.810  0.00  0.00     0.056 H 
BRANCH  38  41
ATOM     41  O   LIG d   1       8.813  -3.141  -2.932  0.00  0.00    -0.394 OA
ATOM     42  H   LIG d   1       9.511  -2.483  -2.392  0.00  0.00     0.209 HD
ENDBRANCH  38  41
ENDBRANCH   3  38
TORSDOF 9
ENDMDL
