MODEL 1
REMARK VINA RESULT:      -5.8      0.000      0.000
REMARK  6 active torsions:
REMARK  status: ('A' for Active; 'I' for Inactive)
REMARK    1  A    between atoms: C_1  and  C_2 
REMARK    2  A    between atoms: N_8  and  O_9 
REMARK    3  A    between atoms: C_17  and  O_26 
REMARK    4  A    between atoms: C_19  and  O_24 
REMARK    5  A    between atoms: O_24  and  C_25 
REMARK    6  A    between atoms: O_26  and  C_27 
ROOT
ATOM      1  C   LIG d   1       7.505  -2.230  -4.872  0.00  0.00     0.101 C 
ATOM      2  H   LIG d   1       8.257  -3.012  -4.665  0.00  0.00     0.073 H 
ATOM      3  C   LIG d   1       6.385  -2.371  -3.851  0.00  0.00    -0.016 C 
ATOM      4  C   LIG d   1       6.030  -1.050  -3.179  0.00  0.00    -0.044 C 
ATOM      5  C   LIG d   1       4.748  -1.235  -2.355  0.00  0.00    -0.011 C 
ATOM      6  C   LIG d   1       3.758  -0.162  -2.728  0.00  0.00     0.058 C 
ATOM      7  N   LIG d   1       3.775   0.966  -2.124  0.00  0.00    -0.097 NA
ATOM      8  C   LIG d   1       2.746  -0.416  -3.814  0.00  0.00    -0.011 C 
ATOM      9  C   LIG d   1       2.712   0.777  -4.772  0.00  0.00    -0.048 C 
ATOM     10  C   LIG d   1       2.137   0.338  -6.118  0.00  0.00    -0.052 C 
ATOM     11  C   LIG d   1       3.240   0.350  -7.178  0.00  0.00    -0.049 C 
ATOM     12  C   LIG d   1       3.375  -1.046  -7.787  0.00  0.00    -0.027 C 
ATOM     13  C   LIG d   1       4.612  -1.109  -8.646  0.00  0.00    -0.026 A 
ATOM     14  C   LIG d   1       4.503  -0.842  -9.993  0.00  0.00    -0.016 A 
ATOM     15  C   LIG d   1       5.623  -0.906 -10.814  0.00  0.00     0.124 A 
ATOM     16  C   LIG d   1       6.859  -1.238 -10.280  0.00  0.00     0.023 A 
ATOM     17  C   LIG d   1       6.981  -1.509  -8.928  0.00  0.00     0.138 A 
ATOM     18  C   LIG d   1       5.852  -1.444  -8.095  0.00  0.00     0.104 A 
ATOM     19  C   LIG d   1       5.988  -1.709  -6.653  0.00  0.00     0.343 C 
ATOM     20  O   LIG d   1       5.145  -1.293  -5.885  0.00  0.00    -0.245 OA
ATOM     21  O   LIG d   1       7.019  -2.437  -6.194  0.00  0.00    -0.458 OA
ATOM     22  H   LIG d   1       5.494  -2.783  -4.334  0.00  0.00     0.030 H 
ATOM     23  H   LIG d   1       6.699  -3.083  -3.076  0.00  0.00     0.030 H 
ATOM     24  H   LIG d   1       6.828  -0.745  -2.503  0.00  0.00     0.027 H 
ATOM     25  H   LIG d   1       5.846  -0.272  -3.918  0.00  0.00     0.027 H 
ATOM     26  H   LIG d   1       4.321  -2.215  -2.568  0.00  0.00     0.033 H 
ATOM     27  H   LIG d   1       4.987  -1.159  -1.296  0.00  0.00     0.033 H 
ATOM     28  H   LIG d   1       3.020  -1.318  -4.361  0.00  0.00     0.033 H 
ATOM     29  H   LIG d   1       1.759  -0.543  -3.366  0.00  0.00     0.033 H 
ATOM     30  H   LIG d   1       2.082   1.562  -4.347  0.00  0.00     0.027 H 
ATOM     31  H   LIG d   1       3.721   1.164  -4.913  0.00  0.00     0.027 H 
ATOM     32  H   LIG d   1       1.730  -0.669  -6.030  0.00  0.00     0.026 H 
ATOM     33  H   LIG d   1       1.342   1.025  -6.413  0.00  0.00     0.026 H 
ATOM     34  H   LIG d   1       2.981   1.063  -7.961  0.00  0.00     0.027 H 
ATOM     35  H   LIG d   1       4.186   0.646  -6.724  0.00  0.00     0.027 H 
ATOM     36  H   LIG d   1       3.428  -1.793  -6.998  0.00  0.00     0.031 H 
ATOM     37  H   LIG d   1       2.500  -1.251  -8.412  0.00  0.00     0.031 H 
ATOM     38  H   LIG d   1       3.542  -0.585 -10.414  0.00  0.00     0.066 H 
ATOM     39  H   LIG d   1       7.727  -1.294 -10.920  0.00  0.00     0.069 H 
ENDROOT
BRANCH   1  40
ATOM     40  C   LIG d   1       8.206  -0.878  -4.771  0.00  0.00    -0.028 C 
ATOM     41  H   LIG d   1       7.985  -0.427  -3.803  0.00  0.00     0.026 H 
ATOM     42  H   LIG d   1       9.283  -1.019  -4.869  0.00  0.00     0.026 H 
ATOM     43  H   LIG d   1       7.850  -0.225  -5.567  0.00  0.00     0.026 H 
ENDBRANCH   1  40
BRANCH  17  44
ATOM     44  O   LIG d   1       8.197  -1.826  -8.417  0.00  0.00    -0.494 OA
BRANCH  44  45
ATOM     45  C   LIG d   1       9.210  -0.819  -8.480  0.00  0.00     0.079 C 
ATOM     46  H   LIG d   1      10.013  -1.068  -7.786  0.00  0.00     0.066 H 
ATOM     47  H   LIG d   1       9.607  -0.768  -9.493  0.00  0.00     0.066 H 
ATOM     48  H   LIG d   1       8.780   0.145  -8.208  0.00  0.00     0.066 H 
ENDBRANCH  44  45
ENDBRANCH  17  44
BRANCH   7  49
ATOM     49  O   LIG d   1       4.726   1.208  -1.103  0.00  0.00    -0.409 OA
ATOM     50  H   LIG d   1       5.353   0.484  -0.970  0.00  0.00     0.328 HD
ENDBRANCH   7  49
BRANCH  15  51
ATOM     51  O   LIG d   1       5.507  -0.647 -12.141  0.00  0.00    -0.495 OA
BRANCH  51  52
ATOM     52  C   LIG d   1       4.205  -0.313 -12.625  0.00  0.00     0.079 C 
ATOM     53  H   LIG d   1       3.780   0.480 -12.010  0.00  0.00     0.066 H 
ATOM     54  H   LIG d   1       4.277   0.026 -13.658  0.00  0.00     0.066 H 
ATOM     55  H   LIG d   1       3.563  -1.194 -12.576  0.00  0.00     0.066 H 
ENDBRANCH  51  52
ENDBRANCH  15  51
TORSDOF 6
ENDMDL
MODEL 2
REMARK VINA RESULT:      -5.5      9.647     11.547
REMARK  6 active torsions:
REMARK  status: ('A' for Active; 'I' for Inactive)
REMARK    1  A    between atoms: C_1  and  C_2 
REMARK    2  A    between atoms: N_8  and  O_9 
REMARK    3  A    between atoms: C_17  and  O_26 
REMARK    4  A    between atoms: C_19  and  O_24 
REMARK    5  A    between atoms: O_24  and  C_25 
REMARK    6  A    between atoms: O_26  and  C_27 
ROOT
ATOM      1  C   LIG d   1      10.083   8.894  -0.257  0.00  0.00     0.101 C 
ATOM      2  H   LIG d   1       9.802   8.885   0.811  0.00  0.00     0.073 H 
ATOM      3  C   LIG d   1       9.360  10.055  -0.924  0.00  0.00    -0.016 C 
ATOM      4  C   LIG d   1      10.290  10.926  -1.760  0.00  0.00    -0.044 C 
ATOM      5  C   LIG d   1       9.448  11.915  -2.580  0.00  0.00    -0.011 C 
ATOM      6  C   LIG d   1       9.857  11.833  -4.028  0.00  0.00     0.058 C 
ATOM      7  N   LIG d   1      10.818  12.557  -4.467  0.00  0.00    -0.097 NA
ATOM      8  C   LIG d   1       9.135  10.898  -4.963  0.00  0.00    -0.011 C 
ATOM      9  C   LIG d   1      10.155  10.107  -5.784  0.00  0.00    -0.048 C 
ATOM     10  C   LIG d   1       9.508   8.825  -6.309  0.00  0.00    -0.052 C 
ATOM     11  C   LIG d   1      10.113   7.614  -5.598  0.00  0.00    -0.049 C 
ATOM     12  C   LIG d   1       9.003   6.829  -4.897  0.00  0.00    -0.027 C 
ATOM     13  C   LIG d   1       9.609   5.785  -3.996  0.00  0.00    -0.026 A 
ATOM     14  C   LIG d   1       9.808   4.513  -4.487  0.00  0.00    -0.016 A 
ATOM     15  C   LIG d   1      10.352   3.524  -3.676  0.00  0.00     0.124 A 
ATOM     16  C   LIG d   1      10.700   3.812  -2.366  0.00  0.00     0.023 A 
ATOM     17  C   LIG d   1      10.506   5.086  -1.860  0.00  0.00     0.138 A 
ATOM     18  C   LIG d   1       9.958   6.089  -2.677  0.00  0.00     0.104 A 
ATOM     19  C   LIG d   1       9.774   7.450  -2.144  0.00  0.00     0.343 C 
ATOM     20  O   LIG d   1       9.675   8.385  -2.911  0.00  0.00    -0.245 OA
ATOM     21  O   LIG d   1       9.680   7.650  -0.820  0.00  0.00    -0.458 OA
ATOM     22  H   LIG d   1       8.554   9.673  -1.559  0.00  0.00     0.030 H 
ATOM     23  H   LIG d   1       8.900  10.680  -0.148  0.00  0.00     0.030 H 
ATOM     24  H   LIG d   1      10.952  11.500  -1.111  0.00  0.00     0.027 H 
ATOM     25  H   LIG d   1      10.873  10.324  -2.454  0.00  0.00     0.027 H 
ATOM     26  H   LIG d   1       8.394  11.657  -2.484  0.00  0.00     0.033 H 
ATOM     27  H   LIG d   1       9.617  12.925  -2.210  0.00  0.00     0.033 H 
ATOM     28  H   LIG d   1       8.519  10.211  -4.383  0.00  0.00     0.033 H 
ATOM     29  H   LIG d   1       8.505  11.478  -5.639  0.00  0.00     0.033 H 
ATOM     30  H   LIG d   1      10.489  10.715  -6.627  0.00  0.00     0.027 H 
ATOM     31  H   LIG d   1      11.013   9.855  -5.162  0.00  0.00     0.027 H 
ATOM     32  H   LIG d   1       8.434   8.856  -6.123  0.00  0.00     0.026 H 
ATOM     33  H   LIG d   1       9.687   8.743  -7.382  0.00  0.00     0.026 H 
ATOM     34  H   LIG d   1      10.602   6.972  -6.331  0.00  0.00     0.027 H 
ATOM     35  H   LIG d   1      10.848   7.944  -4.865  0.00  0.00     0.027 H 
ATOM     36  H   LIG d   1       8.377   7.505  -4.318  0.00  0.00     0.031 H 
ATOM     37  H   LIG d   1       8.385   6.331  -5.651  0.00  0.00     0.031 H 
ATOM     38  H   LIG d   1       9.535   4.282  -5.507  0.00  0.00     0.066 H 
ATOM     39  H   LIG d   1      11.117   3.041  -1.735  0.00  0.00     0.069 H 
ENDROOT
BRANCH   1  40
ATOM     40  C   LIG d   1      11.600   9.043  -0.333  0.00  0.00    -0.028 C 
ATOM     41  H   LIG d   1      11.955   8.656  -1.289  0.00  0.00     0.026 H 
ATOM     42  H   LIG d   1      11.866  10.096  -0.246  0.00  0.00     0.026 H 
ATOM     43  H   LIG d   1      12.061   8.482   0.480  0.00  0.00     0.026 H 
ENDBRANCH   1  40
BRANCH  17  44
ATOM     44  O   LIG d   1      10.858   5.357  -0.578  0.00  0.00    -0.494 OA
BRANCH  44  45
ATOM     45  C   LIG d   1      12.256   5.428  -0.290  0.00  0.00     0.079 C 
ATOM     46  H   LIG d   1      12.682   4.425  -0.307  0.00  0.00     0.066 H 
ATOM     47  H   LIG d   1      12.750   6.045  -1.040  0.00  0.00     0.066 H 
ATOM     48  H   LIG d   1      12.402   5.868   0.696  0.00  0.00     0.066 H 
ENDBRANCH  44  45
ENDBRANCH  17  44
BRANCH   7  49
ATOM     49  O   LIG d   1      11.499  13.436  -3.590  0.00  0.00    -0.409 OA
ATOM     50  H   LIG d   1      11.247  13.338  -2.662  0.00  0.00     0.328 HD
ENDBRANCH   7  49
BRANCH  15  51
ATOM     51  O   LIG d   1      10.539   2.272  -4.166  0.00  0.00    -0.495 OA
BRANCH  51  52
ATOM     52  C   LIG d   1      11.762   1.617  -3.821  0.00  0.00     0.079 C 
ATOM     53  H   LIG d   1      12.159   1.104  -4.696  0.00  0.00     0.066 H 
ATOM     54  H   LIG d   1      12.484   2.356  -3.475  0.00  0.00     0.066 H 
ATOM     55  H   LIG d   1      11.575   0.893  -3.028  0.00  0.00     0.066 H 
ENDBRANCH  51  52
ENDBRANCH  15  51
TORSDOF 6
ENDMDL
MODEL 3
REMARK VINA RESULT:      -5.4      8.876     11.527
REMARK  6 active torsions:
REMARK  status: ('A' for Active; 'I' for Inactive)
REMARK    1  A    between atoms: C_1  and  C_2 
REMARK    2  A    between atoms: N_8  and  O_9 
REMARK    3  A    between atoms: C_17  and  O_26 
REMARK    4  A    between atoms: C_19  and  O_24 
REMARK    5  A    between atoms: O_24  and  C_25 
REMARK    6  A    between atoms: O_26  and  C_27 
ROOT
ATOM      1  C   LIG d   1      10.704   4.179  -4.572  0.00  0.00     0.101 C 
ATOM      2  H   LIG d   1      11.263   3.323  -4.156  0.00  0.00     0.073 H 
ATOM      3  C   LIG d   1      11.146   4.374  -6.016  0.00  0.00    -0.016 C 
ATOM      4  C   LIG d   1       9.973   4.495  -6.981  0.00  0.00    -0.044 C 
ATOM      5  C   LIG d   1      10.498   4.925  -8.358  0.00  0.00    -0.011 C 
ATOM      6  C   LIG d   1       9.719   6.123  -8.834  0.00  0.00     0.058 C 
ATOM      7  N   LIG d   1       8.633   5.964  -9.493  0.00  0.00    -0.097 NA
ATOM      8  C   LIG d   1      10.217   7.514  -8.536  0.00  0.00    -0.011 C 
ATOM      9  C   LIG d   1       9.064   8.368  -8.006  0.00  0.00    -0.048 C 
ATOM     10  C   LIG d   1       9.623   9.549  -7.212  0.00  0.00    -0.052 C 
ATOM     11  C   LIG d   1       9.309   9.365  -5.726  0.00  0.00    -0.049 C 
ATOM     12  C   LIG d   1      10.613   9.359  -4.928  0.00  0.00    -0.027 C 
ATOM     13  C   LIG d   1      10.339   8.934  -3.508  0.00  0.00    -0.026 A 
ATOM     14  C   LIG d   1      10.093   9.901  -2.558  0.00  0.00    -0.016 A 
ATOM     15  C   LIG d   1       9.851   9.541  -1.237  0.00  0.00     0.124 A 
ATOM     16  C   LIG d   1       9.853   8.205  -0.868  0.00  0.00     0.023 A 
ATOM     17  C   LIG d   1      10.098   7.223  -1.814  0.00  0.00     0.138 A 
ATOM     18  C   LIG d   1      10.342   7.583  -3.149  0.00  0.00     0.104 A 
ATOM     19  C   LIG d   1      10.579   6.536  -4.159  0.00  0.00     0.343 C 
ATOM     20  O   LIG d   1      10.408   6.788  -5.334  0.00  0.00    -0.245 OA
ATOM     21  O   LIG d   1      11.016   5.323  -3.784  0.00  0.00    -0.458 OA
ATOM     22  H   LIG d   1      11.772   5.268  -6.093  0.00  0.00     0.030 H 
ATOM     23  H   LIG d   1      11.760   3.515  -6.318  0.00  0.00     0.030 H 
ATOM     24  H   LIG d   1       9.477   3.530  -7.092  0.00  0.00     0.027 H 
ATOM     25  H   LIG d   1       9.262   5.246  -6.642  0.00  0.00     0.027 H 
ATOM     26  H   LIG d   1      11.553   5.186  -8.276  0.00  0.00     0.033 H 
ATOM     27  H   LIG d   1      10.375   4.105  -9.063  0.00  0.00     0.033 H 
ATOM     28  H   LIG d   1      11.008   7.461  -7.788  0.00  0.00     0.033 H 
ATOM     29  H   LIG d   1      10.604   7.963  -9.452  0.00  0.00     0.033 H 
ATOM     30  H   LIG d   1       8.477   8.743  -8.848  0.00  0.00     0.027 H 
ATOM     31  H   LIG d   1       8.423   7.765  -7.363  0.00  0.00     0.027 H 
ATOM     32  H   LIG d   1      10.703   9.602  -7.350  0.00  0.00     0.026 H 
ATOM     33  H   LIG d   1       9.166  10.473  -7.568  0.00  0.00     0.026 H 
ATOM     34  H   LIG d   1       8.680  10.187  -5.386  0.00  0.00     0.027 H 
ATOM     35  H   LIG d   1       8.780   8.424  -5.574  0.00  0.00     0.027 H 
ATOM     36  H   LIG d   1      11.329   8.682  -5.389  0.00  0.00     0.031 H 
ATOM     37  H   LIG d   1      11.033  10.369  -4.920  0.00  0.00     0.031 H 
ATOM     38  H   LIG d   1      10.094  10.944  -2.840  0.00  0.00     0.066 H 
ATOM     39  H   LIG d   1       9.672   7.927   0.159  0.00  0.00     0.069 H 
ENDROOT
BRANCH   1  40
ATOM     40  C   LIG d   1       9.216   3.853  -4.468  0.00  0.00    -0.028 C 
ATOM     41  H   LIG d   1       8.952   3.698  -3.422  0.00  0.00     0.026 H 
ATOM     42  H   LIG d   1       8.634   4.680  -4.872  0.00  0.00     0.026 H 
ATOM     43  H   LIG d   1       9.003   2.947  -5.034  0.00  0.00     0.026 H 
ENDBRANCH   1  40
BRANCH  17  44
ATOM     44  O   LIG d   1      10.090   5.919  -1.441  0.00  0.00    -0.494 OA
BRANCH  44  45
ATOM     45  C   LIG d   1      10.930   5.553  -0.344  0.00  0.00     0.079 C 
ATOM     46  H   LIG d   1      11.962   5.817  -0.573  0.00  0.00     0.066 H 
ATOM     47  H   LIG d   1      10.609   6.084   0.552  0.00  0.00     0.066 H 
ATOM     48  H   LIG d   1      10.859   4.479  -0.175  0.00  0.00     0.066 H 
ENDBRANCH  44  45
ENDBRANCH  17  44
BRANCH   7  49
ATOM     49  O   LIG d   1       8.161   4.659  -9.774  0.00  0.00    -0.409 OA
ATOM     50  H   LIG d   1       7.575   4.610 -10.542  0.00  0.00     0.328 HD
ENDBRANCH   7  49
BRANCH  15  51
ATOM     51  O   LIG d   1       9.616  10.500  -0.305  0.00  0.00    -0.495 OA
BRANCH  51  52
ATOM     52  C   LIG d   1      10.692  10.820   0.580  0.00  0.00     0.079 C 
ATOM     53  H   LIG d   1      11.071  11.814   0.348  0.00  0.00     0.066 H 
ATOM     54  H   LIG d   1      10.334  10.798   1.609  0.00  0.00     0.066 H 
ATOM     55  H   LIG d   1      11.492  10.088   0.459  0.00  0.00     0.066 H 
ENDBRANCH  51  52
ENDBRANCH  15  51
TORSDOF 6
ENDMDL
MODEL 4
REMARK VINA RESULT:      -5.4     10.910     13.804
REMARK  6 active torsions:
REMARK  status: ('A' for Active; 'I' for Inactive)
REMARK    1  A    between atoms: C_1  and  C_2 
REMARK    2  A    between atoms: N_8  and  O_9 
REMARK    3  A    between atoms: C_17  and  O_26 
REMARK    4  A    between atoms: C_19  and  O_24 
REMARK    5  A    between atoms: O_24  and  C_25 
REMARK    6  A    between atoms: O_26  and  C_27 
ROOT
ATOM      1  C   LIG d   1      10.035  11.376  -3.854  0.00  0.00     0.101 C 
ATOM      2  H   LIG d   1       9.631  12.400  -3.936  0.00  0.00     0.073 H 
ATOM      3  C   LIG d   1       9.212  10.472  -4.761  0.00  0.00    -0.016 C 
ATOM      4  C   LIG d   1      10.076   9.607  -5.671  0.00  0.00    -0.044 C 
ATOM      5  C   LIG d   1       9.186   8.568  -6.368  0.00  0.00    -0.011 C 
ATOM      6  C   LIG d   1       9.777   7.196  -6.172  0.00  0.00     0.058 C 
ATOM      7  N   LIG d   1      10.647   6.747  -6.997  0.00  0.00    -0.097 NA
ATOM      8  C   LIG d   1       9.344   6.350  -5.003  0.00  0.00    -0.011 C 
ATOM      9  C   LIG d   1      10.577   5.761  -4.313  0.00  0.00    -0.048 C 
ATOM     10  C   LIG d   1      10.226   5.378  -2.875  0.00  0.00    -0.052 C 
ATOM     11  C   LIG d   1      10.936   6.322  -1.903  0.00  0.00    -0.049 C 
ATOM     12  C   LIG d   1       9.899   7.023  -1.026  0.00  0.00    -0.027 C 
ATOM     13  C   LIG d   1      10.558   8.128  -0.242  0.00  0.00    -0.026 A 
ATOM     14  C   LIG d   1      11.029   7.858   1.025  0.00  0.00    -0.016 A 
ATOM     15  C   LIG d   1      11.630   8.860   1.778  0.00  0.00     0.124 A 
ATOM     16  C   LIG d   1      11.760  10.138   1.259  0.00  0.00     0.023 A 
ATOM     17  C   LIG d   1      11.292  10.423  -0.013  0.00  0.00     0.138 A 
ATOM     18  C   LIG d   1      10.686   9.412  -0.778  0.00  0.00     0.104 A 
ATOM     19  C   LIG d   1      10.210   9.711  -2.140  0.00  0.00     0.343 C 
ATOM     20  O   LIG d   1      10.048   8.804  -2.930  0.00  0.00    -0.245 OA
ATOM     21  O   LIG d   1       9.921  10.973  -2.493  0.00  0.00    -0.458 OA
ATOM     22  H   LIG d   1       8.567   9.828  -4.155  0.00  0.00     0.030 H 
ATOM     23  H   LIG d   1       8.561  11.096  -5.388  0.00  0.00     0.030 H 
ATOM     24  H   LIG d   1      10.546  10.221  -6.439  0.00  0.00     0.027 H 
ATOM     25  H   LIG d   1      10.834   9.073  -5.101  0.00  0.00     0.027 H 
ATOM     26  H   LIG d   1       8.187   8.600  -5.934  0.00  0.00     0.033 H 
ATOM     27  H   LIG d   1       9.133   8.794  -7.432  0.00  0.00     0.033 H 
ATOM     28  H   LIG d   1       8.788   6.965  -4.297  0.00  0.00     0.033 H 
ATOM     29  H   LIG d   1       8.712   5.535  -5.361  0.00  0.00     0.033 H 
ATOM     30  H   LIG d   1      10.903   4.872  -4.856  0.00  0.00     0.027 H 
ATOM     31  H   LIG d   1      11.382   6.495  -4.310  0.00  0.00     0.027 H 
ATOM     32  H   LIG d   1       9.148   5.453  -2.731  0.00  0.00     0.026 H 
ATOM     33  H   LIG d   1      10.546   4.353  -2.686  0.00  0.00     0.026 H 
ATOM     34  H   LIG d   1      11.614   5.746  -1.272  0.00  0.00     0.027 H 
ATOM     35  H   LIG d   1      11.509   7.063  -2.459  0.00  0.00     0.027 H 
ATOM     36  H   LIG d   1       9.101   7.429  -1.645  0.00  0.00     0.031 H 
ATOM     37  H   LIG d   1       9.472   6.299  -0.326  0.00  0.00     0.031 H 
ATOM     38  H   LIG d   1      10.927   6.864   1.435  0.00  0.00     0.066 H 
ATOM     39  H   LIG d   1      12.221  10.917   1.848  0.00  0.00     0.069 H 
ENDROOT
BRANCH   1  40
ATOM     40  C   LIG d   1      11.502  11.425  -4.271  0.00  0.00    -0.028 C 
ATOM     41  H   LIG d   1      12.108  11.757  -3.428  0.00  0.00     0.026 H 
ATOM     42  H   LIG d   1      11.825  10.431  -4.582  0.00  0.00     0.026 H 
ATOM     43  H   LIG d   1      11.620  12.122  -5.101  0.00  0.00     0.026 H 
ENDBRANCH   1  40
BRANCH  17  44
ATOM     44  O   LIG d   1      11.433  11.676  -0.513  0.00  0.00    -0.494 OA
BRANCH  44  45
ATOM     45  C   LIG d   1      11.026  12.758   0.327  0.00  0.00     0.079 C 
ATOM     46  H   LIG d   1      11.700  12.830   1.180  0.00  0.00     0.066 H 
ATOM     47  H   LIG d   1      11.057  13.688  -0.240  0.00  0.00     0.066 H 
ATOM     48  H   LIG d   1      10.010  12.581   0.680  0.00  0.00     0.066 H 
ENDBRANCH  44  45
ENDBRANCH  17  44
BRANCH   7  49
ATOM     49  O   LIG d   1      11.056   7.540  -8.096  0.00  0.00    -0.409 OA
ATOM     50  H   LIG d   1      10.467   8.283  -8.284  0.00  0.00     0.328 HD
ENDBRANCH   7  49
BRANCH  15  51
ATOM     51  O   LIG d   1      12.085   8.588   3.028  0.00  0.00    -0.495 OA
BRANCH  51  52
ATOM     52  C   LIG d   1      12.510   9.700   3.819  0.00  0.00     0.079 C 
ATOM     53  H   LIG d   1      13.559   9.910   3.617  0.00  0.00     0.066 H 
ATOM     54  H   LIG d   1      11.909  10.574   3.568  0.00  0.00     0.066 H 
ATOM     55  H   LIG d   1      12.382   9.464   4.876  0.00  0.00     0.066 H 
ENDBRANCH  51  52
ENDBRANCH  15  51
TORSDOF 6
ENDMDL
MODEL 5
REMARK VINA RESULT:      -5.4      8.461     11.406
REMARK  6 active torsions:
REMARK  status: ('A' for Active; 'I' for Inactive)
REMARK    1  A    between atoms: C_1  and  C_2 
REMARK    2  A    between atoms: N_8  and  O_9 
REMARK    3  A    between atoms: C_17  and  O_26 
REMARK    4  A    between atoms: C_19  and  O_24 
REMARK    5  A    between atoms: O_24  and  C_25 
REMARK    6  A    between atoms: O_26  and  C_27 
ROOT
ATOM      1  C   LIG d   1       9.543   9.284  -6.929  0.00  0.00     0.101 C 
ATOM      2  H   LIG d   1       9.099  10.293  -6.986  0.00  0.00     0.073 H 
ATOM      3  C   LIG d   1       8.938   8.439  -8.041  0.00  0.00    -0.016 C 
ATOM      4  C   LIG d   1       9.991   7.705  -8.863  0.00  0.00    -0.044 C 
ATOM      5  C   LIG d   1       9.293   6.703  -9.793  0.00  0.00    -0.011 C 
ATOM      6  C   LIG d   1       9.922   5.345  -9.622  0.00  0.00     0.058 C 
ATOM      7  N   LIG d   1      10.942   5.016 -10.322  0.00  0.00    -0.097 NA
ATOM      8  C   LIG d   1       9.350   4.370  -8.626  0.00  0.00    -0.011 C 
ATOM      9  C   LIG d   1      10.483   3.769  -7.789  0.00  0.00    -0.048 C 
ATOM     10  C   LIG d   1       9.919   3.232  -6.474  0.00  0.00    -0.052 C 
ATOM     11  C   LIG d   1      10.400   4.105  -5.313  0.00  0.00    -0.049 C 
ATOM     12  C   LIG d   1       9.191   4.672  -4.568  0.00  0.00    -0.027 C 
ATOM     13  C   LIG d   1       9.645   5.721  -3.587  0.00  0.00    -0.026 A 
ATOM     14  C   LIG d   1       9.912   5.349  -2.287  0.00  0.00    -0.016 A 
ATOM     15  C   LIG d   1      10.319   6.296  -1.355  0.00  0.00     0.124 A 
ATOM     16  C   LIG d   1      10.459   7.623  -1.727  0.00  0.00     0.023 A 
ATOM     17  C   LIG d   1      10.195   8.011  -3.030  0.00  0.00     0.138 A 
ATOM     18  C   LIG d   1       9.785   7.056  -3.975  0.00  0.00     0.104 A 
ATOM     19  C   LIG d   1       9.526   7.467  -5.366  0.00  0.00     0.343 C 
ATOM     20  O   LIG d   1       9.553   6.636  -6.251  0.00  0.00    -0.245 OA
ATOM     21  O   LIG d   1       9.227   8.745  -5.650  0.00  0.00    -0.458 OA
ATOM     22  H   LIG d   1       8.240   7.712  -7.616  0.00  0.00     0.030 H 
ATOM     23  H   LIG d   1       8.366   9.093  -8.712  0.00  0.00     0.030 H 
ATOM     24  H   LIG d   1      10.547   8.412  -9.480  0.00  0.00     0.027 H 
ATOM     25  H   LIG d   1      10.673   7.150  -8.221  0.00  0.00     0.027 H 
ATOM     26  H   LIG d   1       8.235   6.649  -9.536  0.00  0.00     0.033 H 
ATOM     27  H   LIG d   1       9.405   7.030 -10.825  0.00  0.00     0.033 H 
ATOM     28  H   LIG d   1       8.648   4.889  -7.974  0.00  0.00     0.033 H 
ATOM     29  H   LIG d   1       8.836   3.569  -9.158  0.00  0.00     0.033 H 
ATOM     30  H   LIG d   1      10.947   2.952  -8.345  0.00  0.00     0.027 H 
ATOM     31  H   LIG d   1      11.232   4.533  -7.582  0.00  0.00     0.027 H 
ATOM     32  H   LIG d   1       8.830   3.247  -6.511  0.00  0.00     0.026 H 
ATOM     33  H   LIG d   1      10.263   2.208  -6.325  0.00  0.00     0.026 H 
ATOM     34  H   LIG d   1      10.995   3.499  -4.629  0.00  0.00     0.027 H 
ATOM     35  H   LIG d   1      11.014   4.921  -5.694  0.00  0.00     0.027 H 
ATOM     36  H   LIG d   1       8.486   5.102  -5.276  0.00  0.00     0.031 H 
ATOM     37  H   LIG d   1       8.697   3.865  -4.020  0.00  0.00     0.031 H 
ATOM     38  H   LIG d   1       9.801   4.315  -1.991  0.00  0.00     0.066 H 
ATOM     39  H   LIG d   1      10.769   8.359  -1.000  0.00  0.00     0.069 H 
ENDROOT
BRANCH   1  40
ATOM     40  C   LIG d   1      11.054   9.435  -7.081  0.00  0.00    -0.028 C 
ATOM     41  H   LIG d   1      11.269  10.122  -7.900  0.00  0.00     0.026 H 
ATOM     42  H   LIG d   1      11.475   9.829  -6.156  0.00  0.00     0.026 H 
ATOM     43  H   LIG d   1      11.496   8.463  -7.298  0.00  0.00     0.026 H 
ENDBRANCH   1  40
BRANCH  17  44
ATOM     44  O   LIG d   1      10.343   9.312  -3.383  0.00  0.00    -0.494 OA
BRANCH  44  45
ATOM     45  C   LIG d   1       9.866  10.294  -2.461  0.00  0.00     0.079 C 
ATOM     46  H   LIG d   1       8.979   9.915  -1.953  0.00  0.00     0.066 H 
ATOM     47  H   LIG d   1      10.642  10.508  -1.726  0.00  0.00     0.066 H 
ATOM     48  H   LIG d   1       9.614  11.206  -3.000  0.00  0.00     0.066 H 
ENDBRANCH  44  45
ENDBRANCH  17  44
BRANCH   7  49
ATOM     49  O   LIG d   1      11.482   5.930 -11.258  0.00  0.00    -0.409 OA
ATOM     50  H   LIG d   1      11.045   6.793 -11.262  0.00  0.00     0.328 HD
ENDBRANCH   7  49
BRANCH  15  51
ATOM     51  O   LIG d   1      10.574   5.922  -0.075  0.00  0.00    -0.495 OA
BRANCH  51  52
ATOM     52  C   LIG d   1      11.006   6.944   0.825  0.00  0.00     0.079 C 
ATOM     53  H   LIG d   1      12.007   6.712   1.187  0.00  0.00     0.066 H 
ATOM     54  H   LIG d   1      11.021   7.902   0.305  0.00  0.00     0.066 H 
ATOM     55  H   LIG d   1      10.318   7.000   1.669  0.00  0.00     0.066 H 
ENDBRANCH  51  52
ENDBRANCH  15  51
TORSDOF 6
ENDMDL
MODEL 6
REMARK VINA RESULT:      -5.4     10.881     12.036
REMARK  6 active torsions:
REMARK  status: ('A' for Active; 'I' for Inactive)
REMARK    1  A    between atoms: C_1  and  C_2 
REMARK    2  A    between atoms: N_8  and  O_9 
REMARK    3  A    between atoms: C_17  and  O_26 
REMARK    4  A    between atoms: C_19  and  O_24 
REMARK    5  A    between atoms: O_24  and  C_25 
REMARK    6  A    between atoms: O_26  and  C_27 
ROOT
ATOM      1  C   LIG d   1       9.783   6.637  -6.297  0.00  0.00     0.101 C 
ATOM      2  H   LIG d   1       9.349   6.043  -7.121  0.00  0.00     0.073 H 
ATOM      3  C   LIG d   1       9.330   6.019  -4.982  0.00  0.00    -0.016 C 
ATOM      4  C   LIG d   1      10.482   5.786  -4.012  0.00  0.00    -0.044 C 
ATOM      5  C   LIG d   1       9.913   5.392  -2.641  0.00  0.00    -0.011 C 
ATOM      6  C   LIG d   1      10.516   6.276  -1.581  0.00  0.00     0.058 C 
ATOM      7  N   LIG d   1      11.620   5.947  -1.022  0.00  0.00    -0.097 NA
ATOM      8  C   LIG d   1       9.821   7.549  -1.176  0.00  0.00    -0.011 C 
ATOM      9  C   LIG d   1      10.834   8.694  -1.131  0.00  0.00    -0.048 C 
ATOM     10  C   LIG d   1      10.104  10.031  -1.263  0.00  0.00    -0.052 C 
ATOM     11  C   LIG d   1      10.428  10.663  -2.618  0.00  0.00    -0.049 C 
ATOM     12  C   LIG d   1       9.131  10.893  -3.395  0.00  0.00    -0.027 C 
ATOM     13  C   LIG d   1       9.451  11.280  -4.815  0.00  0.00    -0.026 A 
ATOM     14  C   LIG d   1       9.546  12.617  -5.137  0.00  0.00    -0.016 A 
ATOM     15  C   LIG d   1       9.826  13.007  -6.442  0.00  0.00     0.124 A 
ATOM     16  C   LIG d   1      10.012  12.051  -7.428  0.00  0.00     0.023 A 
ATOM     17  C   LIG d   1       9.920  10.705  -7.118  0.00  0.00     0.138 A 
ATOM     18  C   LIG d   1       9.639  10.307  -5.801  0.00  0.00     0.104 A 
ATOM     19  C   LIG d   1       9.564   8.874  -5.468  0.00  0.00     0.343 C 
ATOM     20  O   LIG d   1       9.707   8.519  -4.316  0.00  0.00    -0.245 OA
ATOM     21  O   LIG d   1       9.303   7.971  -6.426  0.00  0.00    -0.458 OA
ATOM     22  H   LIG d   1       8.583   6.663  -4.508  0.00  0.00     0.030 H 
ATOM     23  H   LIG d   1       8.849   5.053  -5.190  0.00  0.00     0.030 H 
ATOM     24  H   LIG d   1      11.113   4.970  -4.366  0.00  0.00     0.027 H 
ATOM     25  H   LIG d   1      11.075   6.690  -3.883  0.00  0.00     0.027 H 
ATOM     26  H   LIG d   1       8.831   5.521  -2.650  0.00  0.00     0.033 H 
ATOM     27  H   LIG d   1      10.160   4.352  -2.435  0.00  0.00     0.033 H 
ATOM     28  H   LIG d   1       9.039   7.780  -1.899  0.00  0.00     0.033 H 
ATOM     29  H   LIG d   1       9.381   7.422  -0.185  0.00  0.00     0.033 H 
ATOM     30  H   LIG d   1      11.369   8.666  -0.179  0.00  0.00     0.027 H 
ATOM     31  H   LIG d   1      11.549   8.585  -1.946  0.00  0.00     0.027 H 
ATOM     32  H   LIG d   1       9.029   9.868  -1.187  0.00  0.00     0.026 H 
ATOM     33  H   LIG d   1      10.427  10.699  -0.464  0.00  0.00     0.026 H 
ATOM     34  H   LIG d   1      10.930  11.618  -2.460  0.00  0.00     0.027 H 
ATOM     35  H   LIG d   1      11.085  10.005  -3.186  0.00  0.00     0.027 H 
ATOM     36  H   LIG d   1       8.524   9.990  -3.381  0.00  0.00     0.031 H 
ATOM     37  H   LIG d   1       8.570  11.705  -2.924  0.00  0.00     0.031 H 
ATOM     38  H   LIG d   1       9.399  13.366  -4.372  0.00  0.00     0.066 H 
ATOM     39  H   LIG d   1      10.223  12.355  -8.443  0.00  0.00     0.069 H 
ENDROOT
BRANCH   1  40
ATOM     40  C   LIG d   1      11.300   6.602  -6.454  0.00  0.00    -0.028 C 
ATOM     41  H   LIG d   1      11.750   7.346  -5.796  0.00  0.00     0.026 H 
ATOM     42  H   LIG d   1      11.671   5.612  -6.190  0.00  0.00     0.026 H 
ATOM     43  H   LIG d   1      11.563   6.825  -7.488  0.00  0.00     0.026 H 
ENDBRANCH   1  40
BRANCH  17  44
ATOM     44  O   LIG d   1      10.112   9.780  -8.092  0.00  0.00    -0.494 OA
BRANCH  44  45
ATOM     45  C   LIG d   1      11.406   9.732  -8.695  0.00  0.00     0.079 C 
ATOM     46  H   LIG d   1      12.141  10.162  -8.014  0.00  0.00     0.066 H 
ATOM     47  H   LIG d   1      11.669   8.696  -8.907  0.00  0.00     0.066 H 
ATOM     48  H   LIG d   1      11.396  10.303  -9.623  0.00  0.00     0.066 H 
ENDBRANCH  44  45
ENDBRANCH  17  44
BRANCH   7  49
ATOM     49  O   LIG d   1      12.277   4.751  -1.400  0.00  0.00    -0.409 OA
ATOM     50  H   LIG d   1      11.810   4.246  -2.080  0.00  0.00     0.328 HD
ENDBRANCH   7  49
BRANCH  15  51
ATOM     51  O   LIG d   1       9.912  14.325  -6.752  0.00  0.00    -0.495 OA
BRANCH  51  52
ATOM     52  C   LIG d   1      10.125  14.655  -8.126  0.00  0.00     0.079 C 
ATOM     53  H   LIG d   1       9.320  14.237  -8.730  0.00  0.00     0.066 H 
ATOM     54  H   LIG d   1      10.141  15.738  -8.241  0.00  0.00     0.066 H 
ATOM     55  H   LIG d   1      11.079  14.241  -8.455  0.00  0.00     0.066 H 
ENDBRANCH  51  52
ENDBRANCH  15  51
TORSDOF 6
ENDMDL
MODEL 7
REMARK VINA RESULT:      -5.3      3.928      7.137
REMARK  6 active torsions:
REMARK  status: ('A' for Active; 'I' for Inactive)
REMARK    1  A    between atoms: C_1  and  C_2 
REMARK    2  A    between atoms: N_8  and  O_9 
REMARK    3  A    between atoms: C_17  and  O_26 
REMARK    4  A    between atoms: C_19  and  O_24 
REMARK    5  A    between atoms: O_24  and  C_25 
REMARK    6  A    between atoms: O_26  and  C_27 
ROOT
ATOM      1  C   LIG d   1       7.003   1.126  -9.202  0.00  0.00     0.101 C 
ATOM      2  H   LIG d   1       6.834   0.522 -10.111  0.00  0.00     0.073 H 
ATOM      3  C   LIG d   1       8.365   1.795  -9.329  0.00  0.00    -0.016 C 
ATOM      4  C   LIG d   1       8.317   3.290  -9.036  0.00  0.00    -0.044 C 
ATOM      5  C   LIG d   1       9.751   3.831  -8.951  0.00  0.00    -0.011 C 
ATOM      6  C   LIG d   1       9.916   4.600  -7.666  0.00  0.00     0.058 C 
ATOM      7  N   LIG d   1       9.630   5.847  -7.622  0.00  0.00    -0.097 NA
ATOM      8  C   LIG d   1      10.419   3.901  -6.429  0.00  0.00    -0.011 C 
ATOM      9  C   LIG d   1       9.535   4.271  -5.236  0.00  0.00    -0.048 C 
ATOM     10  C   LIG d   1       9.669   3.205  -4.149  0.00  0.00    -0.052 C 
ATOM     11  C   LIG d   1       8.364   2.415  -4.040  0.00  0.00    -0.049 C 
ATOM     12  C   LIG d   1       8.647   0.931  -4.281  0.00  0.00    -0.027 C 
ATOM     13  C   LIG d   1       7.347   0.182  -4.421  0.00  0.00    -0.026 A 
ATOM     14  C   LIG d   1       6.788  -0.399  -3.303  0.00  0.00    -0.016 A 
ATOM     15  C   LIG d   1       5.597  -1.109  -3.403  0.00  0.00     0.124 A 
ATOM     16  C   LIG d   1       4.964  -1.237  -4.630  0.00  0.00     0.023 A 
ATOM     17  C   LIG d   1       5.515  -0.658  -5.760  0.00  0.00     0.138 A 
ATOM     18  C   LIG d   1       6.718   0.062  -5.663  0.00  0.00     0.104 A 
ATOM     19  C   LIG d   1       7.291   0.697  -6.862  0.00  0.00     0.343 C 
ATOM     20  O   LIG d   1       8.080   1.611  -6.737  0.00  0.00    -0.245 OA
ATOM     21  O   LIG d   1       6.971   0.244  -8.085  0.00  0.00    -0.458 OA
ATOM     22  H   LIG d   1       9.077   1.316  -8.651  0.00  0.00     0.030 H 
ATOM     23  H   LIG d   1       8.736   1.652 -10.353  0.00  0.00     0.030 H 
ATOM     24  H   LIG d   1       7.802   3.815  -9.841  0.00  0.00     0.027 H 
ATOM     25  H   LIG d   1       7.825   3.487  -8.085  0.00  0.00     0.027 H 
ATOM     26  H   LIG d   1      10.452   2.997  -8.968  0.00  0.00     0.033 H 
ATOM     27  H   LIG d   1       9.939   4.489  -9.797  0.00  0.00     0.033 H 
ATOM     28  H   LIG d   1      10.392   2.823  -6.586  0.00  0.00     0.033 H 
ATOM     29  H   LIG d   1      11.444   4.218  -6.226  0.00  0.00     0.033 H 
ATOM     30  H   LIG d   1       9.852   5.237  -4.838  0.00  0.00     0.027 H 
ATOM     31  H   LIG d   1       8.495   4.339  -5.556  0.00  0.00     0.027 H 
ATOM     32  H   LIG d   1      10.484   2.527  -4.401  0.00  0.00     0.026 H 
ATOM     33  H   LIG d   1       9.882   3.688  -3.194  0.00  0.00     0.026 H 
ATOM     34  H   LIG d   1       7.945   2.546  -3.042  0.00  0.00     0.027 H 
ATOM     35  H   LIG d   1       7.649   2.777  -4.778  0.00  0.00     0.027 H 
ATOM     36  H   LIG d   1       9.249   0.808  -5.178  0.00  0.00     0.031 H 
ATOM     37  H   LIG d   1       9.198   0.528  -3.426  0.00  0.00     0.031 H 
ATOM     38  H   LIG d   1       7.279  -0.305  -2.346  0.00  0.00     0.066 H 
ATOM     39  H   LIG d   1       4.042  -1.794  -4.707  0.00  0.00     0.069 H 
ENDROOT
BRANCH   1  40
ATOM     40  C   LIG d   1       5.871   2.144  -9.107  0.00  0.00    -0.028 C 
ATOM     41  H   LIG d   1       5.050   1.721  -8.528  0.00  0.00     0.026 H 
ATOM     42  H   LIG d   1       6.234   3.047  -8.617  0.00  0.00     0.026 H 
ATOM     43  H   LIG d   1       5.519   2.390 -10.109  0.00  0.00     0.026 H 
ENDBRANCH   1  40
BRANCH  17  44
ATOM     44  O   LIG d   1       4.882  -0.784  -6.953  0.00  0.00    -0.494 OA
BRANCH  44  45
ATOM     45  C   LIG d   1       3.570  -0.226  -7.052  0.00  0.00     0.079 C 
ATOM     46  H   LIG d   1       2.939  -0.638  -6.265  0.00  0.00     0.066 H 
ATOM     47  H   LIG d   1       3.627   0.857  -6.943  0.00  0.00     0.066 H 
ATOM     48  H   LIG d   1       3.144  -0.471  -8.025  0.00  0.00     0.066 H 
ENDBRANCH  44  45
ENDBRANCH  17  44
BRANCH   7  49
ATOM     49  O   LIG d   1       9.156   6.505  -8.782  0.00  0.00    -0.409 OA
ATOM     50  H   LIG d   1       9.854   6.765  -9.398  0.00  0.00     0.328 HD
ENDBRANCH   7  49
BRANCH  15  51
ATOM     51  O   LIG d   1       5.055  -1.683  -2.299  0.00  0.00    -0.495 OA
BRANCH  51  52
ATOM     52  C   LIG d   1       3.690  -2.096  -2.388  0.00  0.00     0.079 C 
ATOM     53  H   LIG d   1       3.072  -1.445  -1.771  0.00  0.00     0.066 H 
ATOM     54  H   LIG d   1       3.359  -2.037  -3.424  0.00  0.00     0.066 H 
ATOM     55  H   LIG d   1       3.598  -3.124  -2.036  0.00  0.00     0.066 H 
ENDBRANCH  51  52
ENDBRANCH  15  51
TORSDOF 6
ENDMDL
MODEL 8
REMARK VINA RESULT:      -5.3      3.375      6.868
REMARK  6 active torsions:
REMARK  status: ('A' for Active; 'I' for Inactive)
REMARK    1  A    between atoms: C_1  and  C_2 
REMARK    2  A    between atoms: N_8  and  O_9 
REMARK    3  A    between atoms: C_17  and  O_26 
REMARK    4  A    between atoms: C_19  and  O_24 
REMARK    5  A    between atoms: O_24  and  C_25 
REMARK    6  A    between atoms: O_26  and  C_27 
ROOT
ATOM      1  C   LIG d   1       4.528  -4.794  -9.437  0.00  0.00     0.101 C 
ATOM      2  H   LIG d   1       5.172  -5.654  -9.692  0.00  0.00     0.073 H 
ATOM      3  C   LIG d   1       4.512  -3.848 -10.630  0.00  0.00    -0.016 C 
ATOM      4  C   LIG d   1       3.103  -3.433 -11.036  0.00  0.00    -0.044 C 
ATOM      5  C   LIG d   1       3.191  -2.307 -12.075  0.00  0.00    -0.011 C 
ATOM      6  C   LIG d   1       2.325  -1.156 -11.634  0.00  0.00     0.058 C 
ATOM      7  N   LIG d   1       1.087  -1.121 -11.958  0.00  0.00    -0.097 NA
ATOM      8  C   LIG d   1       2.916  -0.042 -10.810  0.00  0.00    -0.011 C 
ATOM      9  C   LIG d   1       1.995   0.264  -9.627  0.00  0.00    -0.048 C 
ATOM     10  C   LIG d   1       2.791   0.961  -8.523  0.00  0.00    -0.052 C 
ATOM     11  C   LIG d   1       2.942   0.022  -7.325  0.00  0.00    -0.049 C 
ATOM     12  C   LIG d   1       4.427  -0.193  -7.032  0.00  0.00    -0.027 C 
ATOM     13  C   LIG d   1       4.591  -1.300  -6.023  0.00  0.00    -0.026 A 
ATOM     14  C   LIG d   1       4.665  -0.978  -4.685  0.00  0.00    -0.016 A 
ATOM     15  C   LIG d   1       4.831  -1.975  -3.731  0.00  0.00     0.124 A 
ATOM     16  C   LIG d   1       4.921  -3.302  -4.120  0.00  0.00     0.023 A 
ATOM     17  C   LIG d   1       4.848  -3.640  -5.461  0.00  0.00     0.138 A 
ATOM     18  C   LIG d   1       4.679  -2.635  -6.428  0.00  0.00     0.104 A 
ATOM     19  C   LIG d   1       4.578  -2.997  -7.852  0.00  0.00     0.343 C 
ATOM     20  O   LIG d   1       4.062  -2.223  -8.632  0.00  0.00    -0.245 OA
ATOM     21  O   LIG d   1       5.086  -4.160  -8.291  0.00  0.00    -0.458 OA
ATOM     22  H   LIG d   1       5.101  -2.954 -10.401  0.00  0.00     0.030 H 
ATOM     23  H   LIG d   1       4.989  -4.347 -11.485  0.00  0.00     0.030 H 
ATOM     24  H   LIG d   1       2.579  -4.275 -11.489  0.00  0.00     0.027 H 
ATOM     25  H   LIG d   1       2.543  -3.059 -10.180  0.00  0.00     0.027 H 
ATOM     26  H   LIG d   1       4.225  -1.974 -12.159  0.00  0.00     0.033 H 
ATOM     27  H   LIG d   1       2.843  -2.678 -13.038  0.00  0.00     0.033 H 
ATOM     28  H   LIG d   1       3.897  -0.344 -10.442  0.00  0.00     0.033 H 
ATOM     29  H   LIG d   1       3.014   0.853 -11.427  0.00  0.00     0.033 H 
ATOM     30  H   LIG d   1       1.187   0.919  -9.959  0.00  0.00     0.027 H 
ATOM     31  H   LIG d   1       1.570  -0.663  -9.242  0.00  0.00     0.027 H 
ATOM     32  H   LIG d   1       3.778   1.229  -8.900  0.00  0.00     0.026 H 
ATOM     33  H   LIG d   1       2.264   1.864  -8.213  0.00  0.00     0.026 H 
ATOM     34  H   LIG d   1       2.462   0.468  -6.454  0.00  0.00     0.027 H 
ATOM     35  H   LIG d   1       2.468  -0.935  -7.543  0.00  0.00     0.027 H 
ATOM     36  H   LIG d   1       4.956  -0.442  -7.950  0.00  0.00     0.031 H 
ATOM     37  H   LIG d   1       4.848   0.728  -6.618  0.00  0.00     0.031 H 
ATOM     38  H   LIG d   1       4.598   0.056  -4.376  0.00  0.00     0.066 H 
ATOM     39  H   LIG d   1       5.056  -4.075  -3.379  0.00  0.00     0.069 H 
ENDROOT
BRANCH   1  40
ATOM     40  C   LIG d   1       3.138  -5.337  -9.118  0.00  0.00    -0.028 C 
ATOM     41  H   LIG d   1       2.898  -5.131  -8.075  0.00  0.00     0.026 H 
ATOM     42  H   LIG d   1       2.402  -4.854  -9.762  0.00  0.00     0.026 H 
ATOM     43  H   LIG d   1       3.121  -6.413  -9.289  0.00  0.00     0.026 H 
ENDBRANCH   1  40
BRANCH  17  44
ATOM     44  O   LIG d   1       4.930  -4.943  -5.828  0.00  0.00    -0.494 OA
BRANCH  44  45
ATOM     45  C   LIG d   1       6.148  -5.626  -5.525  0.00  0.00     0.079 C 
ATOM     46  H   LIG d   1       6.115  -5.989  -4.498  0.00  0.00     0.066 H 
ATOM     47  H   LIG d   1       6.270  -6.469  -6.205  0.00  0.00     0.066 H 
ATOM     48  H   LIG d   1       6.988  -4.941  -5.641  0.00  0.00     0.066 H 
ENDBRANCH  44  45
ENDBRANCH  17  44
BRANCH   7  49
ATOM     49  O   LIG d   1       0.529  -2.166 -12.732  0.00  0.00    -0.409 OA
ATOM     50  H   LIG d   1       0.700  -2.087 -13.681  0.00  0.00     0.328 HD
ENDBRANCH   7  49
BRANCH  15  51
ATOM     51  O   LIG d   1       4.909  -1.649  -2.415  0.00  0.00    -0.495 OA
BRANCH  51  52
ATOM     52  C   LIG d   1       4.292  -0.425  -2.014  0.00  0.00     0.079 C 
ATOM     53  H   LIG d   1       3.635  -0.609  -1.164  0.00  0.00     0.066 H 
ATOM     54  H   LIG d   1       5.061   0.293  -1.729  0.00  0.00     0.066 H 
ATOM     55  H   LIG d   1       3.709  -0.022  -2.843  0.00  0.00     0.066 H 
ENDBRANCH  51  52
ENDBRANCH  15  51
TORSDOF 6
ENDMDL
MODEL 9
REMARK VINA RESULT:      -5.2     10.620     13.237
REMARK  6 active torsions:
REMARK  status: ('A' for Active; 'I' for Inactive)
REMARK    1  A    between atoms: C_1  and  C_2 
REMARK    2  A    between atoms: N_8  and  O_9 
REMARK    3  A    between atoms: C_17  and  O_26 
REMARK    4  A    between atoms: C_19  and  O_24 
REMARK    5  A    between atoms: O_24  and  C_25 
REMARK    6  A    between atoms: O_26  and  C_27 
ROOT
ATOM      1  C   LIG d   1      10.467  11.831  -3.379  0.00  0.00     0.101 C 
ATOM      2  H   LIG d   1      10.223  12.785  -2.879  0.00  0.00     0.073 H 
ATOM      3  C   LIG d   1       9.643  11.745  -4.655  0.00  0.00    -0.016 C 
ATOM      4  C   LIG d   1      10.481  11.381  -5.875  0.00  0.00    -0.044 C 
ATOM      5  C   LIG d   1       9.547  11.081  -7.056  0.00  0.00    -0.011 C 
ATOM      6  C   LIG d   1       9.912   9.747  -7.652  0.00  0.00     0.058 C 
ATOM      7  N   LIG d   1      10.804   9.674  -8.567  0.00  0.00    -0.097 NA
ATOM      8  C   LIG d   1       9.226   8.494  -7.172  0.00  0.00    -0.011 C 
ATOM      9  C   LIG d   1      10.270   7.409  -6.905  0.00  0.00    -0.048 C 
ATOM     10  C   LIG d   1       9.696   6.371  -5.940  0.00  0.00    -0.052 C 
ATOM     11  C   LIG d   1      10.408   6.474  -4.590  0.00  0.00    -0.049 C 
ATOM     12  C   LIG d   1       9.380   6.755  -3.494  0.00  0.00    -0.027 C 
ATOM     13  C   LIG d   1      10.087   7.103  -2.209  0.00  0.00    -0.026 A 
ATOM     14  C   LIG d   1      10.357   6.100  -1.304  0.00  0.00    -0.016 A 
ATOM     15  C   LIG d   1      10.996   6.391  -0.104  0.00  0.00     0.124 A 
ATOM     16  C   LIG d   1      11.366   7.694   0.189  0.00  0.00     0.023 A 
ATOM     17  C   LIG d   1      11.101   8.711  -0.713  0.00  0.00     0.138 A 
ATOM     18  C   LIG d   1      10.457   8.420  -1.927  0.00  0.00     0.104 A 
ATOM     19  C   LIG d   1      10.197   9.500  -2.895  0.00  0.00     0.343 C 
ATOM     20  O   LIG d   1      10.008   9.225  -4.062  0.00  0.00    -0.245 OA
ATOM     21  O   LIG d   1      10.133  10.776  -2.483  0.00  0.00    -0.458 OA
ATOM     22  H   LIG d   1       8.845  11.006  -4.532  0.00  0.00     0.030 H 
ATOM     23  H   LIG d   1       9.167  12.718  -4.837  0.00  0.00     0.030 H 
ATOM     24  H   LIG d   1      11.124  12.217  -6.153  0.00  0.00     0.027 H 
ATOM     25  H   LIG d   1      11.082  10.493  -5.687  0.00  0.00     0.027 H 
ATOM     26  H   LIG d   1       8.517  11.053  -6.701  0.00  0.00     0.033 H 
ATOM     27  H   LIG d   1       9.656  11.860  -7.808  0.00  0.00     0.033 H 
ATOM     28  H   LIG d   1       8.679   8.711  -6.254  0.00  0.00     0.033 H 
ATOM     29  H   LIG d   1       8.534   8.144  -7.940  0.00  0.00     0.033 H 
ATOM     30  H   LIG d   1      10.533   6.922  -7.847  0.00  0.00     0.027 H 
ATOM     31  H   LIG d   1      11.164   7.857  -6.472  0.00  0.00     0.027 H 
ATOM     32  H   LIG d   1       8.630   6.551  -5.803  0.00  0.00     0.026 H 
ATOM     33  H   LIG d   1       9.845   5.373  -6.354  0.00  0.00     0.026 H 
ATOM     34  H   LIG d   1      10.916   5.534  -4.377  0.00  0.00     0.027 H 
ATOM     35  H   LIG d   1      11.143   7.279  -4.619  0.00  0.00     0.027 H 
ATOM     36  H   LIG d   1       8.728   7.573  -3.795  0.00  0.00     0.031 H 
ATOM     37  H   LIG d   1       8.773   5.859  -3.333  0.00  0.00     0.031 H 
ATOM     38  H   LIG d   1      10.067   5.083  -1.526  0.00  0.00     0.066 H 
ATOM     39  H   LIG d   1      11.856   7.920   1.124  0.00  0.00     0.069 H 
ENDROOT
BRANCH   1  40
ATOM     40  C   LIG d   1      11.967  11.830  -3.663  0.00  0.00    -0.028 C 
ATOM     41  H   LIG d   1      12.220  12.693  -4.279  0.00  0.00     0.026 H 
ATOM     42  H   LIG d   1      12.515  11.880  -2.723  0.00  0.00     0.026 H 
ATOM     43  H   LIG d   1      12.235  10.915  -4.192  0.00  0.00     0.026 H 
ENDBRANCH   1  40
BRANCH  17  44
ATOM     44  O   LIG d   1      11.476   9.981  -0.418  0.00  0.00    -0.494 OA
BRANCH  44  45
ATOM     45  C   LIG d   1      11.374  10.386   0.949  0.00  0.00     0.079 C 
ATOM     46  H   LIG d   1      11.410  11.473   1.009  0.00  0.00     0.066 H 
ATOM     47  H   LIG d   1      10.432  10.029   1.364  0.00  0.00     0.066 H 
ATOM     48  H   LIG d   1      12.204   9.963   1.515  0.00  0.00     0.066 H 
ENDBRANCH  44  45
ENDBRANCH  17  44
BRANCH   7  49
ATOM     49  O   LIG d   1      11.451  10.849  -9.020  0.00  0.00    -0.409 OA
ATOM     50  H   LIG d   1      12.205  10.683  -9.602  0.00  0.00     0.328 HD
ENDBRANCH   7  49
BRANCH  15  51
ATOM     51  O   LIG d   1      11.253   5.398   0.786  0.00  0.00    -0.495 OA
BRANCH  51  52
ATOM     52  C   LIG d   1      10.896   5.642   2.148  0.00  0.00     0.079 C 
ATOM     53  H   LIG d   1      10.604   4.705   2.621  0.00  0.00     0.066 H 
ATOM     54  H   LIG d   1      11.751   6.064   2.677  0.00  0.00     0.066 H 
ATOM     55  H   LIG d   1      10.063   6.344   2.186  0.00  0.00     0.066 H 
ENDBRANCH  51  52
ENDBRANCH  15  51
TORSDOF 6
ENDMDL
MODEL 10
REMARK VINA RESULT:      -5.2      7.786     10.767
REMARK  6 active torsions:
REMARK  status: ('A' for Active; 'I' for Inactive)
REMARK    1  A    between atoms: C_1  and  C_2 
REMARK    2  A    between atoms: N_8  and  O_9 
REMARK    3  A    between atoms: C_17  and  O_26 
REMARK    4  A    between atoms: C_19  and  O_24 
REMARK    5  A    between atoms: O_24  and  C_25 
REMARK    6  A    between atoms: O_26  and  C_27 
ROOT
ATOM      1  C   LIG d   1      11.968   3.402  -6.877  0.00  0.00     0.101 C 
ATOM      2  H   LIG d   1      12.756   2.628  -6.852  0.00  0.00     0.073 H 
ATOM      3  C   LIG d   1      12.203   4.274  -8.102  0.00  0.00    -0.016 C 
ATOM      4  C   LIG d   1      10.944   4.466  -8.939  0.00  0.00    -0.044 C 
ATOM      5  C   LIG d   1      11.209   5.540 -10.004  0.00  0.00    -0.011 C 
ATOM      6  C   LIG d   1      10.120   6.579  -9.942  0.00  0.00     0.058 C 
ATOM      7  N   LIG d   1       9.043   6.424 -10.617  0.00  0.00    -0.097 NA
ATOM      8  C   LIG d   1      10.298   7.806  -9.085  0.00  0.00    -0.011 C 
ATOM      9  C   LIG d   1       9.032   8.039  -8.257  0.00  0.00    -0.048 C 
ATOM     10  C   LIG d   1       9.369   8.895  -7.036  0.00  0.00    -0.052 C 
ATOM     11  C   LIG d   1       9.260   8.049  -5.767  0.00  0.00    -0.049 C 
ATOM     12  C   LIG d   1      10.601   8.059  -5.032  0.00  0.00    -0.027 C 
ATOM     13  C   LIG d   1      10.581   7.038  -3.924  0.00  0.00    -0.026 A 
ATOM     14  C   LIG d   1      10.208   7.435  -2.658  0.00  0.00    -0.016 A 
ATOM     15  C   LIG d   1      10.194   6.520  -1.611  0.00  0.00     0.124 A 
ATOM     16  C   LIG d   1      10.554   5.201  -1.836  0.00  0.00     0.023 A 
ATOM     17  C   LIG d   1      10.931   4.789  -3.103  0.00  0.00     0.138 A 
ATOM     18  C   LIG d   1      10.945   5.710  -4.163  0.00  0.00     0.104 A 
ATOM     19  C   LIG d   1      11.323   5.265  -5.516  0.00  0.00     0.343 C 
ATOM     20  O   LIG d   1      10.980   5.919  -6.479  0.00  0.00    -0.245 OA
ATOM     21  O   LIG d   1      12.074   4.164  -5.679  0.00  0.00    -0.458 OA
ATOM     22  H   LIG d   1      12.584   5.252  -7.792  0.00  0.00     0.030 H 
ATOM     23  H   LIG d   1      12.971   3.804  -8.730  0.00  0.00     0.030 H 
ATOM     24  H   LIG d   1      10.685   3.537  -9.448  0.00  0.00     0.027 H 
ATOM     25  H   LIG d   1      10.111   4.801  -8.323  0.00  0.00     0.027 H 
ATOM     26  H   LIG d   1      12.172   6.009  -9.810  0.00  0.00     0.033 H 
ATOM     27  H   LIG d   1      11.215   5.075 -10.989  0.00  0.00     0.033 H 
ATOM     28  H   LIG d   1      11.149   7.662  -8.420  0.00  0.00     0.033 H 
ATOM     29  H   LIG d   1      10.471   8.672  -9.725  0.00  0.00     0.033 H 
ATOM     30  H   LIG d   1       8.291   8.556  -8.869  0.00  0.00     0.027 H 
ATOM     31  H   LIG d   1       8.624   7.082  -7.931  0.00  0.00     0.027 H 
ATOM     32  H   LIG d   1      10.384   9.280  -7.129  0.00  0.00     0.026 H 
ATOM     33  H   LIG d   1       8.669   9.730  -6.977  0.00  0.00     0.026 H 
ATOM     34  H   LIG d   1       8.489   8.467  -5.119  0.00  0.00     0.027 H 
ATOM     35  H   LIG d   1       8.991   7.025  -6.027  0.00  0.00     0.027 H 
ATOM     36  H   LIG d   1      11.408   7.840  -5.728  0.00  0.00     0.031 H 
ATOM     37  H   LIG d   1      10.764   9.050  -4.599  0.00  0.00     0.031 H 
ATOM     38  H   LIG d   1       9.929   8.464  -2.478  0.00  0.00     0.066 H 
ATOM     39  H   LIG d   1      10.549   4.493  -1.020  0.00  0.00     0.069 H 
ENDROOT
BRANCH   1  40
ATOM     40  C   LIG d   1      10.621   2.686  -6.932  0.00  0.00    -0.028 C 
ATOM     41  H   LIG d   1      10.783   1.608  -6.936  0.00  0.00     0.026 H 
ATOM     42  H   LIG d   1      10.027   2.961  -6.061  0.00  0.00     0.026 H 
ATOM     43  H   LIG d   1      10.093   2.978  -7.839  0.00  0.00     0.026 H 
ENDBRANCH   1  40
BRANCH  17  44
ATOM     44  O   LIG d   1      11.274   3.493  -3.310  0.00  0.00    -0.494 OA
BRANCH  44  45
ATOM     45  C   LIG d   1      10.235   2.520  -3.189  0.00  0.00     0.079 C 
ATOM     46  H   LIG d   1      10.598   1.672  -2.608  0.00  0.00     0.066 H 
ATOM     47  H   LIG d   1       9.378   2.965  -2.685  0.00  0.00     0.066 H 
ATOM     48  H   LIG d   1       9.938   2.180  -4.181  0.00  0.00     0.066 H 
ENDBRANCH  44  45
ENDBRANCH  17  44
BRANCH   7  49
ATOM     49  O   LIG d   1       8.873   5.273 -11.423  0.00  0.00    -0.409 OA
ATOM     50  H   LIG d   1       8.440   5.447 -12.270  0.00  0.00     0.328 HD
ENDBRANCH   7  49
BRANCH  15  51
ATOM     51  O   LIG d   1       9.831   6.920  -0.366  0.00  0.00    -0.495 OA
BRANCH  51  52
ATOM     52  C   LIG d   1      10.859   6.960   0.626  0.00  0.00     0.079 C 
ATOM     53  H   LIG d   1      11.834   6.927   0.142  0.00  0.00     0.066 H 
ATOM     54  H   LIG d   1      10.771   7.881   1.203  0.00  0.00     0.066 H 
ATOM     55  H   LIG d   1      10.754   6.103   1.293  0.00  0.00     0.066 H 
ENDBRANCH  51  52
ENDBRANCH  15  51
TORSDOF 6
ENDMDL
