MODEL 1
REMARK VINA RESULT:      -7.2      0.000      0.000
REMARK  6 active torsions:
REMARK  status: ('A' for Active; 'I' for Inactive)
REMARK    1  A    between atoms: C_4  and  C_23 
REMARK    2  A    between atoms: C_10  and  C_11 
REMARK    3  A    between atoms: C_23  and  N_24 
REMARK    4  A    between atoms: N_27  and  C_30 
REMARK    5  A    between atoms: C_30  and  C_31 
REMARK    6  A    between atoms: C_31  and  O_32 
ROOT
ATOM      1  C   LIG d   1      10.125   4.554  -7.330  0.00  0.00    -0.048 A 
ATOM      2  C   LIG d   1      10.077   4.440  -8.691  0.00  0.00    -0.068 A 
ATOM      3  C   LIG d   1       9.361   3.403  -9.282  0.00  0.00    -0.100 A 
ATOM      4  C   LIG d   1       8.680   2.483  -8.501  0.00  0.00     0.002 A 
ATOM      5  C   LIG d   1       8.719   2.583  -7.116  0.00  0.00     0.143 A 
ATOM      6  C   LIG d   1       9.450   3.630  -6.532  0.00  0.00     0.068 A 
ATOM      7  C   LIG d   1       9.304   3.475  -5.073  0.00  0.00     0.232 A 
ATOM      8  O   LIG d   1       9.782   4.176  -4.196  0.00  0.00    -0.283 OA
ATOM      9  C   LIG d   1       8.455   2.286  -4.911  0.00  0.00     0.176 A 
ATOM     10  C   LIG d   1       8.045   1.748  -3.735  0.00  0.00    -0.005 C 
ATOM     11  O   LIG d   1       8.156   1.826  -6.149  0.00  0.00    -0.451 OA
ATOM     12  O   LIG d   1       9.323   3.296 -10.635  0.00  0.00    -0.873 OA
ATOM     13  H   LIG d   1      10.686   5.356  -6.874  0.00  0.00     0.063 H 
ATOM     14  H   LIG d   1      10.600   5.155  -9.310  0.00  0.00     0.061 H 
ATOM     15  H   LIG d   1       8.265   2.262  -2.788  0.00  0.00     0.066 H 
ENDROOT
BRANCH   4  16
ATOM     16  C   LIG d   1       7.904   1.369  -9.154  0.00  0.00     0.027 C 
ATOM     17  H   LIG d   1       7.726   1.616 -10.211  0.00  0.00     0.048 H 
ATOM     18  H   LIG d   1       8.478   0.433  -9.087  0.00  0.00     0.048 H 
BRANCH  16  19
ATOM     19  N   LIG d   1       6.615   1.204  -8.467  0.00  0.00    -0.296 N 
ATOM     20  C   LIG d   1       6.452  -0.173  -7.979  0.00  0.00     0.012 C 
ATOM     21  C   LIG d   1       5.136  -0.284  -7.203  0.00  0.00     0.012 C 
ATOM     22  H   LIG d   1       6.433  -0.866  -8.834  0.00  0.00     0.044 H 
ATOM     23  H   LIG d   1       7.292  -0.430  -7.317  0.00  0.00     0.044 H 
ATOM     24  N   LIG d   1       4.020   0.098  -8.079  0.00  0.00    -0.298 N 
ATOM     25  H   LIG d   1       5.166   0.389  -6.333  0.00  0.00     0.044 H 
ATOM     26  H   LIG d   1       4.998  -1.320  -6.861  0.00  0.00     0.044 H 
ATOM     27  C   LIG d   1       4.184   1.474  -8.567  0.00  0.00     0.012 C 
ATOM     28  C   LIG d   1       5.499   1.584  -9.343  0.00  0.00     0.012 C 
ATOM     29  H   LIG d   1       4.203   2.167  -7.713  0.00  0.00     0.044 H 
ATOM     30  H   LIG d   1       3.345   1.732  -9.230  0.00  0.00     0.044 H 
ATOM     31  H   LIG d   1       5.638   2.621  -9.685  0.00  0.00     0.044 H 
ATOM     32  H   LIG d   1       5.470   0.913 -10.214  0.00  0.00     0.044 H 
BRANCH  24  33
ATOM     33  C   LIG d   1       2.732  -0.068  -7.393  0.00  0.00     0.022 C 
ATOM     34  H   LIG d   1       1.989   0.610  -7.838  0.00  0.00     0.045 H 
ATOM     35  H   LIG d   1       2.392  -1.108  -7.500  0.00  0.00     0.045 H 
BRANCH  33  36
ATOM     36  C   LIG d   1       2.899   0.265  -5.909  0.00  0.00     0.057 C 
ATOM     37  H   LIG d   1       3.775  -0.266  -5.510  0.00  0.00     0.057 H 
ATOM     38  H   LIG d   1       3.041   1.350  -5.789  0.00  0.00     0.057 H 
BRANCH  36  39
ATOM     39  O   LIG d   1       1.730  -0.143  -5.195  0.00  0.00    -0.394 OA
ATOM     40  H   LIG d   1       0.865   0.532  -5.126  0.00  0.00     0.209 HD
ENDBRANCH  36  39
ENDBRANCH  33  36
ENDBRANCH  24  33
ENDBRANCH  16  19
ENDBRANCH   4  16
BRANCH  10  41
ATOM     41  C   LIG d   1       7.307   0.479  -3.726  0.00  0.00     0.022 A 
ATOM     42  C   LIG d   1       6.020   0.414  -3.166  0.00  0.00     0.136 A 
ATOM     43  C   LIG d   1       5.332  -0.787  -3.166  0.00  0.00     0.022 A 
ATOM     44  O   LIG d   1       5.466   1.529  -2.626  0.00  0.00    -0.465 OA
ATOM     45  C   LIG d   1       5.912  -1.918  -3.713  0.00  0.00    -0.035 A 
ATOM     46  C   LIG d   1       3.947  -0.874  -2.573  0.00  0.00     0.080 C 
ATOM     47  C   LIG d   1       7.181  -1.860  -4.266  0.00  0.00     0.042 A 
ATOM     48  H   LIG d   1       5.370  -2.853  -3.708  0.00  0.00     0.064 H 
ATOM     49  C   LIG d   1       7.880  -0.671  -4.282  0.00  0.00    -0.033 A 
ATOM     50 CL   LIG d   1       7.893  -3.289  -4.947  0.00  0.00    -0.084 Cl
ATOM     51  H   LIG d   1       8.867  -0.629  -4.718  0.00  0.00     0.064 H 
ATOM     52  O   LIG d   1       3.712   0.276  -1.754  0.00  0.00    -0.339 OA
ATOM     53  H   LIG d   1       3.204  -0.908  -3.382  0.00  0.00     0.061 H 
ATOM     54  H   LIG d   1       3.866  -1.784  -1.962  0.00  0.00     0.061 H 
ATOM     55  C   LIG d   1       4.052   1.506  -2.405  0.00  0.00     0.191 C 
ATOM     56  H   LIG d   1       3.768   2.358  -1.768  0.00  0.00     0.102 H 
ATOM     57  H   LIG d   1       3.529   1.578  -3.369  0.00  0.00     0.102 H 
ENDBRANCH  10  41
TORSDOF 6
ENDMDL
MODEL 2
REMARK VINA RESULT:      -6.6      4.815      6.634
REMARK  6 active torsions:
REMARK  status: ('A' for Active; 'I' for Inactive)
REMARK    1  A    between atoms: C_4  and  C_23 
REMARK    2  A    between atoms: C_10  and  C_11 
REMARK    3  A    between atoms: C_23  and  N_24 
REMARK    4  A    between atoms: N_27  and  C_30 
REMARK    5  A    between atoms: C_30  and  C_31 
REMARK    6  A    between atoms: C_31  and  O_32 
ROOT
ATOM      1  C   LIG d   1       2.903   1.010  -7.876  0.00  0.00    -0.048 A 
ATOM      2  C   LIG d   1       2.557   0.990  -9.198  0.00  0.00    -0.068 A 
ATOM      3  C   LIG d   1       2.795  -0.147  -9.966  0.00  0.00    -0.100 A 
ATOM      4  C   LIG d   1       3.371  -1.272  -9.400  0.00  0.00     0.002 A 
ATOM      5  C   LIG d   1       3.729  -1.268  -8.058  0.00  0.00     0.143 A 
ATOM      6  C   LIG d   1       3.491  -0.114  -7.295  0.00  0.00     0.068 A 
ATOM      7  C   LIG d   1       3.969  -0.410  -5.932  0.00  0.00     0.232 A 
ATOM      8  O   LIG d   1       3.948   0.323  -4.958  0.00  0.00    -0.283 OA
ATOM      9  C   LIG d   1       4.477  -1.787  -6.010  0.00  0.00     0.176 A 
ATOM     10  C   LIG d   1       5.023  -2.500  -4.993  0.00  0.00    -0.005 C 
ATOM     11  O   LIG d   1       4.300  -2.216  -7.283  0.00  0.00    -0.451 OA
ATOM     12  O   LIG d   1       2.452  -0.155 -11.280  0.00  0.00    -0.873 OA
ATOM     13  H   LIG d   1       2.723   1.894  -7.283  0.00  0.00     0.063 H 
ATOM     14  H   LIG d   1       2.102   1.860  -9.649  0.00  0.00     0.061 H 
ATOM     15  H   LIG d   1       5.028  -2.088  -3.973  0.00  0.00     0.066 H 
ENDROOT
BRANCH   4  16
ATOM     16  C   LIG d   1       3.616  -2.497 -10.241  0.00  0.00     0.027 C 
ATOM     17  H   LIG d   1       3.582  -2.224 -11.306  0.00  0.00     0.048 H 
ATOM     18  H   LIG d   1       4.605  -2.916 -10.002  0.00  0.00     0.048 H 
BRANCH  16  19
ATOM     19  N   LIG d   1       2.579  -3.500  -9.960  0.00  0.00    -0.296 N 
ATOM     20  C   LIG d   1       3.124  -4.861 -10.053  0.00  0.00     0.012 C 
ATOM     21  C   LIG d   1       2.035  -5.870  -9.677  0.00  0.00     0.012 C 
ATOM     22  H   LIG d   1       3.461  -5.052 -11.083  0.00  0.00     0.044 H 
ATOM     23  H   LIG d   1       3.975  -4.964  -9.364  0.00  0.00     0.044 H 
ATOM     24  N   LIG d   1       0.884  -5.703 -10.575  0.00  0.00    -0.298 N 
ATOM     25  H   LIG d   1       1.718  -5.697  -8.638  0.00  0.00     0.044 H 
ATOM     26  H   LIG d   1       2.432  -6.891  -9.774  0.00  0.00     0.044 H 
ATOM     27  C   LIG d   1       0.340  -4.342 -10.481  0.00  0.00     0.012 C 
ATOM     28  C   LIG d   1       1.429  -3.333 -10.858  0.00  0.00     0.012 C 
ATOM     29  H   LIG d   1       0.004  -4.150  -9.451  0.00  0.00     0.044 H 
ATOM     30  H   LIG d   1      -0.511  -4.237 -11.171  0.00  0.00     0.044 H 
ATOM     31  H   LIG d   1       1.032  -2.311 -10.761  0.00  0.00     0.044 H 
ATOM     32  H   LIG d   1       1.746  -3.506 -11.897  0.00  0.00     0.044 H 
BRANCH  24  33
ATOM     33  C   LIG d   1      -0.152  -6.705 -10.293  0.00  0.00     0.022 C 
ATOM     34  H   LIG d   1      -0.461  -7.187 -11.232  0.00  0.00     0.045 H 
ATOM     35  H   LIG d   1       0.250  -7.464  -9.605  0.00  0.00     0.045 H 
BRANCH  33  36
ATOM     36  C   LIG d   1      -1.361  -6.022  -9.650  0.00  0.00     0.057 C 
ATOM     37  H   LIG d   1      -1.238  -4.931  -9.706  0.00  0.00     0.057 H 
ATOM     38  H   LIG d   1      -2.276  -6.316 -10.186  0.00  0.00     0.057 H 
BRANCH  36  39
ATOM     39  O   LIG d   1      -1.461  -6.422  -8.282  0.00  0.00    -0.394 OA
ATOM     40  H   LIG d   1      -2.098  -7.273  -8.003  0.00  0.00     0.209 HD
ENDBRANCH  36  39
ENDBRANCH  33  36
ENDBRANCH  24  33
ENDBRANCH  16  19
ENDBRANCH   4  16
BRANCH  10  41
ATOM     41  C   LIG d   1       5.609  -3.820  -5.253  0.00  0.00     0.022 A 
ATOM     42  C   LIG d   1       6.961  -4.065  -4.953  0.00  0.00     0.136 A 
ATOM     43  C   LIG d   1       7.502  -5.315  -5.199  0.00  0.00     0.022 A 
ATOM     44  O   LIG d   1       7.722  -3.072  -4.429  0.00  0.00    -0.465 OA
ATOM     45  C   LIG d   1       6.717  -6.316  -5.741  0.00  0.00    -0.035 A 
ATOM     46  C   LIG d   1       8.950  -5.595  -4.878  0.00  0.00     0.080 C 
ATOM     47  C   LIG d   1       5.384  -6.080  -6.041  0.00  0.00     0.042 A 
ATOM     48  H   LIG d   1       7.146  -7.288  -5.933  0.00  0.00     0.064 H 
ATOM     49  C   LIG d   1       4.824  -4.844  -5.795  0.00  0.00    -0.033 A 
ATOM     50 CL   LIG d   1       4.413  -7.349  -6.720  0.00  0.00    -0.084 Cl
ATOM     51  H   LIG d   1       3.784  -4.665  -6.025  0.00  0.00     0.064 H 
ATOM     52  O   LIG d   1       9.641  -4.357  -4.694  0.00  0.00    -0.339 OA
ATOM     53  H   LIG d   1       9.011  -6.193  -3.957  0.00  0.00     0.061 H 
ATOM     54  H   LIG d   1       9.408  -6.153  -5.708  0.00  0.00     0.061 H 
ATOM     55  C   LIG d   1       8.955  -3.458  -3.814  0.00  0.00     0.191 C 
ATOM     56  H   LIG d   1       9.571  -2.563  -3.636  0.00  0.00     0.102 H 
ATOM     57  H   LIG d   1       8.747  -3.956  -2.856  0.00  0.00     0.102 H 
ENDBRANCH  10  41
TORSDOF 6
ENDMDL
MODEL 3
REMARK VINA RESULT:      -6.4      3.015      5.846
REMARK  6 active torsions:
REMARK  status: ('A' for Active; 'I' for Inactive)
REMARK    1  A    between atoms: C_4  and  C_23 
REMARK    2  A    between atoms: C_10  and  C_11 
REMARK    3  A    between atoms: C_23  and  N_24 
REMARK    4  A    between atoms: N_27  and  C_30 
REMARK    5  A    between atoms: C_30  and  C_31 
REMARK    6  A    between atoms: C_31  and  O_32 
ROOT
ATOM      1  C   LIG d   1       9.930   2.741  -6.971  0.00  0.00    -0.048 A 
ATOM      2  C   LIG d   1      10.234   2.614  -5.645  0.00  0.00    -0.068 A 
ATOM      3  C   LIG d   1       9.339   1.992  -4.778  0.00  0.00    -0.100 A 
ATOM      4  C   LIG d   1       8.139   1.485  -5.249  0.00  0.00     0.002 A 
ATOM      5  C   LIG d   1       7.814   1.606  -6.594  0.00  0.00     0.143 A 
ATOM      6  C   LIG d   1       8.722   2.241  -7.458  0.00  0.00     0.068 A 
ATOM      7  C   LIG d   1       8.108   2.216  -8.798  0.00  0.00     0.232 A 
ATOM      8  O   LIG d   1       8.565   2.662  -9.837  0.00  0.00    -0.283 OA
ATOM      9  C   LIG d   1       6.821   1.533  -8.602  0.00  0.00     0.176 A 
ATOM     10  C   LIG d   1       5.896   1.274  -9.560  0.00  0.00    -0.005 C 
ATOM     11  O   LIG d   1       6.726   1.209  -7.290  0.00  0.00    -0.451 OA
ATOM     12  O   LIG d   1       9.649   1.876  -3.462  0.00  0.00    -0.873 OA
ATOM     13  H   LIG d   1      10.623   3.228  -7.641  0.00  0.00     0.063 H 
ATOM     14  H   LIG d   1      11.169   3.001  -5.267  0.00  0.00     0.061 H 
ATOM     15  H   LIG d   1       6.120   1.493 -10.614  0.00  0.00     0.066 H 
ENDROOT
BRANCH   4  16
ATOM     16  C   LIG d   1       7.183   0.809  -4.301  0.00  0.00     0.027 C 
ATOM     17  H   LIG d   1       7.675   0.660  -3.329  0.00  0.00     0.048 H 
ATOM     18  H   LIG d   1       6.291   1.439  -4.168  0.00  0.00     0.048 H 
BRANCH  16  19
ATOM     19  N   LIG d   1       6.785  -0.493  -4.854  0.00  0.00    -0.296 N 
ATOM     20  C   LIG d   1       5.354  -0.743  -4.633  0.00  0.00     0.012 C 
ATOM     21  C   LIG d   1       4.963  -2.069  -5.291  0.00  0.00     0.012 C 
ATOM     22  H   LIG d   1       5.153  -0.796  -3.552  0.00  0.00     0.044 H 
ATOM     23  H   LIG d   1       4.765   0.074  -5.075  0.00  0.00     0.044 H 
ATOM     24  N   LIG d   1       5.779  -3.153  -4.725  0.00  0.00    -0.298 N 
ATOM     25  H   LIG d   1       5.138  -2.006  -6.376  0.00  0.00     0.044 H 
ATOM     26  H   LIG d   1       3.899  -2.273  -5.102  0.00  0.00     0.044 H 
ATOM     27  C   LIG d   1       7.209  -2.902  -4.947  0.00  0.00     0.012 C 
ATOM     28  C   LIG d   1       7.599  -1.576  -4.288  0.00  0.00     0.012 C 
ATOM     29  H   LIG d   1       7.410  -2.848  -6.027  0.00  0.00     0.044 H 
ATOM     30  H   LIG d   1       7.799  -3.718  -4.504  0.00  0.00     0.044 H 
ATOM     31  H   LIG d   1       8.664  -1.372  -4.477  0.00  0.00     0.044 H 
ATOM     32  H   LIG d   1       7.426  -1.639  -3.204  0.00  0.00     0.044 H 
BRANCH  24  33
ATOM     33  C   LIG d   1       5.380  -4.454  -5.278  0.00  0.00     0.022 C 
ATOM     34  H   LIG d   1       6.266  -4.971  -5.674  0.00  0.00     0.045 H 
ATOM     35  H   LIG d   1       4.923  -5.064  -4.485  0.00  0.00     0.045 H 
BRANCH  33  36
ATOM     36  C   LIG d   1       4.369  -4.242  -6.406  0.00  0.00     0.057 C 
ATOM     37  H   LIG d   1       4.061  -3.186  -6.428  0.00  0.00     0.057 H 
ATOM     38  H   LIG d   1       4.830  -4.510  -7.368  0.00  0.00     0.057 H 
BRANCH  36  39
ATOM     39  O   LIG d   1       3.224  -5.066  -6.180  0.00  0.00    -0.394 OA
ATOM     40  H   LIG d   1       2.504  -4.804  -5.391  0.00  0.00     0.209 HD
ENDBRANCH  36  39
ENDBRANCH  33  36
ENDBRANCH  24  33
ENDBRANCH  16  19
ENDBRANCH   4  16
BRANCH  10  41
ATOM     41  C   LIG d   1       4.597   0.701  -9.191  0.00  0.00     0.022 A 
ATOM     42  C   LIG d   1       3.810   0.051 -10.158  0.00  0.00     0.136 A 
ATOM     43  C   LIG d   1       2.587  -0.488  -9.798  0.00  0.00     0.022 A 
ATOM     44  O   LIG d   1       4.255  -0.036 -11.437  0.00  0.00    -0.465 OA
ATOM     45  C   LIG d   1       2.142  -0.385  -8.492  0.00  0.00    -0.035 A 
ATOM     46  C   LIG d   1       1.733  -1.193 -10.822  0.00  0.00     0.080 C 
ATOM     47  C   LIG d   1       2.912   0.255  -7.534  0.00  0.00     0.042 A 
ATOM     48  H   LIG d   1       1.186  -0.807  -8.218  0.00  0.00     0.064 H 
ATOM     49  C   LIG d   1       4.137   0.792  -7.872  0.00  0.00    -0.033 A 
ATOM     50 CL   LIG d   1       2.337   0.375  -5.901  0.00  0.00    -0.084 Cl
ATOM     51  H   LIG d   1       4.737   1.286  -7.122  0.00  0.00     0.064 H 
ATOM     52  O   LIG d   1       2.195  -0.857 -12.134  0.00  0.00    -0.339 OA
ATOM     53  H   LIG d   1       1.804  -2.280 -10.673  0.00  0.00     0.061 H 
ATOM     54  H   LIG d   1       0.686  -0.875 -10.708  0.00  0.00     0.061 H 
ATOM     55  C   LIG d   1       3.613  -0.997 -12.281  0.00  0.00     0.191 C 
ATOM     56  H   LIG d   1       3.902  -0.815 -13.327  0.00  0.00     0.102 H 
ATOM     57  H   LIG d   1       3.923  -2.010 -11.986  0.00  0.00     0.102 H 
ENDBRANCH  10  41
TORSDOF 6
ENDMDL
MODEL 4
REMARK VINA RESULT:      -6.4      2.986      5.591
REMARK  6 active torsions:
REMARK  status: ('A' for Active; 'I' for Inactive)
REMARK    1  A    between atoms: C_4  and  C_23 
REMARK    2  A    between atoms: C_10  and  C_11 
REMARK    3  A    between atoms: C_23  and  N_24 
REMARK    4  A    between atoms: N_27  and  C_30 
REMARK    5  A    between atoms: C_30  and  C_31 
REMARK    6  A    between atoms: C_31  and  O_32 
ROOT
ATOM      1  C   LIG d   1       8.822   3.509  -9.116  0.00  0.00    -0.048 A 
ATOM      2  C   LIG d   1      10.005   4.088  -8.754  0.00  0.00    -0.068 A 
ATOM      3  C   LIG d   1      10.640   3.704  -7.576  0.00  0.00    -0.100 A 
ATOM      4  C   LIG d   1      10.088   2.726  -6.764  0.00  0.00     0.002 A 
ATOM      5  C   LIG d   1       8.885   2.128  -7.118  0.00  0.00     0.143 A 
ATOM      6  C   LIG d   1       8.251   2.527  -8.305  0.00  0.00     0.068 A 
ATOM      7  C   LIG d   1       7.017   1.727  -8.407  0.00  0.00     0.232 A 
ATOM      8  O   LIG d   1       6.176   1.762  -9.290  0.00  0.00    -0.283 OA
ATOM      9  C   LIG d   1       7.027   0.879  -7.207  0.00  0.00     0.176 A 
ATOM     10  C   LIG d   1       6.084  -0.034  -6.863  0.00  0.00    -0.005 C 
ATOM     11  O   LIG d   1       8.149   1.172  -6.509  0.00  0.00    -0.451 OA
ATOM     12  O   LIG d   1      11.813   4.288  -7.222  0.00  0.00    -0.873 OA
ATOM     13  H   LIG d   1       8.328   3.811 -10.028  0.00  0.00     0.063 H 
ATOM     14  H   LIG d   1      10.448   4.848  -9.381  0.00  0.00     0.061 H 
ATOM     15  H   LIG d   1       5.261  -0.263  -7.555  0.00  0.00     0.066 H 
ENDROOT
BRANCH   4  16
ATOM     16  C   LIG d   1      10.789   2.316  -5.496  0.00  0.00     0.027 C 
ATOM     17  H   LIG d   1      10.238   1.488  -5.024  0.00  0.00     0.048 H 
ATOM     18  H   LIG d   1      11.812   1.988  -5.730  0.00  0.00     0.048 H 
BRANCH  16  19
ATOM     19  N   LIG d   1      10.839   3.459  -4.573  0.00  0.00    -0.296 N 
ATOM     20  C   LIG d   1      11.996   3.357  -3.672  0.00  0.00     0.012 C 
ATOM     21  C   LIG d   1      12.057   4.602  -2.783  0.00  0.00     0.012 C 
ATOM     22  H   LIG d   1      11.894   2.461  -3.042  0.00  0.00     0.044 H 
ATOM     23  H   LIG d   1      12.919   3.284  -4.267  0.00  0.00     0.044 H 
ATOM     24  N   LIG d   1      10.807   4.718  -2.020  0.00  0.00    -0.298 N 
ATOM     25  H   LIG d   1      12.187   5.496  -3.411  0.00  0.00     0.044 H 
ATOM     26  H   LIG d   1      12.905   4.515  -2.089  0.00  0.00     0.044 H 
ATOM     27  C   LIG d   1       9.650   4.819  -2.920  0.00  0.00     0.012 C 
ATOM     28  C   LIG d   1       9.590   3.574  -3.809  0.00  0.00     0.012 C 
ATOM     29  H   LIG d   1       9.753   5.714  -3.551  0.00  0.00     0.044 H 
ATOM     30  H   LIG d   1       8.727   4.891  -2.327  0.00  0.00     0.044 H 
ATOM     31  H   LIG d   1       8.741   3.660  -4.504  0.00  0.00     0.044 H 
ATOM     32  H   LIG d   1       9.459   2.680  -3.181  0.00  0.00     0.044 H 
BRANCH  24  33
ATOM     33  C   LIG d   1      10.858   5.860  -1.097  0.00  0.00     0.022 C 
ATOM     34  H   LIG d   1      11.414   6.684  -1.565  0.00  0.00     0.045 H 
ATOM     35  H   LIG d   1       9.834   6.191  -0.869  0.00  0.00     0.045 H 
BRANCH  33  36
ATOM     36  C   LIG d   1      11.559   5.440   0.196  0.00  0.00     0.057 C 
ATOM     37  H   LIG d   1      11.972   4.428   0.077  0.00  0.00     0.057 H 
ATOM     38  H   LIG d   1      12.375   6.146   0.416  0.00  0.00     0.057 H 
BRANCH  36  39
ATOM     39  O   LIG d   1      10.619   5.448   1.272  0.00  0.00    -0.394 OA
ATOM     40  H   LIG d   1      10.824   4.870   2.185  0.00  0.00     0.209 HD
ENDBRANCH  36  39
ENDBRANCH  33  36
ENDBRANCH  24  33
ENDBRANCH  16  19
ENDBRANCH   4  16
BRANCH  10  41
ATOM     41  C   LIG d   1       6.161  -0.715  -5.565  0.00  0.00     0.022 A 
ATOM     42  C   LIG d   1       5.250  -0.394  -4.543  0.00  0.00     0.136 A 
ATOM     43  C   LIG d   1       5.329  -1.044  -3.324  0.00  0.00     0.022 A 
ATOM     44  O   LIG d   1       4.304   0.555  -4.762  0.00  0.00    -0.465 OA
ATOM     45  C   LIG d   1       6.303  -2.003  -3.113  0.00  0.00    -0.035 A 
ATOM     46  C   LIG d   1       4.356  -0.714  -2.219  0.00  0.00     0.080 C 
ATOM     47  C   LIG d   1       7.205  -2.323  -4.115  0.00  0.00     0.042 A 
ATOM     48  H   LIG d   1       6.361  -2.505  -2.158  0.00  0.00     0.064 H 
ATOM     49  C   LIG d   1       7.137  -1.692  -5.339  0.00  0.00    -0.033 A 
ATOM     50 CL   LIG d   1       8.421  -3.529  -3.831  0.00  0.00    -0.084 Cl
ATOM     51  H   LIG d   1       7.839  -1.947  -6.120  0.00  0.00     0.064 H 
ATOM     52  O   LIG d   1       3.709   0.527  -2.514  0.00  0.00    -0.339 OA
ATOM     53  H   LIG d   1       3.605  -1.513  -2.143  0.00  0.00     0.061 H 
ATOM     54  H   LIG d   1       4.899  -0.629  -1.266  0.00  0.00     0.061 H 
ATOM     55  C   LIG d   1       3.200   0.588  -3.852  0.00  0.00     0.191 C 
ATOM     56  H   LIG d   1       2.635   1.522  -3.996  0.00  0.00     0.102 H 
ATOM     57  H   LIG d   1       2.541  -0.271  -4.043  0.00  0.00     0.102 H 
ENDBRANCH  10  41
TORSDOF 6
ENDMDL
MODEL 5
REMARK VINA RESULT:      -6.4      3.152      6.599
REMARK  6 active torsions:
REMARK  status: ('A' for Active; 'I' for Inactive)
REMARK    1  A    between atoms: C_4  and  C_23 
REMARK    2  A    between atoms: C_10  and  C_11 
REMARK    3  A    between atoms: C_23  and  N_24 
REMARK    4  A    between atoms: N_27  and  C_30 
REMARK    5  A    between atoms: C_30  and  C_31 
REMARK    6  A    between atoms: C_31  and  O_32 
ROOT
ATOM      1  C   LIG d   1       3.531  -5.388  -8.208  0.00  0.00    -0.048 A 
ATOM      2  C   LIG d   1       2.973  -4.874  -9.344  0.00  0.00    -0.068 A 
ATOM      3  C   LIG d   1       2.992  -3.501  -9.573  0.00  0.00    -0.100 A 
ATOM      4  C   LIG d   1       3.586  -2.643  -8.662  0.00  0.00     0.002 A 
ATOM      5  C   LIG d   1       4.157  -3.149  -7.501  0.00  0.00     0.143 A 
ATOM      6  C   LIG d   1       4.127  -4.535  -7.279  0.00  0.00     0.068 A 
ATOM      7  C   LIG d   1       4.801  -4.764  -5.987  0.00  0.00     0.232 A 
ATOM      8  O   LIG d   1       4.990  -5.828  -5.422  0.00  0.00    -0.283 OA
ATOM      9  C   LIG d   1       5.192  -3.422  -5.533  0.00  0.00     0.176 A 
ATOM     10  C   LIG d   1       5.847  -3.125  -4.382  0.00  0.00    -0.005 C 
ATOM     11  O   LIG d   1       4.782  -2.537  -6.472  0.00  0.00    -0.451 OA
ATOM     12  O   LIG d   1       2.430  -2.999 -10.703  0.00  0.00    -0.873 OA
ATOM     13  H   LIG d   1       3.511  -6.454  -8.030  0.00  0.00     0.063 H 
ATOM     14  H   LIG d   1       2.511  -5.534 -10.065  0.00  0.00     0.061 H 
ATOM     15  H   LIG d   1       6.222  -3.933  -3.737  0.00  0.00     0.066 H 
ENDROOT
BRANCH   4  16
ATOM     16  C   LIG d   1       3.605  -1.160  -8.925  0.00  0.00     0.027 C 
ATOM     17  H   LIG d   1       3.142  -0.955  -9.902  0.00  0.00     0.048 H 
ATOM     18  H   LIG d   1       3.042  -0.639  -8.136  0.00  0.00     0.048 H 
BRANCH  16  19
ATOM     19  N   LIG d   1       4.995  -0.682  -8.933  0.00  0.00    -0.296 N 
ATOM     20  C   LIG d   1       5.124   0.571  -8.176  0.00  0.00     0.012 C 
ATOM     21  C   LIG d   1       6.596   0.992  -8.140  0.00  0.00     0.012 C 
ATOM     22  H   LIG d   1       4.529   1.358  -8.663  0.00  0.00     0.044 H 
ATOM     23  H   LIG d   1       4.760   0.419  -7.149  0.00  0.00     0.044 H 
ATOM     24  N   LIG d   1       7.089   1.156  -9.515  0.00  0.00    -0.298 N 
ATOM     25  H   LIG d   1       7.187   0.219  -7.628  0.00  0.00     0.044 H 
ATOM     26  H   LIG d   1       6.692   1.945  -7.599  0.00  0.00     0.044 H 
ATOM     27  C   LIG d   1       6.959  -0.097 -10.271  0.00  0.00     0.012 C 
ATOM     28  C   LIG d   1       5.488  -0.518 -10.306  0.00  0.00     0.012 C 
ATOM     29  H   LIG d   1       7.554  -0.884  -9.783  0.00  0.00     0.044 H 
ATOM     30  H   LIG d   1       7.322   0.054 -11.298  0.00  0.00     0.044 H 
ATOM     31  H   LIG d   1       5.391  -1.471 -10.848  0.00  0.00     0.044 H 
ATOM     32  H   LIG d   1       4.896   0.256 -10.819  0.00  0.00     0.044 H 
BRANCH  24  33
ATOM     33  C   LIG d   1       8.478   1.634  -9.522  0.00  0.00     0.022 C 
ATOM     34  H   LIG d   1       9.159   0.780  -9.649  0.00  0.00     0.045 H 
ATOM     35  H   LIG d   1       8.618   2.341 -10.352  0.00  0.00     0.045 H 
BRANCH  33  36
ATOM     36  C   LIG d   1       8.783   2.335  -8.197  0.00  0.00     0.057 C 
ATOM     37  H   LIG d   1       8.762   3.425  -8.345  0.00  0.00     0.057 H 
ATOM     38  H   LIG d   1       8.027   2.052  -7.449  0.00  0.00     0.057 H 
BRANCH  36  39
ATOM     39  O   LIG d   1      10.077   1.943  -7.736  0.00  0.00    -0.394 OA
ATOM     40  H   LIG d   1      10.173   1.191  -6.940  0.00  0.00     0.209 HD
ENDBRANCH  36  39
ENDBRANCH  33  36
ENDBRANCH  24  33
ENDBRANCH  16  19
ENDBRANCH   4  16
BRANCH  10  41
ATOM     41  C   LIG d   1       6.054  -1.723  -3.997  0.00  0.00     0.022 A 
ATOM     42  C   LIG d   1       7.169  -1.015  -4.480  0.00  0.00     0.136 A 
ATOM     43  C   LIG d   1       7.353   0.306  -4.113  0.00  0.00     0.022 A 
ATOM     44  O   LIG d   1       8.056  -1.637  -5.297  0.00  0.00    -0.465 OA
ATOM     45  C   LIG d   1       6.445   0.925  -3.273  0.00  0.00    -0.035 A 
ATOM     46  C   LIG d   1       8.541   1.082  -4.626  0.00  0.00     0.080 C 
ATOM     47  C   LIG d   1       5.345   0.232  -2.793  0.00  0.00     0.042 A 
ATOM     48  H   LIG d   1       6.595   1.957  -2.989  0.00  0.00     0.064 H 
ATOM     49  C   LIG d   1       5.140  -1.083  -3.153  0.00  0.00    -0.033 A 
ATOM     50 CL   LIG d   1       4.216   1.025  -1.740  0.00  0.00    -0.084 Cl
ATOM     51  H   LIG d   1       4.279  -1.619  -2.781  0.00  0.00     0.064 H 
ATOM     52  O   LIG d   1       9.512   0.169  -5.146  0.00  0.00    -0.339 OA
ATOM     53  H   LIG d   1       8.215   1.766  -5.423  0.00  0.00     0.061 H 
ATOM     54  H   LIG d   1       8.984   1.662  -3.803  0.00  0.00     0.061 H 
ATOM     55  C   LIG d   1       8.949  -0.800  -6.038  0.00  0.00     0.191 C 
ATOM     56  H   LIG d   1       9.749  -1.416  -6.477  0.00  0.00     0.102 H 
ATOM     57  H   LIG d   1       8.394  -0.293  -6.841  0.00  0.00     0.102 H 
ENDBRANCH  10  41
TORSDOF 6
ENDMDL
MODEL 6
REMARK VINA RESULT:      -6.3      4.248      5.915
REMARK  6 active torsions:
REMARK  status: ('A' for Active; 'I' for Inactive)
REMARK    1  A    between atoms: C_4  and  C_23 
REMARK    2  A    between atoms: C_10  and  C_11 
REMARK    3  A    between atoms: C_23  and  N_24 
REMARK    4  A    between atoms: N_27  and  C_30 
REMARK    5  A    between atoms: C_30  and  C_31 
REMARK    6  A    between atoms: C_31  and  O_32 
ROOT
ATOM      1  C   LIG d   1       2.805   1.614  -7.962  0.00  0.00    -0.048 A 
ATOM      2  C   LIG d   1       3.009   1.764  -9.304  0.00  0.00    -0.068 A 
ATOM      3  C   LIG d   1       3.838   0.880  -9.990  0.00  0.00    -0.100 A 
ATOM      4  C   LIG d   1       4.455  -0.166  -9.325  0.00  0.00     0.002 A 
ATOM      5  C   LIG d   1       4.259  -0.334  -7.959  0.00  0.00     0.143 A 
ATOM      6  C   LIG d   1       3.426   0.568  -7.277  0.00  0.00     0.068 A 
ATOM      7  C   LIG d   1       3.414   0.139  -5.867  0.00  0.00     0.232 A 
ATOM      8  O   LIG d   1       2.814   0.649  -4.936  0.00  0.00    -0.283 OA
ATOM      9  C   LIG d   1       4.289  -1.042  -5.834  0.00  0.00     0.176 A 
ATOM     10  C   LIG d   1       4.588  -1.788  -4.740  0.00  0.00    -0.005 C 
ATOM     11  O   LIG d   1       4.740  -1.252  -7.093  0.00  0.00    -0.451 OA
ATOM     12  O   LIG d   1       4.038   1.041 -11.323  0.00  0.00    -0.873 OA
ATOM     13  H   LIG d   1       2.166   2.304  -7.431  0.00  0.00     0.063 H 
ATOM     14  H   LIG d   1       2.529   2.574  -9.835  0.00  0.00     0.061 H 
ATOM     15  H   LIG d   1       4.085  -1.587  -3.783  0.00  0.00     0.066 H 
ENDROOT
BRANCH   4  16
ATOM     16  C   LIG d   1       5.344  -1.119 -10.079  0.00  0.00     0.027 C 
ATOM     17  H   LIG d   1       5.454  -0.774 -11.118  0.00  0.00     0.048 H 
ATOM     18  H   LIG d   1       6.333  -1.157  -9.600  0.00  0.00     0.048 H 
BRANCH  16  19
ATOM     19  N   LIG d   1       4.743  -2.461 -10.070  0.00  0.00    -0.296 N 
ATOM     20  C   LIG d   1       5.714  -3.475 -10.506  0.00  0.00     0.012 C 
ATOM     21  C   LIG d   1       5.076  -4.863 -10.406  0.00  0.00     0.012 C 
ATOM     22  H   LIG d   1       6.007  -3.279 -11.548  0.00  0.00     0.044 H 
ATOM     23  H   LIG d   1       6.604  -3.432  -9.861  0.00  0.00     0.044 H 
ATOM     24  N   LIG d   1       3.866  -4.904 -11.239  0.00  0.00    -0.298 N 
ATOM     25  H   LIG d   1       4.808  -5.070  -9.360  0.00  0.00     0.044 H 
ATOM     26  H   LIG d   1       5.790  -5.621 -10.759  0.00  0.00     0.044 H 
ATOM     27  C   LIG d   1       2.896  -3.889 -10.804  0.00  0.00     0.012 C 
ATOM     28  C   LIG d   1       3.534  -2.502 -10.903  0.00  0.00     0.012 C 
ATOM     29  H   LIG d   1       2.603  -4.084  -9.761  0.00  0.00     0.044 H 
ATOM     30  H   LIG d   1       2.006  -3.930 -11.449  0.00  0.00     0.044 H 
ATOM     31  H   LIG d   1       2.820  -1.743 -10.550  0.00  0.00     0.044 H 
ATOM     32  H   LIG d   1       3.802  -2.294 -11.949  0.00  0.00     0.044 H 
BRANCH  24  33
ATOM     33  C   LIG d   1       3.266  -6.245 -11.230  0.00  0.00     0.022 C 
ATOM     34  H   LIG d   1       2.837  -6.461 -12.219  0.00  0.00     0.045 H 
ATOM     35  H   LIG d   1       4.039  -6.990 -10.993  0.00  0.00     0.045 H 
BRANCH  33  36
ATOM     36  C   LIG d   1       2.161  -6.302 -10.173  0.00  0.00     0.057 C 
ATOM     37  H   LIG d   1       2.131  -5.350  -9.622  0.00  0.00     0.057 H 
ATOM     38  H   LIG d   1       1.191  -6.473 -10.664  0.00  0.00     0.057 H 
BRANCH  36  39
ATOM     39  O   LIG d   1       2.429  -7.370  -9.262  0.00  0.00    -0.394 OA
ATOM     40  H   LIG d   1       2.177  -7.261  -8.197  0.00  0.00     0.209 HD
ENDBRANCH  36  39
ENDBRANCH  33  36
ENDBRANCH  24  33
ENDBRANCH  16  19
ENDBRANCH   4  16
BRANCH  10  41
ATOM     41  C   LIG d   1       5.583  -2.862  -4.834  0.00  0.00     0.022 A 
ATOM     42  C   LIG d   1       5.234  -4.102  -5.397  0.00  0.00     0.136 A 
ATOM     43  C   LIG d   1       6.181  -5.107  -5.484  0.00  0.00     0.022 A 
ATOM     44  O   LIG d   1       3.969  -4.303  -5.845  0.00  0.00    -0.465 OA
ATOM     45  C   LIG d   1       7.465  -4.892  -5.017  0.00  0.00    -0.035 A 
ATOM     46  C   LIG d   1       5.824  -6.442  -6.090  0.00  0.00     0.080 C 
ATOM     47  C   LIG d   1       7.815  -3.672  -4.459  0.00  0.00     0.042 A 
ATOM     48  H   LIG d   1       8.199  -5.681  -5.086  0.00  0.00     0.064 H 
ATOM     49  C   LIG d   1       6.888  -2.656  -4.371  0.00  0.00    -0.033 A 
ATOM     50 CL   LIG d   1       9.431  -3.420  -3.878  0.00  0.00    -0.084 Cl
ATOM     51  H   LIG d   1       7.166  -1.705  -3.941  0.00  0.00     0.064 H 
ATOM     52  O   LIG d   1       4.400  -6.567  -6.151  0.00  0.00    -0.339 OA
ATOM     53  H   LIG d   1       6.243  -6.508  -7.104  0.00  0.00     0.061 H 
ATOM     54  H   LIG d   1       6.237  -7.250  -5.468  0.00  0.00     0.061 H 
ATOM     55  C   LIG d   1       3.761  -5.416  -6.719  0.00  0.00     0.191 C 
ATOM     56  H   LIG d   1       2.681  -5.602  -6.825  0.00  0.00     0.102 H 
ATOM     57  H   LIG d   1       4.194  -5.195  -7.705  0.00  0.00     0.102 H 
ENDBRANCH  10  41
TORSDOF 6
ENDMDL
MODEL 7
REMARK VINA RESULT:      -6.3      6.056      9.296
REMARK  6 active torsions:
REMARK  status: ('A' for Active; 'I' for Inactive)
REMARK    1  A    between atoms: C_4  and  C_23 
REMARK    2  A    between atoms: C_10  and  C_11 
REMARK    3  A    between atoms: C_23  and  N_24 
REMARK    4  A    between atoms: N_27  and  C_30 
REMARK    5  A    between atoms: C_30  and  C_31 
REMARK    6  A    between atoms: C_31  and  O_32 
ROOT
ATOM      1  C   LIG d   1       9.519   3.497  -6.427  0.00  0.00    -0.048 A 
ATOM      2  C   LIG d   1       9.873   4.029  -7.635  0.00  0.00    -0.068 A 
ATOM      3  C   LIG d   1      10.557   5.240  -7.693  0.00  0.00    -0.100 A 
ATOM      4  C   LIG d   1      10.898   5.913  -6.531  0.00  0.00     0.002 A 
ATOM      5  C   LIG d   1      10.545   5.386  -5.294  0.00  0.00     0.143 A 
ATOM      6  C   LIG d   1       9.850   4.167  -5.249  0.00  0.00     0.068 A 
ATOM      7  C   LIG d   1       9.621   3.871  -3.823  0.00  0.00     0.232 A 
ATOM      8  O   LIG d   1       9.052   2.906  -3.343  0.00  0.00    -0.283 OA
ATOM      9  C   LIG d   1      10.233   5.001  -3.109  0.00  0.00     0.176 A 
ATOM     10  C   LIG d   1      10.273   5.172  -1.764  0.00  0.00    -0.005 C 
ATOM     11  O   LIG d   1      10.751   5.839  -4.038  0.00  0.00    -0.451 OA
ATOM     12  O   LIG d   1      10.900   5.762  -8.898  0.00  0.00    -0.873 OA
ATOM     13  H   LIG d   1       8.984   2.560  -6.385  0.00  0.00     0.063 H 
ATOM     14  H   LIG d   1       9.617   3.511  -8.548  0.00  0.00     0.061 H 
ATOM     15  H   LIG d   1       9.908   4.378  -1.096  0.00  0.00     0.066 H 
ENDROOT
BRANCH   4  16
ATOM     16  C   LIG d   1      11.644   7.219  -6.607  0.00  0.00     0.027 C 
ATOM     17  H   LIG d   1      12.592   7.132  -6.056  0.00  0.00     0.048 H 
ATOM     18  H   LIG d   1      11.853   7.462  -7.660  0.00  0.00     0.048 H 
BRANCH  16  19
ATOM     19  N   LIG d   1      10.827   8.285  -6.011  0.00  0.00    -0.296 N 
ATOM     20  C   LIG d   1      10.422   9.268  -7.026  0.00  0.00     0.012 C 
ATOM     21  C   LIG d   1       9.509  10.315  -6.382  0.00  0.00     0.012 C 
ATOM     22  H   LIG d   1      11.316   9.762  -7.436  0.00  0.00     0.044 H 
ATOM     23  H   LIG d   1       9.881   8.757  -7.836  0.00  0.00     0.044 H 
ATOM     24  N   LIG d   1      10.222  10.968  -5.275  0.00  0.00    -0.298 N 
ATOM     25  H   LIG d   1       8.603   9.825  -5.996  0.00  0.00     0.044 H 
ATOM     26  H   LIG d   1       9.228  11.068  -7.132  0.00  0.00     0.044 H 
ATOM     27  C   LIG d   1      10.627   9.985  -4.260  0.00  0.00     0.012 C 
ATOM     28  C   LIG d   1      11.539   8.938  -4.905  0.00  0.00     0.012 C 
ATOM     29  H   LIG d   1       9.734   9.490  -3.851  0.00  0.00     0.044 H 
ATOM     30  H   LIG d   1      11.169  10.494  -3.450  0.00  0.00     0.044 H 
ATOM     31  H   LIG d   1      11.821   8.184  -4.154  0.00  0.00     0.044 H 
ATOM     32  H   LIG d   1      12.446   9.427  -5.290  0.00  0.00     0.044 H 
BRANCH  24  33
ATOM     33  C   LIG d   1       9.405  12.033  -4.679  0.00  0.00     0.022 C 
ATOM     34  H   LIG d   1       9.983  12.968  -4.654  0.00  0.00     0.045 H 
ATOM     35  H   LIG d   1       8.497  12.179  -5.283  0.00  0.00     0.045 H 
BRANCH  33  36
ATOM     36  C   LIG d   1       9.012  11.638  -3.254  0.00  0.00     0.057 C 
ATOM     37  H   LIG d   1       9.411  10.639  -3.027  0.00  0.00     0.057 H 
ATOM     38  H   LIG d   1       9.427  12.369  -2.543  0.00  0.00     0.057 H 
BRANCH  36  39
ATOM     39  O   LIG d   1       7.588  11.620  -3.140  0.00  0.00    -0.394 OA
ATOM     40  H   LIG d   1       6.964  11.891  -4.004  0.00  0.00     0.209 HD
ENDBRANCH  36  39
ENDBRANCH  33  36
ENDBRANCH  24  33
ENDBRANCH  16  19
ENDBRANCH   4  16
BRANCH  10  41
ATOM     41  C   LIG d   1      10.803   6.419  -1.198  0.00  0.00     0.022 A 
ATOM     42  C   LIG d   1      12.174   6.538  -0.911  0.00  0.00     0.136 A 
ATOM     43  C   LIG d   1      12.664   7.719  -0.381  0.00  0.00     0.022 A 
ATOM     44  O   LIG d   1      13.003   5.491  -1.152  0.00  0.00    -0.465 OA
ATOM     45  C   LIG d   1      11.806   8.775  -0.133  0.00  0.00    -0.035 A 
ATOM     46  C   LIG d   1      14.133   7.865  -0.072  0.00  0.00     0.080 C 
ATOM     47  C   LIG d   1      10.453   8.664  -0.413  0.00  0.00     0.042 A 
ATOM     48  H   LIG d   1      12.194   9.694   0.283  0.00  0.00     0.064 H 
ATOM     49  C   LIG d   1       9.947   7.498  -0.948  0.00  0.00    -0.033 A 
ATOM     50 CL   LIG d   1       9.392  10.000  -0.095  0.00  0.00    -0.084 Cl
ATOM     51  H   LIG d   1       8.893   7.416  -1.170  0.00  0.00     0.064 H 
ATOM     52  O   LIG d   1      14.742   6.570  -0.048  0.00  0.00    -0.339 OA
ATOM     53  H   LIG d   1      14.611   8.482  -0.846  0.00  0.00     0.061 H 
ATOM     54  H   LIG d   1      14.255   8.348   0.909  0.00  0.00     0.061 H 
ATOM     55  C   LIG d   1      14.406   5.773  -1.190  0.00  0.00     0.191 C 
ATOM     56  H   LIG d   1      14.970   4.827  -1.165  0.00  0.00     0.102 H 
ATOM     57  H   LIG d   1      14.646   6.319  -2.113  0.00  0.00     0.102 H 
ENDBRANCH  10  41
TORSDOF 6
ENDMDL
MODEL 8
REMARK VINA RESULT:      -6.3      2.741      6.308
REMARK  6 active torsions:
REMARK  status: ('A' for Active; 'I' for Inactive)
REMARK    1  A    between atoms: C_4  and  C_23 
REMARK    2  A    between atoms: C_10  and  C_11 
REMARK    3  A    between atoms: C_23  and  N_24 
REMARK    4  A    between atoms: N_27  and  C_30 
REMARK    5  A    between atoms: C_30  and  C_31 
REMARK    6  A    between atoms: C_31  and  O_32 
ROOT
ATOM      1  C   LIG d   1       4.339  -1.385  -2.600  0.00  0.00    -0.048 A 
ATOM      2  C   LIG d   1       4.026  -2.628  -3.073  0.00  0.00    -0.068 A 
ATOM      3  C   LIG d   1       4.717  -3.157  -4.160  0.00  0.00    -0.100 A 
ATOM      4  C   LIG d   1       5.734  -2.438  -4.766  0.00  0.00     0.002 A 
ATOM      5  C   LIG d   1       6.065  -1.172  -4.298  0.00  0.00     0.143 A 
ATOM      6  C   LIG d   1       5.357  -0.647  -3.205  0.00  0.00     0.068 A 
ATOM      7  C   LIG d   1       5.926   0.688  -2.944  0.00  0.00     0.232 A 
ATOM      8  O   LIG d   1       5.597   1.483  -2.079  0.00  0.00    -0.283 OA
ATOM      9  C   LIG d   1       6.976   0.846  -3.959  0.00  0.00     0.176 A 
ATOM     10  C   LIG d   1       7.783   1.926  -4.117  0.00  0.00    -0.005 C 
ATOM     11  O   LIG d   1       6.994  -0.282  -4.708  0.00  0.00    -0.451 OA
ATOM     12  O   LIG d   1       4.395  -4.391  -4.626  0.00  0.00    -0.873 OA
ATOM     13  H   LIG d   1       3.799  -0.974  -1.760  0.00  0.00     0.063 H 
ATOM     14  H   LIG d   1       3.238  -3.200  -2.606  0.00  0.00     0.061 H 
ATOM     15  H   LIG d   1       7.750   2.749  -3.388  0.00  0.00     0.066 H 
ENDROOT
BRANCH   4  16
ATOM     16  C   LIG d   1       6.478  -3.025  -5.937  0.00  0.00     0.027 C 
ATOM     17  H   LIG d   1       7.559  -2.880  -5.795  0.00  0.00     0.048 H 
ATOM     18  H   LIG d   1       6.259  -4.100  -6.010  0.00  0.00     0.048 H 
BRANCH  16  19
ATOM     19  N   LIG d   1       6.052  -2.353  -7.173  0.00  0.00    -0.296 N 
ATOM     20  C   LIG d   1       5.188  -3.229  -7.977  0.00  0.00     0.012 C 
ATOM     21  C   LIG d   1       4.703  -2.467  -9.214  0.00  0.00     0.012 C 
ATOM     22  H   LIG d   1       5.757  -4.117  -8.293  0.00  0.00     0.044 H 
ATOM     23  H   LIG d   1       4.322  -3.544  -7.376  0.00  0.00     0.044 H 
ATOM     24  N   LIG d   1       5.864  -2.016  -9.994  0.00  0.00    -0.298 N 
ATOM     25  H   LIG d   1       4.111  -1.595  -8.898  0.00  0.00     0.044 H 
ATOM     26  H   LIG d   1       4.080  -3.130  -9.832  0.00  0.00     0.044 H 
ATOM     27  C   LIG d   1       6.727  -1.140  -9.190  0.00  0.00     0.012 C 
ATOM     28  C   LIG d   1       7.212  -1.902  -7.954  0.00  0.00     0.012 C 
ATOM     29  H   LIG d   1       6.158  -0.253  -8.873  0.00  0.00     0.044 H 
ATOM     30  H   LIG d   1       7.594  -0.826  -9.790  0.00  0.00     0.044 H 
ATOM     31  H   LIG d   1       7.836  -1.240  -7.335  0.00  0.00     0.044 H 
ATOM     32  H   LIG d   1       7.804  -2.774  -8.268  0.00  0.00     0.044 H 
BRANCH  24  33
ATOM     33  C   LIG d   1       5.438  -1.345 -11.229  0.00  0.00     0.022 C 
ATOM     34  H   LIG d   1       6.255  -0.711 -11.603  0.00  0.00     0.045 H 
ATOM     35  H   LIG d   1       5.183  -2.101 -11.987  0.00  0.00     0.045 H 
BRANCH  33  36
ATOM     36  C   LIG d   1       4.211  -0.477 -10.942  0.00  0.00     0.057 C 
ATOM     37  H   LIG d   1       3.328  -0.918 -11.427  0.00  0.00     0.057 H 
ATOM     38  H   LIG d   1       4.045  -0.425  -9.855  0.00  0.00     0.057 H 
BRANCH  36  39
ATOM     39  O   LIG d   1       4.428   0.839 -11.453  0.00  0.00    -0.394 OA
ATOM     40  H   LIG d   1       5.323   1.405 -11.154  0.00  0.00     0.209 HD
ENDBRANCH  36  39
ENDBRANCH  33  36
ENDBRANCH  24  33
ENDBRANCH  16  19
ENDBRANCH   4  16
BRANCH  10  41
ATOM     41  C   LIG d   1       8.699   1.996  -5.261  0.00  0.00     0.022 A 
ATOM     42  C   LIG d   1      10.089   2.034  -5.052  0.00  0.00     0.136 A 
ATOM     43  C   LIG d   1      10.945   2.097  -6.139  0.00  0.00     0.022 A 
ATOM     44  O   LIG d   1      10.578   2.013  -3.787  0.00  0.00    -0.465 OA
ATOM     45  C   LIG d   1      10.432   2.125  -7.423  0.00  0.00    -0.035 A 
ATOM     46  C   LIG d   1      12.439   2.133  -5.932  0.00  0.00     0.080 C 
ATOM     47  C   LIG d   1       9.063   2.090  -7.636  0.00  0.00     0.042 A 
ATOM     48  H   LIG d   1      11.105   2.177  -8.267  0.00  0.00     0.064 H 
ATOM     49  C   LIG d   1       8.195   2.020  -6.567  0.00  0.00    -0.033 A 
ATOM     50 CL   LIG d   1       8.438   2.127  -9.255  0.00  0.00    -0.084 Cl
ATOM     51  H   LIG d   1       7.129   1.987  -6.736  0.00  0.00     0.064 H 
ATOM     52  O   LIG d   1      12.719   2.469  -4.570  0.00  0.00    -0.339 OA
ATOM     53  H   LIG d   1      12.864   1.146  -6.163  0.00  0.00     0.061 H 
ATOM     54  H   LIG d   1      12.883   2.888  -6.597  0.00  0.00     0.061 H 
ATOM     55  C   LIG d   1      11.964   1.690  -3.634  0.00  0.00     0.191 C 
ATOM     56  H   LIG d   1      12.283   1.925  -2.607  0.00  0.00     0.102 H 
ATOM     57  H   LIG d   1      12.115   0.619  -3.829  0.00  0.00     0.102 H 
ENDBRANCH  10  41
TORSDOF 6
ENDMDL
MODEL 9
REMARK VINA RESULT:      -6.2      6.145      8.649
REMARK  6 active torsions:
REMARK  status: ('A' for Active; 'I' for Inactive)
REMARK    1  A    between atoms: C_4  and  C_23 
REMARK    2  A    between atoms: C_10  and  C_11 
REMARK    3  A    between atoms: C_23  and  N_24 
REMARK    4  A    between atoms: N_27  and  C_30 
REMARK    5  A    between atoms: C_30  and  C_31 
REMARK    6  A    between atoms: C_31  and  O_32 
ROOT
ATOM      1  C   LIG d   1       9.110   6.190 -11.185  0.00  0.00    -0.048 A 
ATOM      2  C   LIG d   1       9.590   7.382 -11.648  0.00  0.00    -0.068 A 
ATOM      3  C   LIG d   1      10.372   8.189 -10.825  0.00  0.00    -0.100 A 
ATOM      4  C   LIG d   1      10.681   7.789  -9.535  0.00  0.00     0.002 A 
ATOM      5  C   LIG d   1      10.200   6.579  -9.048  0.00  0.00     0.143 A 
ATOM      6  C   LIG d   1       9.408   5.778  -9.886  0.00  0.00     0.068 A 
ATOM      7  C   LIG d   1       9.055   4.580  -9.102  0.00  0.00     0.232 A 
ATOM      8  O   LIG d   1       8.377   3.630  -9.456  0.00  0.00    -0.283 OA
ATOM      9  C   LIG d   1       9.703   4.787  -7.799  0.00  0.00     0.176 A 
ATOM     10  C   LIG d   1       9.660   3.941  -6.739  0.00  0.00    -0.005 C 
ATOM     11  O   LIG d   1      10.351   5.975  -7.850  0.00  0.00    -0.451 OA
ATOM     12  O   LIG d   1      10.840   9.374 -11.292  0.00  0.00    -0.873 OA
ATOM     13  H   LIG d   1       8.499   5.568 -11.823  0.00  0.00     0.063 H 
ATOM     14  H   LIG d   1       9.360   7.702 -12.654  0.00  0.00     0.061 H 
ATOM     15  H   LIG d   1       9.186   2.954  -6.841  0.00  0.00     0.066 H 
ENDROOT
BRANCH   4  16
ATOM     16  C   LIG d   1      11.533   8.668  -8.657  0.00  0.00     0.027 C 
ATOM     17  H   LIG d   1      12.186   8.040  -8.034  0.00  0.00     0.048 H 
ATOM     18  H   LIG d   1      12.150   9.327  -9.286  0.00  0.00     0.048 H 
BRANCH  16  19
ATOM     19  N   LIG d   1      10.667   9.483  -7.794  0.00  0.00    -0.296 N 
ATOM     20  C   LIG d   1      10.997  10.910  -7.915  0.00  0.00     0.012 C 
ATOM     21  C   LIG d   1      10.024  11.730  -7.063  0.00  0.00     0.012 C 
ATOM     22  H   LIG d   1      12.026  11.080  -7.563  0.00  0.00     0.044 H 
ATOM     23  H   LIG d   1      10.914  11.218  -8.967  0.00  0.00     0.044 H 
ATOM     24  N   LIG d   1      10.110  11.288  -5.664  0.00  0.00    -0.298 N 
ATOM     25  H   LIG d   1       8.998  11.581  -7.432  0.00  0.00     0.044 H 
ATOM     26  H   LIG d   1      10.287  12.795  -7.129  0.00  0.00     0.044 H 
ATOM     27  C   LIG d   1       9.781   9.861  -5.543  0.00  0.00     0.012 C 
ATOM     28  C   LIG d   1      10.754   9.042  -6.395  0.00  0.00     0.012 C 
ATOM     29  H   LIG d   1       8.753   9.690  -5.896  0.00  0.00     0.044 H 
ATOM     30  H   LIG d   1       9.865   9.552  -4.491  0.00  0.00     0.044 H 
ATOM     31  H   LIG d   1      10.491   7.976  -6.329  0.00  0.00     0.044 H 
ATOM     32  H   LIG d   1      11.780   9.190  -6.026  0.00  0.00     0.044 H 
BRANCH  24  33
ATOM     33  C   LIG d   1       9.245  12.103  -4.801  0.00  0.00     0.022 C 
ATOM     34  H   LIG d   1       9.764  13.036  -4.537  0.00  0.00     0.045 H 
ATOM     35  H   LIG d   1       8.313  12.340  -5.336  0.00  0.00     0.045 H 
BRANCH  33  36
ATOM     36  C   LIG d   1       8.917  11.324  -3.526  0.00  0.00     0.057 C 
ATOM     37  H   LIG d   1       9.019  10.246  -3.718  0.00  0.00     0.057 H 
ATOM     38  H   LIG d   1       9.612  11.621  -2.725  0.00  0.00     0.057 H 
BRANCH  36  39
ATOM     39  O   LIG d   1       7.577  11.612  -3.123  0.00  0.00    -0.394 OA
ATOM     40  H   LIG d   1       7.094  11.004  -2.344  0.00  0.00     0.209 HD
ENDBRANCH  36  39
ENDBRANCH  33  36
ENDBRANCH  24  33
ENDBRANCH  16  19
ENDBRANCH   4  16
BRANCH  10  41
ATOM     41  C   LIG d   1      10.247   4.344  -5.455  0.00  0.00     0.022 A 
ATOM     42  C   LIG d   1      11.508   3.856  -5.070  0.00  0.00     0.136 A 
ATOM     43  C   LIG d   1      12.053   4.245  -3.859  0.00  0.00     0.022 A 
ATOM     44  O   LIG d   1      12.176   3.004  -5.888  0.00  0.00    -0.465 OA
ATOM     45  C   LIG d   1      11.357   5.107  -3.031  0.00  0.00    -0.035 A 
ATOM     46  C   LIG d   1      13.407   3.734  -3.432  0.00  0.00     0.080 C 
ATOM     47  C   LIG d   1      10.113   5.591  -3.404  0.00  0.00     0.042 A 
ATOM     48  H   LIG d   1      11.787   5.405  -2.085  0.00  0.00     0.064 H 
ATOM     49  C   LIG d   1       9.556   5.221  -4.611  0.00  0.00    -0.033 A 
ATOM     50 CL   LIG d   1       9.254   6.672  -2.353  0.00  0.00    -0.084 Cl
ATOM     51  H   LIG d   1       8.589   5.604  -4.901  0.00  0.00     0.064 H 
ATOM     52  O   LIG d   1      13.758   2.601  -4.232  0.00  0.00    -0.339 OA
ATOM     53  H   LIG d   1      14.157   4.527  -3.568  0.00  0.00     0.061 H 
ATOM     54  H   LIG d   1      13.371   3.440  -2.373  0.00  0.00     0.061 H 
ATOM     55  C   LIG d   1      13.573   2.827  -5.635  0.00  0.00     0.191 C 
ATOM     56  H   LIG d   1      13.942   1.962  -6.206  0.00  0.00     0.102 H 
ATOM     57  H   LIG d   1      14.119   3.730  -5.945  0.00  0.00     0.102 H 
ENDBRANCH  10  41
TORSDOF 6
ENDMDL
