MODEL 1
REMARK VINA RESULT:      -6.1      0.000      0.000
REMARK  2 active torsions:
REMARK  status: ('A' for Active; 'I' for Inactive)
REMARK    1  A    between atoms: CG_2  and  CB_7 
REMARK    2  A    between atoms: CB_7  and  CA_8 
ROOT
ATOM      1  CA  HIS d   2       3.811  -0.667  -6.377  0.00  0.00     0.107 C 
ATOM      2  HA  HIS d   2       3.022  -0.680  -7.128  0.00  0.00     0.060 H 
ATOM      3  C   HIS d   2       3.458   0.325  -5.293  0.00  0.00     0.237 C 
ATOM      4  O   HIS d   2       2.754   1.284  -5.527  0.00  0.00    -0.274 OA
ATOM      5  N   HIS d   2       3.954  -2.004  -5.798  0.00  0.00    -0.302 N 
ATOM      6  H   HIS d   2       3.671  -2.775  -6.314  0.00  0.00     0.149 HD
ATOM      7  N   PRO d   1       3.951   0.108  -4.056  0.00  0.00    -0.288 N 
ATOM      8  CD  PRO d   1       3.665   0.852  -2.829  0.00  0.00     0.016 C 
ATOM      9  CG  PRO d   1       4.397   0.131  -1.676  0.00  0.00    -0.035 C 
ATOM     10  CB  PRO d   1       4.620  -1.297  -2.242  0.00  0.00    -0.024 C 
ATOM     11  CA  PRO d   1       4.877  -1.001  -3.738  0.00  0.00     0.102 C 
ATOM     12  HA  PRO d   1       5.915  -0.717  -3.915  0.00  0.00     0.060 H 
ATOM     13  C   PRO d   1       4.467  -2.191  -4.569  0.00  0.00     0.234 C 
ATOM     14  O   PRO d   1       4.600  -3.313  -4.130  0.00  0.00    -0.274 OA
ATOM     15  HD1 PRO d   1       4.032   1.874  -2.921  0.00  0.00     0.046 H 
ATOM     16  HD2 PRO d   1       2.591   0.857  -2.641  0.00  0.00     0.046 H 
ATOM     17  HG1 PRO d   1       5.351   0.614  -1.464  0.00  0.00     0.028 H 
ATOM     18  HG2 PRO d   1       3.773   0.098  -0.783  0.00  0.00     0.028 H 
ATOM     19  HB1 PRO d   1       5.488  -1.769  -1.782  0.00  0.00     0.029 H 
ATOM     20  HB2 PRO d   1       3.730  -1.913  -2.113  0.00  0.00     0.029 H 
ENDROOT
BRANCH   1  21
ATOM     21  CB  HIS d   2       5.131  -0.254  -7.034  0.00  0.00     0.040 C 
ATOM     22  HB1 HIS d   2       5.711  -1.145  -7.275  0.00  0.00     0.037 H 
ATOM     23  HB2 HIS d   2       5.697   0.374  -6.347  0.00  0.00     0.037 H 
BRANCH  21  24
ATOM     24  CG  HIS d   2       4.843   0.514  -8.298  0.00  0.00     0.144 A 
ATOM     25  CD2 HIS d   2       5.226   0.180  -9.545  0.00  0.00     0.131 A 
ATOM     26  NE2 HIS d   2       4.770   1.120 -10.385  0.00  0.00    -0.250 N 
ATOM     27  HD2 HIS d   2       5.804  -0.690  -9.819  0.00  0.00     0.112 H 
ATOM     28  CE1 HIS d   2       4.118   2.025  -9.706  0.00  0.00     0.242 A 
ATOM     29  HE2 HIS d   2       4.904   1.128 -11.346  0.00  0.00     0.310 HD
ATOM     30  ND1 HIS d   2       4.140   1.684  -8.400  0.00  0.00    -0.247 N 
ATOM     31  HE1 HIS d   2       3.641   2.900 -10.122  0.00  0.00     0.158 H 
ATOM     32  HD1 HIS d   2       3.733   2.177  -7.670  0.00  0.00     0.310 HD
ENDBRANCH  21  24
ENDBRANCH   1  21
TORSDOF 2
ENDMDL
MODEL 2
REMARK VINA RESULT:      -5.6      2.094      5.821
REMARK  2 active torsions:
REMARK  status: ('A' for Active; 'I' for Inactive)
REMARK    1  A    between atoms: CG_2  and  CB_7 
REMARK    2  A    between atoms: CB_7  and  CA_8 
ROOT
ATOM      1  CA  HIS d   2       4.330  -0.864  -6.565  0.00  0.00     0.107 C 
ATOM      2  HA  HIS d   2       5.073  -1.424  -5.997  0.00  0.00     0.060 H 
ATOM      3  C   HIS d   2       5.025   0.192  -7.394  0.00  0.00     0.237 C 
ATOM      4  O   HIS d   2       6.085   0.666  -7.044  0.00  0.00    -0.274 OA
ATOM      5  N   HIS d   2       3.597  -1.778  -7.441  0.00  0.00    -0.302 N 
ATOM      6  H   HIS d   2       3.544  -2.717  -7.206  0.00  0.00     0.149 HD
ATOM      7  N   PRO d   1       4.427   0.590  -8.537  0.00  0.00    -0.288 N 
ATOM      8  CD  PRO d   1       4.947   1.503  -9.554  0.00  0.00     0.016 C 
ATOM      9  CG  PRO d   1       3.921   1.534 -10.708  0.00  0.00    -0.035 C 
ATOM     10  CB  PRO d   1       3.130   0.213 -10.509  0.00  0.00    -0.024 C 
ATOM     11  CA  PRO d   1       3.099   0.101  -8.966  0.00  0.00     0.102 C 
ATOM     12  HA  PRO d   1       2.296   0.702  -8.539  0.00  0.00     0.060 H 
ATOM     13  C   PRO d   1       2.995  -1.350  -8.565  0.00  0.00     0.234 C 
ATOM     14  O   PRO d   1       2.369  -2.127  -9.254  0.00  0.00    -0.274 OA
ATOM     15  HD1 PRO d   1       5.063   2.502  -9.132  0.00  0.00     0.046 H 
ATOM     16  HD2 PRO d   1       5.908   1.141  -9.922  0.00  0.00     0.046 H 
ATOM     17  HG1 PRO d   1       3.260   2.396 -10.612  0.00  0.00     0.028 H 
ATOM     18  HG2 PRO d   1       4.426   1.539 -11.674  0.00  0.00     0.028 H 
ATOM     19  HB1 PRO d   1       2.123   0.295 -10.915  0.00  0.00     0.029 H 
ATOM     20  HB2 PRO d   1       3.660  -0.631 -10.951  0.00  0.00     0.029 H 
ENDROOT
BRANCH   1  21
ATOM     21  CB  HIS d   2       3.352  -0.190  -5.599  0.00  0.00     0.040 C 
ATOM     22  HB1 HIS d   2       2.330  -0.433  -5.890  0.00  0.00     0.037 H 
ATOM     23  HB2 HIS d   2       3.494   0.889  -5.633  0.00  0.00     0.037 H 
BRANCH  21  24
ATOM     24  CG  HIS d   2       3.607  -0.687  -4.200  0.00  0.00     0.144 A 
ATOM     25  CD2 HIS d   2       4.024   0.047  -3.151  0.00  0.00     0.131 A 
ATOM     26  NE2 HIS d   2       4.127  -0.766  -2.089  0.00  0.00    -0.250 N 
ATOM     27  HD2 HIS d   2       4.244   1.104  -3.164  0.00  0.00     0.112 H 
ATOM     28  CE1 HIS d   2       3.788  -1.977  -2.440  0.00  0.00     0.242 A 
ATOM     29  HE2 HIS d   2       4.409  -0.498  -1.201  0.00  0.00     0.310 HD
ATOM     30  ND1 HIS d   2       3.456  -1.971  -3.749  0.00  0.00    -0.247 N 
ATOM     31  HE1 HIS d   2       3.774  -2.840  -1.791  0.00  0.00     0.158 H 
ATOM     32  HD1 HIS d   2       3.166  -2.735  -4.273  0.00  0.00     0.310 HD
ENDBRANCH  21  24
ENDBRANCH   1  21
TORSDOF 2
ENDMDL
MODEL 3
REMARK VINA RESULT:      -5.5      2.689      4.349
REMARK  2 active torsions:
REMARK  status: ('A' for Active; 'I' for Inactive)
REMARK    1  A    between atoms: CG_2  and  CB_7 
REMARK    2  A    between atoms: CB_7  and  CA_8 
ROOT
ATOM      1  CA  HIS d   2       5.635  -2.145  -4.983  0.00  0.00     0.107 C 
ATOM      2  HA  HIS d   2       6.577  -2.419  -5.457  0.00  0.00     0.060 H 
ATOM      3  C   HIS d   2       5.917  -1.399  -3.699  0.00  0.00     0.237 C 
ATOM      4  O   HIS d   2       6.940  -1.589  -3.076  0.00  0.00    -0.274 OA
ATOM      5  N   HIS d   2       4.862  -1.297  -5.890  0.00  0.00    -0.302 N 
ATOM      6  H   HIS d   2       5.023  -1.356  -6.844  0.00  0.00     0.149 HD
ATOM      7  N   PRO d   1       4.994  -0.513  -3.270  0.00  0.00    -0.288 N 
ATOM      8  CD  PRO d   1       5.085   0.402  -2.133  0.00  0.00     0.016 C 
ATOM      9  CG  PRO d   1       3.810   1.273  -2.144  0.00  0.00    -0.035 C 
ATOM     10  CB  PRO d   1       3.319   1.157  -3.612  0.00  0.00    -0.024 C 
ATOM     11  CA  PRO d   1       3.698  -0.304  -3.951  0.00  0.00     0.102 C 
ATOM     12  HA  PRO d   1       2.942  -1.004  -3.593  0.00  0.00     0.060 H 
ATOM     13  C   PRO d   1       3.934  -0.436  -5.435  0.00  0.00     0.234 C 
ATOM     14  O   PRO d   1       3.289   0.232  -6.214  0.00  0.00    -0.274 OA
ATOM     15  HD1 PRO d   1       5.140  -0.165  -1.203  0.00  0.00     0.046 H 
ATOM     16  HD2 PRO d   1       5.967   1.035  -2.236  0.00  0.00     0.046 H 
ATOM     17  HG1 PRO d   1       3.064   0.872  -1.457  0.00  0.00     0.028 H 
ATOM     18  HG2 PRO d   1       4.046   2.308  -1.897  0.00  0.00     0.028 H 
ATOM     19  HB1 PRO d   1       2.242   1.307  -3.678  0.00  0.00     0.029 H 
ATOM     20  HB2 PRO d   1       3.849   1.857  -4.258  0.00  0.00     0.029 H 
ENDROOT
BRANCH   1  21
ATOM     21  CB  HIS d   2       4.837  -3.413  -4.668  0.00  0.00     0.040 C 
ATOM     22  HB1 HIS d   2       3.853  -3.138  -4.289  0.00  0.00     0.037 H 
ATOM     23  HB2 HIS d   2       5.367  -3.998  -3.917  0.00  0.00     0.037 H 
BRANCH  21  24
ATOM     24  CG  HIS d   2       4.680  -4.232  -5.924  0.00  0.00     0.144 A 
ATOM     25  CD2 HIS d   2       5.672  -4.703  -6.704  0.00  0.00     0.131 A 
ATOM     26  NE2 HIS d   2       5.116  -5.381  -7.719  0.00  0.00    -0.250 N 
ATOM     27  HD2 HIS d   2       6.730  -4.556  -6.543  0.00  0.00     0.112 H 
ATOM     28  CE1 HIS d   2       3.817  -5.348  -7.597  0.00  0.00     0.242 A 
ATOM     29  HE2 HIS d   2       5.602  -5.824  -8.431  0.00  0.00     0.310 HD
ATOM     30  ND1 HIS d   2       3.503  -4.641  -6.490  0.00  0.00    -0.247 N 
ATOM     31  HE1 HIS d   2       3.110  -5.810  -8.271  0.00  0.00     0.158 H 
ATOM     32  HD1 HIS d   2       2.610  -4.457  -6.158  0.00  0.00     0.310 HD
ENDBRANCH  21  24
ENDBRANCH   1  21
TORSDOF 2
ENDMDL
MODEL 4
REMARK VINA RESULT:      -5.3      2.055      6.099
REMARK  2 active torsions:
REMARK  status: ('A' for Active; 'I' for Inactive)
REMARK    1  A    between atoms: CG_2  and  CB_7 
REMARK    2  A    between atoms: CB_7  and  CA_8 
ROOT
ATOM      1  CA  HIS d   2       3.489  -0.750  -6.848  0.00  0.00     0.107 C 
ATOM      2  HA  HIS d   2       2.808  -1.350  -6.244  0.00  0.00     0.060 H 
ATOM      3  C   HIS d   2       3.626  -1.373  -8.219  0.00  0.00     0.237 C 
ATOM      4  O   HIS d   2       3.473  -2.565  -8.383  0.00  0.00    -0.274 OA
ATOM      5  N   HIS d   2       2.960   0.609  -6.973  0.00  0.00    -0.302 N 
ATOM      6  H   HIS d   2       2.355   0.945  -6.293  0.00  0.00     0.149 HD
ATOM      7  N   PRO d   1       3.925  -0.559  -9.253  0.00  0.00    -0.288 N 
ATOM      8  CD  PRO d   1       3.999  -0.900 -10.674  0.00  0.00     0.016 C 
ATOM      9  CG  PRO d   1       4.269   0.411 -11.444  0.00  0.00    -0.035 C 
ATOM     10  CB  PRO d   1       3.795   1.505 -10.450  0.00  0.00    -0.024 C 
ATOM     11  CA  PRO d   1       4.200   0.885  -9.092  0.00  0.00     0.102 C 
ATOM     12  HA  PRO d   1       5.251   1.069  -8.867  0.00  0.00     0.060 H 
ATOM     13  C   PRO d   1       3.290   1.404  -8.006  0.00  0.00     0.234 C 
ATOM     14  O   PRO d   1       2.859   2.536  -8.065  0.00  0.00    -0.274 OA
ATOM     15  HD1 PRO d   1       4.813  -1.605 -10.844  0.00  0.00     0.046 H 
ATOM     16  HD2 PRO d   1       3.055  -1.335 -11.001  0.00  0.00     0.046 H 
ATOM     17  HG1 PRO d   1       5.332   0.520 -11.659  0.00  0.00     0.028 H 
ATOM     18  HG2 PRO d   1       3.683   0.446 -12.363  0.00  0.00     0.028 H 
ATOM     19  HB1 PRO d   1       4.320   2.444 -10.622  0.00  0.00     0.029 H 
ATOM     20  HB2 PRO d   1       2.716   1.646 -10.508  0.00  0.00     0.029 H 
ENDROOT
BRANCH   1  21
ATOM     21  CB  HIS d   2       4.861  -0.702  -6.171  0.00  0.00     0.040 C 
ATOM     22  HB1 HIS d   2       5.222   0.326  -6.156  0.00  0.00     0.037 H 
ATOM     23  HB2 HIS d   2       5.561  -1.326  -6.726  0.00  0.00     0.037 H 
BRANCH  21  24
ATOM     24  CG  HIS d   2       4.741  -1.213  -4.759  0.00  0.00     0.144 A 
ATOM     25  CD2 HIS d   2       5.660  -1.092  -3.781  0.00  0.00     0.131 A 
ATOM     26  NE2 HIS d   2       5.171  -1.677  -2.678  0.00  0.00    -0.250 N 
ATOM     27  HD2 HIS d   2       6.623  -0.612  -3.872  0.00  0.00     0.112 H 
ATOM     28  CE1 HIS d   2       3.984  -2.156  -2.934  0.00  0.00     0.242 A 
ATOM     29  HE2 HIS d   2       5.628  -1.736  -1.824  0.00  0.00     0.310 HD
ATOM     30  ND1 HIS d   2       3.678  -1.888  -4.222  0.00  0.00    -0.247 N 
ATOM     31  HE1 HIS d   2       3.352  -2.680  -2.232  0.00  0.00     0.158 H 
ATOM     32  HD1 HIS d   2       2.858  -2.129  -4.681  0.00  0.00     0.310 HD
ENDBRANCH  21  24
ENDBRANCH   1  21
TORSDOF 2
ENDMDL
MODEL 5
REMARK VINA RESULT:      -5.2      1.952      2.704
REMARK  2 active torsions:
REMARK  status: ('A' for Active; 'I' for Inactive)
REMARK    1  A    between atoms: CG_2  and  CB_7 
REMARK    2  A    between atoms: CB_7  and  CA_8 
ROOT
ATOM      1  CA  HIS d   2       4.873  -0.487  -6.679  0.00  0.00     0.107 C 
ATOM      2  HA  HIS d   2       5.546   0.074  -7.327  0.00  0.00     0.060 H 
ATOM      3  C   HIS d   2       5.647  -1.034  -5.502  0.00  0.00     0.237 C 
ATOM      4  O   HIS d   2       6.832  -1.275  -5.590  0.00  0.00    -0.274 OA
ATOM      5  N   HIS d   2       3.808   0.397  -6.204  0.00  0.00    -0.302 N 
ATOM      6  H   HIS d   2       3.575   1.180  -6.726  0.00  0.00     0.149 HD
ATOM      7  N   PRO d   1       4.976  -1.244  -4.350  0.00  0.00    -0.288 N 
ATOM      8  CD  PRO d   1       5.519  -1.655  -3.055  0.00  0.00     0.016 C 
ATOM      9  CG  PRO d   1       4.350  -1.644  -2.046  0.00  0.00    -0.035 C 
ATOM     10  CB  PRO d   1       3.314  -0.703  -2.720  0.00  0.00    -0.024 C 
ATOM     11  CA  PRO d   1       3.518  -1.040  -4.216  0.00  0.00     0.102 C 
ATOM     12  HA  PRO d   1       2.962  -1.934  -4.502  0.00  0.00     0.060 H 
ATOM     13  C   PRO d   1       3.143   0.152  -5.060  0.00  0.00     0.234 C 
ATOM     14  O   PRO d   1       2.245   0.887  -4.709  0.00  0.00    -0.274 OA
ATOM     15  HD1 PRO d   1       5.935  -2.660  -3.130  0.00  0.00     0.046 H 
ATOM     16  HD2 PRO d   1       6.290  -0.954  -2.737  0.00  0.00     0.046 H 
ATOM     17  HG1 PRO d   1       3.936  -2.645  -1.924  0.00  0.00     0.028 H 
ATOM     18  HG2 PRO d   1       4.671  -1.238  -1.087  0.00  0.00     0.028 H 
ATOM     19  HB1 PRO d   1       2.301  -0.943  -2.400  0.00  0.00     0.029 H 
ATOM     20  HB2 PRO d   1       3.548   0.343  -2.521  0.00  0.00     0.029 H 
ENDROOT
BRANCH   1  21
ATOM     21  CB  HIS d   2       4.258  -1.646  -7.467  0.00  0.00     0.040 C 
ATOM     22  HB1 HIS d   2       3.522  -2.157  -6.846  0.00  0.00     0.037 H 
ATOM     23  HB2 HIS d   2       5.042  -2.347  -7.753  0.00  0.00     0.037 H 
BRANCH  21  24
ATOM     24  CG  HIS d   2       3.585  -1.111  -8.704  0.00  0.00     0.144 A 
ATOM     25  CD2 HIS d   2       4.190  -0.543  -9.765  0.00  0.00     0.131 A 
ATOM     26  NE2 HIS d   2       3.243  -0.205 -10.652  0.00  0.00    -0.250 N 
ATOM     27  HD2 HIS d   2       5.252  -0.383  -9.879  0.00  0.00     0.112 H 
ATOM     28  CE1 HIS d   2       2.072  -0.542 -10.181  0.00  0.00     0.242 A 
ATOM     29  HE2 HIS d   2       3.401   0.224 -11.507  0.00  0.00     0.310 HD
ATOM     30  ND1 HIS d   2       2.242  -1.112  -8.969  0.00  0.00    -0.247 N 
ATOM     31  HE1 HIS d   2       1.127  -0.392 -10.680  0.00  0.00     0.158 H 
ATOM     32  HD1 HIS d   2       1.542  -1.456  -8.392  0.00  0.00     0.310 HD
ENDBRANCH  21  24
ENDBRANCH   1  21
TORSDOF 2
ENDMDL
MODEL 6
REMARK VINA RESULT:      -5.1      3.504      4.782
REMARK  2 active torsions:
REMARK  status: ('A' for Active; 'I' for Inactive)
REMARK    1  A    between atoms: CG_2  and  CB_7 
REMARK    2  A    between atoms: CB_7  and  CA_8 
ROOT
ATOM      1  CA  HIS d   2       6.787  -1.516  -5.230  0.00  0.00     0.107 C 
ATOM      2  HA  HIS d   2       6.886  -1.476  -6.315  0.00  0.00     0.060 H 
ATOM      3  C   HIS d   2       6.535  -0.125  -4.696  0.00  0.00     0.237 C 
ATOM      4  O   HIS d   2       6.937   0.855  -5.286  0.00  0.00    -0.274 OA
ATOM      5  N   HIS d   2       5.670  -2.393  -4.876  0.00  0.00    -0.302 N 
ATOM      6  H   HIS d   2       5.395  -3.083  -5.499  0.00  0.00     0.149 HD
ATOM      7  N   PRO d   1       5.847  -0.009  -3.541  0.00  0.00    -0.288 N 
ATOM      8  CD  PRO d   1       5.384   1.216  -2.888  0.00  0.00     0.016 C 
ATOM      9  CG  PRO d   1       4.554   0.791  -1.657  0.00  0.00    -0.035 C 
ATOM     10  CB  PRO d   1       4.148  -0.669  -1.994  0.00  0.00    -0.024 C 
ATOM     11  CA  PRO d   1       5.404  -1.173  -2.744  0.00  0.00     0.102 C 
ATOM     12  HA  PRO d   1       6.179  -1.499  -2.049  0.00  0.00     0.060 H 
ATOM     13  C   PRO d   1       5.014  -2.266  -3.708  0.00  0.00     0.234 C 
ATOM     14  O   PRO d   1       4.112  -3.027  -3.431  0.00  0.00    -0.274 OA
ATOM     15  HD1 PRO d   1       6.239   1.813  -2.572  0.00  0.00     0.046 H 
ATOM     16  HD2 PRO d   1       4.761   1.789  -3.575  0.00  0.00     0.046 H 
ATOM     17  HG1 PRO d   1       5.163   0.822  -0.753  0.00  0.00     0.028 H 
ATOM     18  HG2 PRO d   1       3.671   1.421  -1.550  0.00  0.00     0.028 H 
ATOM     19  HB1 PRO d   1       3.977  -1.247  -1.087  0.00  0.00     0.029 H 
ATOM     20  HB2 PRO d   1       3.272  -0.692  -2.642  0.00  0.00     0.029 H 
ENDROOT
BRANCH   1  21
ATOM     21  CB  HIS d   2       8.079  -2.068  -4.622  0.00  0.00     0.040 C 
ATOM     22  HB1 HIS d   2       7.989  -2.090  -3.536  0.00  0.00     0.037 H 
ATOM     23  HB2 HIS d   2       8.915  -1.429  -4.905  0.00  0.00     0.037 H 
BRANCH  21  24
ATOM     24  CG  HIS d   2       8.318  -3.465  -5.134  0.00  0.00     0.144 A 
ATOM     25  CD2 HIS d   2       8.595  -3.818  -6.404  0.00  0.00     0.131 A 
ATOM     26  NE2 HIS d   2       8.739  -5.150  -6.442  0.00  0.00    -0.250 N 
ATOM     27  HD2 HIS d   2       8.681  -3.145  -7.245  0.00  0.00     0.112 H 
ATOM     28  CE1 HIS d   2       8.562  -5.637  -5.244  0.00  0.00     0.242 A 
ATOM     29  HE2 HIS d   2       8.942  -5.671  -7.235  0.00  0.00     0.310 HD
ATOM     30  ND1 HIS d   2       8.298  -4.619  -4.398  0.00  0.00    -0.247 N 
ATOM     31  HE1 HIS d   2       8.619  -6.682  -4.975  0.00  0.00     0.158 H 
ATOM     32  HD1 HIS d   2       8.125  -4.691  -3.446  0.00  0.00     0.310 HD
ENDBRANCH  21  24
ENDBRANCH   1  21
TORSDOF 2
ENDMDL
MODEL 7
REMARK VINA RESULT:      -4.9     10.311     11.607
REMARK  2 active torsions:
REMARK  status: ('A' for Active; 'I' for Inactive)
REMARK    1  A    between atoms: CG_2  and  CB_7 
REMARK    2  A    between atoms: CB_7  and  CA_8 
ROOT
ATOM      1  CA  HIS d   2      10.634   6.354  -0.122  0.00  0.00     0.107 C 
ATOM      2  HA  HIS d   2      10.014   5.468   0.015  0.00  0.00     0.060 H 
ATOM      3  C   HIS d   2       9.817   7.440  -0.784  0.00  0.00     0.237 C 
ATOM      4  O   HIS d   2       8.883   7.168  -1.509  0.00  0.00    -0.274 OA
ATOM      5  N   HIS d   2      11.113   6.819   1.180  0.00  0.00    -0.302 N 
ATOM      6  H   HIS d   2      11.178   6.188   1.913  0.00  0.00     0.149 HD
ATOM      7  N   PRO d   1      10.160   8.722  -0.542  0.00  0.00    -0.288 N 
ATOM      8  CD  PRO d   1       9.465   9.936  -0.970  0.00  0.00     0.016 C 
ATOM      9  CG  PRO d   1      10.207  11.134  -0.339  0.00  0.00    -0.035 C 
ATOM     10  CB  PRO d   1      10.966  10.488   0.852  0.00  0.00    -0.024 C 
ATOM     11  CA  PRO d   1      11.336   9.104   0.268  0.00  0.00     0.102 C 
ATOM     12  HA  PRO d   1      12.240   9.158  -0.340  0.00  0.00     0.060 H 
ATOM     13  C   PRO d   1      11.467   8.101   1.387  0.00  0.00     0.234 C 
ATOM     14  O   PRO d   1      11.888   8.448   2.469  0.00  0.00    -0.274 OA
ATOM     15  HD1 PRO d   1       9.490  10.015  -2.057  0.00  0.00     0.046 H 
ATOM     16  HD2 PRO d   1       8.432   9.915  -0.621  0.00  0.00     0.046 H 
ATOM     17  HG1 PRO d   1      10.909  11.571  -1.050  0.00  0.00     0.028 H 
ATOM     18  HG2 PRO d   1       9.500  11.884   0.017  0.00  0.00     0.028 H 
ATOM     19  HB1 PRO d   1      11.860  11.059   1.102  0.00  0.00     0.029 H 
ATOM     20  HB2 PRO d   1      10.315  10.384   1.720  0.00  0.00     0.029 H 
ENDROOT
BRANCH   1  21
ATOM     21  CB  HIS d   2      11.831   6.006  -1.010  0.00  0.00     0.040 C 
ATOM     22  HB1 HIS d   2      12.654   5.655  -0.388  0.00  0.00     0.037 H 
ATOM     23  HB2 HIS d   2      12.143   6.891  -1.563  0.00  0.00     0.037 H 
BRANCH  21  24
ATOM     24  CG  HIS d   2      11.437   4.921  -1.979  0.00  0.00     0.144 A 
ATOM     25  CD2 HIS d   2      11.404   5.018  -3.322  0.00  0.00     0.131 A 
ATOM     26  NE2 HIS d   2      11.003   3.836  -3.814  0.00  0.00    -0.250 N 
ATOM     27  HD2 HIS d   2      11.650   5.896  -3.901  0.00  0.00     0.112 H 
ATOM     28  CE1 HIS d   2      10.788   3.010  -2.827  0.00  0.00     0.242 A 
ATOM     29  HE2 HIS d   2      10.891   3.629  -4.755  0.00  0.00     0.310 HD
ATOM     30  ND1 HIS d   2      11.047   3.647  -1.665  0.00  0.00    -0.247 N 
ATOM     31  HE1 HIS d   2      10.458   1.986  -2.924  0.00  0.00     0.158 H 
ATOM     32  HD1 HIS d   2      10.971   3.272  -0.773  0.00  0.00     0.310 HD
ENDBRANCH  21  24
ENDBRANCH   1  21
TORSDOF 2
ENDMDL
MODEL 8
REMARK VINA RESULT:      -4.9      2.301      5.354
REMARK  2 active torsions:
REMARK  status: ('A' for Active; 'I' for Inactive)
REMARK    1  A    between atoms: CG_2  and  CB_7 
REMARK    2  A    between atoms: CB_7  and  CA_8 
ROOT
ATOM      1  CA  HIS d   2       4.771  -0.423  -6.177  0.00  0.00     0.107 C 
ATOM      2  HA  HIS d   2       5.315   0.459  -5.839  0.00  0.00     0.060 H 
ATOM      3  C   HIS d   2       3.594   0.007  -7.023  0.00  0.00     0.237 C 
ATOM      4  O   HIS d   2       3.067   1.087  -6.860  0.00  0.00    -0.274 OA
ATOM      5  N   HIS d   2       5.663  -1.273  -6.965  0.00  0.00    -0.302 N 
ATOM      6  H   HIS d   2       6.620  -1.216  -6.820  0.00  0.00     0.149 HD
ATOM      7  N   PRO d   1       3.151  -0.850  -7.966  0.00  0.00    -0.288 N 
ATOM      8  CD  PRO d   1       2.114  -0.623  -8.973  0.00  0.00     0.016 C 
ATOM      9  CG  PRO d   1       2.069  -1.877  -9.873  0.00  0.00    -0.035 C 
ATOM     10  CB  PRO d   1       3.462  -2.523  -9.645  0.00  0.00    -0.024 C 
ATOM     11  CA  PRO d   1       3.708  -2.208  -8.151  0.00  0.00     0.102 C 
ATOM     12  HA  PRO d   1       3.214  -2.933  -7.504  0.00  0.00     0.060 H 
ATOM     13  C   PRO d   1       5.191  -2.133  -7.886  0.00  0.00     0.234 C 
ATOM     14  O   PRO d   1       5.955  -2.845  -8.501  0.00  0.00    -0.274 OA
ATOM     15  HD1 PRO d   1       1.149  -0.479  -8.486  0.00  0.00     0.046 H 
ATOM     16  HD2 PRO d   1       2.364   0.253  -9.572  0.00  0.00     0.046 H 
ATOM     17  HG1 PRO d   1       1.275  -2.553  -9.552  0.00  0.00     0.028 H 
ATOM     18  HG2 PRO d   1       1.940  -1.598 -10.919  0.00  0.00     0.028 H 
ATOM     19  HB1 PRO d   1       3.428  -3.598  -9.817  0.00  0.00     0.029 H 
ATOM     20  HB2 PRO d   1       4.219  -2.052 -10.273  0.00  0.00     0.029 H 
ENDROOT
BRANCH   1  21
ATOM     21  CB  HIS d   2       4.264  -1.205  -4.962  0.00  0.00     0.040 C 
ATOM     22  HB1 HIS d   2       4.942  -2.033  -4.755  0.00  0.00     0.037 H 
ATOM     23  HB2 HIS d   2       3.268  -1.593  -5.170  0.00  0.00     0.037 H 
BRANCH  21  24
ATOM     24  CG  HIS d   2       4.209  -0.291  -3.765  0.00  0.00     0.144 A 
ATOM     25  CD2 HIS d   2       4.733  -0.530  -2.548  0.00  0.00     0.131 A 
ATOM     26  NE2 HIS d   2       4.469   0.528  -1.767  0.00  0.00    -0.250 N 
ATOM     27  HD2 HIS d   2       5.268  -1.420  -2.251  0.00  0.00     0.112 H 
ATOM     28  CE1 HIS d   2       3.801   1.414  -2.454  0.00  0.00     0.242 A 
ATOM     29  HE2 HIS d   2       4.732   0.620  -0.838  0.00  0.00     0.310 HD
ATOM     30  ND1 HIS d   2       3.618   0.943  -3.706  0.00  0.00    -0.247 N 
ATOM     31  HE1 HIS d   2       3.454   2.367  -2.083  0.00  0.00     0.158 H 
ATOM     32  HD1 HIS d   2       3.154   1.393  -4.429  0.00  0.00     0.310 HD
ENDBRANCH  21  24
ENDBRANCH   1  21
TORSDOF 2
ENDMDL
MODEL 9
REMARK VINA RESULT:      -4.8      3.525      4.446
REMARK  2 active torsions:
REMARK  status: ('A' for Active; 'I' for Inactive)
REMARK    1  A    between atoms: CG_2  and  CB_7 
REMARK    2  A    between atoms: CB_7  and  CA_8 
ROOT
ATOM      1  CA  HIS d   2       6.721  -0.247  -4.064  0.00  0.00     0.107 C 
ATOM      2  HA  HIS d   2       7.587  -0.744  -4.501  0.00  0.00     0.060 H 
ATOM      3  C   HIS d   2       5.661  -0.058  -5.125  0.00  0.00     0.237 C 
ATOM      4  O   HIS d   2       5.958   0.041  -6.296  0.00  0.00    -0.274 OA
ATOM      5  N   HIS d   2       6.191  -1.064  -2.973  0.00  0.00    -0.302 N 
ATOM      6  H   HIS d   2       6.779  -1.686  -2.518  0.00  0.00     0.149 HD
ATOM      7  N   PRO d   1       4.373  -0.005  -4.725  0.00  0.00    -0.288 N 
ATOM      8  CD  PRO d   1       3.174   0.058  -5.560  0.00  0.00     0.016 C 
ATOM      9  CG  PRO d   1       1.955  -0.010  -4.614  0.00  0.00    -0.035 C 
ATOM     10  CB  PRO d   1       2.544  -0.650  -3.328  0.00  0.00    -0.024 C 
ATOM     11  CA  PRO d   1       3.966  -0.041  -3.304  0.00  0.00     0.102 C 
ATOM     12  HA  PRO d   1       3.964   0.956  -2.863  0.00  0.00     0.060 H 
ATOM     13  C   PRO d   1       4.906  -0.976  -2.583  0.00  0.00     0.234 C 
ATOM     14  O   PRO d   1       4.504  -1.645  -1.655  0.00  0.00    -0.274 OA
ATOM     15  HD1 PRO d   1       3.159   0.994  -6.119  0.00  0.00     0.046 H 
ATOM     16  HD2 PRO d   1       3.156  -0.788  -6.248  0.00  0.00     0.046 H 
ATOM     17  HG1 PRO d   1       1.573   0.990  -4.405  0.00  0.00     0.028 H 
ATOM     18  HG2 PRO d   1       1.173  -0.642  -5.035  0.00  0.00     0.028 H 
ATOM     19  HB1 PRO d   1       1.977  -0.352  -2.447  0.00  0.00     0.029 H 
ATOM     20  HB2 PRO d   1       2.586  -1.736  -3.415  0.00  0.00     0.029 H 
ENDROOT
BRANCH   1  21
ATOM     21  CB  HIS d   2       7.142   1.120  -3.518  0.00  0.00     0.040 C 
ATOM     22  HB1 HIS d   2       7.303   1.047  -2.442  0.00  0.00     0.037 H 
ATOM     23  HB2 HIS d   2       6.359   1.849  -3.721  0.00  0.00     0.037 H 
BRANCH  21  24
ATOM     24  CG  HIS d   2       8.420   1.555  -4.188  0.00  0.00     0.144 A 
ATOM     25  CD2 HIS d   2       9.262   0.776  -4.894  0.00  0.00     0.131 A 
ATOM     26  NE2 HIS d   2      10.276   1.543  -5.322  0.00  0.00    -0.250 N 
ATOM     27  HD2 HIS d   2       9.144  -0.281  -5.078  0.00  0.00     0.112 H 
ATOM     28  CE1 HIS d   2      10.094   2.768  -4.909  0.00  0.00     0.242 A 
ATOM     29  HE2 HIS d   2      11.026   1.235  -5.855  0.00  0.00     0.310 HD
ATOM     30  ND1 HIS d   2       8.948   2.819  -4.197  0.00  0.00    -0.247 N 
ATOM     31  HE1 HIS d   2      10.752   3.601  -5.105  0.00  0.00     0.158 H 
ATOM     32  HD1 HIS d   2       8.568   3.604  -3.772  0.00  0.00     0.310 HD
ENDBRANCH  21  24
ENDBRANCH   1  21
TORSDOF 2
ENDMDL
MODEL 10
REMARK VINA RESULT:      -4.8      3.964      4.696
REMARK  2 active torsions:
REMARK  status: ('A' for Active; 'I' for Inactive)
REMARK    1  A    between atoms: CG_2  and  CB_7 
REMARK    2  A    between atoms: CB_7  and  CA_8 
ROOT
ATOM      1  CA  HIS d   2       6.940   0.692  -4.816  0.00  0.00     0.107 C 
ATOM      2  HA  HIS d   2       7.033   1.719  -5.170  0.00  0.00     0.060 H 
ATOM      3  C   HIS d   2       6.182   0.678  -3.509  0.00  0.00     0.237 C 
ATOM      4  O   HIS d   2       6.200   1.635  -2.764  0.00  0.00    -0.274 OA
ATOM      5  N   HIS d   2       6.224  -0.103  -5.813  0.00  0.00    -0.302 N 
ATOM      6  H   HIS d   2       6.234   0.180  -6.741  0.00  0.00     0.149 HD
ATOM      7  N   PRO d   1       5.483  -0.434  -3.199  0.00  0.00    -0.288 N 
ATOM      8  CD  PRO d   1       4.589  -0.647  -2.060  0.00  0.00     0.016 C 
ATOM      9  CG  PRO d   1       3.959  -2.046  -2.230  0.00  0.00    -0.035 C 
ATOM     10  CB  PRO d   1       4.129  -2.326  -3.748  0.00  0.00    -0.024 C 
ATOM     11  CA  PRO d   1       5.493  -1.654  -4.034  0.00  0.00     0.102 C 
ATOM     12  HA  PRO d   1       6.323  -2.311  -3.772  0.00  0.00     0.060 H 
ATOM     13  C   PRO d   1       5.551  -1.219  -5.478  0.00  0.00     0.234 C 
ATOM     14  O   PRO d   1       4.992  -1.873  -6.332  0.00  0.00    -0.274 OA
ATOM     15  HD1 PRO d   1       5.157  -0.605  -1.130  0.00  0.00     0.046 H 
ATOM     16  HD2 PRO d   1       3.808   0.114  -2.055  0.00  0.00     0.046 H 
ATOM     17  HG1 PRO d   1       4.500  -2.787  -1.640  0.00  0.00     0.028 H 
ATOM     18  HG2 PRO d   1       2.904  -2.030  -1.958  0.00  0.00     0.028 H 
ATOM     19  HB1 PRO d   1       4.171  -3.396  -3.946  0.00  0.00     0.029 H 
ATOM     20  HB2 PRO d   1       3.333  -1.854  -4.324  0.00  0.00     0.029 H 
ENDROOT
BRANCH   1  21
ATOM     21  CB  HIS d   2       8.336   0.101  -4.601  0.00  0.00     0.040 C 
ATOM     22  HB1 HIS d   2       8.584  -0.557  -5.434  0.00  0.00     0.037 H 
ATOM     23  HB2 HIS d   2       8.350  -0.467  -3.671  0.00  0.00     0.037 H 
BRANCH  21  24
ATOM     24  CG  HIS d   2       9.347   1.216  -4.525  0.00  0.00     0.144 A 
ATOM     25  CD2 HIS d   2      10.104   1.683  -5.536  0.00  0.00     0.131 A 
ATOM     26  NE2 HIS d   2      10.870   2.675  -5.057  0.00  0.00    -0.250 N 
ATOM     27  HD2 HIS d   2      10.100   1.318  -6.552  0.00  0.00     0.112 H 
ATOM     28  CE1 HIS d   2      10.614   2.842  -3.788  0.00  0.00     0.242 A 
ATOM     29  HE2 HIS d   2      11.512   3.187  -5.572  0.00  0.00     0.310 HD
ATOM     30  ND1 HIS d   2       9.669   1.952  -3.416  0.00  0.00    -0.247 N 
ATOM     31  HE1 HIS d   2      11.081   3.571  -3.142  0.00  0.00     0.158 H 
ATOM     32  HD1 HIS d   2       9.290   1.851  -2.528  0.00  0.00     0.310 HD
ENDBRANCH  21  24
ENDBRANCH   1  21
TORSDOF 2
ENDMDL
