MODEL 1
REMARK VINA RESULT:      -7.1      0.000      0.000
REMARK  6 active torsions:
REMARK  status: ('A' for Active; 'I' for Inactive)
REMARK    1  A    between atoms: C_1  and  C_2 
REMARK    2  A    between atoms: C_5  and  O_33 
REMARK    3  A    between atoms: C_17  and  C_32 
REMARK    4  A    between atoms: C_22  and  C_23 
REMARK    5  A    between atoms: C_22  and  O_31 
REMARK    6  A    between atoms: C_24  and  C_25 
ROOT
ATOM      1  C   LIG d   1      10.544   5.954  -8.042  0.00  0.00    -0.008 C 
ATOM      2  C   LIG d   1       9.450   6.054  -9.106  0.00  0.00    -0.041 C 
ATOM      3  C   LIG d   1       9.670   7.260 -10.014  0.00  0.00    -0.026 C 
ATOM      4  C   LIG d   1       9.669   8.552  -9.198  0.00  0.00     0.059 C 
ATOM      5  H   LIG d   1       9.786   9.405  -9.868  0.00  0.00     0.060 H 
ATOM      6  C   LIG d   1      10.832   8.525  -8.202  0.00  0.00    -0.005 C 
ATOM      7  C   LIG d   1      10.692   7.279  -7.343  0.00  0.00    -0.065 C 
ATOM      8  C   LIG d   1      10.699   7.431  -6.050  0.00  0.00    -0.084 C 
ATOM      9  C   LIG d   1      10.570   6.295  -5.070  0.00  0.00    -0.031 C 
ATOM     10  C   LIG d   1      11.014   5.014  -5.777  0.00  0.00    -0.030 C 
ATOM     11  H   LIG d   1      12.069   5.153  -6.077  0.00  0.00     0.031 H 
ATOM     12  C   LIG d   1      10.168   4.863  -7.042  0.00  0.00    -0.029 C 
ATOM     13  H   LIG d   1       9.122   5.078  -6.794  0.00  0.00     0.031 H 
ATOM     14  C   LIG d   1      10.259   3.464  -7.612  0.00  0.00    -0.049 C 
ATOM     15  C   LIG d   1       9.752   2.391  -6.632  0.00  0.00    -0.043 C 
ATOM     16  C   LIG d   1       9.688   2.927  -5.222  0.00  0.00     0.011 C 
ATOM     17  C   LIG d   1      10.934   3.788  -4.922  0.00  0.00    -0.029 C 
ATOM     18  H   LIG d   1      11.841   3.174  -5.094  0.00  0.00     0.031 H 
ATOM     19  C   LIG d   1      10.796   4.002  -3.404  0.00  0.00    -0.046 C 
ATOM     20  C   LIG d   1      10.476   2.557  -2.924  0.00  0.00    -0.012 C 
ATOM     21  C   LIG d   1       9.803   1.846  -4.124  0.00  0.00     0.132 C 
ATOM     22  H   LIG d   1       8.478   6.139  -8.616  0.00  0.00     0.027 H 
ATOM     23  H   LIG d   1       9.454   5.143  -9.711  0.00  0.00     0.027 H 
ATOM     24  H   LIG d   1       8.858   7.306 -10.748  0.00  0.00     0.029 H 
ATOM     25  H   LIG d   1      10.613   7.167 -10.551  0.00  0.00     0.029 H 
ATOM     26  H   LIG d   1      10.791   9.412  -7.569  0.00  0.00     0.034 H 
ATOM     27  H   LIG d   1      11.778   8.505  -8.739  0.00  0.00     0.034 H 
ATOM     28  H   LIG d   1      10.807   8.431  -5.654  0.00  0.00     0.057 H 
ATOM     29  H   LIG d   1       9.535   6.212  -4.748  0.00  0.00     0.031 H 
ATOM     30  H   LIG d   1      11.212   6.484  -4.211  0.00  0.00     0.031 H 
ATOM     31  H   LIG d   1      11.298   3.221  -7.866  0.00  0.00     0.027 H 
ATOM     32  H   LIG d   1       9.669   3.402  -8.535  0.00  0.00     0.027 H 
ATOM     33  H   LIG d   1      10.423   1.525  -6.677  0.00  0.00     0.027 H 
ATOM     34  H   LIG d   1       8.754   2.061  -6.945  0.00  0.00     0.027 H 
ATOM     35  H   LIG d   1       9.999   4.690  -3.159  0.00  0.00     0.027 H 
ATOM     36  H   LIG d   1      11.745   4.339  -2.983  0.00  0.00     0.027 H 
ATOM     37  H   LIG d   1       9.793   2.591  -2.078  0.00  0.00     0.030 H 
ATOM     38  H   LIG d   1      11.396   2.044  -2.650  0.00  0.00     0.030 H 
ENDROOT
BRANCH  21  39
ATOM     39  C   LIG d   1       8.460   1.374  -3.755  0.00  0.00    -0.062 C 
ATOM     40  C   LIG d   1       7.388   0.997  -3.460  0.00  0.00    -0.063 C 
BRANCH  40  41
ATOM     41  C   LIG d   1       6.080   0.537  -3.101  0.00  0.00     0.025 A 
ATOM     42  C   LIG d   1       5.796  -0.829  -3.089  0.00  0.00    -0.046 A 
ATOM     43  C   LIG d   1       4.535  -1.265  -2.742  0.00  0.00    -0.061 A 
ATOM     44  H   LIG d   1       6.563  -1.544  -3.352  0.00  0.00     0.063 H 
ATOM     45  C   LIG d   1       3.552  -0.351  -2.406  0.00  0.00    -0.062 A 
ATOM     46  H   LIG d   1       4.313  -2.322  -2.733  0.00  0.00     0.062 H 
ATOM     47  C   LIG d   1       3.827   1.004  -2.417  0.00  0.00    -0.061 A 
ATOM     48  H   LIG d   1       2.565  -0.697  -2.136  0.00  0.00     0.062 H 
ATOM     49  C   LIG d   1       5.087   1.453  -2.756  0.00  0.00    -0.046 A 
ATOM     50  H   LIG d   1       3.055   1.713  -2.154  0.00  0.00     0.062 H 
ATOM     51  H   LIG d   1       5.301   2.512  -2.759  0.00  0.00     0.063 H 
ENDBRANCH  40  41
ENDBRANCH  21  39
BRANCH  21  52
ATOM     52  O   LIG d   1      10.612   0.764  -4.578  0.00  0.00    -0.376 OA
ATOM     53  H   LIG d   1      11.426   0.642  -4.071  0.00  0.00     0.211 HD
ENDBRANCH  21  52
BRANCH  16  54
ATOM     54  C   LIG d   1       8.373   3.661  -4.968  0.00  0.00    -0.056 C 
ATOM     55  H   LIG d   1       7.665   3.424  -5.763  0.00  0.00     0.024 H 
ATOM     56  H   LIG d   1       7.960   3.347  -4.010  0.00  0.00     0.024 H 
ATOM     57  H   LIG d   1       8.553   4.735  -4.951  0.00  0.00     0.024 H 
ENDBRANCH  16  54
BRANCH   1  58
ATOM     58  C   LIG d   1      11.867   5.599  -8.714  0.00  0.00    -0.056 C 
ATOM     59  H   LIG d   1      12.234   4.653  -8.317  0.00  0.00     0.024 H 
ATOM     60  H   LIG d   1      11.714   5.507  -9.789  0.00  0.00     0.024 H 
ATOM     61  H   LIG d   1      12.597   6.384  -8.516  0.00  0.00     0.024 H 
ENDBRANCH   1  58
BRANCH   4  62
ATOM     62  O   LIG d   1       8.435   8.674  -8.489  0.00  0.00    -0.392 OA
ATOM     63  H   LIG d   1       7.964   9.502  -8.656  0.00  0.00     0.210 HD
ENDBRANCH   4  62
TORSDOF 6
ENDMDL
MODEL 2
REMARK VINA RESULT:      -7.0      1.324      1.784
REMARK  6 active torsions:
REMARK  status: ('A' for Active; 'I' for Inactive)
REMARK    1  A    between atoms: C_1  and  C_2 
REMARK    2  A    between atoms: C_5  and  O_33 
REMARK    3  A    between atoms: C_17  and  C_32 
REMARK    4  A    between atoms: C_22  and  C_23 
REMARK    5  A    between atoms: C_22  and  O_31 
REMARK    6  A    between atoms: C_24  and  C_25 
ROOT
ATOM      1  C   LIG d   1      10.468   6.896  -6.907  0.00  0.00    -0.008 C 
ATOM      2  C   LIG d   1       9.170   7.607  -7.291  0.00  0.00    -0.041 C 
ATOM      3  C   LIG d   1       9.421   9.075  -7.625  0.00  0.00    -0.026 C 
ATOM      4  C   LIG d   1      10.033   9.800  -6.427  0.00  0.00     0.059 C 
ATOM      5  H   LIG d   1      10.167  10.855  -6.671  0.00  0.00     0.060 H 
ATOM      6  C   LIG d   1      11.393   9.178  -6.097  0.00  0.00    -0.005 C 
ATOM      7  C   LIG d   1      11.188   7.693  -5.851  0.00  0.00    -0.065 C 
ATOM      8  C   LIG d   1      11.641   7.195  -4.737  0.00  0.00    -0.084 C 
ATOM      9  C   LIG d   1      11.514   5.745  -4.351  0.00  0.00    -0.031 C 
ATOM     10  C   LIG d   1      11.341   4.933  -5.635  0.00  0.00    -0.030 C 
ATOM     11  H   LIG d   1      12.245   5.096  -6.251  0.00  0.00     0.031 H 
ATOM     12  C   LIG d   1      10.137   5.499  -6.387  0.00  0.00    -0.029 C 
ATOM     13  H   LIG d   1       9.323   5.668  -5.671  0.00  0.00     0.031 H 
ATOM     14  C   LIG d   1       9.653   4.552  -7.464  0.00  0.00    -0.049 C 
ATOM     15  C   LIG d   1       9.201   3.194  -6.900  0.00  0.00    -0.043 C 
ATOM     16  C   LIG d   1       9.731   2.980  -5.502  0.00  0.00     0.011 C 
ATOM     17  C   LIG d   1      11.196   3.460  -5.409  0.00  0.00    -0.029 C 
ATOM     18  H   LIG d   1      11.795   2.921  -6.169  0.00  0.00     0.031 H 
ATOM     19  C   LIG d   1      11.604   2.922  -4.026  0.00  0.00    -0.046 C 
ATOM     20  C   LIG d   1      11.061   1.465  -4.098  0.00  0.00    -0.012 C 
ATOM     21  C   LIG d   1       9.878   1.497  -5.097  0.00  0.00     0.132 C 
ATOM     22  H   LIG d   1       8.463   7.538  -6.461  0.00  0.00     0.027 H 
ATOM     23  H   LIG d   1       8.733   7.110  -8.160  0.00  0.00     0.027 H 
ATOM     24  H   LIG d   1       8.467   9.551  -7.876  0.00  0.00     0.029 H 
ATOM     25  H   LIG d   1      10.084   9.162  -8.484  0.00  0.00     0.029 H 
ATOM     26  H   LIG d   1      11.800   9.645  -5.200  0.00  0.00     0.034 H 
ATOM     27  H   LIG d   1      12.080   9.329  -6.928  0.00  0.00     0.034 H 
ATOM     28  H   LIG d   1      12.139   7.860  -4.046  0.00  0.00     0.057 H 
ATOM     29  H   LIG d   1      10.651   5.618  -3.703  0.00  0.00     0.031 H 
ATOM     30  H   LIG d   1      12.418   5.428  -3.833  0.00  0.00     0.031 H 
ATOM     31  H   LIG d   1      10.451   4.363  -8.193  0.00  0.00     0.027 H 
ATOM     32  H   LIG d   1       8.812   5.005  -8.003  0.00  0.00     0.027 H 
ATOM     33  H   LIG d   1       9.556   2.399  -7.564  0.00  0.00     0.027 H 
ATOM     34  H   LIG d   1       8.105   3.157  -6.886  0.00  0.00     0.027 H 
ATOM     35  H   LIG d   1      11.146   3.478  -3.220  0.00  0.00     0.027 H 
ATOM     36  H   LIG d   1      12.690   2.916  -3.928  0.00  0.00     0.027 H 
ATOM     37  H   LIG d   1      10.714   1.150  -3.116  0.00  0.00     0.030 H 
ATOM     38  H   LIG d   1      11.840   0.796  -4.459  0.00  0.00     0.030 H 
ENDROOT
BRANCH  21  39
ATOM     39  C   LIG d   1       8.642   1.040  -4.445  0.00  0.00    -0.062 C 
ATOM     40  C   LIG d   1       7.655   0.676  -3.923  0.00  0.00    -0.063 C 
BRANCH  40  41
ATOM     41  C   LIG d   1       6.451   0.231  -3.288  0.00  0.00     0.025 A 
ATOM     42  C   LIG d   1       5.564   1.157  -2.741  0.00  0.00    -0.046 A 
ATOM     43  C   LIG d   1       4.406   0.722  -2.130  0.00  0.00    -0.061 A 
ATOM     44  H   LIG d   1       5.783   2.214  -2.794  0.00  0.00     0.063 H 
ATOM     45  C   LIG d   1       4.124  -0.631  -2.060  0.00  0.00    -0.062 A 
ATOM     46  H   LIG d   1       3.718   1.438  -1.705  0.00  0.00     0.062 H 
ATOM     47  C   LIG d   1       5.001  -1.555  -2.600  0.00  0.00    -0.061 A 
ATOM     48  H   LIG d   1       3.217  -0.967  -1.581  0.00  0.00     0.062 H 
ATOM     49  C   LIG d   1       6.159  -1.131  -3.219  0.00  0.00    -0.046 A 
ATOM     50  H   LIG d   1       4.775  -2.609  -2.542  0.00  0.00     0.062 H 
ATOM     51  H   LIG d   1       6.840  -1.854  -3.644  0.00  0.00     0.063 H 
ENDBRANCH  40  41
ENDBRANCH  21  39
BRANCH  21  52
ATOM     52  O   LIG d   1      10.172   0.699  -6.240  0.00  0.00    -0.376 OA
ATOM     53  H   LIG d   1      10.483  -0.192  -6.029  0.00  0.00     0.211 HD
ENDBRANCH  21  52
BRANCH  16  54
ATOM     54  C   LIG d   1       8.818   3.623  -4.459  0.00  0.00    -0.056 C 
ATOM     55  H   LIG d   1       8.310   4.481  -4.900  0.00  0.00     0.024 H 
ATOM     56  H   LIG d   1       8.079   2.896  -4.125  0.00  0.00     0.024 H 
ATOM     57  H   LIG d   1       9.415   3.953  -3.608  0.00  0.00     0.024 H 
ENDBRANCH  16  54
BRANCH   1  58
ATOM     58  C   LIG d   1      11.363   6.784  -8.138  0.00  0.00    -0.056 C 
ATOM     59  H   LIG d   1      10.881   6.150  -8.881  0.00  0.00     0.024 H 
ATOM     60  H   LIG d   1      11.526   7.777  -8.558  0.00  0.00     0.024 H 
ATOM     61  H   LIG d   1      12.320   6.348  -7.853  0.00  0.00     0.024 H 
ENDBRANCH   1  58
BRANCH   4  62
ATOM     62  O   LIG d   1       9.167   9.682  -5.297  0.00  0.00    -0.392 OA
ATOM     63  H   LIG d   1       8.603   8.897  -5.312  0.00  0.00     0.210 HD
ENDBRANCH   4  62
TORSDOF 6
ENDMDL
MODEL 3
REMARK VINA RESULT:      -6.9      2.837      4.596
REMARK  6 active torsions:
REMARK  status: ('A' for Active; 'I' for Inactive)
REMARK    1  A    between atoms: C_1  and  C_2 
REMARK    2  A    between atoms: C_5  and  O_33 
REMARK    3  A    between atoms: C_17  and  C_32 
REMARK    4  A    between atoms: C_22  and  C_23 
REMARK    5  A    between atoms: C_22  and  O_31 
REMARK    6  A    between atoms: C_24  and  C_25 
ROOT
ATOM      1  C   LIG d   1      12.163   6.789  -3.097  0.00  0.00    -0.008 C 
ATOM      2  C   LIG d   1      11.374   7.633  -2.095  0.00  0.00    -0.041 C 
ATOM      3  C   LIG d   1      12.256   8.701  -1.456  0.00  0.00    -0.026 C 
ATOM      4  C   LIG d   1      13.433   8.057  -0.724  0.00  0.00     0.059 C 
ATOM      5  H   LIG d   1      14.028   8.833  -0.240  0.00  0.00     0.060 H 
ATOM      6  C   LIG d   1      14.305   7.301  -1.731  0.00  0.00    -0.005 C 
ATOM      7  C   LIG d   1      13.429   6.291  -2.453  0.00  0.00    -0.065 C 
ATOM      8  C   LIG d   1      13.821   5.050  -2.465  0.00  0.00    -0.084 C 
ATOM      9  C   LIG d   1      13.062   3.935  -3.138  0.00  0.00    -0.031 C 
ATOM     10  C   LIG d   1      12.178   4.558  -4.219  0.00  0.00    -0.030 C 
ATOM     11  H   LIG d   1      12.847   5.065  -4.939  0.00  0.00     0.031 H 
ATOM     12  C   LIG d   1      11.298   5.615  -3.550  0.00  0.00    -0.029 C 
ATOM     13  H   LIG d   1      10.900   5.202  -2.616  0.00  0.00     0.031 H 
ATOM     14  C   LIG d   1      10.142   6.024  -4.438  0.00  0.00    -0.049 C 
ATOM     15  C   LIG d   1       9.210   4.846  -4.775  0.00  0.00    -0.043 C 
ATOM     16  C   LIG d   1       9.883   3.522  -4.504  0.00  0.00     0.011 C 
ATOM     17  C   LIG d   1      11.353   3.565  -4.976  0.00  0.00    -0.029 C 
ATOM     18  H   LIG d   1      11.372   3.830  -6.051  0.00  0.00     0.031 H 
ATOM     19  C   LIG d   1      11.753   2.084  -4.853  0.00  0.00    -0.046 C 
ATOM     20  C   LIG d   1      10.536   1.386  -5.527  0.00  0.00    -0.012 C 
ATOM     21  C   LIG d   1       9.336   2.346  -5.343  0.00  0.00     0.132 C 
ATOM     22  H   LIG d   1      10.968   6.982  -1.317  0.00  0.00     0.027 H 
ATOM     23  H   LIG d   1      10.540   8.116  -2.612  0.00  0.00     0.027 H 
ATOM     24  H   LIG d   1      11.660   9.270  -0.735  0.00  0.00     0.029 H 
ATOM     25  H   LIG d   1      12.628   9.391  -2.213  0.00  0.00     0.029 H 
ATOM     26  H   LIG d   1      15.105   6.781  -1.203  0.00  0.00     0.034 H 
ATOM     27  H   LIG d   1      14.736   8.001  -2.445  0.00  0.00     0.034 H 
ATOM     28  H   LIG d   1      14.746   4.801  -1.966  0.00  0.00     0.057 H 
ATOM     29  H   LIG d   1      12.453   3.418  -2.401  0.00  0.00     0.031 H 
ATOM     30  H   LIG d   1      13.767   3.241  -3.592  0.00  0.00     0.031 H 
ATOM     31  H   LIG d   1      10.513   6.437  -5.383  0.00  0.00     0.027 H 
ATOM     32  H   LIG d   1       9.553   6.805  -3.941  0.00  0.00     0.027 H 
ATOM     33  H   LIG d   1       8.921   4.915  -5.830  0.00  0.00     0.027 H 
ATOM     34  H   LIG d   1       8.298   4.925  -4.170  0.00  0.00     0.027 H 
ATOM     35  H   LIG d   1      11.870   1.776  -3.824  0.00  0.00     0.027 H 
ATOM     36  H   LIG d   1      12.663   1.891  -5.423  0.00  0.00     0.027 H 
ATOM     37  H   LIG d   1      10.336   0.436  -5.035  0.00  0.00     0.030 H 
ATOM     38  H   LIG d   1      10.736   1.232  -6.585  0.00  0.00     0.030 H 
ENDROOT
BRANCH  21  39
ATOM     39  C   LIG d   1       8.252   1.679  -4.607  0.00  0.00    -0.062 C 
ATOM     40  C   LIG d   1       7.386   1.147  -4.019  0.00  0.00    -0.063 C 
BRANCH  40  41
ATOM     41  C   LIG d   1       6.330   0.497  -3.302  0.00  0.00     0.025 A 
ATOM     42  C   LIG d   1       5.403   1.251  -2.583  0.00  0.00    -0.046 A 
ATOM     43  C   LIG d   1       4.389   0.619  -1.894  0.00  0.00    -0.061 A 
ATOM     44  H   LIG d   1       5.479   2.329  -2.564  0.00  0.00     0.063 H 
ATOM     45  C   LIG d   1       4.289  -0.760  -1.916  0.00  0.00    -0.062 A 
ATOM     46  H   LIG d   1       3.670   1.202  -1.337  0.00  0.00     0.062 H 
ATOM     47  C   LIG d   1       5.206  -1.514  -2.627  0.00  0.00    -0.061 A 
ATOM     48  H   LIG d   1       3.493  -1.252  -1.375  0.00  0.00     0.062 H 
ATOM     49  C   LIG d   1       6.221  -0.894  -3.324  0.00  0.00    -0.046 A 
ATOM     50  H   LIG d   1       5.123  -2.591  -2.639  0.00  0.00     0.062 H 
ATOM     51  H   LIG d   1       6.933  -1.484  -3.882  0.00  0.00     0.063 H 
ENDBRANCH  40  41
ENDBRANCH  21  39
BRANCH  21  52
ATOM     52  O   LIG d   1       8.875   2.813  -6.608  0.00  0.00    -0.376 OA
ATOM     53  H   LIG d   1       8.239   3.539  -6.552  0.00  0.00     0.211 HD
ENDBRANCH  21  52
BRANCH  16  54
ATOM     54  C   LIG d   1       9.731   3.113  -3.039  0.00  0.00    -0.056 C 
ATOM     55  H   LIG d   1       9.991   2.061  -2.927  0.00  0.00     0.024 H 
ATOM     56  H   LIG d   1      10.395   3.718  -2.423  0.00  0.00     0.024 H 
ATOM     57  H   LIG d   1       8.700   3.268  -2.723  0.00  0.00     0.024 H 
ENDBRANCH  16  54
BRANCH   1  58
ATOM     58  C   LIG d   1      12.527   7.651  -4.302  0.00  0.00    -0.056 C 
ATOM     59  H   LIG d   1      12.927   8.604  -3.959  0.00  0.00     0.024 H 
ATOM     60  H   LIG d   1      13.278   7.136  -4.902  0.00  0.00     0.024 H 
ATOM     61  H   LIG d   1      11.637   7.826  -4.906  0.00  0.00     0.024 H 
ENDBRANCH   1  58
BRANCH   4  62
ATOM     62  O   LIG d   1      12.947   7.148   0.265  0.00  0.00    -0.392 OA
ATOM     63  H   LIG d   1      12.653   7.573   1.081  0.00  0.00     0.210 HD
ENDBRANCH   4  62
TORSDOF 6
ENDMDL
MODEL 4
REMARK VINA RESULT:      -6.7      6.985     12.509
REMARK  6 active torsions:
REMARK  status: ('A' for Active; 'I' for Inactive)
REMARK    1  A    between atoms: C_1  and  C_2 
REMARK    2  A    between atoms: C_5  and  O_33 
REMARK    3  A    between atoms: C_17  and  C_32 
REMARK    4  A    between atoms: C_22  and  C_23 
REMARK    5  A    between atoms: C_22  and  O_31 
REMARK    6  A    between atoms: C_24  and  C_25 
ROOT
ATOM      1  C   LIG d   1       6.148  -9.374  -5.652  0.00  0.00    -0.008 C 
ATOM      2  C   LIG d   1       5.874  -9.855  -4.226  0.00  0.00    -0.041 C 
ATOM      3  C   LIG d   1       5.469 -11.326  -4.206  0.00  0.00    -0.026 C 
ATOM      4  C   LIG d   1       4.208 -11.546  -5.041  0.00  0.00     0.059 C 
ATOM      5  H   LIG d   1       3.911 -12.594  -4.981  0.00  0.00     0.060 H 
ATOM      6  C   LIG d   1       4.496 -11.181  -6.501  0.00  0.00    -0.005 C 
ATOM      7  C   LIG d   1       4.992  -9.746  -6.542  0.00  0.00    -0.065 C 
ATOM      8  C   LIG d   1       4.384  -8.917  -7.340  0.00  0.00    -0.084 C 
ATOM      9  C   LIG d   1       4.760  -7.466  -7.491  0.00  0.00    -0.031 C 
ATOM     10  C   LIG d   1       6.219  -7.314  -7.060  0.00  0.00    -0.030 C 
ATOM     11  H   LIG d   1       6.828  -7.948  -7.733  0.00  0.00     0.031 H 
ATOM     12  C   LIG d   1       6.345  -7.860  -5.638  0.00  0.00    -0.029 C 
ATOM     13  H   LIG d   1       5.504  -7.488  -5.042  0.00  0.00     0.031 H 
ATOM     14  C   LIG d   1       7.640  -7.425  -4.984  0.00  0.00    -0.049 C 
ATOM     15  C   LIG d   1       7.757  -5.896  -4.864  0.00  0.00    -0.043 C 
ATOM     16  C   LIG d   1       6.782  -5.199  -5.783  0.00  0.00     0.011 C 
ATOM     17  C   LIG d   1       6.737  -5.913  -7.152  0.00  0.00    -0.029 C 
ATOM     18  H   LIG d   1       7.762  -5.938  -7.573  0.00  0.00     0.031 H 
ATOM     19  C   LIG d   1       5.914  -4.916  -7.986  0.00  0.00    -0.046 C 
ATOM     20  C   LIG d   1       6.602  -3.571  -7.614  0.00  0.00    -0.012 C 
ATOM     21  C   LIG d   1       7.209  -3.776  -6.204  0.00  0.00     0.132 C 
ATOM     22  H   LIG d   1       5.075  -9.251  -3.790  0.00  0.00     0.027 H 
ATOM     23  H   LIG d   1       6.776  -9.722  -3.623  0.00  0.00     0.027 H 
ATOM     24  H   LIG d   1       5.265 -11.625  -3.173  0.00  0.00     0.029 H 
ATOM     25  H   LIG d   1       6.276 -11.948  -4.590  0.00  0.00     0.029 H 
ATOM     26  H   LIG d   1       3.579 -11.268  -7.085  0.00  0.00     0.034 H 
ATOM     27  H   LIG d   1       5.251 -11.851  -6.907  0.00  0.00     0.034 H 
ATOM     28  H   LIG d   1       3.561  -9.290  -7.932  0.00  0.00     0.057 H 
ATOM     29  H   LIG d   1       4.114  -6.859  -6.862  0.00  0.00     0.031 H 
ATOM     30  H   LIG d   1       4.650  -7.170  -8.533  0.00  0.00     0.031 H 
ATOM     31  H   LIG d   1       8.500  -7.782  -5.564  0.00  0.00     0.027 H 
ATOM     32  H   LIG d   1       7.711  -7.862  -3.981  0.00  0.00     0.027 H 
ATOM     33  H   LIG d   1       8.784  -5.599  -5.108  0.00  0.00     0.027 H 
ATOM     34  H   LIG d   1       7.559  -5.600  -3.827  0.00  0.00     0.027 H 
ATOM     35  H   LIG d   1       4.869  -4.918  -7.712  0.00  0.00     0.027 H 
ATOM     36  H   LIG d   1       6.038  -5.122  -9.050  0.00  0.00     0.027 H 
ATOM     37  H   LIG d   1       5.865  -2.771  -7.592  0.00  0.00     0.030 H 
ATOM     38  H   LIG d   1       7.388  -3.344  -8.332  0.00  0.00     0.030 H 
ENDROOT
BRANCH  21  39
ATOM     39  C   LIG d   1       6.656  -2.796  -5.259  0.00  0.00    -0.062 C 
ATOM     40  C   LIG d   1       6.215  -2.012  -4.503  0.00  0.00    -0.063 C 
BRANCH  40  41
ATOM     41  C   LIG d   1       5.675  -1.058  -3.582  0.00  0.00     0.025 A 
ATOM     42  C   LIG d   1       4.790  -1.469  -2.585  0.00  0.00    -0.046 A 
ATOM     43  C   LIG d   1       4.274  -0.544  -1.701  0.00  0.00    -0.061 A 
ATOM     44  H   LIG d   1       4.508  -2.509  -2.506  0.00  0.00     0.063 H 
ATOM     45  C   LIG d   1       4.633   0.788  -1.801  0.00  0.00    -0.062 A 
ATOM     46  H   LIG d   1       3.588  -0.861  -0.929  0.00  0.00     0.062 H 
ATOM     47  C   LIG d   1       5.510   1.202  -2.787  0.00  0.00    -0.061 A 
ATOM     48  H   LIG d   1       4.226   1.509  -1.106  0.00  0.00     0.062 H 
ATOM     49  C   LIG d   1       6.037   0.286  -3.674  0.00  0.00    -0.046 A 
ATOM     50  H   LIG d   1       5.786   2.243  -2.860  0.00  0.00     0.062 H 
ATOM     51  H   LIG d   1       6.725   0.610  -4.441  0.00  0.00     0.063 H 
ENDBRANCH  40  41
ENDBRANCH  21  39
BRANCH  21  52
ATOM     52  O   LIG d   1       8.631  -3.681  -6.256  0.00  0.00    -0.376 OA
ATOM     53  H   LIG d   1       9.058  -3.699  -5.390  0.00  0.00     0.211 HD
ENDBRANCH  21  52
BRANCH  16  54
ATOM     54  C   LIG d   1       5.408  -5.061  -5.130  0.00  0.00    -0.056 C 
ATOM     55  H   LIG d   1       4.757  -5.863  -5.479  0.00  0.00     0.024 H 
ATOM     56  H   LIG d   1       5.512  -5.124  -4.048  0.00  0.00     0.024 H 
ATOM     57  H   LIG d   1       4.973  -4.098  -5.398  0.00  0.00     0.024 H 
ENDBRANCH  16  54
BRANCH   1  58
ATOM     58  C   LIG d   1       7.412 -10.050  -6.175  0.00  0.00    -0.056 C 
ATOM     59  H   LIG d   1       8.280  -9.653  -5.650  0.00  0.00     0.024 H 
ATOM     60  H   LIG d   1       7.345 -11.125  -6.005  0.00  0.00     0.024 H 
ATOM     61  H   LIG d   1       7.512  -9.856  -7.243  0.00  0.00     0.024 H 
ENDBRANCH   1  58
BRANCH   4  62
ATOM     62  O   LIG d   1       3.150 -10.726  -4.543  0.00  0.00    -0.392 OA
ATOM     63  H   LIG d   1       2.425 -11.221  -4.138  0.00  0.00     0.210 HD
ENDBRANCH   4  62
TORSDOF 6
ENDMDL
MODEL 5
REMARK VINA RESULT:      -6.7      7.927     10.234
REMARK  6 active torsions:
REMARK  status: ('A' for Active; 'I' for Inactive)
REMARK    1  A    between atoms: C_1  and  C_2 
REMARK    2  A    between atoms: C_5  and  O_33 
REMARK    3  A    between atoms: C_17  and  C_32 
REMARK    4  A    between atoms: C_22  and  C_23 
REMARK    5  A    between atoms: C_22  and  O_31 
REMARK    6  A    between atoms: C_24  and  C_25 
ROOT
ATOM      1  C   LIG d   1       3.222  -2.749 -12.627  0.00  0.00    -0.008 C 
ATOM      2  C   LIG d   1       3.618  -4.210 -12.414  0.00  0.00    -0.041 C 
ATOM      3  C   LIG d   1       3.179  -5.079 -13.589  0.00  0.00    -0.026 C 
ATOM      4  C   LIG d   1       1.664  -5.011 -13.770  0.00  0.00     0.059 C 
ATOM      5  H   LIG d   1       1.365  -5.669 -14.588  0.00  0.00     0.060 H 
ATOM      6  C   LIG d   1       1.256  -3.572 -14.102  0.00  0.00    -0.005 C 
ATOM      7  C   LIG d   1       1.763  -2.668 -12.992  0.00  0.00    -0.065 C 
ATOM      8  C   LIG d   1       0.904  -1.879 -12.413  0.00  0.00    -0.084 C 
ATOM      9  C   LIG d   1       1.254  -0.927 -11.299  0.00  0.00    -0.031 C 
ATOM     10  C   LIG d   1       2.751  -0.631 -11.391  0.00  0.00    -0.030 C 
ATOM     11  H   LIG d   1       2.934  -0.164 -12.377  0.00  0.00     0.031 H 
ATOM     12  C   LIG d   1       3.495  -1.966 -11.345  0.00  0.00    -0.029 C 
ATOM     13  H   LIG d   1       3.055  -2.587 -10.555  0.00  0.00     0.031 H 
ATOM     14  C   LIG d   1       4.969  -1.777 -11.055  0.00  0.00    -0.049 C 
ATOM     15  C   LIG d   1       5.223  -1.102  -9.696  0.00  0.00    -0.043 C 
ATOM     16  C   LIG d   1       3.976  -0.422  -9.182  0.00  0.00     0.011 C 
ATOM     17  C   LIG d   1       3.252   0.305 -10.336  0.00  0.00    -0.029 C 
ATOM     18  H   LIG d   1       3.956   1.023 -10.800  0.00  0.00     0.031 H 
ATOM     19  C   LIG d   1       2.197   1.119  -9.566  0.00  0.00    -0.046 C 
ATOM     20  C   LIG d   1       3.061   1.728  -8.423  0.00  0.00    -0.012 C 
ATOM     21  C   LIG d   1       4.243   0.750  -8.212  0.00  0.00     0.132 C 
ATOM     22  H   LIG d   1       3.154  -4.578 -11.495  0.00  0.00     0.027 H 
ATOM     23  H   LIG d   1       4.703  -4.275 -12.303  0.00  0.00     0.027 H 
ATOM     24  H   LIG d   1       3.465  -6.118 -13.390  0.00  0.00     0.029 H 
ATOM     25  H   LIG d   1       3.673  -4.758 -14.505  0.00  0.00     0.029 H 
ATOM     26  H   LIG d   1       0.169  -3.505 -14.161  0.00  0.00     0.034 H 
ATOM     27  H   LIG d   1       1.691  -3.276 -15.054  0.00  0.00     0.034 H 
ATOM     28  H   LIG d   1      -0.122  -1.906 -12.751  0.00  0.00     0.057 H 
ATOM     29  H   LIG d   1       1.016  -1.387 -10.343  0.00  0.00     0.031 H 
ATOM     30  H   LIG d   1       0.687  -0.005 -11.420  0.00  0.00     0.031 H 
ATOM     31  H   LIG d   1       5.433  -1.154 -11.829  0.00  0.00     0.027 H 
ATOM     32  H   LIG d   1       5.475  -2.750 -11.063  0.00  0.00     0.027 H 
ATOM     33  H   LIG d   1       6.032  -0.372  -9.809  0.00  0.00     0.027 H 
ATOM     34  H   LIG d   1       5.551  -1.859  -8.974  0.00  0.00     0.027 H 
ATOM     35  H   LIG d   1       1.404   0.496  -9.177  0.00  0.00     0.027 H 
ATOM     36  H   LIG d   1       1.795   1.911 -10.199  0.00  0.00     0.027 H 
ATOM     37  H   LIG d   1       2.470   1.804  -7.513  0.00  0.00     0.030 H 
ATOM     38  H   LIG d   1       3.431   2.708  -8.719  0.00  0.00     0.030 H 
ENDROOT
BRANCH  21  39
ATOM     39  C   LIG d   1       4.258   0.252  -6.829  0.00  0.00    -0.062 C 
ATOM     40  C   LIG d   1       4.269  -0.145  -5.724  0.00  0.00    -0.063 C 
BRANCH  40  41
ATOM     41  C   LIG d   1       4.284  -0.630  -4.377  0.00  0.00     0.025 A 
ATOM     42  C   LIG d   1       4.438   0.259  -3.313  0.00  0.00    -0.046 A 
ATOM     43  C   LIG d   1       4.452  -0.215  -2.018  0.00  0.00    -0.061 A 
ATOM     44  H   LIG d   1       4.548   1.317  -3.503  0.00  0.00     0.063 H 
ATOM     45  C   LIG d   1       4.312  -1.569  -1.772  0.00  0.00    -0.062 A 
ATOM     46  H   LIG d   1       4.571   0.472  -1.193  0.00  0.00     0.062 H 
ATOM     47  C   LIG d   1       4.159  -2.456  -2.823  0.00  0.00    -0.061 A 
ATOM     48  H   LIG d   1       4.323  -1.936  -0.756  0.00  0.00     0.062 H 
ATOM     49  C   LIG d   1       4.138  -1.994  -4.122  0.00  0.00    -0.046 A 
ATOM     50  H   LIG d   1       4.051  -3.512  -2.624  0.00  0.00     0.062 H 
ATOM     51  H   LIG d   1       4.014  -2.687  -4.941  0.00  0.00     0.063 H 
ENDBRANCH  40  41
ENDBRANCH  21  39
BRANCH  21  52
ATOM     52  O   LIG d   1       5.477   1.386  -8.534  0.00  0.00    -0.376 OA
ATOM     53  H   LIG d   1       5.750   2.060  -7.897  0.00  0.00     0.211 HD
ENDBRANCH  21  52
BRANCH  16  54
ATOM     54  C   LIG d   1       3.079  -1.406  -8.432  0.00  0.00    -0.056 C 
ATOM     55  H   LIG d   1       2.163  -1.569  -9.001  0.00  0.00     0.024 H 
ATOM     56  H   LIG d   1       3.602  -2.352  -8.306  0.00  0.00     0.024 H 
ATOM     57  H   LIG d   1       2.829  -0.996  -7.453  0.00  0.00     0.024 H 
ENDBRANCH  16  54
BRANCH   1  58
ATOM     58  C   LIG d   1       4.050  -2.166 -13.768  0.00  0.00    -0.056 C 
ATOM     59  H   LIG d   1       3.566  -1.265 -14.144  0.00  0.00     0.024 H 
ATOM     60  H   LIG d   1       5.046  -1.918 -13.404  0.00  0.00     0.024 H 
ATOM     61  H   LIG d   1       4.128  -2.899 -14.571  0.00  0.00     0.024 H 
ENDBRANCH   1  58
BRANCH   4  62
ATOM     62  O   LIG d   1       1.014  -5.426 -12.568  0.00  0.00    -0.392 OA
ATOM     63  H   LIG d   1       0.431  -6.189 -12.678  0.00  0.00     0.210 HD
ENDBRANCH   4  62
TORSDOF 6
ENDMDL
MODEL 6
REMARK VINA RESULT:      -6.3      7.035     10.331
REMARK  6 active torsions:
REMARK  status: ('A' for Active; 'I' for Inactive)
REMARK    1  A    between atoms: C_1  and  C_2 
REMARK    2  A    between atoms: C_5  and  O_33 
REMARK    3  A    between atoms: C_17  and  C_32 
REMARK    4  A    between atoms: C_22  and  C_23 
REMARK    5  A    between atoms: C_22  and  O_31 
REMARK    6  A    between atoms: C_24  and  C_25 
ROOT
ATOM      1  C   LIG d   1       4.144  -0.291  -4.668  0.00  0.00    -0.008 C 
ATOM      2  C   LIG d   1       2.872  -0.881  -4.055  0.00  0.00    -0.041 C 
ATOM      3  C   LIG d   1       3.060  -1.177  -2.570  0.00  0.00    -0.026 C 
ATOM      4  C   LIG d   1       4.202  -2.170  -2.361  0.00  0.00     0.059 C 
ATOM      5  H   LIG d   1       4.294  -2.401  -1.298  0.00  0.00     0.060 H 
ATOM      6  C   LIG d   1       5.511  -1.551  -2.862  0.00  0.00    -0.005 C 
ATOM      7  C   LIG d   1       5.323  -1.159  -4.317  0.00  0.00    -0.065 C 
ATOM      8  C   LIG d   1       6.190  -1.603  -5.181  0.00  0.00    -0.084 C 
ATOM      9  C   LIG d   1       6.138  -1.300  -6.656  0.00  0.00    -0.031 C 
ATOM     10  C   LIG d   1       5.340  -0.009  -6.840  0.00  0.00    -0.030 C 
ATOM     11  H   LIG d   1       5.877   0.790  -6.296  0.00  0.00     0.031 H 
ATOM     12  C   LIG d   1       3.974  -0.207  -6.182  0.00  0.00    -0.029 C 
ATOM     13  H   LIG d   1       3.588  -1.194  -6.462  0.00  0.00     0.031 H 
ATOM     14  C   LIG d   1       2.983   0.850  -6.621  0.00  0.00    -0.049 C 
ATOM     15  C   LIG d   1       2.730   0.829  -8.139  0.00  0.00    -0.043 C 
ATOM     16  C   LIG d   1       3.816   0.071  -8.864  0.00  0.00     0.011 C 
ATOM     17  C   LIG d   1       5.198   0.419  -8.268  0.00  0.00    -0.029 C 
ATOM     18  H   LIG d   1       5.344   1.516  -8.327  0.00  0.00     0.031 H 
ATOM     19  C   LIG d   1       6.142  -0.234  -9.291  0.00  0.00    -0.046 C 
ATOM     20  C   LIG d   1       5.513   0.246 -10.632  0.00  0.00    -0.012 C 
ATOM     21  C   LIG d   1       4.013   0.493 -10.337  0.00  0.00     0.132 C 
ATOM     22  H   LIG d   1       2.614  -1.803  -4.581  0.00  0.00     0.027 H 
ATOM     23  H   LIG d   1       2.051  -0.170  -4.179  0.00  0.00     0.027 H 
ATOM     24  H   LIG d   1       2.136  -1.613  -2.174  0.00  0.00     0.029 H 
ATOM     25  H   LIG d   1       3.267  -0.259  -2.022  0.00  0.00     0.029 H 
ATOM     26  H   LIG d   1       6.315  -2.284  -2.781  0.00  0.00     0.034 H 
ATOM     27  H   LIG d   1       5.757  -0.675  -2.266  0.00  0.00     0.034 H 
ATOM     28  H   LIG d   1       6.998  -2.224  -4.821  0.00  0.00     0.057 H 
ATOM     29  H   LIG d   1       5.654  -2.123  -7.176  0.00  0.00     0.031 H 
ATOM     30  H   LIG d   1       7.151  -1.165  -7.034  0.00  0.00     0.031 H 
ATOM     31  H   LIG d   1       3.347   1.850  -6.357  0.00  0.00     0.027 H 
ATOM     32  H   LIG d   1       2.027   0.697  -6.105  0.00  0.00     0.027 H 
ATOM     33  H   LIG d   1       2.682   1.862  -8.504  0.00  0.00     0.027 H 
ATOM     34  H   LIG d   1       1.759   0.358  -8.336  0.00  0.00     0.027 H 
ATOM     35  H   LIG d   1       6.145  -1.312  -9.216  0.00  0.00     0.027 H 
ATOM     36  H   LIG d   1       7.151   0.166  -9.183  0.00  0.00     0.027 H 
ATOM     37  H   LIG d   1       5.625  -0.526 -11.390  0.00  0.00     0.030 H 
ATOM     38  H   LIG d   1       5.990   1.170 -10.956  0.00  0.00     0.030 H 
ENDROOT
BRANCH  21  39
ATOM     39  C   LIG d   1       3.174  -0.346 -11.205  0.00  0.00    -0.062 C 
ATOM     40  C   LIG d   1       2.505  -1.017 -11.899  0.00  0.00    -0.063 C 
BRANCH  40  41
ATOM     41  C   LIG d   1       1.688  -1.833 -12.745  0.00  0.00     0.025 A 
ATOM     42  C   LIG d   1       0.307  -1.879 -12.553  0.00  0.00    -0.046 A 
ATOM     43  C   LIG d   1      -0.475  -2.668 -13.372  0.00  0.00    -0.061 A 
ATOM     44  H   LIG d   1      -0.150  -1.298 -11.765  0.00  0.00     0.063 H 
ATOM     45  C   LIG d   1       0.108  -3.412 -14.382  0.00  0.00    -0.062 A 
ATOM     46  H   LIG d   1      -1.544  -2.704 -13.225  0.00  0.00     0.062 H 
ATOM     47  C   LIG d   1       1.477  -3.371 -14.577  0.00  0.00    -0.061 A 
ATOM     48  H   LIG d   1      -0.507  -4.028 -15.021  0.00  0.00     0.062 H 
ATOM     49  C   LIG d   1       2.269  -2.582 -13.769  0.00  0.00    -0.046 A 
ATOM     50  H   LIG d   1       1.926  -3.955 -15.367  0.00  0.00     0.062 H 
ATOM     51  H   LIG d   1       3.337  -2.548 -13.925  0.00  0.00     0.063 H 
ENDBRANCH  40  41
ENDBRANCH  21  39
BRANCH  21  52
ATOM     52  O   LIG d   1       3.694   1.872 -10.503  0.00  0.00    -0.376 OA
ATOM     53  H   LIG d   1       4.130   2.456  -9.869  0.00  0.00     0.211 HD
ENDBRANCH  21  52
BRANCH  16  54
ATOM     54  C   LIG d   1       3.527  -1.429  -8.880  0.00  0.00    -0.056 C 
ATOM     55  H   LIG d   1       4.336  -1.950  -9.394  0.00  0.00     0.024 H 
ATOM     56  H   LIG d   1       3.452  -1.796  -7.857  0.00  0.00     0.024 H 
ATOM     57  H   LIG d   1       2.588  -1.613  -9.402  0.00  0.00     0.024 H 
ENDBRANCH  16  54
BRANCH   1  58
ATOM     58  C   LIG d   1       4.373   1.107  -4.100  0.00  0.00    -0.056 C 
ATOM     59  H   LIG d   1       5.423   1.375  -4.209  0.00  0.00     0.024 H 
ATOM     60  H   LIG d   1       3.756   1.824  -4.641  0.00  0.00     0.024 H 
ATOM     61  H   LIG d   1       4.102   1.119  -3.044  0.00  0.00     0.024 H 
ENDBRANCH   1  58
BRANCH   4  62
ATOM     62  O   LIG d   1       3.934  -3.373  -3.084  0.00  0.00    -0.392 OA
ATOM     63  H   LIG d   1       3.796  -4.147  -2.523  0.00  0.00     0.210 HD
ENDBRANCH   4  62
TORSDOF 6
ENDMDL
MODEL 7
REMARK VINA RESULT:      -6.1      6.198      9.258
REMARK  6 active torsions:
REMARK  status: ('A' for Active; 'I' for Inactive)
REMARK    1  A    between atoms: C_1  and  C_2 
REMARK    2  A    between atoms: C_5  and  O_33 
REMARK    3  A    between atoms: C_17  and  C_32 
REMARK    4  A    between atoms: C_22  and  C_23 
REMARK    5  A    between atoms: C_22  and  O_31 
REMARK    6  A    between atoms: C_24  and  C_25 
ROOT
ATOM      1  C   LIG d   1       4.989  -1.269  -4.250  0.00  0.00    -0.008 C 
ATOM      2  C   LIG d   1       4.055  -1.829  -3.176  0.00  0.00    -0.041 C 
ATOM      3  C   LIG d   1       2.916  -0.860  -2.873  0.00  0.00    -0.026 C 
ATOM      4  C   LIG d   1       3.468   0.478  -2.383  0.00  0.00     0.059 C 
ATOM      5  H   LIG d   1       2.640   1.143  -2.133  0.00  0.00     0.060 H 
ATOM      6  C   LIG d   1       4.314   1.115  -3.490  0.00  0.00    -0.005 C 
ATOM      7  C   LIG d   1       5.403   0.130  -3.880  0.00  0.00    -0.065 C 
ATOM      8  C   LIG d   1       6.634   0.551  -3.864  0.00  0.00    -0.084 C 
ATOM      9  C   LIG d   1       7.821  -0.304  -4.224  0.00  0.00    -0.031 C 
ATOM     10  C   LIG d   1       7.323  -1.440  -5.119  0.00  0.00    -0.030 C 
ATOM     11  H   LIG d   1       6.885  -0.978  -6.024  0.00  0.00     0.031 H 
ATOM     12  C   LIG d   1       6.213  -2.174  -4.367  0.00  0.00    -0.029 C 
ATOM     13  H   LIG d   1       6.531  -2.326  -3.329  0.00  0.00     0.031 H 
ATOM     14  C   LIG d   1       5.911  -3.521  -4.989  0.00  0.00    -0.049 C 
ATOM     15  C   LIG d   1       7.127  -4.464  -4.978  0.00  0.00    -0.043 C 
ATOM     16  C   LIG d   1       8.409  -3.700  -4.747  0.00  0.00     0.011 C 
ATOM     17  C   LIG d   1       8.398  -2.385  -5.557  0.00  0.00    -0.029 C 
ATOM     18  H   LIG d   1       8.245  -2.628  -6.627  0.00  0.00     0.031 H 
ATOM     19  C   LIG d   1       9.853  -1.914  -5.389  0.00  0.00    -0.046 C 
ATOM     20  C   LIG d   1      10.632  -3.230  -5.682  0.00  0.00    -0.012 C 
ATOM     21  C   LIG d   1       9.671  -4.387  -5.312  0.00  0.00     0.132 C 
ATOM     22  H   LIG d   1       4.626  -2.017  -2.264  0.00  0.00     0.027 H 
ATOM     23  H   LIG d   1       3.637  -2.778  -3.524  0.00  0.00     0.027 H 
ATOM     24  H   LIG d   1       2.282  -1.288  -2.089  0.00  0.00     0.029 H 
ATOM     25  H   LIG d   1       2.304  -0.701  -3.760  0.00  0.00     0.029 H 
ATOM     26  H   LIG d   1       4.768   2.035  -3.119  0.00  0.00     0.034 H 
ATOM     27  H   LIG d   1       3.687   1.341  -4.350  0.00  0.00     0.034 H 
ATOM     28  H   LIG d   1       6.820   1.577  -3.578  0.00  0.00     0.057 H 
ATOM     29  H   LIG d   1       8.266  -0.704  -3.317  0.00  0.00     0.031 H 
ATOM     30  H   LIG d   1       8.551   0.297  -4.763  0.00  0.00     0.031 H 
ATOM     31  H   LIG d   1       5.593  -3.398  -6.031  0.00  0.00     0.027 H 
ATOM     32  H   LIG d   1       5.089  -4.003  -4.445  0.00  0.00     0.027 H 
ATOM     33  H   LIG d   1       7.171  -4.996  -5.935  0.00  0.00     0.027 H 
ATOM     34  H   LIG d   1       6.997  -5.210  -4.184  0.00  0.00     0.027 H 
ATOM     35  H   LIG d   1      10.052  -1.547  -4.392  0.00  0.00     0.027 H 
ATOM     36  H   LIG d   1      10.094  -1.158  -6.138  0.00  0.00     0.027 H 
ATOM     37  H   LIG d   1      11.527  -3.275  -5.066  0.00  0.00     0.030 H 
ATOM     38  H   LIG d   1      10.892  -3.280  -6.738  0.00  0.00     0.030 H 
ENDROOT
BRANCH  21  39
ATOM     39  C   LIG d   1      10.271  -5.242  -4.278  0.00  0.00    -0.062 C 
ATOM     40  C   LIG d   1      10.750  -5.925  -3.451  0.00  0.00    -0.063 C 
BRANCH  40  41
ATOM     41  C   LIG d   1      11.335  -6.758  -2.444  0.00  0.00     0.025 A 
ATOM     42  C   LIG d   1      10.609  -7.088  -1.300  0.00  0.00    -0.046 A 
ATOM     43  C   LIG d   1      11.178  -7.891  -0.333  0.00  0.00    -0.061 A 
ATOM     44  H   LIG d   1       9.603  -6.715  -1.170  0.00  0.00     0.063 H 
ATOM     45  C   LIG d   1      12.466  -8.369  -0.497  0.00  0.00    -0.062 A 
ATOM     46  H   LIG d   1      10.617  -8.148   0.554  0.00  0.00     0.062 H 
ATOM     47  C   LIG d   1      13.191  -8.044  -1.629  0.00  0.00    -0.061 A 
ATOM     48  H   LIG d   1      12.908  -8.997   0.263  0.00  0.00     0.062 H 
ATOM     49  C   LIG d   1      12.631  -7.247  -2.606  0.00  0.00    -0.046 A 
ATOM     50  H   LIG d   1      14.196  -8.420  -1.751  0.00  0.00     0.062 H 
ATOM     51  H   LIG d   1      13.198  -6.998  -3.491  0.00  0.00     0.063 H 
ENDBRANCH  40  41
ENDBRANCH  21  39
BRANCH  21  52
ATOM     52  O   LIG d   1       9.342  -5.149  -6.471  0.00  0.00    -0.376 OA
ATOM     53  H   LIG d   1       9.360  -4.642  -7.294  0.00  0.00     0.211 HD
ENDBRANCH  21  52
BRANCH  16  54
ATOM     54  C   LIG d   1       8.665  -3.487  -3.256  0.00  0.00    -0.056 C 
ATOM     55  H   LIG d   1       7.992  -4.119  -2.677  0.00  0.00     0.024 H 
ATOM     56  H   LIG d   1       9.697  -3.748  -3.024  0.00  0.00     0.024 H 
ATOM     57  H   LIG d   1       8.489  -2.441  -3.002  0.00  0.00     0.024 H 
ENDBRANCH  16  54
BRANCH   1  58
ATOM     58  C   LIG d   1       4.252  -1.230  -5.585  0.00  0.00    -0.056 C 
ATOM     59  H   LIG d   1       4.807  -0.610  -6.288  0.00  0.00     0.024 H 
ATOM     60  H   LIG d   1       4.166  -2.241  -5.982  0.00  0.00     0.024 H 
ATOM     61  H   LIG d   1       3.256  -0.811  -5.438  0.00  0.00     0.024 H 
ENDBRANCH   1  58
BRANCH   4  62
ATOM     62  O   LIG d   1       4.275   0.272  -1.223  0.00  0.00    -0.392 OA
ATOM     63  H   LIG d   1       4.136  -0.581  -0.792  0.00  0.00     0.210 HD
ENDBRANCH   4  62
TORSDOF 6
ENDMDL
MODEL 8
REMARK VINA RESULT:      -5.8      3.186      8.948
REMARK  6 active torsions:
REMARK  status: ('A' for Active; 'I' for Inactive)
REMARK    1  A    between atoms: C_1  and  C_2 
REMARK    2  A    between atoms: C_5  and  O_33 
REMARK    3  A    between atoms: C_17  and  C_32 
REMARK    4  A    between atoms: C_22  and  C_23 
REMARK    5  A    between atoms: C_22  and  O_31 
REMARK    6  A    between atoms: C_24  and  C_25 
ROOT
ATOM      1  C   LIG d   1       6.043  -0.645  -3.884  0.00  0.00    -0.008 C 
ATOM      2  C   LIG d   1       5.688   0.571  -3.027  0.00  0.00    -0.041 C 
ATOM      3  C   LIG d   1       4.664   0.213  -1.955  0.00  0.00    -0.026 C 
ATOM      4  C   LIG d   1       3.382  -0.318  -2.595  0.00  0.00     0.059 C 
ATOM      5  H   LIG d   1       2.647  -0.530  -1.816  0.00  0.00     0.060 H 
ATOM      6  C   LIG d   1       3.693  -1.605  -3.364  0.00  0.00    -0.005 C 
ATOM      7  C   LIG d   1       4.781  -1.300  -4.379  0.00  0.00    -0.065 C 
ATOM      8  C   LIG d   1       4.556  -1.616  -5.621  0.00  0.00    -0.084 C 
ATOM      9  C   LIG d   1       5.536  -1.377  -6.740  0.00  0.00    -0.031 C 
ATOM     10  C   LIG d   1       6.934  -1.287  -6.126  0.00  0.00    -0.030 C 
ATOM     11  H   LIG d   1       7.137  -2.254  -5.628  0.00  0.00     0.031 H 
ATOM     12  C   LIG d   1       6.905  -0.192  -5.060  0.00  0.00    -0.029 C 
ATOM     13  H   LIG d   1       6.371   0.677  -5.462  0.00  0.00     0.031 H 
ATOM     14  C   LIG d   1       8.301   0.234  -4.657  0.00  0.00    -0.049 C 
ATOM     15  C   LIG d   1       9.107   0.809  -5.835  0.00  0.00    -0.043 C 
ATOM     16  C   LIG d   1       8.488   0.428  -7.158  0.00  0.00     0.011 C 
ATOM     17  C   LIG d   1       8.022  -1.044  -7.125  0.00  0.00    -0.029 C 
ATOM     18  H   LIG d   1       8.889  -1.685  -6.870  0.00  0.00     0.031 H 
ATOM     19  C   LIG d   1       7.680  -1.287  -8.605  0.00  0.00    -0.046 C 
ATOM     20  C   LIG d   1       8.929  -0.679  -9.307  0.00  0.00    -0.012 C 
ATOM     21  C   LIG d   1       9.481   0.399  -8.341  0.00  0.00     0.132 C 
ATOM     22  H   LIG d   1       5.285   1.358  -3.669  0.00  0.00     0.027 H 
ATOM     23  H   LIG d   1       6.595   0.948  -2.547  0.00  0.00     0.027 H 
ATOM     24  H   LIG d   1       4.424   1.111  -1.377  0.00  0.00     0.029 H 
ATOM     25  H   LIG d   1       5.070  -0.534  -1.275  0.00  0.00     0.029 H 
ATOM     26  H   LIG d   1       2.795  -1.947  -3.881  0.00  0.00     0.034 H 
ATOM     27  H   LIG d   1       4.030  -2.376  -2.673  0.00  0.00     0.034 H 
ATOM     28  H   LIG d   1       3.612  -2.080  -5.868  0.00  0.00     0.057 H 
ATOM     29  H   LIG d   1       5.285  -0.450  -7.248  0.00  0.00     0.031 H 
ATOM     30  H   LIG d   1       5.494  -2.209  -7.442  0.00  0.00     0.031 H 
ATOM     31  H   LIG d   1       8.860  -0.620  -4.254  0.00  0.00     0.027 H 
ATOM     32  H   LIG d   1       8.242   0.994  -3.869  0.00  0.00     0.027 H 
ATOM     33  H   LIG d   1      10.135   0.433  -5.777  0.00  0.00     0.027 H 
ATOM     34  H   LIG d   1       9.143   1.902  -5.747  0.00  0.00     0.027 H 
ATOM     35  H   LIG d   1       6.771  -0.784  -8.903  0.00  0.00     0.027 H 
ATOM     36  H   LIG d   1       7.617  -2.357  -8.807  0.00  0.00     0.027 H 
ATOM     37  H   LIG d   1       8.638  -0.223 -10.251  0.00  0.00     0.030 H 
ATOM     38  H   LIG d   1       9.676  -1.453  -9.473  0.00  0.00     0.030 H 
ENDROOT
BRANCH  21  39
ATOM     39  C   LIG d   1       9.504   1.714  -8.998  0.00  0.00    -0.062 C 
ATOM     40  C   LIG d   1       9.523   2.764  -9.522  0.00  0.00    -0.063 C 
BRANCH  40  41
ATOM     41  C   LIG d   1       9.546   4.046 -10.161  0.00  0.00     0.025 A 
ATOM     42  C   LIG d   1       8.919   5.139  -9.562  0.00  0.00    -0.046 A 
ATOM     43  C   LIG d   1       8.945   6.370 -10.183  0.00  0.00    -0.061 A 
ATOM     44  H   LIG d   1       8.414   5.021  -8.614  0.00  0.00     0.063 H 
ATOM     45  C   LIG d   1       9.590   6.523 -11.397  0.00  0.00    -0.062 A 
ATOM     46  H   LIG d   1       8.460   7.217  -9.721  0.00  0.00     0.062 H 
ATOM     47  C   LIG d   1      10.213   5.443 -11.997  0.00  0.00    -0.061 A 
ATOM     48  H   LIG d   1       9.607   7.489 -11.880  0.00  0.00     0.062 H 
ATOM     49  C   LIG d   1      10.200   4.207 -11.383  0.00  0.00    -0.046 A 
ATOM     50  H   LIG d   1      10.714   5.568 -12.945  0.00  0.00     0.062 H 
ATOM     51  H   LIG d   1      10.690   3.366 -11.850  0.00  0.00     0.063 H 
ENDBRANCH  40  41
ENDBRANCH  21  39
BRANCH  21  52
ATOM     52  O   LIG d   1      10.782   0.038  -7.886  0.00  0.00    -0.376 OA
ATOM     53  H   LIG d   1      10.918   0.168  -6.937  0.00  0.00     0.211 HD
ENDBRANCH  21  52
BRANCH  16  54
ATOM     54  C   LIG d   1       7.379   1.402  -7.551  0.00  0.00    -0.056 C 
ATOM     55  H   LIG d   1       6.439   0.860  -7.658  0.00  0.00     0.024 H 
ATOM     56  H   LIG d   1       7.272   2.163  -6.779  0.00  0.00     0.024 H 
ATOM     57  H   LIG d   1       7.632   1.879  -8.498  0.00  0.00     0.024 H 
ENDBRANCH  16  54
BRANCH   1  58
ATOM     58  C   LIG d   1       6.820  -1.647  -3.036  0.00  0.00    -0.056 C 
ATOM     59  H   LIG d   1       7.861  -1.667  -3.359  0.00  0.00     0.024 H 
ATOM     60  H   LIG d   1       6.770  -1.351  -1.988  0.00  0.00     0.024 H 
ATOM     61  H   LIG d   1       6.384  -2.639  -3.154  0.00  0.00     0.024 H 
ENDBRANCH   1  58
BRANCH   4  62
ATOM     62  O   LIG d   1       2.850   0.658  -3.492  0.00  0.00    -0.392 OA
ATOM     63  H   LIG d   1       2.125   1.180  -3.123  0.00  0.00     0.210 HD
ENDBRANCH   4  62
TORSDOF 6
ENDMDL
MODEL 9
REMARK VINA RESULT:      -5.8      7.681     10.776
REMARK  6 active torsions:
REMARK  status: ('A' for Active; 'I' for Inactive)
REMARK    1  A    between atoms: C_1  and  C_2 
REMARK    2  A    between atoms: C_5  and  O_33 
REMARK    3  A    between atoms: C_17  and  C_32 
REMARK    4  A    between atoms: C_22  and  C_23 
REMARK    5  A    between atoms: C_22  and  O_31 
REMARK    6  A    between atoms: C_24  and  C_25 
ROOT
ATOM      1  C   LIG d   1       4.991  -4.738 -11.809  0.00  0.00    -0.008 C 
ATOM      2  C   LIG d   1       6.066  -5.684 -11.271  0.00  0.00    -0.041 C 
ATOM      3  C   LIG d   1       6.246  -6.894 -12.183  0.00  0.00    -0.026 C 
ATOM      4  C   LIG d   1       4.937  -7.672 -12.308  0.00  0.00     0.059 C 
ATOM      5  H   LIG d   1       5.095  -8.554 -12.930  0.00  0.00     0.060 H 
ATOM      6  C   LIG d   1       3.875  -6.778 -12.955  0.00  0.00    -0.005 C 
ATOM      7  C   LIG d   1       3.740  -5.518 -12.117  0.00  0.00    -0.065 C 
ATOM      8  C   LIG d   1       2.550  -5.188 -11.706  0.00  0.00    -0.084 C 
ATOM      9  C   LIG d   1       2.257  -3.970 -10.869  0.00  0.00    -0.031 C 
ATOM     10  C   LIG d   1       3.386  -2.964 -11.096  0.00  0.00    -0.030 C 
ATOM     11  H   LIG d   1       3.387  -2.708 -12.172  0.00  0.00     0.031 H 
ATOM     12  C   LIG d   1       4.706  -3.662 -10.766  0.00  0.00    -0.029 C 
ATOM     13  H   LIG d   1       4.583  -4.224  -9.831  0.00  0.00     0.031 H 
ATOM     14  C   LIG d   1       5.837  -2.670 -10.596  0.00  0.00    -0.049 C 
ATOM     15  C   LIG d   1       5.584  -1.675  -9.450  0.00  0.00    -0.043 C 
ATOM     16  C   LIG d   1       4.126  -1.651  -9.058  0.00  0.00     0.011 C 
ATOM     17  C   LIG d   1       3.235  -1.694 -10.319  0.00  0.00    -0.029 C 
ATOM     18  H   LIG d   1       3.504  -0.841 -10.973  0.00  0.00     0.031 H 
ATOM     19  C   LIG d   1       1.848  -1.403  -9.719  0.00  0.00    -0.046 C 
ATOM     20  C   LIG d   1       2.167  -0.191  -8.796  0.00  0.00    -0.012 C 
ATOM     21  C   LIG d   1       3.661  -0.329  -8.410  0.00  0.00     0.132 C 
ATOM     22  H   LIG d   1       5.781  -6.021 -10.272  0.00  0.00     0.027 H 
ATOM     23  H   LIG d   1       7.014  -5.145 -11.197  0.00  0.00     0.027 H 
ATOM     24  H   LIG d   1       7.009  -7.553 -11.755  0.00  0.00     0.029 H 
ATOM     25  H   LIG d   1       6.581  -6.580 -13.171  0.00  0.00     0.029 H 
ATOM     26  H   LIG d   1       2.920  -7.305 -12.980  0.00  0.00     0.034 H 
ATOM     27  H   LIG d   1       4.175  -6.523 -13.970  0.00  0.00     0.034 H 
ATOM     28  H   LIG d   1       1.720  -5.823 -11.982  0.00  0.00     0.057 H 
ATOM     29  H   LIG d   1       2.208  -4.255  -9.822  0.00  0.00     0.031 H 
ATOM     30  H   LIG d   1       1.308  -3.536 -11.181  0.00  0.00     0.031 H 
ATOM     31  H   LIG d   1       5.979  -2.091 -11.517  0.00  0.00     0.027 H 
ATOM     32  H   LIG d   1       6.772  -3.207 -10.394  0.00  0.00     0.027 H 
ATOM     33  H   LIG d   1       5.905  -0.677  -9.771  0.00  0.00     0.027 H 
ATOM     34  H   LIG d   1       6.192  -1.961  -8.583  0.00  0.00     0.027 H 
ATOM     35  H   LIG d   1       1.461  -2.241  -9.158  0.00  0.00     0.027 H 
ATOM     36  H   LIG d   1       1.152  -1.105 -10.505  0.00  0.00     0.027 H 
ATOM     37  H   LIG d   1       1.545  -0.232  -7.904  0.00  0.00     0.030 H 
ATOM     38  H   LIG d   1       2.002   0.740  -9.334  0.00  0.00     0.030 H 
ENDROOT
BRANCH  21  39
ATOM     39  C   LIG d   1       3.809  -0.417  -6.950  0.00  0.00    -0.062 C 
ATOM     40  C   LIG d   1       3.929  -0.486  -5.784  0.00  0.00    -0.063 C 
BRANCH  40  41
ATOM     41  C   LIG d   1       4.073  -0.572  -4.362  0.00  0.00     0.025 A 
ATOM     42  C   LIG d   1       4.006  -1.811  -3.725  0.00  0.00    -0.046 A 
ATOM     43  C   LIG d   1       4.147  -1.887  -2.354  0.00  0.00    -0.061 A 
ATOM     44  H   LIG d   1       3.844  -2.710  -4.303  0.00  0.00     0.063 H 
ATOM     45  C   LIG d   1       4.353  -0.738  -1.613  0.00  0.00    -0.062 A 
ATOM     46  H   LIG d   1       4.095  -2.846  -1.859  0.00  0.00     0.062 H 
ATOM     47  C   LIG d   1       4.420   0.493  -2.239  0.00  0.00    -0.061 A 
ATOM     48  H   LIG d   1       4.462  -0.802  -0.540  0.00  0.00     0.062 H 
ATOM     49  C   LIG d   1       4.288   0.582  -3.609  0.00  0.00    -0.046 A 
ATOM     50  H   LIG d   1       4.582   1.387  -1.654  0.00  0.00     0.062 H 
ATOM     51  H   LIG d   1       4.345   1.544  -4.097  0.00  0.00     0.063 H 
ENDBRANCH  40  41
ENDBRANCH  21  39
BRANCH  21  52
ATOM     52  O   LIG d   1       4.411   0.767  -8.930  0.00  0.00    -0.376 OA
ATOM     53  H   LIG d   1       5.208   0.973  -8.424  0.00  0.00     0.211 HD
ENDBRANCH  21  52
BRANCH  16  54
ATOM     54  C   LIG d   1       3.805  -2.759  -8.056  0.00  0.00    -0.056 C 
ATOM     55  H   LIG d   1       2.752  -2.702  -7.776  0.00  0.00     0.024 H 
ATOM     56  H   LIG d   1       4.008  -3.728  -8.507  0.00  0.00     0.024 H 
ATOM     57  H   LIG d   1       4.423  -2.634  -7.167  0.00  0.00     0.024 H 
ENDBRANCH  16  54
BRANCH   1  58
ATOM     58  C   LIG d   1       5.495  -4.086 -13.093  0.00  0.00    -0.056 C 
ATOM     59  H   LIG d   1       6.582  -4.026 -13.068  0.00  0.00     0.024 H 
ATOM     60  H   LIG d   1       5.184  -4.683 -13.950  0.00  0.00     0.024 H 
ATOM     61  H   LIG d   1       5.078  -3.082 -13.179  0.00  0.00     0.024 H 
ENDBRANCH   1  58
BRANCH   4  62
ATOM     62  O   LIG d   1       4.493  -8.080 -11.013  0.00  0.00    -0.392 OA
ATOM     63  H   LIG d   1       3.653  -7.685 -10.741  0.00  0.00     0.210 HD
ENDBRANCH   4  62
TORSDOF 6
ENDMDL
MODEL 10
REMARK VINA RESULT:      -5.6      6.629     10.021
REMARK  6 active torsions:
REMARK  status: ('A' for Active; 'I' for Inactive)
REMARK    1  A    between atoms: C_1  and  C_2 
REMARK    2  A    between atoms: C_5  and  O_33 
REMARK    3  A    between atoms: C_17  and  C_32 
REMARK    4  A    between atoms: C_22  and  C_23 
REMARK    5  A    between atoms: C_22  and  O_31 
REMARK    6  A    between atoms: C_24  and  C_25 
ROOT
ATOM      1  C   LIG d   1       5.876  -1.011  -3.853  0.00  0.00    -0.008 C 
ATOM      2  C   LIG d   1       5.569   0.479  -4.014  0.00  0.00    -0.041 C 
ATOM      3  C   LIG d   1       5.428   1.165  -2.659  0.00  0.00    -0.026 C 
ATOM      4  C   LIG d   1       4.302   0.525  -1.848  0.00  0.00     0.059 C 
ATOM      5  H   LIG d   1       4.190   1.054  -0.900  0.00  0.00     0.060 H 
ATOM      6  C   LIG d   1       4.645  -0.942  -1.572  0.00  0.00    -0.005 C 
ATOM      7  C   LIG d   1       4.884  -1.632  -2.905  0.00  0.00    -0.065 C 
ATOM      8  C   LIG d   1       4.211  -2.717  -3.154  0.00  0.00    -0.084 C 
ATOM      9  C   LIG d   1       4.338  -3.512  -4.428  0.00  0.00    -0.031 C 
ATOM     10  C   LIG d   1       5.705  -3.201  -5.038  0.00  0.00    -0.030 C 
ATOM     11  H   LIG d   1       6.471  -3.515  -4.303  0.00  0.00     0.031 H 
ATOM     12  C   LIG d   1       5.802  -1.687  -5.219  0.00  0.00    -0.029 C 
ATOM     13  H   LIG d   1       4.860  -1.322  -5.646  0.00  0.00     0.031 H 
ATOM     14  C   LIG d   1       6.939  -1.305  -6.144  0.00  0.00    -0.049 C 
ATOM     15  C   LIG d   1       6.776  -1.893  -7.556  0.00  0.00    -0.043 C 
ATOM     16  C   LIG d   1       5.777  -3.025  -7.565  0.00  0.00     0.011 C 
ATOM     17  C   LIG d   1       5.976  -3.920  -6.323  0.00  0.00    -0.029 C 
ATOM     18  H   LIG d   1       7.021  -4.287  -6.313  0.00  0.00     0.031 H 
ATOM     19  C   LIG d   1       5.065  -5.114  -6.661  0.00  0.00    -0.046 C 
ATOM     20  C   LIG d   1       5.472  -5.395  -8.137  0.00  0.00    -0.012 C 
ATOM     21  C   LIG d   1       5.982  -4.047  -8.704  0.00  0.00     0.132 C 
ATOM     22  H   LIG d   1       4.641   0.595  -4.580  0.00  0.00     0.027 H 
ATOM     23  H   LIG d   1       6.378   0.953  -4.575  0.00  0.00     0.027 H 
ATOM     24  H   LIG d   1       5.191   2.222  -2.818  0.00  0.00     0.029 H 
ATOM     25  H   LIG d   1       6.361   1.103  -2.102  0.00  0.00     0.029 H 
ATOM     26  H   LIG d   1       3.812  -1.421  -1.057  0.00  0.00     0.034 H 
ATOM     27  H   LIG d   1       5.539  -1.003  -0.954  0.00  0.00     0.034 H 
ATOM     28  H   LIG d   1       3.520  -3.074  -2.404  0.00  0.00     0.057 H 
ATOM     29  H   LIG d   1       3.544  -3.225  -5.113  0.00  0.00     0.031 H 
ATOM     30  H   LIG d   1       4.268  -4.574  -4.201  0.00  0.00     0.031 H 
ATOM     31  H   LIG d   1       7.895  -1.662  -5.742  0.00  0.00     0.027 H 
ATOM     32  H   LIG d   1       7.000  -0.213  -6.224  0.00  0.00     0.027 H 
ATOM     33  H   LIG d   1       7.752  -2.247  -7.907  0.00  0.00     0.027 H 
ATOM     34  H   LIG d   1       6.440  -1.102  -8.238  0.00  0.00     0.027 H 
ATOM     35  H   LIG d   1       4.017  -4.865  -6.577  0.00  0.00     0.027 H 
ATOM     36  H   LIG d   1       5.315  -5.969  -6.031  0.00  0.00     0.027 H 
ATOM     37  H   LIG d   1       4.607  -5.736  -8.701  0.00  0.00     0.030 H 
ATOM     38  H   LIG d   1       6.265  -6.140  -8.168  0.00  0.00     0.030 H 
ENDROOT
BRANCH  21  39
ATOM     39  C   LIG d   1       5.185  -3.648  -9.874  0.00  0.00    -0.062 C 
ATOM     40  C   LIG d   1       4.550  -3.328 -10.808  0.00  0.00    -0.063 C 
BRANCH  40  41
ATOM     41  C   LIG d   1       3.774  -2.939 -11.947  0.00  0.00     0.025 A 
ATOM     42  C   LIG d   1       2.598  -2.208 -11.777  0.00  0.00    -0.046 A 
ATOM     43  C   LIG d   1       1.855  -1.836 -12.878  0.00  0.00    -0.061 A 
ATOM     44  H   LIG d   1       2.269  -1.934 -10.785  0.00  0.00     0.063 H 
ATOM     45  C   LIG d   1       2.274  -2.186 -14.149  0.00  0.00    -0.062 A 
ATOM     46  H   LIG d   1       0.944  -1.270 -12.748  0.00  0.00     0.062 H 
ATOM     47  C   LIG d   1       3.439  -2.912 -14.324  0.00  0.00    -0.061 A 
ATOM     48  H   LIG d   1       1.689  -1.894 -15.009  0.00  0.00     0.062 H 
ATOM     49  C   LIG d   1       4.194  -3.284 -13.231  0.00  0.00    -0.046 A 
ATOM     50  H   LIG d   1       3.760  -3.182 -15.319  0.00  0.00     0.062 H 
ATOM     51  H   LIG d   1       5.105  -3.847 -13.370  0.00  0.00     0.063 H 
ENDBRANCH  40  41
ENDBRANCH  21  39
BRANCH  21  52
ATOM     52  O   LIG d   1       7.364  -4.141  -9.042  0.00  0.00    -0.376 OA
ATOM     53  H   LIG d   1       7.759  -3.303  -9.319  0.00  0.00     0.211 HD
ENDBRANCH  21  52
BRANCH  16  54
ATOM     54  C   LIG d   1       4.348  -2.501  -7.708  0.00  0.00    -0.056 C 
ATOM     55  H   LIG d   1       4.373  -1.440  -7.954  0.00  0.00     0.024 H 
ATOM     56  H   LIG d   1       3.839  -3.046  -8.502  0.00  0.00     0.024 H 
ATOM     57  H   LIG d   1       3.813  -2.644  -6.769  0.00  0.00     0.024 H 
ENDBRANCH  16  54
BRANCH   1  58
ATOM     58  C   LIG d   1       7.279  -1.174  -3.276  0.00  0.00    -0.056 C 
ATOM     59  H   LIG d   1       7.695  -2.128  -3.596  0.00  0.00     0.024 H 
ATOM     60  H   LIG d   1       7.914  -0.363  -3.632  0.00  0.00     0.024 H 
ATOM     61  H   LIG d   1       7.230  -1.146  -2.187  0.00  0.00     0.024 H 
ENDBRANCH   1  58
BRANCH   4  62
ATOM     62  O   LIG d   1       3.077   0.600  -2.579  0.00  0.00    -0.392 OA
ATOM     63  H   LIG d   1       2.517   1.348  -2.335  0.00  0.00     0.210 HD
ENDBRANCH   4  62
TORSDOF 6
ENDMDL
