MODEL 1
REMARK VINA RESULT:      -6.6      0.000      0.000
REMARK  6 active torsions:
REMARK  status: ('A' for Active; 'I' for Inactive)
REMARK    1  A    between atoms: C_1  and  C_2 
REMARK    2  A    between atoms: C_5  and  C_12 
REMARK    3  A    between atoms: C_6  and  C_7 
REMARK    4  A    between atoms: C_6  and  C_8 
REMARK       I    between atoms: C_12  and  N_14 
REMARK    5  A    between atoms: N_14  and  C_15 
REMARK    6  A    between atoms: C_15  and  C_16 
ROOT
ATOM      1  C   LIG d   1       4.154   0.628 -10.432  0.00  0.00     0.032 C 
ATOM      2  C   LIG d   1       3.550   2.007 -10.026  0.00  0.00    -0.039 C 
ATOM      3  C   LIG d   1       3.410   1.934  -8.488  0.00  0.00    -0.037 C 
ATOM      4  C   LIG d   1       3.953   0.521  -8.114  0.00  0.00     0.060 C 
ATOM      5  C   LIG d   1       3.487  -0.309  -9.364  0.00  0.00    -0.009 C 
ATOM      6  C   LIG d   1       5.484   0.608  -8.397  0.00  0.00     0.021 C 
ATOM      7  C   LIG d   1       5.603   0.657  -9.925  0.00  0.00     0.141 C 
ATOM      8  O   LIG d   1       6.610   0.722 -10.588  0.00  0.00    -0.297 OA
ATOM      9  H   LIG d   1       4.223   2.815 -10.309  0.00  0.00     0.028 H 
ATOM     10  H   LIG d   1       2.572   2.145 -10.490  0.00  0.00     0.028 H 
ATOM     11  H   LIG d   1       4.012   2.710  -8.014  0.00  0.00     0.028 H 
ATOM     12  H   LIG d   1       2.365   2.029  -8.195  0.00  0.00     0.028 H 
ATOM     13  H   LIG d   1       5.903   1.509  -7.946  0.00  0.00     0.035 H 
ATOM     14  H   LIG d   1       5.992  -0.278  -8.016  0.00  0.00     0.035 H 
ENDROOT
BRANCH   4  15
ATOM     15  C   LIG d   1       3.542  -0.012  -6.766  0.00  0.00     0.221 C 
ATOM     16  O   LIG d   1       3.873  -1.128  -6.427  0.00  0.00    -0.275 OA
ATOM     17  N   LIG d   1       2.806   0.753  -5.935  0.00  0.00    -0.308 N 
ATOM     18  H   LIG d   1       2.541   1.646  -6.206  0.00  0.00     0.149 HD
BRANCH  17  19
ATOM     19  C   LIG d   1       2.406   0.236  -4.624  0.00  0.00     0.070 C 
ATOM     20  H   LIG d   1       1.467   0.700  -4.322  0.00  0.00     0.054 H 
ATOM     21  H   LIG d   1       2.273  -0.845  -4.685  0.00  0.00     0.054 H 
BRANCH  19  22
ATOM     22  C   LIG d   1       3.475   0.555  -3.612  0.00  0.00     0.122 A 
ATOM     23  O   LIG d   1       4.668   1.110  -3.877  0.00  0.00    -0.466 OA
ATOM     24  C   LIG d   1       5.362   1.250  -2.735  0.00  0.00     0.092 A 
ATOM     25  C   LIG d   1       4.615   0.773  -1.723  0.00  0.00    -0.024 A 
ATOM     26  H   LIG d   1       6.352   1.671  -2.645  0.00  0.00     0.103 H 
ATOM     27  C   LIG d   1       3.398   0.324  -2.288  0.00  0.00    -0.019 A 
ATOM     28  H   LIG d   1       4.890   0.739  -0.680  0.00  0.00     0.065 H 
ATOM     29  H   LIG d   1       2.567  -0.118  -1.759  0.00  0.00     0.065 H 
ENDBRANCH  19  22
ENDBRANCH  17  19
ENDBRANCH   4  15
BRANCH   5  30
ATOM     30  C   LIG d   1       1.963  -0.338  -9.497  0.00  0.00    -0.058 C 
ATOM     31  H   LIG d   1       1.689  -0.295 -10.552  0.00  0.00     0.024 H 
ATOM     32  H   LIG d   1       1.577  -1.258  -9.059  0.00  0.00     0.024 H 
ATOM     33  H   LIG d   1       1.535   0.519  -8.977  0.00  0.00     0.024 H 
ENDBRANCH   5  30
BRANCH   5  34
ATOM     34  C   LIG d   1       4.086  -1.716  -9.377  0.00  0.00    -0.058 C 
ATOM     35  H   LIG d   1       5.060  -1.692  -9.865  0.00  0.00     0.024 H 
ATOM     36  H   LIG d   1       4.201  -2.072  -8.353  0.00  0.00     0.024 H 
ATOM     37  H   LIG d   1       3.422  -2.388  -9.922  0.00  0.00     0.024 H 
ENDBRANCH   5  34
BRANCH   1  38
ATOM     38  C   LIG d   1       3.968   0.222 -11.895  0.00  0.00    -0.052 C 
ATOM     39  H   LIG d   1       3.852  -0.860 -11.960  0.00  0.00     0.024 H 
ATOM     40  H   LIG d   1       3.079   0.708 -12.297  0.00  0.00     0.024 H 
ATOM     41  H   LIG d   1       4.842   0.529 -12.470  0.00  0.00     0.024 H 
ENDBRANCH   1  38
TORSDOF 6
ENDMDL
MODEL 2
REMARK VINA RESULT:      -6.5      1.816      2.791
REMARK  6 active torsions:
REMARK  status: ('A' for Active; 'I' for Inactive)
REMARK    1  A    between atoms: C_1  and  C_2 
REMARK    2  A    between atoms: C_5  and  C_12 
REMARK    3  A    between atoms: C_6  and  C_7 
REMARK    4  A    between atoms: C_6  and  C_8 
REMARK       I    between atoms: C_12  and  N_14 
REMARK    5  A    between atoms: N_14  and  C_15 
REMARK    6  A    between atoms: C_15  and  C_16 
ROOT
ATOM      1  C   LIG d   1       3.889  -0.608 -10.628  0.00  0.00     0.032 C 
ATOM      2  C   LIG d   1       4.242  -1.912  -9.848  0.00  0.00    -0.039 C 
ATOM      3  C   LIG d   1       3.708  -1.666  -8.418  0.00  0.00    -0.037 C 
ATOM      4  C   LIG d   1       3.078  -0.241  -8.477  0.00  0.00     0.060 C 
ATOM      5  C   LIG d   1       4.047   0.463  -9.492  0.00  0.00    -0.009 C 
ATOM      6  C   LIG d   1       1.815  -0.414  -9.376  0.00  0.00     0.021 C 
ATOM      7  C   LIG d   1       2.363  -0.634 -10.790  0.00  0.00     0.141 C 
ATOM      8  O   LIG d   1       1.737  -0.807 -11.808  0.00  0.00    -0.297 OA
ATOM      9  H   LIG d   1       3.743  -2.770 -10.298  0.00  0.00     0.028 H 
ATOM     10  H   LIG d   1       5.321  -2.064  -9.830  0.00  0.00     0.028 H 
ATOM     11  H   LIG d   1       2.950  -2.407  -8.162  0.00  0.00     0.028 H 
ATOM     12  H   LIG d   1       4.525  -1.691  -7.697  0.00  0.00     0.028 H 
ATOM     13  H   LIG d   1       1.231  -1.275  -9.048  0.00  0.00     0.035 H 
ATOM     14  H   LIG d   1       1.205   0.489  -9.352  0.00  0.00     0.035 H 
ENDROOT
BRANCH   4  15
ATOM     15  C   LIG d   1       2.877   0.450  -7.153  0.00  0.00     0.221 C 
ATOM     16  O   LIG d   1       2.861   1.661  -7.096  0.00  0.00    -0.275 OA
ATOM     17  N   LIG d   1       2.717  -0.278  -6.030  0.00  0.00    -0.308 N 
ATOM     18  H   LIG d   1       2.730  -1.247  -6.074  0.00  0.00     0.149 HD
BRANCH  17  19
ATOM     19  C   LIG d   1       2.522   0.393  -4.742  0.00  0.00     0.070 C 
ATOM     20  H   LIG d   1       2.960   1.390  -4.783  0.00  0.00     0.054 H 
ATOM     21  H   LIG d   1       1.455   0.473  -4.532  0.00  0.00     0.054 H 
BRANCH  19  22
ATOM     22  C   LIG d   1       3.190  -0.407  -3.654  0.00  0.00     0.122 A 
ATOM     23  O   LIG d   1       3.260  -1.746  -3.593  0.00  0.00    -0.466 OA
ATOM     24  C   LIG d   1       3.930  -2.111  -2.487  0.00  0.00     0.092 A 
ATOM     25  C   LIG d   1       4.287  -0.998  -1.821  0.00  0.00    -0.024 A 
ATOM     26  H   LIG d   1       4.141  -3.125  -2.182  0.00  0.00     0.103 H 
ATOM     27  C   LIG d   1       3.810   0.101  -2.573  0.00  0.00    -0.019 A 
ATOM     28  H   LIG d   1       4.834  -0.952  -0.891  0.00  0.00     0.065 H 
ATOM     29  H   LIG d   1       3.923   1.147  -2.327  0.00  0.00     0.065 H 
ENDBRANCH  19  22
ENDBRANCH  17  19
ENDBRANCH   4  15
BRANCH   5  30
ATOM     30  C   LIG d   1       5.481   0.532  -8.963  0.00  0.00    -0.058 C 
ATOM     31  H   LIG d   1       6.048   1.261  -9.542  0.00  0.00     0.024 H 
ATOM     32  H   LIG d   1       5.467   0.834  -7.915  0.00  0.00     0.024 H 
ATOM     33  H   LIG d   1       5.950  -0.447  -9.053  0.00  0.00     0.024 H 
ENDBRANCH   5  30
BRANCH   5  34
ATOM     34  C   LIG d   1       3.532   1.838  -9.921  0.00  0.00    -0.058 C 
ATOM     35  H   LIG d   1       2.782   2.183  -9.209  0.00  0.00     0.024 H 
ATOM     36  H   LIG d   1       4.361   2.545  -9.948  0.00  0.00     0.024 H 
ATOM     37  H   LIG d   1       3.085   1.765 -10.913  0.00  0.00     0.024 H 
ENDBRANCH   5  34
BRANCH   1  38
ATOM     38  C   LIG d   1       4.692  -0.358 -11.907  0.00  0.00    -0.052 C 
ATOM     39  H   LIG d   1       5.749  -0.259 -11.658  0.00  0.00     0.024 H 
ATOM     40  H   LIG d   1       4.556  -1.196 -12.591  0.00  0.00     0.024 H 
ATOM     41  H   LIG d   1       4.342   0.559 -12.381  0.00  0.00     0.024 H 
ENDBRANCH   1  38
TORSDOF 6
ENDMDL
MODEL 3
REMARK VINA RESULT:      -6.4      3.075      6.609
REMARK  6 active torsions:
REMARK  status: ('A' for Active; 'I' for Inactive)
REMARK    1  A    between atoms: C_1  and  C_2 
REMARK    2  A    between atoms: C_5  and  C_12 
REMARK    3  A    between atoms: C_6  and  C_7 
REMARK    4  A    between atoms: C_6  and  C_8 
REMARK       I    between atoms: C_12  and  N_14 
REMARK    5  A    between atoms: N_14  and  C_15 
REMARK    6  A    between atoms: C_15  and  C_16 
ROOT
ATOM      1  C   LIG d   1       4.355   0.502  -2.827  0.00  0.00     0.032 C 
ATOM      2  C   LIG d   1       4.494  -0.455  -1.605  0.00  0.00    -0.039 C 
ATOM      3  C   LIG d   1       4.807  -1.837  -2.225  0.00  0.00    -0.037 C 
ATOM      4  C   LIG d   1       4.834  -1.576  -3.763  0.00  0.00     0.060 C 
ATOM      5  C   LIG d   1       3.727  -0.469  -3.889  0.00  0.00    -0.009 C 
ATOM      6  C   LIG d   1       6.114  -0.713  -3.984  0.00  0.00     0.021 C 
ATOM      7  C   LIG d   1       5.777   0.657  -3.384  0.00  0.00     0.141 C 
ATOM      8  O   LIG d   1       6.479   1.639  -3.339  0.00  0.00    -0.297 OA
ATOM      9  H   LIG d   1       5.313  -0.134  -0.961  0.00  0.00     0.028 H 
ATOM     10  H   LIG d   1       3.560  -0.494  -1.043  0.00  0.00     0.028 H 
ATOM     11  H   LIG d   1       5.777  -2.197  -1.883  0.00  0.00     0.028 H 
ATOM     12  H   LIG d   1       4.024  -2.553  -1.975  0.00  0.00     0.028 H 
ATOM     13  H   LIG d   1       6.967  -1.161  -3.475  0.00  0.00     0.035 H 
ATOM     14  H   LIG d   1       6.322  -0.607  -5.049  0.00  0.00     0.035 H 
ENDROOT
BRANCH   4  15
ATOM     15  C   LIG d   1       4.673  -2.787  -4.643  0.00  0.00     0.221 C 
ATOM     16  O   LIG d   1       4.269  -3.830  -4.174  0.00  0.00    -0.275 OA
ATOM     17  N   LIG d   1       4.978  -2.713  -5.955  0.00  0.00    -0.308 N 
ATOM     18  H   LIG d   1       5.301  -1.880  -6.331  0.00  0.00     0.149 HD
BRANCH  17  19
ATOM     19  C   LIG d   1       4.821  -3.891  -6.811  0.00  0.00     0.070 C 
ATOM     20  H   LIG d   1       5.799  -4.215  -7.167  0.00  0.00     0.054 H 
ATOM     21  H   LIG d   1       4.358  -4.697  -6.240  0.00  0.00     0.054 H 
BRANCH  19  22
ATOM     22  C   LIG d   1       3.947  -3.543  -7.988  0.00  0.00     0.122 A 
ATOM     23  O   LIG d   1       3.367  -4.420  -8.824  0.00  0.00    -0.466 OA
ATOM     24  C   LIG d   1       2.660  -3.755  -9.752  0.00  0.00     0.092 A 
ATOM     25  C   LIG d   1       2.791  -2.435  -9.521  0.00  0.00    -0.024 A 
ATOM     26  H   LIG d   1       2.088  -4.202 -10.550  0.00  0.00     0.103 H 
ATOM     27  C   LIG d   1       3.621  -2.299  -8.384  0.00  0.00    -0.019 A 
ATOM     28  H   LIG d   1       2.348  -1.635 -10.094  0.00  0.00     0.065 H 
ATOM     29  H   LIG d   1       3.932  -1.373  -7.922  0.00  0.00     0.065 H 
ENDBRANCH  19  22
ENDBRANCH  17  19
ENDBRANCH   4  15
BRANCH   5  30
ATOM     30  C   LIG d   1       2.352  -0.981  -3.456  0.00  0.00    -0.058 C 
ATOM     31  H   LIG d   1       2.071  -0.515  -2.511  0.00  0.00     0.024 H 
ATOM     32  H   LIG d   1       1.615  -0.729  -4.218  0.00  0.00     0.024 H 
ATOM     33  H   LIG d   1       2.389  -2.063  -3.330  0.00  0.00     0.024 H 
ENDBRANCH   5  30
BRANCH   5  34
ATOM     34  C   LIG d   1       3.690   0.151  -5.286  0.00  0.00    -0.058 C 
ATOM     35  H   LIG d   1       4.360   1.010  -5.320  0.00  0.00     0.024 H 
ATOM     36  H   LIG d   1       4.008  -0.588  -6.021  0.00  0.00     0.024 H 
ATOM     37  H   LIG d   1       2.673   0.474  -5.513  0.00  0.00     0.024 H 
ENDBRANCH   5  34
BRANCH   1  38
ATOM     38  C   LIG d   1       3.594   1.804  -2.571  0.00  0.00    -0.052 C 
ATOM     39  H   LIG d   1       3.406   2.308  -3.520  0.00  0.00     0.024 H 
ATOM     40  H   LIG d   1       2.645   1.581  -2.083  0.00  0.00     0.024 H 
ATOM     41  H   LIG d   1       4.190   2.452  -1.929  0.00  0.00     0.024 H 
ENDBRANCH   1  38
TORSDOF 6
ENDMDL
MODEL 4
REMARK VINA RESULT:      -5.8      4.868      6.936
REMARK  6 active torsions:
REMARK  status: ('A' for Active; 'I' for Inactive)
REMARK    1  A    between atoms: C_1  and  C_2 
REMARK    2  A    between atoms: C_5  and  C_12 
REMARK    3  A    between atoms: C_6  and  C_7 
REMARK    4  A    between atoms: C_6  and  C_8 
REMARK       I    between atoms: C_12  and  N_14 
REMARK    5  A    between atoms: N_14  and  C_15 
REMARK    6  A    between atoms: C_15  and  C_16 
ROOT
ATOM      1  C   LIG d   1       3.739  -0.372  -3.626  0.00  0.00     0.032 C 
ATOM      2  C   LIG d   1       3.882  -1.195  -2.310  0.00  0.00    -0.039 C 
ATOM      3  C   LIG d   1       5.381  -1.571  -2.246  0.00  0.00    -0.037 C 
ATOM      4  C   LIG d   1       5.997  -0.931  -3.527  0.00  0.00     0.060 C 
ATOM      5  C   LIG d   1       4.802  -1.087  -4.534  0.00  0.00    -0.009 C 
ATOM      6  C   LIG d   1       5.935   0.604  -3.259  0.00  0.00     0.021 C 
ATOM      7  C   LIG d   1       4.447   0.962  -3.349  0.00  0.00     0.141 C 
ATOM      8  O   LIG d   1       3.937   2.048  -3.213  0.00  0.00    -0.297 OA
ATOM      9  H   LIG d   1       3.606  -0.586  -1.449  0.00  0.00     0.028 H 
ATOM     10  H   LIG d   1       3.266  -2.093  -2.354  0.00  0.00     0.028 H 
ATOM     11  H   LIG d   1       5.840  -1.152  -1.351  0.00  0.00     0.028 H 
ATOM     12  H   LIG d   1       5.502  -2.654  -2.265  0.00  0.00     0.028 H 
ATOM     13  H   LIG d   1       6.331   0.833  -2.270  0.00  0.00     0.035 H 
ATOM     14  H   LIG d   1       6.491   1.146  -4.024  0.00  0.00     0.035 H 
ENDROOT
BRANCH   4  15
ATOM     15  C   LIG d   1       7.325  -1.488  -3.972  0.00  0.00     0.221 C 
ATOM     16  O   LIG d   1       7.978  -0.904  -4.810  0.00  0.00    -0.275 OA
ATOM     17  N   LIG d   1       7.787  -2.637  -3.439  0.00  0.00    -0.308 N 
ATOM     18  H   LIG d   1       7.265  -3.104  -2.769  0.00  0.00     0.149 HD
BRANCH  17  19
ATOM     19  C   LIG d   1       9.077  -3.179  -3.872  0.00  0.00     0.070 C 
ATOM     20  H   LIG d   1       9.063  -3.333  -4.951  0.00  0.00     0.054 H 
ATOM     21  H   LIG d   1       9.870  -2.476  -3.616  0.00  0.00     0.054 H 
BRANCH  19  22
ATOM     22  C   LIG d   1       9.327  -4.493  -3.178  0.00  0.00     0.122 A 
ATOM     23  O   LIG d   1       9.724  -4.646  -1.904  0.00  0.00    -0.466 OA
ATOM     24  C   LIG d   1       9.843  -5.955  -1.626  0.00  0.00     0.092 A 
ATOM     25  C   LIG d   1       9.531  -6.654  -2.732  0.00  0.00    -0.024 A 
ATOM     26  H   LIG d   1      10.143  -6.374  -0.677  0.00  0.00     0.103 H 
ATOM     27  C   LIG d   1       9.198  -5.712  -3.733  0.00  0.00    -0.019 A 
ATOM     28  H   LIG d   1       9.533  -7.729  -2.836  0.00  0.00     0.065 H 
ATOM     29  H   LIG d   1       8.898  -5.930  -4.747  0.00  0.00     0.065 H 
ENDBRANCH  19  22
ENDBRANCH  17  19
ENDBRANCH   4  15
BRANCH   5  30
ATOM     30  C   LIG d   1       4.450  -2.555  -4.784  0.00  0.00    -0.058 C 
ATOM     31  H   LIG d   1       4.718  -3.147  -3.909  0.00  0.00     0.024 H 
ATOM     32  H   LIG d   1       3.379  -2.644  -4.969  0.00  0.00     0.024 H 
ATOM     33  H   LIG d   1       5.001  -2.919  -5.651  0.00  0.00     0.024 H 
ENDBRANCH   5  30
BRANCH   5  34
ATOM     34  C   LIG d   1       5.047  -0.329  -5.840  0.00  0.00    -0.058 C 
ATOM     35  H   LIG d   1       5.940  -0.722  -6.325  0.00  0.00     0.024 H 
ATOM     36  H   LIG d   1       4.189  -0.455  -6.500  0.00  0.00     0.024 H 
ATOM     37  H   LIG d   1       5.187   0.730  -5.624  0.00  0.00     0.024 H 
ENDBRANCH   5  34
BRANCH   1  38
ATOM     38  C   LIG d   1       2.324  -0.269  -4.199  0.00  0.00    -0.052 C 
ATOM     39  H   LIG d   1       2.309  -0.686  -5.206  0.00  0.00     0.024 H 
ATOM     40  H   LIG d   1       1.634  -0.825  -3.564  0.00  0.00     0.024 H 
ATOM     41  H   LIG d   1       2.022   0.778  -4.234  0.00  0.00     0.024 H 
ENDBRANCH   1  38
TORSDOF 6
ENDMDL
MODEL 5
REMARK VINA RESULT:      -5.7      1.625      2.151
REMARK  6 active torsions:
REMARK  status: ('A' for Active; 'I' for Inactive)
REMARK    1  A    between atoms: C_1  and  C_2 
REMARK    2  A    between atoms: C_5  and  C_12 
REMARK    3  A    between atoms: C_6  and  C_7 
REMARK    4  A    between atoms: C_6  and  C_8 
REMARK       I    between atoms: C_12  and  N_14 
REMARK    5  A    between atoms: N_14  and  C_15 
REMARK    6  A    between atoms: C_15  and  C_16 
ROOT
ATOM      1  C   LIG d   1       3.266  -0.229 -10.067  0.00  0.00     0.032 C 
ATOM      2  C   LIG d   1       1.991  -0.201  -9.170  0.00  0.00    -0.039 C 
ATOM      3  C   LIG d   1       2.533  -0.225  -7.722  0.00  0.00    -0.037 C 
ATOM      4  C   LIG d   1       4.084  -0.257  -7.888  0.00  0.00     0.060 C 
ATOM      5  C   LIG d   1       4.218  -1.120  -9.193  0.00  0.00    -0.009 C 
ATOM      6  C   LIG d   1       4.441   1.153  -8.450  0.00  0.00     0.021 C 
ATOM      7  C   LIG d   1       3.917   1.149  -9.890  0.00  0.00     0.141 C 
ATOM      8  O   LIG d   1       3.981   2.039 -10.704  0.00  0.00    -0.297 OA
ATOM      9  H   LIG d   1       1.422   0.711  -9.348  0.00  0.00     0.028 H 
ATOM     10  H   LIG d   1       1.373  -1.079  -9.359  0.00  0.00     0.028 H 
ATOM     11  H   LIG d   1       2.226   0.673  -7.186  0.00  0.00     0.028 H 
ATOM     12  H   LIG d   1       2.188  -1.117  -7.201  0.00  0.00     0.028 H 
ATOM     13  H   LIG d   1       3.954   1.931  -7.861  0.00  0.00     0.035 H 
ATOM     14  H   LIG d   1       5.521   1.299  -8.451  0.00  0.00     0.035 H 
ENDROOT
BRANCH   4  15
ATOM     15  C   LIG d   1       4.868  -0.728  -6.690  0.00  0.00     0.221 C 
ATOM     16  O   LIG d   1       4.794  -1.885  -6.333  0.00  0.00    -0.275 OA
ATOM     17  N   LIG d   1       5.653   0.136  -6.016  0.00  0.00    -0.308 N 
ATOM     18  H   LIG d   1       5.713   1.061  -6.302  0.00  0.00     0.149 HD
BRANCH  17  19
ATOM     19  C   LIG d   1       6.416  -0.321  -4.852  0.00  0.00     0.070 C 
ATOM     20  H   LIG d   1       6.619  -1.388  -4.947  0.00  0.00     0.054 H 
ATOM     21  H   LIG d   1       7.358   0.225  -4.798  0.00  0.00     0.054 H 
BRANCH  19  22
ATOM     22  C   LIG d   1       5.618  -0.070  -3.599  0.00  0.00     0.122 A 
ATOM     23  O   LIG d   1       4.872  -0.977  -2.946  0.00  0.00    -0.466 OA
ATOM     24  C   LIG d   1       4.306  -0.403  -1.872  0.00  0.00     0.092 A 
ATOM     25  C   LIG d   1       4.680   0.889  -1.834  0.00  0.00    -0.024 A 
ATOM     26  H   LIG d   1       3.657  -0.894  -1.162  0.00  0.00     0.103 H 
ATOM     27  C   LIG d   1       5.526   1.104  -2.948  0.00  0.00    -0.019 A 
ATOM     28  H   LIG d   1       4.390   1.621  -1.096  0.00  0.00     0.065 H 
ATOM     29  H   LIG d   1       6.005   2.032  -3.222  0.00  0.00     0.065 H 
ENDBRANCH  19  22
ENDBRANCH  17  19
ENDBRANCH   4  15
BRANCH   5  30
ATOM     30  C   LIG d   1       3.669  -2.535  -9.005  0.00  0.00    -0.058 C 
ATOM     31  H   LIG d   1       3.878  -3.127  -9.897  0.00  0.00     0.024 H 
ATOM     32  H   LIG d   1       4.148  -2.998  -8.142  0.00  0.00     0.024 H 
ATOM     33  H   LIG d   1       2.592  -2.490  -8.843  0.00  0.00     0.024 H 
ENDBRANCH   5  30
BRANCH   5  34
ATOM     34  C   LIG d   1       5.650  -1.131  -9.731  0.00  0.00    -0.058 C 
ATOM     35  H   LIG d   1       5.803  -0.267 -10.377  0.00  0.00     0.024 H 
ATOM     36  H   LIG d   1       6.352  -1.091  -8.898  0.00  0.00     0.024 H 
ATOM     37  H   LIG d   1       5.816  -2.045 -10.301  0.00  0.00     0.024 H 
ENDBRANCH   5  34
BRANCH   1  38
ATOM     38  C   LIG d   1       3.054  -0.686 -11.512  0.00  0.00    -0.052 C 
ATOM     39  H   LIG d   1       3.797  -1.442 -11.767  0.00  0.00     0.024 H 
ATOM     40  H   LIG d   1       2.055  -1.108 -11.618  0.00  0.00     0.024 H 
ATOM     41  H   LIG d   1       3.161   0.168 -12.182  0.00  0.00     0.024 H 
ENDBRANCH   1  38
TORSDOF 6
ENDMDL
MODEL 6
REMARK VINA RESULT:      -5.7      3.204      5.970
REMARK  6 active torsions:
REMARK  status: ('A' for Active; 'I' for Inactive)
REMARK    1  A    between atoms: C_1  and  C_2 
REMARK    2  A    between atoms: C_5  and  C_12 
REMARK    3  A    between atoms: C_6  and  C_7 
REMARK    4  A    between atoms: C_6  and  C_8 
REMARK       I    between atoms: C_12  and  N_14 
REMARK    5  A    between atoms: N_14  and  C_15 
REMARK    6  A    between atoms: C_15  and  C_16 
ROOT
ATOM      1  C   LIG d   1       7.450  -2.484  -4.543  0.00  0.00     0.032 C 
ATOM      2  C   LIG d   1       6.985  -2.126  -3.099  0.00  0.00    -0.039 C 
ATOM      3  C   LIG d   1       5.597  -1.472  -3.287  0.00  0.00    -0.037 C 
ATOM      4  C   LIG d   1       5.356  -1.506  -4.827  0.00  0.00     0.060 C 
ATOM      5  C   LIG d   1       6.821  -1.297  -5.354  0.00  0.00    -0.009 C 
ATOM      6  C   LIG d   1       5.159  -3.018  -5.153  0.00  0.00     0.021 C 
ATOM      7  C   LIG d   1       6.548  -3.644  -4.983  0.00  0.00     0.141 C 
ATOM      8  O   LIG d   1       6.864  -4.799  -5.141  0.00  0.00    -0.297 OA
ATOM      9  H   LIG d   1       6.901  -3.028  -2.492  0.00  0.00     0.028 H 
ATOM     10  H   LIG d   1       7.679  -1.421  -2.639  0.00  0.00     0.028 H 
ATOM     11  H   LIG d   1       4.831  -2.049  -2.769  0.00  0.00     0.028 H 
ATOM     12  H   LIG d   1       5.609  -0.444  -2.927  0.00  0.00     0.028 H 
ATOM     13  H   LIG d   1       4.444  -3.465  -4.463  0.00  0.00     0.035 H 
ATOM     14  H   LIG d   1       4.821  -3.144  -6.182  0.00  0.00     0.035 H 
ENDROOT
BRANCH   4  15
ATOM     15  C   LIG d   1       4.312  -0.557  -5.356  0.00  0.00     0.221 C 
ATOM     16  O   LIG d   1       3.997   0.420  -4.710  0.00  0.00    -0.275 OA
ATOM     17  N   LIG d   1       3.728  -0.793  -6.548  0.00  0.00    -0.308 N 
ATOM     18  H   LIG d   1       3.980  -1.573  -7.065  0.00  0.00     0.149 HD
BRANCH  17  19
ATOM     19  C   LIG d   1       2.713   0.130  -7.062  0.00  0.00     0.070 C 
ATOM     20  H   LIG d   1       1.916  -0.438  -7.542  0.00  0.00     0.054 H 
ATOM     21  H   LIG d   1       2.299   0.711  -6.237  0.00  0.00     0.054 H 
BRANCH  19  22
ATOM     22  C   LIG d   1       3.344   1.061  -8.066  0.00  0.00     0.122 A 
ATOM     23  O   LIG d   1       4.661   1.242  -8.250  0.00  0.00    -0.466 OA
ATOM     24  C   LIG d   1       4.858   2.142  -9.228  0.00  0.00     0.092 A 
ATOM     25  C   LIG d   1       3.657   2.554  -9.674  0.00  0.00    -0.024 A 
ATOM     26  H   LIG d   1       5.816   2.480  -9.591  0.00  0.00     0.103 H 
ATOM     27  C   LIG d   1       2.680   1.856  -8.924  0.00  0.00    -0.019 A 
ATOM     28  H   LIG d   1       3.473   3.277 -10.454  0.00  0.00     0.065 H 
ATOM     29  H   LIG d   1       1.608   1.946  -9.023  0.00  0.00     0.065 H 
ENDBRANCH  19  22
ENDBRANCH  17  19
ENDBRANCH   4  15
BRANCH   5  30
ATOM     30  C   LIG d   1       7.395   0.057  -4.931  0.00  0.00    -0.058 C 
ATOM     31  H   LIG d   1       7.199   0.795  -5.709  0.00  0.00     0.024 H 
ATOM     32  H   LIG d   1       6.924   0.376  -4.001  0.00  0.00     0.024 H 
ATOM     33  H   LIG d   1       8.471  -0.035  -4.781  0.00  0.00     0.024 H 
ENDBRANCH   5  30
BRANCH   5  34
ATOM     34  C   LIG d   1       6.925  -1.512  -6.865  0.00  0.00    -0.058 C 
ATOM     35  H   LIG d   1       7.974  -1.587  -7.150  0.00  0.00     0.024 H 
ATOM     36  H   LIG d   1       6.407  -2.431  -7.138  0.00  0.00     0.024 H 
ATOM     37  H   LIG d   1       6.467  -0.669  -7.384  0.00  0.00     0.024 H 
ENDBRANCH   5  34
BRANCH   1  38
ATOM     38  C   LIG d   1       8.954  -2.702  -4.725  0.00  0.00    -0.052 C 
ATOM     39  H   LIG d   1       9.484  -1.774  -4.509  0.00  0.00     0.024 H 
ATOM     40  H   LIG d   1       9.293  -3.482  -4.043  0.00  0.00     0.024 H 
ATOM     41  H   LIG d   1       9.155  -3.004  -5.752  0.00  0.00     0.024 H 
ENDBRANCH   1  38
TORSDOF 6
ENDMDL
MODEL 7
REMARK VINA RESULT:      -5.6      1.896      2.671
REMARK  6 active torsions:
REMARK  status: ('A' for Active; 'I' for Inactive)
REMARK    1  A    between atoms: C_1  and  C_2 
REMARK    2  A    between atoms: C_5  and  C_12 
REMARK    3  A    between atoms: C_6  and  C_7 
REMARK    4  A    between atoms: C_6  and  C_8 
REMARK       I    between atoms: C_12  and  N_14 
REMARK    5  A    between atoms: N_14  and  C_15 
REMARK    6  A    between atoms: C_15  and  C_16 
ROOT
ATOM      1  C   LIG d   1       3.428  -1.728 -10.921  0.00  0.00     0.032 C 
ATOM      2  C   LIG d   1       1.887  -1.766 -10.689  0.00  0.00    -0.039 C 
ATOM      3  C   LIG d   1       1.645  -0.788  -9.516  0.00  0.00    -0.037 C 
ATOM      4  C   LIG d   1       3.064  -0.248  -9.160  0.00  0.00     0.060 C 
ATOM      5  C   LIG d   1       3.939  -1.520  -9.451  0.00  0.00    -0.009 C 
ATOM      6  C   LIG d   1       3.456   0.641 -10.380  0.00  0.00     0.021 C 
ATOM      7  C   LIG d   1       3.713  -0.346 -11.524  0.00  0.00     0.141 C 
ATOM      8  O   LIG d   1       4.048  -0.095 -12.657  0.00  0.00    -0.297 OA
ATOM      9  H   LIG d   1       1.360  -1.428 -11.581  0.00  0.00     0.028 H 
ATOM     10  H   LIG d   1       1.568  -2.773 -10.417  0.00  0.00     0.028 H 
ATOM     11  H   LIG d   1       0.995   0.029  -9.830  0.00  0.00     0.028 H 
ATOM     12  H   LIG d   1       1.213  -1.313  -8.665  0.00  0.00     0.028 H 
ATOM     13  H   LIG d   1       2.642   1.322 -10.630  0.00  0.00     0.035 H 
ATOM     14  H   LIG d   1       4.366   1.202 -10.164  0.00  0.00     0.035 H 
ENDROOT
BRANCH   4  15
ATOM     15  C   LIG d   1       3.214   0.369  -7.794  0.00  0.00     0.221 C 
ATOM     16  O   LIG d   1       3.908   1.353  -7.645  0.00  0.00    -0.275 OA
ATOM     17  N   LIG d   1       2.578  -0.171  -6.736  0.00  0.00    -0.308 N 
ATOM     18  H   LIG d   1       2.022  -0.957  -6.854  0.00  0.00     0.149 HD
BRANCH  17  19
ATOM     19  C   LIG d   1       2.723   0.429  -5.408  0.00  0.00     0.070 C 
ATOM     20  H   LIG d   1       3.404   1.278  -5.466  0.00  0.00     0.054 H 
ATOM     21  H   LIG d   1       1.749   0.769  -5.054  0.00  0.00     0.054 H 
BRANCH  19  22
ATOM     22  C   LIG d   1       3.276  -0.596  -4.452  0.00  0.00     0.122 A 
ATOM     23  O   LIG d   1       2.829  -0.832  -3.207  0.00  0.00    -0.466 OA
ATOM     24  C   LIG d   1       3.555  -1.815  -2.649  0.00  0.00     0.092 A 
ATOM     25  C   LIG d   1       4.486  -2.212  -3.536  0.00  0.00    -0.024 A 
ATOM     26  H   LIG d   1       3.417  -2.215  -1.656  0.00  0.00     0.103 H 
ATOM     27  C   LIG d   1       4.306  -1.426  -4.699  0.00  0.00    -0.019 A 
ATOM     28  H   LIG d   1       5.227  -2.983  -3.389  0.00  0.00     0.065 H 
ATOM     29  H   LIG d   1       4.884  -1.482  -5.609  0.00  0.00     0.065 H 
ENDBRANCH  19  22
ENDBRANCH  17  19
ENDBRANCH   4  15
BRANCH   5  30
ATOM     30  C   LIG d   1       3.567  -2.693  -8.542  0.00  0.00    -0.058 C 
ATOM     31  H   LIG d   1       2.766  -3.271  -9.004  0.00  0.00     0.024 H 
ATOM     32  H   LIG d   1       4.439  -3.331  -8.398  0.00  0.00     0.024 H 
ATOM     33  H   LIG d   1       3.231  -2.314  -7.577  0.00  0.00     0.024 H 
ENDBRANCH   5  30
BRANCH   5  34
ATOM     34  C   LIG d   1       5.436  -1.212  -9.400  0.00  0.00    -0.058 C 
ATOM     35  H   LIG d   1       5.641  -0.542  -8.565  0.00  0.00     0.024 H 
ATOM     36  H   LIG d   1       5.994  -2.139  -9.268  0.00  0.00     0.024 H 
ATOM     37  H   LIG d   1       5.741  -0.735 -10.332  0.00  0.00     0.024 H 
ENDBRANCH   5  34
BRANCH   1  38
ATOM     38  C   LIG d   1       4.018  -2.920 -11.677  0.00  0.00    -0.052 C 
ATOM     39  H   LIG d   1       5.018  -3.132 -11.297  0.00  0.00     0.024 H 
ATOM     40  H   LIG d   1       3.382  -3.793 -11.533  0.00  0.00     0.024 H 
ATOM     41  H   LIG d   1       4.076  -2.683 -12.739  0.00  0.00     0.024 H 
ENDBRANCH   1  38
TORSDOF 6
ENDMDL
MODEL 8
REMARK VINA RESULT:      -5.4      5.327      7.396
REMARK  6 active torsions:
REMARK  status: ('A' for Active; 'I' for Inactive)
REMARK    1  A    between atoms: C_1  and  C_2 
REMARK    2  A    between atoms: C_5  and  C_12 
REMARK    3  A    between atoms: C_6  and  C_7 
REMARK    4  A    between atoms: C_6  and  C_8 
REMARK       I    between atoms: C_12  and  N_14 
REMARK    5  A    between atoms: N_14  and  C_15 
REMARK    6  A    between atoms: C_15  and  C_16 
ROOT
ATOM      1  C   LIG d   1      11.543   3.973  -4.482  0.00  0.00     0.032 C 
ATOM      2  C   LIG d   1      10.601   4.981  -5.208  0.00  0.00    -0.039 C 
ATOM      3  C   LIG d   1       9.220   4.284  -5.220  0.00  0.00    -0.037 C 
ATOM      4  C   LIG d   1       9.463   2.927  -4.491  0.00  0.00     0.060 C 
ATOM      5  C   LIG d   1      10.930   2.608  -4.953  0.00  0.00    -0.009 C 
ATOM      6  C   LIG d   1       9.723   3.327  -3.007  0.00  0.00     0.021 C 
ATOM      7  C   LIG d   1      11.103   3.994  -3.011  0.00  0.00     0.141 C 
ATOM      8  O   LIG d   1      11.706   4.454  -2.072  0.00  0.00    -0.297 OA
ATOM      9  H   LIG d   1      10.549   5.919  -4.655  0.00  0.00     0.028 H 
ATOM     10  H   LIG d   1      10.947   5.158  -6.227  0.00  0.00     0.028 H 
ATOM     11  H   LIG d   1       8.488   4.882  -4.677  0.00  0.00     0.028 H 
ATOM     12  H   LIG d   1       8.890   4.112  -6.244  0.00  0.00     0.028 H 
ATOM     13  H   LIG d   1       8.957   4.022  -2.661  0.00  0.00     0.035 H 
ATOM     14  H   LIG d   1       9.744   2.441  -2.372  0.00  0.00     0.035 H 
ENDROOT
BRANCH   4  15
ATOM     15  C   LIG d   1       8.436   1.852  -4.734  0.00  0.00     0.221 C 
ATOM     16  O   LIG d   1       7.783   1.855  -5.756  0.00  0.00    -0.275 OA
ATOM     17  N   LIG d   1       8.241   0.886  -3.814  0.00  0.00    -0.308 N 
ATOM     18  H   LIG d   1       8.762   0.883  -2.996  0.00  0.00     0.149 HD
BRANCH  17  19
ATOM     19  C   LIG d   1       7.242  -0.160  -4.049  0.00  0.00     0.070 C 
ATOM     20  H   LIG d   1       6.888  -0.099  -5.079  0.00  0.00     0.054 H 
ATOM     21  H   LIG d   1       7.692  -1.138  -3.877  0.00  0.00     0.054 H 
BRANCH  19  22
ATOM     22  C   LIG d   1       6.082   0.033  -3.106  0.00  0.00     0.122 A 
ATOM     23  O   LIG d   1       5.717   1.192  -2.536  0.00  0.00    -0.466 OA
ATOM     24  C   LIG d   1       4.641   0.990  -1.758  0.00  0.00     0.092 A 
ATOM     25  C   LIG d   1       4.312  -0.314  -1.818  0.00  0.00    -0.024 A 
ATOM     26  H   LIG d   1       4.129   1.744  -1.180  0.00  0.00     0.103 H 
ATOM     27  C   LIG d   1       5.242  -0.931  -2.688  0.00  0.00    -0.019 A 
ATOM     28  H   LIG d   1       3.495  -0.796  -1.303  0.00  0.00     0.065 H 
ATOM     29  H   LIG d   1       5.270  -1.975  -2.962  0.00  0.00     0.065 H 
ENDBRANCH  19  22
ENDBRANCH  17  19
ENDBRANCH   4  15
BRANCH   5  30
ATOM     30  C   LIG d   1      11.027   2.427  -6.470  0.00  0.00    -0.058 C 
ATOM     31  H   LIG d   1      10.481   1.531  -6.765  0.00  0.00     0.024 H 
ATOM     32  H   LIG d   1      10.595   3.296  -6.967  0.00  0.00     0.024 H 
ATOM     33  H   LIG d   1      12.073   2.326  -6.758  0.00  0.00     0.024 H 
ENDBRANCH   5  30
BRANCH   5  34
ATOM     34  C   LIG d   1      11.525   1.417  -4.199  0.00  0.00    -0.058 C 
ATOM     35  H   LIG d   1      11.268   1.492  -3.143  0.00  0.00     0.024 H 
ATOM     36  H   LIG d   1      11.123   0.490  -4.607  0.00  0.00     0.024 H 
ATOM     37  H   LIG d   1      12.609   1.423  -4.311  0.00  0.00     0.024 H 
ENDBRANCH   5  34
BRANCH   1  38
ATOM     38  C   LIG d   1      13.041   4.161  -4.731  0.00  0.00    -0.052 C 
ATOM     39  H   LIG d   1      13.531   4.447  -3.800  0.00  0.00     0.024 H 
ATOM     40  H   LIG d   1      13.469   3.228  -5.096  0.00  0.00     0.024 H 
ATOM     41  H   LIG d   1      13.189   4.944  -5.475  0.00  0.00     0.024 H 
ENDBRANCH   1  38
TORSDOF 6
ENDMDL
MODEL 9
REMARK VINA RESULT:      -5.2      2.566      3.795
REMARK  6 active torsions:
REMARK  status: ('A' for Active; 'I' for Inactive)
REMARK    1  A    between atoms: C_1  and  C_2 
REMARK    2  A    between atoms: C_5  and  C_12 
REMARK    3  A    between atoms: C_6  and  C_7 
REMARK    4  A    between atoms: C_6  and  C_8 
REMARK       I    between atoms: C_12  and  N_14 
REMARK    5  A    between atoms: N_14  and  C_15 
REMARK    6  A    between atoms: C_15  and  C_16 
ROOT
ATOM      1  C   LIG d   1       5.226  -2.164  -8.658  0.00  0.00     0.032 C 
ATOM      2  C   LIG d   1       6.557  -2.952  -8.467  0.00  0.00    -0.039 C 
ATOM      3  C   LIG d   1       6.577  -3.325  -6.966  0.00  0.00    -0.037 C 
ATOM      4  C   LIG d   1       5.251  -2.731  -6.400  0.00  0.00     0.060 C 
ATOM      5  C   LIG d   1       5.118  -1.432  -7.273  0.00  0.00    -0.009 C 
ATOM      6  C   LIG d   1       4.131  -3.609  -7.038  0.00  0.00     0.021 C 
ATOM      7  C   LIG d   1       4.111  -3.210  -8.518  0.00  0.00     0.141 C 
ATOM      8  O   LIG d   1       3.393  -3.636  -9.390  0.00  0.00    -0.297 OA
ATOM      9  H   LIG d   1       6.557  -3.852  -9.081  0.00  0.00     0.028 H 
ATOM     10  H   LIG d   1       7.412  -2.322  -8.714  0.00  0.00     0.028 H 
ATOM     11  H   LIG d   1       6.592  -4.408  -6.843  0.00  0.00     0.028 H 
ATOM     12  H   LIG d   1       7.437  -2.872  -6.473  0.00  0.00     0.028 H 
ATOM     13  H   LIG d   1       4.367  -4.667  -6.924  0.00  0.00     0.035 H 
ATOM     14  H   LIG d   1       3.166  -3.384  -6.583  0.00  0.00     0.035 H 
ENDROOT
BRANCH   4  15
ATOM     15  C   LIG d   1       5.194  -2.541  -4.906  0.00  0.00     0.221 C 
ATOM     16  O   LIG d   1       6.220  -2.416  -4.270  0.00  0.00    -0.275 OA
ATOM     17  N   LIG d   1       4.004  -2.512  -4.275  0.00  0.00    -0.308 N 
ATOM     18  H   LIG d   1       3.183  -2.611  -4.782  0.00  0.00     0.149 HD
BRANCH  17  19
ATOM     19  C   LIG d   1       3.948  -2.327  -2.822  0.00  0.00     0.070 C 
ATOM     20  H   LIG d   1       3.036  -2.781  -2.433  0.00  0.00     0.054 H 
ATOM     21  H   LIG d   1       4.815  -2.804  -2.363  0.00  0.00     0.054 H 
BRANCH  19  22
ATOM     22  C   LIG d   1       3.955  -0.855  -2.502  0.00  0.00     0.122 A 
ATOM     23  O   LIG d   1       4.796  -0.239  -1.656  0.00  0.00    -0.466 OA
ATOM     24  C   LIG d   1       4.514   1.074  -1.620  0.00  0.00     0.092 A 
ATOM     25  C   LIG d   1       3.475   1.308  -2.443  0.00  0.00    -0.024 A 
ATOM     26  H   LIG d   1       5.030   1.815  -1.028  0.00  0.00     0.103 H 
ATOM     27  C   LIG d   1       3.115   0.064  -3.012  0.00  0.00    -0.019 A 
ATOM     28  H   LIG d   1       3.007   2.262  -2.633  0.00  0.00     0.065 H 
ATOM     29  H   LIG d   1       2.319  -0.113  -3.720  0.00  0.00     0.065 H 
ENDBRANCH  19  22
ENDBRANCH  17  19
ENDBRANCH   4  15
BRANCH   5  30
ATOM     30  C   LIG d   1       6.281  -0.464  -7.043  0.00  0.00    -0.058 C 
ATOM     31  H   LIG d   1       7.031  -0.941  -6.411  0.00  0.00     0.024 H 
ATOM     32  H   LIG d   1       6.729  -0.201  -8.001  0.00  0.00     0.024 H 
ATOM     33  H   LIG d   1       5.913   0.437  -6.553  0.00  0.00     0.024 H 
ENDBRANCH   5  30
BRANCH   5  34
ATOM     34  C   LIG d   1       3.763  -0.749  -7.086  0.00  0.00    -0.058 C 
ATOM     35  H   LIG d   1       3.265  -1.163  -6.210  0.00  0.00     0.024 H 
ATOM     36  H   LIG d   1       3.912   0.322  -6.948  0.00  0.00     0.024 H 
ATOM     37  H   LIG d   1       3.146  -0.918  -7.969  0.00  0.00     0.024 H 
ENDBRANCH   5  34
BRANCH   1  38
ATOM     38  C   LIG d   1       5.151  -1.272  -9.899  0.00  0.00    -0.052 C 
ATOM     39  H   LIG d   1       6.160  -1.053 -10.250  0.00  0.00     0.024 H 
ATOM     40  H   LIG d   1       4.596  -1.786 -10.683  0.00  0.00     0.024 H 
ATOM     41  H   LIG d   1       4.645  -0.340  -9.646  0.00  0.00     0.024 H 
ENDBRANCH   1  38
TORSDOF 6
ENDMDL
MODEL 10
REMARK VINA RESULT:      -5.0      3.941      5.510
REMARK  6 active torsions:
REMARK  status: ('A' for Active; 'I' for Inactive)
REMARK    1  A    between atoms: C_1  and  C_2 
REMARK    2  A    between atoms: C_5  and  C_12 
REMARK    3  A    between atoms: C_6  and  C_7 
REMARK    4  A    between atoms: C_6  and  C_8 
REMARK       I    between atoms: C_12  and  N_14 
REMARK    5  A    between atoms: N_14  and  C_15 
REMARK    6  A    between atoms: C_15  and  C_16 
ROOT
ATOM      1  C   LIG d   1       5.912  -5.928  -6.824  0.00  0.00     0.032 C 
ATOM      2  C   LIG d   1       7.297  -5.596  -6.188  0.00  0.00    -0.039 C 
ATOM      3  C   LIG d   1       7.129  -4.170  -5.612  0.00  0.00    -0.037 C 
ATOM      4  C   LIG d   1       5.655  -3.786  -5.950  0.00  0.00     0.060 C 
ATOM      5  C   LIG d   1       5.476  -4.509  -7.332  0.00  0.00    -0.009 C 
ATOM      6  C   LIG d   1       4.796  -4.714  -5.038  0.00  0.00     0.021 C 
ATOM      7  C   LIG d   1       4.957  -6.116  -5.637  0.00  0.00     0.141 C 
ATOM      8  O   LIG d   1       4.460  -7.147  -5.253  0.00  0.00    -0.297 OA
ATOM      9  H   LIG d   1       7.529  -6.302  -5.392  0.00  0.00     0.028 H 
ATOM     10  H   LIG d   1       8.078  -5.609  -6.949  0.00  0.00     0.028 H 
ATOM     11  H   LIG d   1       7.284  -4.175  -4.533  0.00  0.00     0.028 H 
ATOM     12  H   LIG d   1       7.822  -3.481  -6.094  0.00  0.00     0.028 H 
ATOM     13  H   LIG d   1       5.164  -4.686  -4.012  0.00  0.00     0.035 H 
ATOM     14  H   LIG d   1       3.748  -4.417  -5.073  0.00  0.00     0.035 H 
ENDROOT
BRANCH   4  15
ATOM     15  C   LIG d   1       5.331  -2.315  -5.917  0.00  0.00     0.221 C 
ATOM     16  O   LIG d   1       6.118  -1.509  -6.367  0.00  0.00    -0.275 OA
ATOM     17  N   LIG d   1       4.165  -1.893  -5.386  0.00  0.00    -0.308 N 
ATOM     18  H   LIG d   1       3.536  -2.537  -5.026  0.00  0.00     0.149 HD
BRANCH  17  19
ATOM     19  C   LIG d   1       3.849  -0.463  -5.354  0.00  0.00     0.070 C 
ATOM     20  H   LIG d   1       4.529   0.074  -6.015  0.00  0.00     0.054 H 
ATOM     21  H   LIG d   1       2.822  -0.311  -5.688  0.00  0.00     0.054 H 
BRANCH  19  22
ATOM     22  C   LIG d   1       4.001   0.053  -3.947  0.00  0.00     0.122 A 
ATOM     23  O   LIG d   1       3.765   1.311  -3.541  0.00  0.00    -0.466 OA
ATOM     24  C   LIG d   1       4.002   1.409  -2.222  0.00  0.00     0.092 A 
ATOM     25  C   LIG d   1       4.404   0.206  -1.772  0.00  0.00    -0.024 A 
ATOM     26  H   LIG d   1       3.892   2.302  -1.625  0.00  0.00     0.103 H 
ATOM     27  C   LIG d   1       4.404  -0.669  -2.884  0.00  0.00    -0.019 A 
ATOM     28  H   LIG d   1       4.675  -0.044  -0.758  0.00  0.00     0.065 H 
ATOM     29  H   LIG d   1       4.675  -1.714  -2.881  0.00  0.00     0.065 H 
ENDBRANCH  19  22
ENDBRANCH  17  19
ENDBRANCH   4  15
BRANCH   5  30
ATOM     30  C   LIG d   1       6.430  -3.961  -8.395  0.00  0.00    -0.058 C 
ATOM     31  H   LIG d   1       6.642  -4.739  -9.130  0.00  0.00     0.024 H 
ATOM     32  H   LIG d   1       5.968  -3.108  -8.892  0.00  0.00     0.024 H 
ATOM     33  H   LIG d   1       7.360  -3.646  -7.922  0.00  0.00     0.024 H 
ENDBRANCH   5  30
BRANCH   5  34
ATOM     34  C   LIG d   1       4.022  -4.489  -7.807  0.00  0.00    -0.058 C 
ATOM     35  H   LIG d   1       3.970  -4.040  -8.799  0.00  0.00     0.024 H 
ATOM     36  H   LIG d   1       3.639  -5.509  -7.849  0.00  0.00     0.024 H 
ATOM     37  H   LIG d   1       3.421  -3.904  -7.111  0.00  0.00     0.024 H 
ENDBRANCH   5  34
BRANCH   1  38
ATOM     38  C   LIG d   1       5.909  -7.049  -7.866  0.00  0.00    -0.052 C 
ATOM     39  H   LIG d   1       4.977  -7.016  -8.430  0.00  0.00     0.024 H 
ATOM     40  H   LIG d   1       6.751  -6.915  -8.545  0.00  0.00     0.024 H 
ATOM     41  H   LIG d   1       5.996  -8.012  -7.363  0.00  0.00     0.024 H 
ENDBRANCH   1  38
TORSDOF 6
ENDMDL
