MODEL 1
REMARK VINA RESULT:      -5.3      0.000      0.000
REMARK  16 active torsions:
REMARK  status: ('A' for Active; 'I' for Inactive)
REMARK    1  A    between atoms: C_1  and  C_2 
REMARK    2  A    between atoms: C_2  and  C_3 
REMARK    3  A    between atoms: C_3  and  C_4 
REMARK    4  A    between atoms: C_4  and  C_5 
REMARK    5  A    between atoms: C_5  and  C_6 
REMARK    6  A    between atoms: C_6  and  C_8 
REMARK    7  A    between atoms: C_6  and  O_30 
REMARK    8  A    between atoms: C_9  and  C_10 
REMARK    9  A    between atoms: C_12  and  O_29 
REMARK   10  A    between atoms: C_15  and  O_28 
REMARK   11  A    between atoms: C_17  and  C_19 
REMARK   12  A    between atoms: C_19  and  C_20 
REMARK   13  A    between atoms: C_21  and  C_22 
REMARK   14  A    between atoms: C_22  and  C_23 
REMARK   15  A    between atoms: C_23  and  C_24 
REMARK   16  A    between atoms: C_24  and  C_25 
ROOT
ATOM      1  C   LIG d   1       2.557  -0.593  -9.679  0.00  0.00     0.009 C 
ATOM      2  H   LIG d   1       1.538  -1.002  -9.739  0.00  0.00     0.037 H 
ATOM      3  C   LIG d   1       3.053  -0.080 -11.047  0.00  0.00     0.064 C 
ATOM      4  H   LIG d   1       2.252   0.127 -11.773  0.00  0.00     0.060 H 
ATOM      5  C   LIG d   1       3.941   1.140 -10.697  0.00  0.00     0.000 C 
ATOM      6  C   LIG d   1       3.175   1.794  -9.520  0.00  0.00     0.061 C 
ATOM      7  H   LIG d   1       2.409   2.525  -9.818  0.00  0.00     0.060 H 
ATOM      8  C   LIG d   1       2.636   0.598  -8.708  0.00  0.00    -0.003 C 
ATOM      9  H   LIG d   1       1.652   0.820  -8.269  0.00  0.00     0.034 H 
ATOM     10  H   LIG d   1       4.944   0.791 -10.409  0.00  0.00     0.032 H 
ATOM     11  H   LIG d   1       4.019   1.801 -11.572  0.00  0.00     0.032 H 
ENDROOT
BRANCH   1  12
ATOM     12  C   LIG d   1       3.444  -1.712  -9.196  0.00  0.00    -0.080 C 
ATOM     13  C   LIG d   1       2.938  -2.898  -8.970  0.00  0.00    -0.059 C 
ATOM     14  H   LIG d   1       1.865  -3.078  -9.133  0.00  0.00     0.059 H 
ATOM     15  H   LIG d   1       4.517  -1.532  -9.033  0.00  0.00     0.057 H 
BRANCH  13  16
ATOM     16  C   LIG d   1       3.825  -4.016  -8.487  0.00  0.00     0.073 C 
ATOM     17  H   LIG d   1       4.066  -4.700  -9.314  0.00  0.00     0.064 H 
BRANCH  16  18
ATOM     18  C   LIG d   1       5.087  -3.428  -7.851  0.00  0.00    -0.023 C 
ATOM     19  H   LIG d   1       5.280  -2.431  -8.273  0.00  0.00     0.029 H 
ATOM     20  H   LIG d   1       5.943  -4.087  -8.060  0.00  0.00     0.029 H 
BRANCH  18  21
ATOM     21  C   LIG d   1       4.889  -3.313  -6.338  0.00  0.00    -0.050 C 
ATOM     22  H   LIG d   1       4.749  -4.316  -5.909  0.00  0.00     0.027 H 
ATOM     23  H   LIG d   1       4.002  -2.698  -6.131  0.00  0.00     0.027 H 
BRANCH  21  24
ATOM     24  C   LIG d   1       6.123  -2.659  -5.712  0.00  0.00    -0.053 C 
ATOM     25  H   LIG d   1       6.886  -3.427  -5.519  0.00  0.00     0.026 H 
ATOM     26  H   LIG d   1       5.841  -2.174  -4.765  0.00  0.00     0.026 H 
BRANCH  24  27
ATOM     27  C   LIG d   1       6.685  -1.609  -6.673  0.00  0.00    -0.056 C 
ATOM     28  H   LIG d   1       5.969  -1.439  -7.490  0.00  0.00     0.026 H 
ATOM     29  H   LIG d   1       7.639  -1.967  -7.090  0.00  0.00     0.026 H 
BRANCH  27  30
ATOM     30  C   LIG d   1       6.919  -0.300  -5.918  0.00  0.00    -0.065 C 
ATOM     31  H   LIG d   1       7.329  -0.519  -4.921  0.00  0.00     0.023 H 
ATOM     32  H   LIG d   1       5.965   0.238  -5.811  0.00  0.00     0.023 H 
ATOM     33  H   LIG d   1       7.631   0.324  -6.477  0.00  0.00     0.023 H 
ENDBRANCH  27  30
ENDBRANCH  24  27
ENDBRANCH  21  24
ENDBRANCH  18  21
ENDBRANCH  16  18
BRANCH  16  34
ATOM     34  O   LIG d   1       3.122  -4.795  -7.516  0.00  0.00    -0.388 OA
ATOM     35  H   LIG d   1       3.031  -4.433  -6.482  0.00  0.00     0.210 HD
ENDBRANCH  16  34
ENDBRANCH  13  16
ENDBRANCH   1  12
BRANCH   8  36
ATOM     36  C   LIG d   1       3.589   0.274  -7.556  0.00  0.00    -0.029 C 
ATOM     37  H   LIG d   1       3.991  -0.742  -7.687  0.00  0.00     0.031 H 
ATOM     38  H   LIG d   1       4.417   0.998  -7.552  0.00  0.00     0.031 H 
BRANCH  36  39
ATOM     39  C   LIG d   1       2.843   0.354  -6.249  0.00  0.00    -0.088 C 
ATOM     40  C   LIG d   1       3.364  -0.165  -5.165  0.00  0.00    -0.088 C 
ATOM     41  H   LIG d   1       4.344  -0.661  -5.209  0.00  0.00     0.057 H 
ATOM     42  H   LIG d   1       1.863   0.850  -6.205  0.00  0.00     0.057 H 
BRANCH  40  43
ATOM     43  C   LIG d   1       2.618  -0.084  -3.858  0.00  0.00    -0.034 C 
ATOM     44  H   LIG d   1       2.556   0.966  -3.535  0.00  0.00     0.031 H 
ATOM     45  H   LIG d   1       1.603  -0.487  -3.990  0.00  0.00     0.031 H 
BRANCH  43  46
ATOM     46  C   LIG d   1       3.357  -0.901  -2.797  0.00  0.00    -0.044 C 
ATOM     47  H   LIG d   1       2.990  -0.622  -1.798  0.00  0.00     0.027 H 
ATOM     48  H   LIG d   1       3.179  -1.973  -2.968  0.00  0.00     0.027 H 
BRANCH  46  49
ATOM     49  C   LIG d   1       4.858  -0.615  -2.887  0.00  0.00    -0.013 C 
ATOM     50  H   LIG d   1       5.409  -1.361  -2.297  0.00  0.00     0.033 H 
ATOM     51  H   LIG d   1       5.179  -0.668  -3.938  0.00  0.00     0.033 H 
BRANCH  49  52
ATOM     52  C   LIG d   1       5.141   0.762  -2.345  0.00  0.00     0.042 C 
ATOM     53  O   LIG d   1       4.714   1.084  -1.261  0.00  0.00    -0.550 OA
ATOM     54  O   LIG d   1       5.868   1.631  -3.066  0.00  0.00    -0.550 OA
ENDBRANCH  49  52
ENDBRANCH  46  49
ENDBRANCH  43  46
ENDBRANCH  40  43
ENDBRANCH  36  39
ENDBRANCH   8  36
BRANCH   3  55
ATOM     55  O   LIG d   1       3.821  -1.084 -11.710  0.00  0.00    -0.391 OA
ATOM     56  H   LIG d   1       3.509  -2.137 -11.663  0.00  0.00     0.210 HD
ENDBRANCH   3  55
BRANCH   6  57
ATOM     57  O   LIG d   1       4.061   2.581  -8.722  0.00  0.00    -0.391 OA
ATOM     58  H   LIG d   1       4.253   3.632  -8.985  0.00  0.00     0.210 HD
ENDBRANCH   6  57
TORSDOF 16
ENDMDL
MODEL 2
REMARK VINA RESULT:      -5.3      0.828      1.224
REMARK  16 active torsions:
REMARK  status: ('A' for Active; 'I' for Inactive)
REMARK    1  A    between atoms: C_1  and  C_2 
REMARK    2  A    between atoms: C_2  and  C_3 
REMARK    3  A    between atoms: C_3  and  C_4 
REMARK    4  A    between atoms: C_4  and  C_5 
REMARK    5  A    between atoms: C_5  and  C_6 
REMARK    6  A    between atoms: C_6  and  C_8 
REMARK    7  A    between atoms: C_6  and  O_30 
REMARK    8  A    between atoms: C_9  and  C_10 
REMARK    9  A    between atoms: C_12  and  O_29 
REMARK   10  A    between atoms: C_15  and  O_28 
REMARK   11  A    between atoms: C_17  and  C_19 
REMARK   12  A    between atoms: C_19  and  C_20 
REMARK   13  A    between atoms: C_21  and  C_22 
REMARK   14  A    between atoms: C_22  and  C_23 
REMARK   15  A    between atoms: C_23  and  C_24 
REMARK   16  A    between atoms: C_24  and  C_25 
ROOT
ATOM      1  C   LIG d   1       2.519  -0.550  -9.655  0.00  0.00     0.009 C 
ATOM      2  H   LIG d   1       1.488  -0.930  -9.707  0.00  0.00     0.037 H 
ATOM      3  C   LIG d   1       3.014  -0.041 -11.025  0.00  0.00     0.064 C 
ATOM      4  H   LIG d   1       2.211   0.194 -11.740  0.00  0.00     0.060 H 
ATOM      5  C   LIG d   1       3.940   1.150 -10.676  0.00  0.00     0.000 C 
ATOM      6  C   LIG d   1       3.206   1.817  -9.486  0.00  0.00     0.061 C 
ATOM      7  H   LIG d   1       2.458   2.572  -9.770  0.00  0.00     0.060 H 
ATOM      8  C   LIG d   1       2.642   0.630  -8.677  0.00  0.00    -0.003 C 
ATOM      9  H   LIG d   1       1.669   0.877  -8.225  0.00  0.00     0.034 H 
ATOM     10  H   LIG d   1       4.936   0.771 -10.402  0.00  0.00     0.032 H 
ATOM     11  H   LIG d   1       4.028   1.816 -11.547  0.00  0.00     0.032 H 
ENDROOT
BRANCH   1  12
ATOM     12  C   LIG d   1       3.379  -1.698  -9.191  0.00  0.00    -0.080 C 
ATOM     13  C   LIG d   1       2.870  -2.901  -9.096  0.00  0.00    -0.059 C 
ATOM     14  H   LIG d   1       1.816  -3.074  -9.356  0.00  0.00     0.059 H 
ATOM     15  H   LIG d   1       4.434  -1.524  -8.931  0.00  0.00     0.057 H 
BRANCH  13  16
ATOM     16  C   LIG d   1       3.731  -4.047  -8.630  0.00  0.00     0.073 C 
ATOM     17  H   LIG d   1       4.298  -4.469  -9.473  0.00  0.00     0.064 H 
BRANCH  16  18
ATOM     18  C   LIG d   1       4.654  -3.569  -7.508  0.00  0.00    -0.023 C 
ATOM     19  H   LIG d   1       4.405  -2.532  -7.243  0.00  0.00     0.029 H 
ATOM     20  H   LIG d   1       5.700  -3.620  -7.848  0.00  0.00     0.029 H 
BRANCH  18  21
ATOM     21  C   LIG d   1       4.473  -4.467  -6.282  0.00  0.00    -0.050 C 
ATOM     22  H   LIG d   1       5.105  -5.361  -6.384  0.00  0.00     0.027 H 
ATOM     23  H   LIG d   1       3.419  -4.769  -6.202  0.00  0.00     0.027 H 
BRANCH  21  24
ATOM     24  C   LIG d   1       4.881  -3.697  -5.023  0.00  0.00    -0.053 C 
ATOM     25  H   LIG d   1       4.830  -4.367  -4.152  0.00  0.00     0.026 H 
ATOM     26  H   LIG d   1       4.197  -2.848  -4.874  0.00  0.00     0.026 H 
BRANCH  24  27
ATOM     27  C   LIG d   1       6.311  -3.177  -5.186  0.00  0.00    -0.056 C 
ATOM     28  H   LIG d   1       6.507  -2.401  -4.431  0.00  0.00     0.026 H 
ATOM     29  H   LIG d   1       6.433  -2.750  -6.192  0.00  0.00     0.026 H 
BRANCH  27  30
ATOM     30  C   LIG d   1       7.297  -4.331  -4.999  0.00  0.00    -0.065 C 
ATOM     31  H   LIG d   1       7.006  -5.171  -5.647  0.00  0.00     0.023 H 
ATOM     32  H   LIG d   1       7.285  -4.659  -3.949  0.00  0.00     0.023 H 
ATOM     33  H   LIG d   1       8.309  -3.996  -5.267  0.00  0.00     0.023 H 
ENDBRANCH  27  30
ENDBRANCH  24  27
ENDBRANCH  21  24
ENDBRANCH  18  21
ENDBRANCH  16  18
BRANCH  16  34
ATOM     34  O   LIG d   1       2.896  -5.101  -8.143  0.00  0.00    -0.388 OA
ATOM     35  H   LIG d   1       3.056  -5.507  -7.134  0.00  0.00     0.210 HD
ENDBRANCH  16  34
ENDBRANCH  13  16
ENDBRANCH   1  12
BRANCH   8  36
ATOM     36  C   LIG d   1       3.598   0.270  -7.538  0.00  0.00    -0.029 C 
ATOM     37  H   LIG d   1       3.995  -0.743  -7.698  0.00  0.00     0.031 H 
ATOM     38  H   LIG d   1       4.429   0.991  -7.517  0.00  0.00     0.031 H 
BRANCH  36  39
ATOM     39  C   LIG d   1       2.858   0.318  -6.226  0.00  0.00    -0.088 C 
ATOM     40  C   LIG d   1       3.352  -0.282  -5.172  0.00  0.00    -0.088 C 
ATOM     41  H   LIG d   1       4.307  -0.823  -5.245  0.00  0.00     0.057 H 
ATOM     42  H   LIG d   1       1.902   0.859  -6.153  0.00  0.00     0.057 H 
BRANCH  40  43
ATOM     43  C   LIG d   1       2.611  -0.235  -3.861  0.00  0.00    -0.034 C 
ATOM     44  H   LIG d   1       2.393   0.812  -3.602  0.00  0.00     0.031 H 
ATOM     45  H   LIG d   1       1.669  -0.794  -3.952  0.00  0.00     0.031 H 
BRANCH  43  46
ATOM     46  C   LIG d   1       3.474  -0.861  -2.765  0.00  0.00    -0.044 C 
ATOM     47  H   LIG d   1       3.167  -0.466  -1.785  0.00  0.00     0.027 H 
ATOM     48  H   LIG d   1       3.346  -1.954  -2.776  0.00  0.00     0.027 H 
BRANCH  46  49
ATOM     49  C   LIG d   1       4.945  -0.520  -3.014  0.00  0.00    -0.013 C 
ATOM     50  H   LIG d   1       5.584  -1.266  -2.520  0.00  0.00     0.033 H 
ATOM     51  H   LIG d   1       5.144  -0.526  -4.097  0.00  0.00     0.033 H 
BRANCH  49  52
ATOM     52  C   LIG d   1       5.246   0.847  -2.456  0.00  0.00     0.042 C 
ATOM     53  O   LIG d   1       5.953   1.609  -3.074  0.00  0.00    -0.550 OA
ATOM     54  O   LIG d   1       4.729   1.219  -1.275  0.00  0.00    -0.550 OA
ENDBRANCH  49  52
ENDBRANCH  46  49
ENDBRANCH  43  46
ENDBRANCH  40  43
ENDBRANCH  36  39
ENDBRANCH   8  36
BRANCH   3  55
ATOM     55  O   LIG d   1       3.746  -1.062 -11.704  0.00  0.00    -0.391 OA
ATOM     56  H   LIG d   1       3.611  -1.210 -12.786  0.00  0.00     0.210 HD
ENDBRANCH   3  55
BRANCH   6  57
ATOM     57  O   LIG d   1       4.123   2.573  -8.692  0.00  0.00    -0.391 OA
ATOM     58  H   LIG d   1       4.350   2.257  -7.664  0.00  0.00     0.210 HD
ENDBRANCH   6  57
TORSDOF 16
ENDMDL
MODEL 3
REMARK VINA RESULT:      -5.0      2.124      5.989
REMARK  16 active torsions:
REMARK  status: ('A' for Active; 'I' for Inactive)
REMARK    1  A    between atoms: C_1  and  C_2 
REMARK    2  A    between atoms: C_2  and  C_3 
REMARK    3  A    between atoms: C_3  and  C_4 
REMARK    4  A    between atoms: C_4  and  C_5 
REMARK    5  A    between atoms: C_5  and  C_6 
REMARK    6  A    between atoms: C_6  and  C_8 
REMARK    7  A    between atoms: C_6  and  O_30 
REMARK    8  A    between atoms: C_9  and  C_10 
REMARK    9  A    between atoms: C_12  and  O_29 
REMARK   10  A    between atoms: C_15  and  O_28 
REMARK   11  A    between atoms: C_17  and  C_19 
REMARK   12  A    between atoms: C_19  and  C_20 
REMARK   13  A    between atoms: C_21  and  C_22 
REMARK   14  A    between atoms: C_22  and  C_23 
REMARK   15  A    between atoms: C_23  and  C_24 
REMARK   16  A    between atoms: C_24  and  C_25 
ROOT
ATOM      1  C   LIG d   1       3.694  -0.615  -4.539  0.00  0.00     0.009 C 
ATOM      2  H   LIG d   1       3.153  -1.541  -4.784  0.00  0.00     0.037 H 
ATOM      3  C   LIG d   1       2.733   0.572  -4.319  0.00  0.00     0.064 C 
ATOM      4  H   LIG d   1       1.696   0.282  -4.095  0.00  0.00     0.060 H 
ATOM      5  C   LIG d   1       3.421   1.419  -3.220  0.00  0.00     0.000 C 
ATOM      6  C   LIG d   1       4.025   0.342  -2.285  0.00  0.00     0.061 C 
ATOM      7  H   LIG d   1       3.350  -0.012  -1.493  0.00  0.00     0.060 H 
ATOM      8  C   LIG d   1       4.516  -0.761  -3.247  0.00  0.00    -0.003 C 
ATOM      9  H   LIG d   1       4.394  -1.762  -2.807  0.00  0.00     0.034 H 
ATOM     10  H   LIG d   1       4.188   2.061  -3.680  0.00  0.00     0.032 H 
ATOM     11  H   LIG d   1       2.671   2.046  -2.716  0.00  0.00     0.032 H 
ENDROOT
BRANCH   1  12
ATOM     12  C   LIG d   1       4.608  -0.329  -5.703  0.00  0.00    -0.080 C 
ATOM     13  C   LIG d   1       4.521  -1.046  -6.795  0.00  0.00    -0.059 C 
ATOM     14  H   LIG d   1       3.780  -1.855  -6.865  0.00  0.00     0.059 H 
ATOM     15  H   LIG d   1       5.349   0.481  -5.634  0.00  0.00     0.057 H 
BRANCH  13  16
ATOM     16  C   LIG d   1       5.436  -0.760  -7.959  0.00  0.00     0.073 C 
ATOM     17  H   LIG d   1       4.892  -0.861  -8.909  0.00  0.00     0.064 H 
BRANCH  16  18
ATOM     18  C   LIG d   1       6.044   0.635  -7.798  0.00  0.00    -0.023 C 
ATOM     19  H   LIG d   1       7.075   0.546  -7.425  0.00  0.00     0.029 H 
ATOM     20  H   LIG d   1       5.444   1.216  -7.082  0.00  0.00     0.029 H 
BRANCH  18  21
ATOM     21  C   LIG d   1       6.052   1.347  -9.153  0.00  0.00    -0.050 C 
ATOM     22  H   LIG d   1       5.869   0.615  -9.953  0.00  0.00     0.027 H 
ATOM     23  H   LIG d   1       7.030   1.825  -9.310  0.00  0.00     0.027 H 
BRANCH  21  24
ATOM     24  C   LIG d   1       4.952   2.411  -9.174  0.00  0.00    -0.053 C 
ATOM     25  H   LIG d   1       5.343   3.331  -9.635  0.00  0.00     0.026 H 
ATOM     26  H   LIG d   1       4.628   2.625  -8.145  0.00  0.00     0.026 H 
BRANCH  24  27
ATOM     27  C   LIG d   1       3.763   1.897  -9.988  0.00  0.00    -0.056 C 
ATOM     28  H   LIG d   1       4.063   1.002 -10.552  0.00  0.00     0.026 H 
ATOM     29  H   LIG d   1       3.433   2.679 -10.689  0.00  0.00     0.026 H 
BRANCH  27  30
ATOM     30  C   LIG d   1       2.614   1.543  -9.043  0.00  0.00    -0.065 C 
ATOM     31  H   LIG d   1       2.226   0.545  -9.294  0.00  0.00     0.023 H 
ATOM     32  H   LIG d   1       1.809   2.286  -9.148  0.00  0.00     0.023 H 
ATOM     33  H   LIG d   1       2.979   1.543  -8.005  0.00  0.00     0.023 H 
ENDBRANCH  27  30
ENDBRANCH  24  27
ENDBRANCH  21  24
ENDBRANCH  18  21
ENDBRANCH  16  18
BRANCH  16  34
ATOM     34  O   LIG d   1       6.482  -1.734  -7.992  0.00  0.00    -0.388 OA
ATOM     35  H   LIG d   1       6.970  -2.048  -7.058  0.00  0.00     0.210 HD
ENDBRANCH  16  34
ENDBRANCH  13  16
ENDBRANCH   1  12
BRANCH   8  36
ATOM     36  C   LIG d   1       6.004  -0.570  -3.547  0.00  0.00    -0.029 C 
ATOM     37  H   LIG d   1       6.124  -0.159  -4.561  0.00  0.00     0.031 H 
ATOM     38  H   LIG d   1       6.439   0.126  -2.815  0.00  0.00     0.031 H 
BRANCH  36  39
ATOM     39  C   LIG d   1       6.709  -1.900  -3.458  0.00  0.00    -0.088 C 
ATOM     40  C   LIG d   1       6.930  -2.598  -4.544  0.00  0.00    -0.088 C 
ATOM     41  H   LIG d   1       6.601  -2.214  -5.521  0.00  0.00     0.057 H 
ATOM     42  H   LIG d   1       7.038  -2.283  -2.481  0.00  0.00     0.057 H 
BRANCH  40  43
ATOM     43  C   LIG d   1       7.634  -3.927  -4.455  0.00  0.00    -0.034 C 
ATOM     44  H   LIG d   1       8.682  -3.809  -4.770  0.00  0.00     0.031 H 
ATOM     45  H   LIG d   1       7.603  -4.289  -3.417  0.00  0.00     0.031 H 
BRANCH  43  46
ATOM     46  C   LIG d   1       6.938  -4.936  -5.369  0.00  0.00    -0.044 C 
ATOM     47  H   LIG d   1       7.529  -5.068  -6.287  0.00  0.00     0.027 H 
ATOM     48  H   LIG d   1       6.846  -5.901  -4.849  0.00  0.00     0.027 H 
BRANCH  46  49
ATOM     49  C   LIG d   1       5.543  -4.419  -5.731  0.00  0.00    -0.013 C 
ATOM     50  H   LIG d   1       5.227  -3.668  -4.992  0.00  0.00     0.033 H 
ATOM     51  H   LIG d   1       5.570  -3.961  -6.731  0.00  0.00     0.033 H 
BRANCH  49  52
ATOM     52  C   LIG d   1       4.566  -5.566  -5.730  0.00  0.00     0.042 C 
ATOM     53  O   LIG d   1       3.421  -5.384  -6.072  0.00  0.00    -0.550 OA
ATOM     54  O   LIG d   1       4.967  -6.790  -5.350  0.00  0.00    -0.550 OA
ENDBRANCH  49  52
ENDBRANCH  46  49
ENDBRANCH  43  46
ENDBRANCH  40  43
ENDBRANCH  36  39
ENDBRANCH   8  36
BRANCH   3  55
ATOM     55  O   LIG d   1       2.591   1.331  -5.521  0.00  0.00    -0.391 OA
ATOM     56  H   LIG d   1       2.251   2.376  -5.475  0.00  0.00     0.210 HD
ENDBRANCH   3  55
BRANCH   6  57
ATOM     57  O   LIG d   1       5.120   0.881  -1.542  0.00  0.00    -0.391 OA
ATOM     58  H   LIG d   1       5.012   1.844  -1.023  0.00  0.00     0.210 HD
ENDBRANCH   6  57
TORSDOF 16
ENDMDL
MODEL 4
REMARK VINA RESULT:      -4.8      4.208      6.755
REMARK  16 active torsions:
REMARK  status: ('A' for Active; 'I' for Inactive)
REMARK    1  A    between atoms: C_1  and  C_2 
REMARK    2  A    between atoms: C_2  and  C_3 
REMARK    3  A    between atoms: C_3  and  C_4 
REMARK    4  A    between atoms: C_4  and  C_5 
REMARK    5  A    between atoms: C_5  and  C_6 
REMARK    6  A    between atoms: C_6  and  C_8 
REMARK    7  A    between atoms: C_6  and  O_30 
REMARK    8  A    between atoms: C_9  and  C_10 
REMARK    9  A    between atoms: C_12  and  O_29 
REMARK   10  A    between atoms: C_15  and  O_28 
REMARK   11  A    between atoms: C_17  and  C_19 
REMARK   12  A    between atoms: C_19  and  C_20 
REMARK   13  A    between atoms: C_21  and  C_22 
REMARK   14  A    between atoms: C_22  and  C_23 
REMARK   15  A    between atoms: C_23  and  C_24 
REMARK   16  A    between atoms: C_24  and  C_25 
ROOT
ATOM      1  C   LIG d   1       4.031  -1.711  -2.913  0.00  0.00     0.009 C 
ATOM      2  H   LIG d   1       3.784  -2.534  -2.227  0.00  0.00     0.037 H 
ATOM      3  C   LIG d   1       2.921  -0.640  -2.948  0.00  0.00     0.064 C 
ATOM      4  H   LIG d   1       2.245  -0.655  -2.080  0.00  0.00     0.060 H 
ATOM      5  C   LIG d   1       3.684   0.692  -3.153  0.00  0.00     0.000 C 
ATOM      6  C   LIG d   1       4.955   0.494  -2.290  0.00  0.00     0.061 C 
ATOM      7  H   LIG d   1       4.849   0.796  -1.237  0.00  0.00     0.060 H 
ATOM      8  C   LIG d   1       5.323  -0.990  -2.495  0.00  0.00    -0.003 C 
ATOM      9  H   LIG d   1       5.748  -1.430  -1.580  0.00  0.00     0.034 H 
ATOM     10  H   LIG d   1       3.913   0.823  -4.221  0.00  0.00     0.032 H 
ATOM     11  H   LIG d   1       3.061   1.530  -2.805  0.00  0.00     0.032 H 
ENDROOT
BRANCH   1  12
ATOM     12  C   LIG d   1       4.200  -2.323  -4.280  0.00  0.00    -0.080 C 
ATOM     13  C   LIG d   1       4.299  -3.623  -4.408  0.00  0.00    -0.059 C 
ATOM     14  H   LIG d   1       4.258  -4.268  -3.518  0.00  0.00     0.059 H 
ATOM     15  H   LIG d   1       4.240  -1.679  -5.170  0.00  0.00     0.057 H 
BRANCH  13  16
ATOM     16  C   LIG d   1       4.468  -4.234  -5.774  0.00  0.00     0.073 C 
ATOM     17  H   LIG d   1       4.510  -3.450  -6.544  0.00  0.00     0.064 H 
BRANCH  16  18
ATOM     18  C   LIG d   1       5.722  -5.111  -5.789  0.00  0.00    -0.023 C 
ATOM     19  H   LIG d   1       6.371  -4.838  -4.945  0.00  0.00     0.029 H 
ATOM     20  H   LIG d   1       6.265  -4.958  -6.734  0.00  0.00     0.029 H 
BRANCH  18  21
ATOM     21  C   LIG d   1       5.318  -6.582  -5.667  0.00  0.00    -0.050 C 
ATOM     22  H   LIG d   1       4.682  -6.860  -6.520  0.00  0.00     0.027 H 
ATOM     23  H   LIG d   1       4.761  -6.732  -4.730  0.00  0.00     0.027 H 
BRANCH  21  24
ATOM     24  C   LIG d   1       6.573  -7.457  -5.661  0.00  0.00    -0.053 C 
ATOM     25  H   LIG d   1       7.339  -6.993  -5.022  0.00  0.00     0.026 H 
ATOM     26  H   LIG d   1       6.959  -7.552  -6.687  0.00  0.00     0.026 H 
BRANCH  24  27
ATOM     27  C   LIG d   1       6.225  -8.844  -5.117  0.00  0.00    -0.056 C 
ATOM     28  H   LIG d   1       6.811  -9.039  -4.207  0.00  0.00     0.026 H 
ATOM     29  H   LIG d   1       6.460  -9.605  -5.875  0.00  0.00     0.026 H 
BRANCH  27  30
ATOM     30  C   LIG d   1       4.733  -8.900  -4.784  0.00  0.00    -0.065 C 
ATOM     31  H   LIG d   1       4.572  -8.542  -3.757  0.00  0.00     0.023 H 
ATOM     32  H   LIG d   1       4.376  -9.938  -4.870  0.00  0.00     0.023 H 
ATOM     33  H   LIG d   1       4.176  -8.262  -5.486  0.00  0.00     0.023 H 
ENDBRANCH  27  30
ENDBRANCH  24  27
ENDBRANCH  21  24
ENDBRANCH  18  21
ENDBRANCH  16  18
BRANCH  16  34
ATOM     34  O   LIG d   1       3.325  -5.035  -6.082  0.00  0.00    -0.388 OA
ATOM     35  H   LIG d   1       2.367  -4.843  -5.577  0.00  0.00     0.210 HD
ENDBRANCH  16  34
ENDBRANCH  13  16
ENDBRANCH   1  12
BRANCH   8  36
ATOM     36  C   LIG d   1       6.377  -1.121  -3.597  0.00  0.00    -0.029 C 
ATOM     37  H   LIG d   1       5.921  -1.579  -4.487  0.00  0.00     0.031 H 
ATOM     38  H   LIG d   1       6.763  -0.123  -3.854  0.00  0.00     0.031 H 
BRANCH  36  39
ATOM     39  C   LIG d   1       7.510  -1.988  -3.109  0.00  0.00    -0.088 C 
ATOM     40  C   LIG d   1       7.930  -2.989  -3.842  0.00  0.00    -0.088 C 
ATOM     41  H   LIG d   1       7.457  -3.197  -4.813  0.00  0.00     0.057 H 
ATOM     42  H   LIG d   1       7.983  -1.780  -2.139  0.00  0.00     0.057 H 
BRANCH  40  43
ATOM     43  C   LIG d   1       9.062  -3.856  -3.354  0.00  0.00    -0.034 C 
ATOM     44  H   LIG d   1       9.990  -3.265  -3.323  0.00  0.00     0.031 H 
ATOM     45  H   LIG d   1       8.831  -4.227  -2.345  0.00  0.00     0.031 H 
BRANCH  43  46
ATOM     46  C   LIG d   1       9.244  -5.040  -4.305  0.00  0.00    -0.044 C 
ATOM     47  H   LIG d   1       8.409  -5.068  -5.021  0.00  0.00     0.027 H 
ATOM     48  H   LIG d   1      10.193  -4.930  -4.852  0.00  0.00     0.027 H 
BRANCH  46  49
ATOM     49  C   LIG d   1       9.270  -6.342  -3.500  0.00  0.00    -0.013 C 
ATOM     50  H   LIG d   1       8.335  -6.438  -2.929  0.00  0.00     0.033 H 
ATOM     51  H   LIG d   1       9.369  -7.195  -4.188  0.00  0.00     0.033 H 
BRANCH  49  52
ATOM     52  C   LIG d   1      10.439  -6.324  -2.551  0.00  0.00     0.042 C 
ATOM     53  O   LIG d   1      11.562  -6.190  -2.978  0.00  0.00    -0.550 OA
ATOM     54  O   LIG d   1      10.235  -6.457  -1.231  0.00  0.00    -0.550 OA
ENDBRANCH  49  52
ENDBRANCH  46  49
ENDBRANCH  43  46
ENDBRANCH  40  43
ENDBRANCH  36  39
ENDBRANCH   8  36
BRANCH   3  55
ATOM     55  O   LIG d   1       2.029  -0.878  -4.039  0.00  0.00    -0.391 OA
ATOM     56  H   LIG d   1       0.982  -0.551  -3.975  0.00  0.00     0.210 HD
ENDBRANCH   3  55
BRANCH   6  57
ATOM     57  O   LIG d   1       6.010   1.340  -2.751  0.00  0.00    -0.391 OA
ATOM     58  H   LIG d   1       5.980   1.752  -3.769  0.00  0.00     0.210 HD
ENDBRANCH   6  57
TORSDOF 16
ENDMDL
MODEL 5
REMARK VINA RESULT:      -4.8      2.543      6.496
REMARK  16 active torsions:
REMARK  status: ('A' for Active; 'I' for Inactive)
REMARK    1  A    between atoms: C_1  and  C_2 
REMARK    2  A    between atoms: C_2  and  C_3 
REMARK    3  A    between atoms: C_3  and  C_4 
REMARK    4  A    between atoms: C_4  and  C_5 
REMARK    5  A    between atoms: C_5  and  C_6 
REMARK    6  A    between atoms: C_6  and  C_8 
REMARK    7  A    between atoms: C_6  and  O_30 
REMARK    8  A    between atoms: C_9  and  C_10 
REMARK    9  A    between atoms: C_12  and  O_29 
REMARK   10  A    between atoms: C_15  and  O_28 
REMARK   11  A    between atoms: C_17  and  C_19 
REMARK   12  A    between atoms: C_19  and  C_20 
REMARK   13  A    between atoms: C_21  and  C_22 
REMARK   14  A    between atoms: C_22  and  C_23 
REMARK   15  A    between atoms: C_23  and  C_24 
REMARK   16  A    between atoms: C_24  and  C_25 
ROOT
ATOM      1  C   LIG d   1       4.725  -0.626  -7.784  0.00  0.00     0.009 C 
ATOM      2  H   LIG d   1       4.859  -1.649  -7.402  0.00  0.00     0.037 H 
ATOM      3  C   LIG d   1       6.069   0.119  -7.913  0.00  0.00     0.064 C 
ATOM      4  H   LIG d   1       6.952  -0.537  -7.948  0.00  0.00     0.060 H 
ATOM      5  C   LIG d   1       5.885   1.025  -9.155  0.00  0.00     0.000 C 
ATOM      6  C   LIG d   1       5.060   0.129 -10.112  0.00  0.00     0.061 C 
ATOM      7  H   LIG d   1       5.660  -0.524 -10.764  0.00  0.00     0.060 H 
ATOM      8  C   LIG d   1       4.083  -0.620  -9.181  0.00  0.00    -0.003 C 
ATOM      9  H   LIG d   1       3.892  -1.643  -9.538  0.00  0.00     0.034 H 
ATOM     10  H   LIG d   1       5.348   1.941  -8.864  0.00  0.00     0.032 H 
ATOM     11  H   LIG d   1       6.870   1.291  -9.566  0.00  0.00     0.032 H 
ENDROOT
BRANCH   1  12
ATOM     12  C   LIG d   1       3.832   0.087  -6.802  0.00  0.00    -0.080 C 
ATOM     13  C   LIG d   1       3.469  -0.508  -5.693  0.00  0.00    -0.059 C 
ATOM     14  H   LIG d   1       3.818  -1.528  -5.478  0.00  0.00     0.059 H 
ATOM     15  H   LIG d   1       3.484   1.109  -7.017  0.00  0.00     0.057 H 
BRANCH  13  16
ATOM     16  C   LIG d   1       2.576   0.207  -4.712  0.00  0.00     0.073 C 
ATOM     17  H   LIG d   1       1.518   0.012  -4.943  0.00  0.00     0.064 H 
BRANCH  16  18
ATOM     18  C   LIG d   1       2.934  -0.223  -3.288  0.00  0.00    -0.023 C 
ATOM     19  H   LIG d   1       3.744  -0.967  -3.322  0.00  0.00     0.029 H 
ATOM     20  H   LIG d   1       2.050  -0.666  -2.806  0.00  0.00     0.029 H 
BRANCH  18  21
ATOM     21  C   LIG d   1       3.395   0.997  -2.488  0.00  0.00    -0.050 C 
ATOM     22  H   LIG d   1       2.702   1.169  -1.651  0.00  0.00     0.027 H 
ATOM     23  H   LIG d   1       3.407   1.881  -3.142  0.00  0.00     0.027 H 
BRANCH  21  24
ATOM     24  C   LIG d   1       4.802   0.746  -1.942  0.00  0.00    -0.053 C 
ATOM     25  H   LIG d   1       4.890  -0.304  -1.626  0.00  0.00     0.026 H 
ATOM     26  H   LIG d   1       4.984   1.405  -1.080  0.00  0.00     0.026 H 
BRANCH  24  27
ATOM     27  C   LIG d   1       5.832   1.039  -3.035  0.00  0.00    -0.056 C 
ATOM     28  H   LIG d   1       6.525   1.819  -2.687  0.00  0.00     0.026 H 
ATOM     29  H   LIG d   1       5.315   1.385  -3.942  0.00  0.00     0.026 H 
BRANCH  27  30
ATOM     30  C   LIG d   1       6.616  -0.236  -3.350  0.00  0.00    -0.065 C 
ATOM     31  H   LIG d   1       6.069  -1.109  -2.965  0.00  0.00     0.023 H 
ATOM     32  H   LIG d   1       7.607  -0.186  -2.873  0.00  0.00     0.023 H 
ATOM     33  H   LIG d   1       6.739  -0.332  -4.439  0.00  0.00     0.023 H 
ENDBRANCH  27  30
ENDBRANCH  24  27
ENDBRANCH  21  24
ENDBRANCH  18  21
ENDBRANCH  16  18
BRANCH  16  34
ATOM     34  O   LIG d   1       2.759   1.619  -4.843  0.00  0.00    -0.388 OA
ATOM     35  H   LIG d   1       2.633   2.273  -3.968  0.00  0.00     0.210 HD
ENDBRANCH  16  34
ENDBRANCH  13  16
ENDBRANCH   1  12
BRANCH   8  36
ATOM     36  C   LIG d   1       2.738   0.109  -9.138  0.00  0.00    -0.029 C 
ATOM     37  H   LIG d   1       2.502   0.381  -8.099  0.00  0.00     0.031 H 
ATOM     38  H   LIG d   1       2.796   1.020  -9.752  0.00  0.00     0.031 H 
BRANCH  36  39
ATOM     39  C   LIG d   1       1.659  -0.794  -9.679  0.00  0.00    -0.088 C 
ATOM     40  C   LIG d   1       1.936  -2.040  -9.975  0.00  0.00    -0.088 C 
ATOM     41  H   LIG d   1       2.955  -2.426  -9.830  0.00  0.00     0.057 H 
ATOM     42  H   LIG d   1       0.640  -0.407  -9.824  0.00  0.00     0.057 H 
BRANCH  40  43
ATOM     43  C   LIG d   1       0.857  -2.942 -10.516  0.00  0.00    -0.034 C 
ATOM     44  H   LIG d   1      -0.056  -2.826  -9.911  0.00  0.00     0.031 H 
ATOM     45  H   LIG d   1       0.642  -2.671 -11.560  0.00  0.00     0.031 H 
BRANCH  43  46
ATOM     46  C   LIG d   1       1.328  -4.396 -10.452  0.00  0.00    -0.044 C 
ATOM     47  H   LIG d   1       2.284  -4.496 -10.988  0.00  0.00     0.027 H 
ATOM     48  H   LIG d   1       1.464  -4.692  -9.401  0.00  0.00     0.027 H 
BRANCH  46  49
ATOM     49  C   LIG d   1       0.281  -5.301 -11.104  0.00  0.00    -0.013 C 
ATOM     50  H   LIG d   1      -0.418  -4.689 -11.692  0.00  0.00     0.033 H 
ATOM     51  H   LIG d   1       0.782  -6.024 -11.766  0.00  0.00     0.033 H 
BRANCH  49  52
ATOM     52  C   LIG d   1      -0.479  -6.044 -10.035  0.00  0.00     0.042 C 
ATOM     53  O   LIG d   1      -0.055  -7.094  -9.614  0.00  0.00    -0.550 OA
ATOM     54  O   LIG d   1      -1.624  -5.538  -9.551  0.00  0.00    -0.550 OA
ENDBRANCH  49  52
ENDBRANCH  46  49
ENDBRANCH  43  46
ENDBRANCH  40  43
ENDBRANCH  36  39
ENDBRANCH   8  36
BRANCH   3  55
ATOM     55  O   LIG d   1       6.317   0.910  -6.749  0.00  0.00    -0.391 OA
ATOM     56  H   LIG d   1       6.902   0.495  -5.916  0.00  0.00     0.210 HD
ENDBRANCH   3  55
BRANCH   6  57
ATOM     57  O   LIG d   1       4.341   0.929 -11.053  0.00  0.00    -0.391 OA
ATOM     58  H   LIG d   1       4.887   1.524 -11.799  0.00  0.00     0.210 HD
ENDBRANCH   6  57
TORSDOF 16
ENDMDL
MODEL 6
REMARK VINA RESULT:      -4.8      3.124      5.040
REMARK  16 active torsions:
REMARK  status: ('A' for Active; 'I' for Inactive)
REMARK    1  A    between atoms: C_1  and  C_2 
REMARK    2  A    between atoms: C_2  and  C_3 
REMARK    3  A    between atoms: C_3  and  C_4 
REMARK    4  A    between atoms: C_4  and  C_5 
REMARK    5  A    between atoms: C_5  and  C_6 
REMARK    6  A    between atoms: C_6  and  C_8 
REMARK    7  A    between atoms: C_6  and  O_30 
REMARK    8  A    between atoms: C_9  and  C_10 
REMARK    9  A    between atoms: C_12  and  O_29 
REMARK   10  A    between atoms: C_15  and  O_28 
REMARK   11  A    between atoms: C_17  and  C_19 
REMARK   12  A    between atoms: C_19  and  C_20 
REMARK   13  A    between atoms: C_21  and  C_22 
REMARK   14  A    between atoms: C_22  and  C_23 
REMARK   15  A    between atoms: C_23  and  C_24 
REMARK   16  A    between atoms: C_24  and  C_25 
ROOT
ATOM      1  C   LIG d   1       7.807   1.304  -6.455  0.00  0.00     0.009 C 
ATOM      2  H   LIG d   1       7.062   1.907  -6.994  0.00  0.00     0.037 H 
ATOM      3  C   LIG d   1       9.190   1.357  -7.135  0.00  0.00     0.064 C 
ATOM      4  H   LIG d   1       9.332   2.213  -7.813  0.00  0.00     0.060 H 
ATOM      5  C   LIG d   1      10.196   1.287  -5.959  0.00  0.00     0.000 C 
ATOM      6  C   LIG d   1       9.505   2.142  -4.868  0.00  0.00     0.061 C 
ATOM      7  H   LIG d   1       9.735   3.217  -4.910  0.00  0.00     0.060 H 
ATOM      8  C   LIG d   1       8.007   1.803  -5.014  0.00  0.00    -0.003 C 
ATOM      9  H   LIG d   1       7.373   2.677  -4.802  0.00  0.00     0.034 H 
ATOM     10  H   LIG d   1      10.331   0.238  -5.655  0.00  0.00     0.032 H 
ATOM     11  H   LIG d   1      11.163   1.705  -6.277  0.00  0.00     0.032 H 
ENDROOT
BRANCH   1  12
ATOM     12  C   LIG d   1       7.291  -0.112  -6.445  0.00  0.00    -0.080 C 
ATOM     13  C   LIG d   1       6.034  -0.353  -6.721  0.00  0.00    -0.059 C 
ATOM     14  H   LIG d   1       5.355   0.478  -6.962  0.00  0.00     0.059 H 
ATOM     15  H   LIG d   1       7.970  -0.943  -6.205  0.00  0.00     0.057 H 
BRANCH  13  16
ATOM     16  C   LIG d   1       5.519  -1.769  -6.710  0.00  0.00     0.073 C 
ATOM     17  H   LIG d   1       6.239  -2.444  -7.195  0.00  0.00     0.064 H 
BRANCH  16  18
ATOM     18  C   LIG d   1       5.225  -2.194  -5.270  0.00  0.00    -0.023 C 
ATOM     19  H   LIG d   1       4.172  -2.502  -5.185  0.00  0.00     0.029 H 
ATOM     20  H   LIG d   1       5.416  -1.348  -4.593  0.00  0.00     0.029 H 
BRANCH  18  21
ATOM     21  C   LIG d   1       6.131  -3.367  -4.889  0.00  0.00    -0.050 C 
ATOM     22  H   LIG d   1       6.578  -3.796  -5.798  0.00  0.00     0.027 H 
ATOM     23  H   LIG d   1       5.538  -4.136  -4.373  0.00  0.00     0.027 H 
BRANCH  21  24
ATOM     24  C   LIG d   1       7.243  -2.870  -3.961  0.00  0.00    -0.053 C 
ATOM     25  H   LIG d   1       6.975  -3.091  -2.918  0.00  0.00     0.026 H 
ATOM     26  H   LIG d   1       7.368  -1.784  -4.087  0.00  0.00     0.026 H 
BRANCH  24  27
ATOM     27  C   LIG d   1       8.553  -3.578  -4.313  0.00  0.00    -0.056 C 
ATOM     28  H   LIG d   1       9.196  -2.895  -4.888  0.00  0.00     0.026 H 
ATOM     29  H   LIG d   1       8.337  -4.472  -4.916  0.00  0.00     0.026 H 
BRANCH  27  30
ATOM     30  C   LIG d   1       9.270  -3.992  -3.027  0.00  0.00    -0.065 C 
ATOM     31  H   LIG d   1      10.130  -4.631  -3.275  0.00  0.00     0.023 H 
ATOM     32  H   LIG d   1       8.574  -4.550  -2.382  0.00  0.00     0.023 H 
ATOM     33  H   LIG d   1       9.621  -3.095  -2.497  0.00  0.00     0.023 H 
ENDBRANCH  27  30
ENDBRANCH  24  27
ENDBRANCH  21  24
ENDBRANCH  18  21
ENDBRANCH  16  18
BRANCH  16  34
ATOM     34  O   LIG d   1       4.318  -1.844  -7.483  0.00  0.00    -0.388 OA
ATOM     35  H   LIG d   1       3.413  -2.294  -7.049  0.00  0.00     0.210 HD
ENDBRANCH  16  34
ENDBRANCH  13  16
ENDBRANCH   1  12
BRANCH   8  36
ATOM     36  C   LIG d   1       7.619   0.705  -4.020  0.00  0.00    -0.029 C 
ATOM     37  H   LIG d   1       7.345  -0.207  -4.571  0.00  0.00     0.031 H 
ATOM     38  H   LIG d   1       8.472   0.493  -3.359  0.00  0.00     0.031 H 
BRANCH  36  39
ATOM     39  C   LIG d   1       6.445   1.167  -3.195  0.00  0.00    -0.088 C 
ATOM     40  C   LIG d   1       5.699   0.290  -2.571  0.00  0.00    -0.088 C 
ATOM     41  H   LIG d   1       5.928  -0.783  -2.649  0.00  0.00     0.057 H 
ATOM     42  H   LIG d   1       6.215   2.239  -3.117  0.00  0.00     0.057 H 
BRANCH  40  43
ATOM     43  C   LIG d   1       4.525   0.751  -1.746  0.00  0.00    -0.034 C 
ATOM     44  H   LIG d   1       4.120  -0.099  -1.177  0.00  0.00     0.031 H 
ATOM     45  H   LIG d   1       4.852   1.536  -1.049  0.00  0.00     0.031 H 
BRANCH  43  46
ATOM     46  C   LIG d   1       3.440   1.308  -2.670  0.00  0.00    -0.044 C 
ATOM     47  H   LIG d   1       2.594   1.670  -2.067  0.00  0.00     0.027 H 
ATOM     48  H   LIG d   1       3.852   2.140  -3.261  0.00  0.00     0.027 H 
BRANCH  46  49
ATOM     49  C   LIG d   1       2.957   0.204  -3.614  0.00  0.00    -0.013 C 
ATOM     50  H   LIG d   1       3.744  -0.556  -3.722  0.00  0.00     0.033 H 
ATOM     51  H   LIG d   1       2.051  -0.262  -3.198  0.00  0.00     0.033 H 
BRANCH  49  52
ATOM     52  C   LIG d   1       2.642   0.798  -4.963  0.00  0.00     0.042 C 
ATOM     53  O   LIG d   1       2.484   1.991  -5.075  0.00  0.00    -0.550 OA
ATOM     54  O   LIG d   1       2.538   0.002  -6.039  0.00  0.00    -0.550 OA
ENDBRANCH  49  52
ENDBRANCH  46  49
ENDBRANCH  43  46
ENDBRANCH  40  43
ENDBRANCH  36  39
ENDBRANCH   8  36
BRANCH   3  55
ATOM     55  O   LIG d   1       9.363   0.239  -8.008  0.00  0.00    -0.391 OA
ATOM     56  H   LIG d   1       8.539  -0.473  -8.159  0.00  0.00     0.210 HD
ENDBRANCH   3  55
BRANCH   6  57
ATOM     57  O   LIG d   1       9.977   1.775  -3.570  0.00  0.00    -0.391 OA
ATOM     58  H   LIG d   1       9.364   1.130  -2.924  0.00  0.00     0.210 HD
ENDBRANCH   6  57
TORSDOF 16
ENDMDL
MODEL 7
REMARK VINA RESULT:      -4.7      2.712      6.862
REMARK  16 active torsions:
REMARK  status: ('A' for Active; 'I' for Inactive)
REMARK    1  A    between atoms: C_1  and  C_2 
REMARK    2  A    between atoms: C_2  and  C_3 
REMARK    3  A    between atoms: C_3  and  C_4 
REMARK    4  A    between atoms: C_4  and  C_5 
REMARK    5  A    between atoms: C_5  and  C_6 
REMARK    6  A    between atoms: C_6  and  C_8 
REMARK    7  A    between atoms: C_6  and  O_30 
REMARK    8  A    between atoms: C_9  and  C_10 
REMARK    9  A    between atoms: C_12  and  O_29 
REMARK   10  A    between atoms: C_15  and  O_28 
REMARK   11  A    between atoms: C_17  and  C_19 
REMARK   12  A    between atoms: C_19  and  C_20 
REMARK   13  A    between atoms: C_21  and  C_22 
REMARK   14  A    between atoms: C_22  and  C_23 
REMARK   15  A    between atoms: C_23  and  C_24 
REMARK   16  A    between atoms: C_24  and  C_25 
ROOT
ATOM      1  C   LIG d   1       3.616  -0.863  -5.156  0.00  0.00     0.009 C 
ATOM      2  H   LIG d   1       3.094  -1.378  -5.975  0.00  0.00     0.037 H 
ATOM      3  C   LIG d   1       2.698   0.141  -4.430  0.00  0.00     0.064 C 
ATOM      4  H   LIG d   1       1.622  -0.036  -4.579  0.00  0.00     0.060 H 
ATOM      5  C   LIG d   1       3.166   0.088  -2.955  0.00  0.00     0.000 C 
ATOM      6  C   LIG d   1       3.483  -1.414  -2.751  0.00  0.00     0.061 C 
ATOM      7  H   LIG d   1       2.628  -2.027  -2.430  0.00  0.00     0.060 H 
ATOM      8  C   LIG d   1       4.116  -1.851  -4.089  0.00  0.00    -0.003 C 
ATOM      9  H   LIG d   1       3.843  -2.886  -4.345  0.00  0.00     0.034 H 
ATOM     10  H   LIG d   1       4.050   0.730  -2.828  0.00  0.00     0.032 H 
ATOM     11  H   LIG d   1       2.357   0.443  -2.299  0.00  0.00     0.032 H 
ENDROOT
BRANCH   1  12
ATOM     12  C   LIG d   1       4.783  -0.139  -5.777  0.00  0.00    -0.080 C 
ATOM     13  C   LIG d   1       5.060  -0.307  -7.045  0.00  0.00    -0.059 C 
ATOM     14  H   LIG d   1       4.439  -0.976  -7.659  0.00  0.00     0.059 H 
ATOM     15  H   LIG d   1       5.404   0.531  -5.163  0.00  0.00     0.057 H 
BRANCH  13  16
ATOM     16  C   LIG d   1       6.227   0.417  -7.665  0.00  0.00     0.073 C 
ATOM     17  H   LIG d   1       6.873  -0.289  -8.208  0.00  0.00     0.064 H 
BRANCH  16  18
ATOM     18  C   LIG d   1       5.711   1.531  -8.577  0.00  0.00    -0.023 C 
ATOM     19  H   LIG d   1       6.553   2.155  -8.908  0.00  0.00     0.029 H 
ATOM     20  H   LIG d   1       4.989   2.151  -8.025  0.00  0.00     0.029 H 
BRANCH  18  21
ATOM     21  C   LIG d   1       5.023   0.913  -9.797  0.00  0.00    -0.050 C 
ATOM     22  H   LIG d   1       4.688  -0.105  -9.553  0.00  0.00     0.027 H 
ATOM     23  H   LIG d   1       5.732   0.875 -10.637  0.00  0.00     0.027 H 
BRANCH  21  24
ATOM     24  C   LIG d   1       3.815   1.768 -10.187  0.00  0.00    -0.053 C 
ATOM     25  H   LIG d   1       3.447   1.453 -11.175  0.00  0.00     0.026 H 
ATOM     26  H   LIG d   1       4.111   2.826 -10.225  0.00  0.00     0.026 H 
BRANCH  24  27
ATOM     27  C   LIG d   1       2.706   1.585  -9.148  0.00  0.00    -0.056 C 
ATOM     28  H   LIG d   1       1.904   2.314  -9.336  0.00  0.00     0.026 H 
ATOM     29  H   LIG d   1       3.118   1.744  -8.141  0.00  0.00     0.026 H 
BRANCH  27  30
ATOM     30  C   LIG d   1       2.141   0.167  -9.250  0.00  0.00    -0.065 C 
ATOM     31  H   LIG d   1       1.186   0.191  -9.796  0.00  0.00     0.023 H 
ATOM     32  H   LIG d   1       1.974  -0.235  -8.240  0.00  0.00     0.023 H 
ATOM     33  H   LIG d   1       2.854  -0.474  -9.788  0.00  0.00     0.023 H 
ENDBRANCH  27  30
ENDBRANCH  24  27
ENDBRANCH  21  24
ENDBRANCH  18  21
ENDBRANCH  16  18
BRANCH  16  34
ATOM     34  O   LIG d   1       7.037   0.985  -6.632  0.00  0.00    -0.388 OA
ATOM     35  H   LIG d   1       6.812   0.771  -5.577  0.00  0.00     0.210 HD
ENDBRANCH  16  34
ENDBRANCH  13  16
ENDBRANCH   1  12
BRANCH   8  36
ATOM     36  C   LIG d   1       5.642  -1.791  -3.991  0.00  0.00    -0.029 C 
ATOM     37  H   LIG d   1       6.022  -1.007  -4.664  0.00  0.00     0.031 H 
ATOM     38  H   LIG d   1       5.934  -1.559  -2.956  0.00  0.00     0.031 H 
BRANCH  36  39
ATOM     39  C   LIG d   1       6.225  -3.122  -4.392  0.00  0.00    -0.088 C 
ATOM     40  C   LIG d   1       5.519  -3.954  -5.116  0.00  0.00    -0.088 C 
ATOM     41  H   LIG d   1       4.501  -3.682  -5.432  0.00  0.00     0.057 H 
ATOM     42  H   LIG d   1       7.243  -3.394  -4.076  0.00  0.00     0.057 H 
BRANCH  40  43
ATOM     43  C   LIG d   1       6.102  -5.286  -5.515  0.00  0.00    -0.034 C 
ATOM     44  H   LIG d   1       6.634  -5.180  -6.473  0.00  0.00     0.031 H 
ATOM     45  H   LIG d   1       6.805  -5.625  -4.741  0.00  0.00     0.031 H 
BRANCH  43  46
ATOM     46  C   LIG d   1       4.976  -6.310  -5.668  0.00  0.00    -0.044 C 
ATOM     47  H   LIG d   1       4.512  -6.495  -4.688  0.00  0.00     0.027 H 
ATOM     48  H   LIG d   1       4.218  -5.922  -6.366  0.00  0.00     0.027 H 
BRANCH  46  49
ATOM     49  C   LIG d   1       5.548  -7.619  -6.216  0.00  0.00    -0.013 C 
ATOM     50  H   LIG d   1       5.604  -7.564  -7.313  0.00  0.00     0.033 H 
ATOM     51  H   LIG d   1       6.557  -7.779  -5.805  0.00  0.00     0.033 H 
BRANCH  49  52
ATOM     52  C   LIG d   1       4.655  -8.765  -5.816  0.00  0.00     0.042 C 
ATOM     53  O   LIG d   1       4.349  -9.604  -6.630  0.00  0.00    -0.550 OA
ATOM     54  O   LIG d   1       4.202  -8.854  -4.556  0.00  0.00    -0.550 OA
ENDBRANCH  49  52
ENDBRANCH  46  49
ENDBRANCH  43  46
ENDBRANCH  40  43
ENDBRANCH  36  39
ENDBRANCH   8  36
BRANCH   3  55
ATOM     55  O   LIG d   1       2.872   1.456  -4.963  0.00  0.00    -0.391 OA
ATOM     56  H   LIG d   1       3.787   1.707  -5.519  0.00  0.00     0.210 HD
ENDBRANCH   3  55
BRANCH   6  57
ATOM     57  O   LIG d   1       4.411  -1.589  -1.678  0.00  0.00    -0.391 OA
ATOM     58  H   LIG d   1       4.480  -2.559  -1.164  0.00  0.00     0.210 HD
ENDBRANCH   6  57
TORSDOF 16
ENDMDL
MODEL 8
REMARK VINA RESULT:      -4.6      3.630      6.411
REMARK  16 active torsions:
REMARK  status: ('A' for Active; 'I' for Inactive)
REMARK    1  A    between atoms: C_1  and  C_2 
REMARK    2  A    between atoms: C_2  and  C_3 
REMARK    3  A    between atoms: C_3  and  C_4 
REMARK    4  A    between atoms: C_4  and  C_5 
REMARK    5  A    between atoms: C_5  and  C_6 
REMARK    6  A    between atoms: C_6  and  C_8 
REMARK    7  A    between atoms: C_6  and  O_30 
REMARK    8  A    between atoms: C_9  and  C_10 
REMARK    9  A    between atoms: C_12  and  O_29 
REMARK   10  A    between atoms: C_15  and  O_28 
REMARK   11  A    between atoms: C_17  and  C_19 
REMARK   12  A    between atoms: C_19  and  C_20 
REMARK   13  A    between atoms: C_21  and  C_22 
REMARK   14  A    between atoms: C_22  and  C_23 
REMARK   15  A    between atoms: C_23  and  C_24 
REMARK   16  A    between atoms: C_24  and  C_25 
ROOT
ATOM      1  C   LIG d   1       5.378  -0.955  -2.351  0.00  0.00     0.009 C 
ATOM      2  H   LIG d   1       5.980  -1.297  -1.496  0.00  0.00     0.037 H 
ATOM      3  C   LIG d   1       3.911  -1.419  -2.242  0.00  0.00     0.064 C 
ATOM      4  H   LIG d   1       3.597  -1.700  -1.225  0.00  0.00     0.060 H 
ATOM      5  C   LIG d   1       3.098  -0.262  -2.875  0.00  0.00     0.000 C 
ATOM      6  C   LIG d   1       3.863   0.996  -2.395  0.00  0.00     0.061 C 
ATOM      7  H   LIG d   1       3.536   1.391  -1.422  0.00  0.00     0.060 H 
ATOM      8  C   LIG d   1       5.348   0.579  -2.449  0.00  0.00    -0.003 C 
ATOM      9  H   LIG d   1       5.926   1.043  -1.635  0.00  0.00     0.034 H 
ATOM     10  H   LIG d   1       3.102  -0.369  -3.970  0.00  0.00     0.032 H 
ATOM     11  H   LIG d   1       2.062  -0.296  -2.507  0.00  0.00     0.032 H 
ENDROOT
BRANCH   1  12
ATOM     12  C   LIG d   1       6.013  -1.539  -3.587  0.00  0.00    -0.080 C 
ATOM     13  C   LIG d   1       7.133  -2.211  -3.494  0.00  0.00    -0.059 C 
ATOM     14  H   LIG d   1       7.610  -2.350  -2.513  0.00  0.00     0.059 H 
ATOM     15  H   LIG d   1       5.535  -1.401  -4.568  0.00  0.00     0.057 H 
BRANCH  13  16
ATOM     16  C   LIG d   1       7.767  -2.794  -4.730  0.00  0.00     0.073 C 
ATOM     17  H   LIG d   1       7.066  -2.755  -5.577  0.00  0.00     0.064 H 
BRANCH  16  18
ATOM     18  C   LIG d   1       9.068  -2.048  -5.037  0.00  0.00    -0.023 C 
ATOM     19  H   LIG d   1       9.881  -2.774  -5.181  0.00  0.00     0.029 H 
ATOM     20  H   LIG d   1       9.314  -1.383  -4.196  0.00  0.00     0.029 H 
BRANCH  18  21
ATOM     21  C   LIG d   1       8.891  -1.218  -6.310  0.00  0.00    -0.050 C 
ATOM     22  H   LIG d   1       9.705  -1.448  -7.014  0.00  0.00     0.027 H 
ATOM     23  H   LIG d   1       8.916  -0.148  -6.056  0.00  0.00     0.027 H 
BRANCH  21  24
ATOM     24  C   LIG d   1       7.547  -1.559  -6.957  0.00  0.00    -0.053 C 
ATOM     25  H   LIG d   1       6.960  -2.190  -6.273  0.00  0.00     0.026 H 
ATOM     26  H   LIG d   1       7.720  -2.100  -7.899  0.00  0.00     0.026 H 
BRANCH  24  27
ATOM     27  C   LIG d   1       6.779  -0.267  -7.246  0.00  0.00    -0.056 C 
ATOM     28  H   LIG d   1       6.980   0.057  -8.277  0.00  0.00     0.026 H 
ATOM     29  H   LIG d   1       7.104   0.517  -6.545  0.00  0.00     0.026 H 
BRANCH  27  30
ATOM     30  C   LIG d   1       5.280  -0.516  -7.072  0.00  0.00    -0.065 C 
ATOM     31  H   LIG d   1       5.030  -0.521  -6.001  0.00  0.00     0.023 H 
ATOM     32  H   LIG d   1       5.015  -1.488  -7.514  0.00  0.00     0.023 H 
ATOM     33  H   LIG d   1       4.715   0.282  -7.575  0.00  0.00     0.023 H 
ENDBRANCH  27  30
ENDBRANCH  24  27
ENDBRANCH  21  24
ENDBRANCH  18  21
ENDBRANCH  16  18
BRANCH  16  34
ATOM     34  O   LIG d   1       8.052  -4.178  -4.511  0.00  0.00    -0.388 OA
ATOM     35  H   LIG d   1       9.088  -4.505  -4.340  0.00  0.00     0.210 HD
ENDBRANCH  16  34
ENDBRANCH  13  16
ENDBRANCH   1  12
BRANCH   8  36
ATOM     36  C   LIG d   1       5.972   1.033  -3.770  0.00  0.00    -0.029 C 
ATOM     37  H   LIG d   1       5.946   0.203  -4.492  0.00  0.00     0.031 H 
ATOM     38  H   LIG d   1       5.402   1.885  -4.171  0.00  0.00     0.031 H 
BRANCH  36  39
ATOM     39  C   LIG d   1       7.401   1.450  -3.534  0.00  0.00    -0.088 C 
ATOM     40  C   LIG d   1       8.133   1.874  -4.534  0.00  0.00    -0.088 C 
ATOM     41  H   LIG d   1       7.705   1.925  -5.546  0.00  0.00     0.057 H 
ATOM     42  H   LIG d   1       7.829   1.399  -2.523  0.00  0.00     0.057 H 
BRANCH  40  43
ATOM     43  C   LIG d   1       9.562   2.291  -4.298  0.00  0.00    -0.034 C 
ATOM     44  H   LIG d   1      10.112   1.461  -3.829  0.00  0.00     0.031 H 
ATOM     45  H   LIG d   1      10.032   2.547  -5.258  0.00  0.00     0.031 H 
BRANCH  43  46
ATOM     46  C   LIG d   1       9.592   3.509  -3.374  0.00  0.00    -0.044 C 
ATOM     47  H   LIG d   1       8.737   3.467  -2.683  0.00  0.00     0.027 H 
ATOM     48  H   LIG d   1      10.530   3.510  -2.798  0.00  0.00     0.027 H 
BRANCH  46  49
ATOM     49  C   LIG d   1       9.508   4.787  -4.211  0.00  0.00    -0.013 C 
ATOM     50  H   LIG d   1      10.092   4.660  -5.134  0.00  0.00     0.033 H 
ATOM     51  H   LIG d   1       8.457   4.990  -4.466  0.00  0.00     0.033 H 
BRANCH  49  52
ATOM     52  C   LIG d   1      10.065   5.944  -3.421  0.00  0.00     0.042 C 
ATOM     53  O   LIG d   1      11.135   6.419  -3.720  0.00  0.00    -0.550 OA
ATOM     54  O   LIG d   1       9.372   6.445  -2.386  0.00  0.00    -0.550 OA
ENDBRANCH  49  52
ENDBRANCH  46  49
ENDBRANCH  43  46
ENDBRANCH  40  43
ENDBRANCH  36  39
ENDBRANCH   8  36
BRANCH   3  55
ATOM     55  O   LIG d   1       3.712  -2.629  -2.974  0.00  0.00    -0.391 OA
ATOM     56  H   LIG d   1       3.147  -2.616  -3.917  0.00  0.00     0.210 HD
ENDBRANCH   3  55
BRANCH   6  57
ATOM     57  O   LIG d   1       3.620   2.096  -3.274  0.00  0.00    -0.391 OA
ATOM     58  H   LIG d   1       4.234   2.224  -4.177  0.00  0.00     0.210 HD
ENDBRANCH   6  57
TORSDOF 16
ENDMDL
MODEL 9
REMARK VINA RESULT:      -4.6      3.539      6.264
REMARK  16 active torsions:
REMARK  status: ('A' for Active; 'I' for Inactive)
REMARK    1  A    between atoms: C_1  and  C_2 
REMARK    2  A    between atoms: C_2  and  C_3 
REMARK    3  A    between atoms: C_3  and  C_4 
REMARK    4  A    between atoms: C_4  and  C_5 
REMARK    5  A    between atoms: C_5  and  C_6 
REMARK    6  A    between atoms: C_6  and  C_8 
REMARK    7  A    between atoms: C_6  and  O_30 
REMARK    8  A    between atoms: C_9  and  C_10 
REMARK    9  A    between atoms: C_12  and  O_29 
REMARK   10  A    between atoms: C_15  and  O_28 
REMARK   11  A    between atoms: C_17  and  C_19 
REMARK   12  A    between atoms: C_19  and  C_20 
REMARK   13  A    between atoms: C_21  and  C_22 
REMARK   14  A    between atoms: C_22  and  C_23 
REMARK   15  A    between atoms: C_23  and  C_24 
REMARK   16  A    between atoms: C_24  and  C_25 
ROOT
ATOM      1  C   LIG d   1       4.126  -1.665  -3.389  0.00  0.00     0.009 C 
ATOM      2  H   LIG d   1       4.080  -2.713  -3.057  0.00  0.00     0.037 H 
ATOM      3  C   LIG d   1       2.865  -0.876  -2.979  0.00  0.00     0.064 C 
ATOM      4  H   LIG d   1       2.290  -1.331  -2.158  0.00  0.00     0.060 H 
ATOM      5  C   LIG d   1       3.387   0.553  -2.692  0.00  0.00     0.000 C 
ATOM      6  C   LIG d   1       4.753   0.288  -2.012  0.00  0.00     0.061 C 
ATOM      7  H   LIG d   1       4.708   0.160  -0.921  0.00  0.00     0.060 H 
ATOM      8  C   LIG d   1       5.325  -0.925  -2.775  0.00  0.00    -0.003 C 
ATOM      9  H   LIG d   1       5.903  -1.584  -2.109  0.00  0.00     0.034 H 
ATOM     10  H   LIG d   1       3.484   1.105  -3.640  0.00  0.00     0.032 H 
ATOM     11  H   LIG d   1       2.679   1.077  -2.033  0.00  0.00     0.032 H 
ENDROOT
BRANCH   1  12
ATOM     12  C   LIG d   1       4.250  -1.694  -4.891  0.00  0.00    -0.080 C 
ATOM     13  C   LIG d   1       4.513  -2.820  -5.505  0.00  0.00    -0.059 C 
ATOM     14  H   LIG d   1       4.642  -3.746  -4.925  0.00  0.00     0.059 H 
ATOM     15  H   LIG d   1       4.120  -0.769  -5.471  0.00  0.00     0.057 H 
BRANCH  13  16
ATOM     16  C   LIG d   1       4.638  -2.849  -7.006  0.00  0.00     0.073 C 
ATOM     17  H   LIG d   1       4.011  -3.647  -7.429  0.00  0.00     0.064 H 
BRANCH  16  18
ATOM     18  C   LIG d   1       4.269  -1.477  -7.575  0.00  0.00    -0.023 C 
ATOM     19  H   LIG d   1       5.136  -1.051  -8.100  0.00  0.00     0.029 H 
ATOM     20  H   LIG d   1       3.973  -0.808  -6.753  0.00  0.00     0.029 H 
BRANCH  18  21
ATOM     21  C   LIG d   1       3.102  -1.628  -8.554  0.00  0.00    -0.050 C 
ATOM     22  H   LIG d   1       2.428  -2.422  -8.202  0.00  0.00     0.027 H 
ATOM     23  H   LIG d   1       3.491  -1.891  -9.548  0.00  0.00     0.027 H 
BRANCH  21  24
ATOM     24  C   LIG d   1       2.334  -0.307  -8.637  0.00  0.00    -0.053 C 
ATOM     25  H   LIG d   1       1.304  -0.459  -8.281  0.00  0.00     0.026 H 
ATOM     26  H   LIG d   1       2.314   0.041  -9.681  0.00  0.00     0.026 H 
BRANCH  24  27
ATOM     27  C   LIG d   1       3.027   0.741  -7.764  0.00  0.00    -0.056 C 
ATOM     28  H   LIG d   1       4.080   0.460  -7.619  0.00  0.00     0.026 H 
ATOM     29  H   LIG d   1       2.524   0.794  -6.787  0.00  0.00     0.026 H 
BRANCH  27  30
ATOM     30  C   LIG d   1       2.952   2.106  -8.450  0.00  0.00    -0.065 C 
ATOM     31  H   LIG d   1       1.926   2.496  -8.382  0.00  0.00     0.023 H 
ATOM     32  H   LIG d   1       3.234   2.002  -9.508  0.00  0.00     0.023 H 
ATOM     33  H   LIG d   1       3.642   2.804  -7.954  0.00  0.00     0.023 H 
ENDBRANCH  27  30
ENDBRANCH  24  27
ENDBRANCH  21  24
ENDBRANCH  18  21
ENDBRANCH  16  18
BRANCH  16  34
ATOM     34  O   LIG d   1       5.985  -3.165  -7.366  0.00  0.00    -0.388 OA
ATOM     35  H   LIG d   1       6.691  -2.360  -7.615  0.00  0.00     0.210 HD
ENDBRANCH  16  34
ENDBRANCH  13  16
ENDBRANCH   1  12
BRANCH   8  36
ATOM     36  C   LIG d   1       6.271  -0.450  -3.881  0.00  0.00    -0.029 C 
ATOM     37  H   LIG d   1       5.820  -0.658  -4.863  0.00  0.00     0.031 H 
ATOM     38  H   LIG d   1       6.441   0.632  -3.777  0.00  0.00     0.031 H 
BRANCH  36  39
ATOM     39  C   LIG d   1       7.585  -1.180  -3.767  0.00  0.00    -0.088 C 
ATOM     40  C   LIG d   1       7.786  -2.277  -4.453  0.00  0.00    -0.088 C 
ATOM     41  H   LIG d   1       6.997  -2.666  -5.112  0.00  0.00     0.057 H 
ATOM     42  H   LIG d   1       8.375  -0.791  -3.107  0.00  0.00     0.057 H 
BRANCH  40  43
ATOM     43  C   LIG d   1       9.100  -3.006  -4.338  0.00  0.00    -0.034 C 
ATOM     44  H   LIG d   1       9.232  -3.664  -5.211  0.00  0.00     0.031 H 
ATOM     45  H   LIG d   1       9.922  -2.277  -4.301  0.00  0.00     0.031 H 
BRANCH  43  46
ATOM     46  C   LIG d   1       9.106  -3.848  -3.061  0.00  0.00    -0.044 C 
ATOM     47  H   LIG d   1       9.840  -3.436  -2.353  0.00  0.00     0.027 H 
ATOM     48  H   LIG d   1       8.105  -3.830  -2.604  0.00  0.00     0.027 H 
BRANCH  46  49
ATOM     49  C   LIG d   1       9.483  -5.291  -3.403  0.00  0.00    -0.013 C 
ATOM     50  H   LIG d   1       8.594  -5.826  -3.769  0.00  0.00     0.033 H 
ATOM     51  H   LIG d   1      10.259  -5.293  -4.183  0.00  0.00     0.033 H 
BRANCH  49  52
ATOM     52  C   LIG d   1      10.009  -5.980  -2.170  0.00  0.00     0.042 C 
ATOM     53  O   LIG d   1       9.640  -5.623  -1.076  0.00  0.00    -0.550 OA
ATOM     54  O   LIG d   1      10.887  -6.988  -2.287  0.00  0.00    -0.550 OA
ENDBRANCH  49  52
ENDBRANCH  46  49
ENDBRANCH  43  46
ENDBRANCH  40  43
ENDBRANCH  36  39
ENDBRANCH   8  36
BRANCH   3  55
ATOM     55  O   LIG d   1       1.916  -0.857  -4.048  0.00  0.00    -0.391 OA
ATOM     56  H   LIG d   1       1.711  -1.775  -4.618  0.00  0.00     0.210 HD
ENDBRANCH   3  55
BRANCH   6  57
ATOM     57  O   LIG d   1       5.612   1.421  -2.156  0.00  0.00    -0.391 OA
ATOM     58  H   LIG d   1       5.761   1.876  -3.146  0.00  0.00     0.210 HD
ENDBRANCH   6  57
TORSDOF 16
ENDMDL
