MODEL 1
REMARK VINA RESULT:      -4.5      0.000      0.000
REMARK  4 active torsions:
REMARK  status: ('A' for Active; 'I' for Inactive)
REMARK    1  A    between atoms: C_1  and  C_2 
REMARK    2  A    between atoms: C_1  and  C_6 
REMARK    3  A    between atoms: C_2  and  C_3 
REMARK    4  A    between atoms: C_6  and  C_7 
ROOT
ATOM      1  C   LIG d   1       5.238  -1.880  -4.485  0.00  0.00     0.035 C 
ATOM      2  C   LIG d   1       4.526  -0.896  -5.317  0.00  0.00     0.062 C 
ATOM      3  N   LIG d   1       3.976  -0.137  -5.959  0.00  0.00    -0.197 NA
ATOM      4  H   LIG d   1       5.697  -2.633  -5.127  0.00  0.00     0.042 H 
ATOM      5  H   LIG d   1       6.012  -1.375  -3.907  0.00  0.00     0.042 H 
ENDROOT
BRANCH   1   6
ATOM      6  C   LIG d   1       4.248  -2.555  -3.534  0.00  0.00    -0.040 C 
ATOM      7  H   LIG d   1       3.522  -3.129  -4.111  0.00  0.00     0.028 H 
ATOM      8  H   LIG d   1       4.786  -3.221  -2.861  0.00  0.00     0.028 H 
BRANCH   6   9
ATOM      9  C   LIG d   1       3.517  -1.486  -2.717  0.00  0.00    -0.051 C 
ATOM     10  H   LIG d   1       3.140  -0.713  -3.387  0.00  0.00     0.027 H 
ATOM     11  H   LIG d   1       2.685  -1.943  -2.183  0.00  0.00     0.027 H 
BRANCH   9  12
ATOM     12  C   LIG d   1       4.488  -0.862  -1.712  0.00  0.00    -0.040 C 
ATOM     13  H   LIG d   1       4.241  -1.205  -0.707  0.00  0.00     0.028 H 
ATOM     14  H   LIG d   1       5.507  -1.160  -1.958  0.00  0.00     0.028 H 
BRANCH  12  15
ATOM     15  C   LIG d   1       4.374   0.663  -1.773  0.00  0.00     0.035 C 
ATOM     16  C   LIG d   1       5.451   1.203  -2.617  0.00  0.00     0.062 C 
ATOM     17  N   LIG d   1       6.282   1.620  -3.269  0.00  0.00    -0.197 NA
ATOM     18  H   LIG d   1       3.407   0.939  -2.196  0.00  0.00     0.042 H 
ATOM     19  H   LIG d   1       4.460   1.073  -0.766  0.00  0.00     0.042 H 
ENDBRANCH  12  15
ENDBRANCH   9  12
ENDBRANCH   6   9
ENDBRANCH   1   6
TORSDOF 4
ENDMDL
MODEL 2
REMARK VINA RESULT:      -4.4      1.422      1.905
REMARK  4 active torsions:
REMARK  status: ('A' for Active; 'I' for Inactive)
REMARK    1  A    between atoms: C_1  and  C_2 
REMARK    2  A    between atoms: C_1  and  C_6 
REMARK    3  A    between atoms: C_2  and  C_3 
REMARK    4  A    between atoms: C_6  and  C_7 
ROOT
ATOM      1  C   LIG d   1       2.210   0.187  -4.707  0.00  0.00     0.035 C 
ATOM      2  C   LIG d   1       3.359   0.090  -5.621  0.00  0.00     0.062 C 
ATOM      3  N   LIG d   1       4.247   0.016  -6.327  0.00  0.00    -0.197 NA
ATOM      4  H   LIG d   1       1.998   1.236  -4.500  0.00  0.00     0.042 H 
ATOM      5  H   LIG d   1       1.338  -0.275  -5.169  0.00  0.00     0.042 H 
ENDROOT
BRANCH   1   6
ATOM      6  C   LIG d   1       2.537  -0.536  -3.399  0.00  0.00    -0.040 C 
ATOM      7  H   LIG d   1       1.610  -0.823  -2.900  0.00  0.00     0.028 H 
ATOM      8  H   LIG d   1       3.125  -1.428  -3.613  0.00  0.00     0.028 H 
BRANCH   6   9
ATOM      9  C   LIG d   1       3.337   0.397  -2.487  0.00  0.00    -0.051 C 
ATOM     10  H   LIG d   1       3.782   1.194  -3.085  0.00  0.00     0.027 H 
ATOM     11  H   LIG d   1       2.675   0.831  -1.739  0.00  0.00     0.027 H 
BRANCH   9  12
ATOM     12  C   LIG d   1       4.444  -0.397  -1.791  0.00  0.00    -0.040 C 
ATOM     13  H   LIG d   1       4.824   0.175  -0.944  0.00  0.00     0.028 H 
ATOM     14  H   LIG d   1       4.043  -1.347  -1.438  0.00  0.00     0.028 H 
BRANCH  12  15
ATOM     15  C   LIG d   1       5.582  -0.660  -2.780  0.00  0.00     0.035 C 
ATOM     16  C   LIG d   1       6.191   0.619  -3.181  0.00  0.00     0.062 C 
ATOM     17  N   LIG d   1       6.660   1.605  -3.489  0.00  0.00    -0.197 NA
ATOM     18  H   LIG d   1       6.337  -1.290  -2.307  0.00  0.00     0.042 H 
ATOM     19  H   LIG d   1       5.187  -1.167  -3.661  0.00  0.00     0.042 H 
ENDBRANCH  12  15
ENDBRANCH   9  12
ENDBRANCH   6   9
ENDBRANCH   1   6
TORSDOF 4
ENDMDL
MODEL 3
REMARK VINA RESULT:      -4.4      1.717      1.921
REMARK  4 active torsions:
REMARK  status: ('A' for Active; 'I' for Inactive)
REMARK    1  A    between atoms: C_1  and  C_2 
REMARK    2  A    between atoms: C_1  and  C_6 
REMARK    3  A    between atoms: C_2  and  C_3 
REMARK    4  A    between atoms: C_6  and  C_7 
ROOT
ATOM      1  C   LIG d   1       5.146  -2.636  -3.867  0.00  0.00     0.035 C 
ATOM      2  C   LIG d   1       4.772  -3.698  -4.815  0.00  0.00     0.062 C 
ATOM      3  N   LIG d   1       4.484  -4.518  -5.546  0.00  0.00    -0.197 NA
ATOM      4  H   LIG d   1       6.047  -2.930  -3.329  0.00  0.00     0.042 H 
ATOM      5  H   LIG d   1       5.334  -1.711  -4.413  0.00  0.00     0.042 H 
ENDROOT
BRANCH   1   6
ATOM      6  C   LIG d   1       4.005  -2.417  -2.871  0.00  0.00    -0.040 C 
ATOM      7  H   LIG d   1       3.108  -2.107  -3.408  0.00  0.00     0.028 H 
ATOM      8  H   LIG d   1       3.806  -3.345  -2.337  0.00  0.00     0.028 H 
BRANCH   6   9
ATOM      9  C   LIG d   1       4.403  -1.328  -1.873  0.00  0.00    -0.051 C 
ATOM     10  H   LIG d   1       4.135  -1.644  -0.864  0.00  0.00     0.027 H 
ATOM     11  H   LIG d   1       5.478  -1.159  -1.928  0.00  0.00     0.027 H 
BRANCH   9  12
ATOM     12  C   LIG d   1       3.665  -0.031  -2.212  0.00  0.00    -0.040 C 
ATOM     13  H   LIG d   1       3.394  -0.032  -3.268  0.00  0.00     0.028 H 
ATOM     14  H   LIG d   1       2.762   0.043  -1.605  0.00  0.00     0.028 H 
BRANCH  12  15
ATOM     15  C   LIG d   1       4.574   1.165  -1.921  0.00  0.00     0.035 C 
ATOM     16  C   LIG d   1       5.656   1.213  -2.917  0.00  0.00     0.062 C 
ATOM     17  N   LIG d   1       6.491   1.251  -3.686  0.00  0.00    -0.197 NA
ATOM     18  H   LIG d   1       3.992   2.086  -1.972  0.00  0.00     0.042 H 
ATOM     19  H   LIG d   1       5.002   1.061  -0.923  0.00  0.00     0.042 H 
ENDBRANCH  12  15
ENDBRANCH   9  12
ENDBRANCH   6   9
ENDBRANCH   1   6
TORSDOF 4
ENDMDL
MODEL 4
REMARK VINA RESULT:      -4.3      1.863      2.705
REMARK  4 active torsions:
REMARK  status: ('A' for Active; 'I' for Inactive)
REMARK    1  A    between atoms: C_1  and  C_2 
REMARK    2  A    between atoms: C_1  and  C_6 
REMARK    3  A    between atoms: C_2  and  C_3 
REMARK    4  A    between atoms: C_6  and  C_7 
ROOT
ATOM      1  C   LIG d   1       2.850  -0.842  -3.226  0.00  0.00     0.035 C 
ATOM      2  C   LIG d   1       3.209   0.436  -2.590  0.00  0.00     0.062 C 
ATOM      3  N   LIG d   1       3.487   1.423  -2.099  0.00  0.00    -0.197 NA
ATOM      4  H   LIG d   1       1.776  -1.005  -3.131  0.00  0.00     0.042 H 
ATOM      5  H   LIG d   1       3.120  -0.811  -4.281  0.00  0.00     0.042 H 
ENDROOT
BRANCH   1   6
ATOM      6  C   LIG d   1       3.602  -1.983  -2.538  0.00  0.00    -0.040 C 
ATOM      7  H   LIG d   1       3.164  -2.168  -1.557  0.00  0.00     0.028 H 
ATOM      8  H   LIG d   1       3.528  -2.885  -3.145  0.00  0.00     0.028 H 
BRANCH   6   9
ATOM      9  C   LIG d   1       5.074  -1.597  -2.375  0.00  0.00    -0.051 C 
ATOM     10  H   LIG d   1       5.145  -0.540  -2.118  0.00  0.00     0.027 H 
ATOM     11  H   LIG d   1       5.520  -2.195  -1.581  0.00  0.00     0.027 H 
BRANCH   9  12
ATOM     12  C   LIG d   1       5.816  -1.854  -3.687  0.00  0.00    -0.040 C 
ATOM     13  H   LIG d   1       6.027  -2.919  -3.783  0.00  0.00     0.028 H 
ATOM     14  H   LIG d   1       5.199  -1.529  -4.524  0.00  0.00     0.028 H 
BRANCH  12  15
ATOM     15  C   LIG d   1       7.132  -1.072  -3.691  0.00  0.00     0.035 C 
ATOM     16  C   LIG d   1       6.849   0.367  -3.562  0.00  0.00     0.062 C 
ATOM     17  N   LIG d   1       6.630   1.476  -3.462  0.00  0.00    -0.197 NA
ATOM     18  H   LIG d   1       7.751  -1.397  -2.854  0.00  0.00     0.042 H 
ATOM     19  H   LIG d   1       7.661  -1.256  -4.626  0.00  0.00     0.042 H 
ENDBRANCH  12  15
ENDBRANCH   9  12
ENDBRANCH   6   9
ENDBRANCH   1   6
TORSDOF 4
ENDMDL
MODEL 5
REMARK VINA RESULT:      -4.1      1.717      2.778
REMARK  4 active torsions:
REMARK  status: ('A' for Active; 'I' for Inactive)
REMARK    1  A    between atoms: C_1  and  C_2 
REMARK    2  A    between atoms: C_1  and  C_6 
REMARK    3  A    between atoms: C_2  and  C_3 
REMARK    4  A    between atoms: C_6  and  C_7 
ROOT
ATOM      1  C   LIG d   1       6.452  -0.377  -3.092  0.00  0.00     0.035 C 
ATOM      2  C   LIG d   1       6.407   0.057  -4.498  0.00  0.00     0.062 C 
ATOM      3  N   LIG d   1       6.372   0.392  -5.584  0.00  0.00    -0.197 NA
ATOM      4  H   LIG d   1       6.484  -1.466  -3.050  0.00  0.00     0.042 H 
ATOM      5  H   LIG d   1       7.342   0.032  -2.614  0.00  0.00     0.042 H 
ENDROOT
BRANCH   1   6
ATOM      6  C   LIG d   1       5.204   0.126  -2.364  0.00  0.00    -0.040 C 
ATOM      7  H   LIG d   1       5.502   0.734  -1.509  0.00  0.00     0.028 H 
ATOM      8  H   LIG d   1       4.603   0.727  -3.045  0.00  0.00     0.028 H 
BRANCH   6   9
ATOM      9  C   LIG d   1       4.382  -1.070  -1.877  0.00  0.00    -0.051 C 
ATOM     10  H   LIG d   1       5.054  -1.875  -1.580  0.00  0.00     0.027 H 
ATOM     11  H   LIG d   1       3.775  -0.770  -1.023  0.00  0.00     0.027 H 
BRANCH   9  12
ATOM     12  C   LIG d   1       3.472  -1.555  -3.006  0.00  0.00    -0.040 C 
ATOM     13  H   LIG d   1       4.059  -1.690  -3.915  0.00  0.00     0.028 H 
ATOM     14  H   LIG d   1       3.017  -2.505  -2.724  0.00  0.00     0.028 H 
BRANCH  12  15
ATOM     15  C   LIG d   1       2.374  -0.519  -3.258  0.00  0.00     0.035 C 
ATOM     16  C   LIG d   1       2.628   0.166  -4.536  0.00  0.00     0.062 C 
ATOM     17  N   LIG d   1       2.824   0.694  -5.521  0.00  0.00    -0.197 NA
ATOM     18  H   LIG d   1       1.405  -1.019  -3.300  0.00  0.00     0.042 H 
ATOM     19  H   LIG d   1       2.371   0.211  -2.448  0.00  0.00     0.042 H 
ENDBRANCH  12  15
ENDBRANCH   9  12
ENDBRANCH   6   9
ENDBRANCH   1   6
TORSDOF 4
ENDMDL
MODEL 6
REMARK VINA RESULT:      -4.1      2.117      3.784
REMARK  4 active torsions:
REMARK  status: ('A' for Active; 'I' for Inactive)
REMARK    1  A    between atoms: C_1  and  C_2 
REMARK    2  A    between atoms: C_1  and  C_6 
REMARK    3  A    between atoms: C_2  and  C_3 
REMARK    4  A    between atoms: C_6  and  C_7 
ROOT
ATOM      1  C   LIG d   1       4.474   0.615  -1.633  0.00  0.00     0.035 C 
ATOM      2  C   LIG d   1       3.919   1.437  -2.721  0.00  0.00     0.062 C 
ATOM      3  N   LIG d   1       3.490   2.072  -3.561  0.00  0.00    -0.197 NA
ATOM      4  H   LIG d   1       5.267   1.168  -1.129  0.00  0.00     0.042 H 
ATOM      5  H   LIG d   1       3.686   0.377  -0.919  0.00  0.00     0.042 H 
ENDROOT
BRANCH   1   6
ATOM      6  C   LIG d   1       5.044  -0.680  -2.214  0.00  0.00    -0.040 C 
ATOM      7  H   LIG d   1       5.451  -0.486  -3.207  0.00  0.00     0.028 H 
ATOM      8  H   LIG d   1       5.836  -1.053  -1.564  0.00  0.00     0.028 H 
BRANCH   6   9
ATOM      9  C   LIG d   1       3.932  -1.727  -2.314  0.00  0.00    -0.051 C 
ATOM     10  H   LIG d   1       3.835  -2.246  -1.361  0.00  0.00     0.027 H 
ATOM     11  H   LIG d   1       2.991  -1.235  -2.559  0.00  0.00     0.027 H 
BRANCH   9  12
ATOM     12  C   LIG d   1       4.280  -2.736  -3.410  0.00  0.00    -0.040 C 
ATOM     13  H   LIG d   1       4.576  -3.681  -2.954  0.00  0.00     0.028 H 
ATOM     14  H   LIG d   1       3.410  -2.896  -4.047  0.00  0.00     0.028 H 
BRANCH  12  15
ATOM     15  C   LIG d   1       5.436  -2.195  -4.254  0.00  0.00     0.035 C 
ATOM     16  C   LIG d   1       6.298  -3.310  -4.680  0.00  0.00     0.062 C 
ATOM     17  N   LIG d   1       6.962  -4.170  -5.008  0.00  0.00    -0.197 NA
ATOM     18  H   LIG d   1       5.038  -1.687  -5.133  0.00  0.00     0.042 H 
ATOM     19  H   LIG d   1       6.020  -1.490  -3.661  0.00  0.00     0.042 H 
ENDBRANCH  12  15
ENDBRANCH   9  12
ENDBRANCH   6   9
ENDBRANCH   1   6
TORSDOF 4
ENDMDL
MODEL 7
REMARK VINA RESULT:      -4.0      1.845      2.633
REMARK  4 active torsions:
REMARK  status: ('A' for Active; 'I' for Inactive)
REMARK    1  A    between atoms: C_1  and  C_2 
REMARK    2  A    between atoms: C_1  and  C_6 
REMARK    3  A    between atoms: C_2  and  C_3 
REMARK    4  A    between atoms: C_6  and  C_7 
ROOT
ATOM      1  C   LIG d   1       6.097  -1.427  -4.417  0.00  0.00     0.035 C 
ATOM      2  C   LIG d   1       5.033  -2.381  -4.061  0.00  0.00     0.062 C 
ATOM      3  N   LIG d   1       4.213  -3.118  -3.786  0.00  0.00    -0.197 NA
ATOM      4  H   LIG d   1       6.924  -1.963  -4.884  0.00  0.00     0.042 H 
ATOM      5  H   LIG d   1       5.703  -0.689  -5.116  0.00  0.00     0.042 H 
ENDROOT
BRANCH   1   6
ATOM      6  C   LIG d   1       6.593  -0.722  -3.154  0.00  0.00    -0.040 C 
ATOM      7  H   LIG d   1       6.365  -1.335  -2.282  0.00  0.00     0.028 H 
ATOM      8  H   LIG d   1       7.670  -0.571  -3.220  0.00  0.00     0.028 H 
BRANCH   6   9
ATOM      9  C   LIG d   1       5.895   0.633  -3.020  0.00  0.00    -0.051 C 
ATOM     10  H   LIG d   1       6.628   1.394  -2.749  0.00  0.00     0.027 H 
ATOM     11  H   LIG d   1       5.430   0.898  -3.969  0.00  0.00     0.027 H 
BRANCH   9  12
ATOM     12  C   LIG d   1       4.823   0.549  -1.931  0.00  0.00    -0.040 C 
ATOM     13  H   LIG d   1       4.563  -0.495  -1.757  0.00  0.00     0.028 H 
ATOM     14  H   LIG d   1       5.206   0.987  -1.009  0.00  0.00     0.028 H 
BRANCH  12  15
ATOM     15  C   LIG d   1       3.578   1.316  -2.381  0.00  0.00     0.035 C 
ATOM     16  C   LIG d   1       3.219   0.912  -3.750  0.00  0.00     0.062 C 
ATOM     17  N   LIG d   1       2.942   0.599  -4.805  0.00  0.00    -0.197 NA
ATOM     18  H   LIG d   1       2.750   1.093  -1.707  0.00  0.00     0.042 H 
ATOM     19  H   LIG d   1       3.784   2.387  -2.360  0.00  0.00     0.042 H 
ENDBRANCH  12  15
ENDBRANCH   9  12
ENDBRANCH   6   9
ENDBRANCH   1   6
TORSDOF 4
ENDMDL
MODEL 8
REMARK VINA RESULT:      -4.0      2.339      2.607
REMARK  4 active torsions:
REMARK  status: ('A' for Active; 'I' for Inactive)
REMARK    1  A    between atoms: C_1  and  C_2 
REMARK    2  A    between atoms: C_1  and  C_6 
REMARK    3  A    between atoms: C_2  and  C_3 
REMARK    4  A    between atoms: C_6  and  C_7 
ROOT
ATOM      1  C   LIG d   1       5.071  -3.056  -5.303  0.00  0.00     0.035 C 
ATOM      2  C   LIG d   1       4.592  -4.447  -5.242  0.00  0.00     0.062 C 
ATOM      3  N   LIG d   1       4.223  -5.520  -5.195  0.00  0.00    -0.197 NA
ATOM      4  H   LIG d   1       5.961  -3.006  -5.931  0.00  0.00     0.042 H 
ATOM      5  H   LIG d   1       4.292  -2.422  -5.726  0.00  0.00     0.042 H 
ENDROOT
BRANCH   1   6
ATOM      6  C   LIG d   1       5.413  -2.572  -3.893  0.00  0.00    -0.040 C 
ATOM      7  H   LIG d   1       6.153  -3.239  -3.449  0.00  0.00     0.028 H 
ATOM      8  H   LIG d   1       5.819  -1.562  -3.943  0.00  0.00     0.028 H 
BRANCH   6   9
ATOM      9  C   LIG d   1       4.147  -2.572  -3.033  0.00  0.00    -0.051 C 
ATOM     10  H   LIG d   1       3.270  -2.620  -3.679  0.00  0.00     0.027 H 
ATOM     11  H   LIG d   1       4.158  -3.437  -2.369  0.00  0.00     0.027 H 
BRANCH   9  12
ATOM     12  C   LIG d   1       4.097  -1.290  -2.201  0.00  0.00    -0.040 C 
ATOM     13  H   LIG d   1       3.884  -1.539  -1.161  0.00  0.00     0.028 H 
ATOM     14  H   LIG d   1       5.057  -0.778  -2.262  0.00  0.00     0.028 H 
BRANCH  12  15
ATOM     15  C   LIG d   1       2.996  -0.374  -2.740  0.00  0.00     0.035 C 
ATOM     16  C   LIG d   1       3.555   0.960  -3.011  0.00  0.00     0.062 C 
ATOM     17  N   LIG d   1       3.987   1.989  -3.220  0.00  0.00    -0.197 NA
ATOM     18  H   LIG d   1       2.593  -0.794  -3.663  0.00  0.00     0.042 H 
ATOM     19  H   LIG d   1       2.198  -0.291  -2.001  0.00  0.00     0.042 H 
ENDBRANCH  12  15
ENDBRANCH   9  12
ENDBRANCH   6   9
ENDBRANCH   1   6
TORSDOF 4
ENDMDL
MODEL 9
REMARK VINA RESULT:      -3.8      2.313      3.212
REMARK  4 active torsions:
REMARK  status: ('A' for Active; 'I' for Inactive)
REMARK    1  A    between atoms: C_1  and  C_2 
REMARK    2  A    between atoms: C_1  and  C_6 
REMARK    3  A    between atoms: C_2  and  C_3 
REMARK    4  A    between atoms: C_6  and  C_7 
ROOT
ATOM      1  C   LIG d   1       6.077  -2.293  -3.920  0.00  0.00     0.035 C 
ATOM      2  C   LIG d   1       7.480  -2.740  -3.933  0.00  0.00     0.062 C 
ATOM      3  N   LIG d   1       8.562  -3.085  -3.944  0.00  0.00    -0.197 NA
ATOM      4  H   LIG d   1       5.797  -1.949  -4.916  0.00  0.00     0.042 H 
ATOM      5  H   LIG d   1       5.434  -3.123  -3.628  0.00  0.00     0.042 H 
ENDROOT
BRANCH   1   6
ATOM      6  C   LIG d   1       5.917  -1.146  -2.920  0.00  0.00    -0.040 C 
ATOM      7  H   LIG d   1       6.803  -1.090  -2.287  0.00  0.00     0.028 H 
ATOM      8  H   LIG d   1       5.796  -0.207  -3.459  0.00  0.00     0.028 H 
BRANCH   6   9
ATOM      9  C   LIG d   1       4.684  -1.398  -2.049  0.00  0.00    -0.051 C 
ATOM     10  H   LIG d   1       4.887  -2.220  -1.363  0.00  0.00     0.027 H 
ATOM     11  H   LIG d   1       4.451  -0.498  -1.481  0.00  0.00     0.027 H 
BRANCH   9  12
ATOM     12  C   LIG d   1       3.496  -1.761  -2.942  0.00  0.00    -0.040 C 
ATOM     13  H   LIG d   1       3.856  -2.029  -3.936  0.00  0.00     0.028 H 
ATOM     14  H   LIG d   1       2.960  -2.605  -2.509  0.00  0.00     0.028 H 
BRANCH  12  15
ATOM     15  C   LIG d   1       2.553  -0.560  -3.050  0.00  0.00     0.035 C 
ATOM     16  C   LIG d   1       2.791   0.139  -4.323  0.00  0.00     0.062 C 
ATOM     17  N   LIG d   1       2.974   0.677  -5.306  0.00  0.00    -0.197 NA
ATOM     18  H   LIG d   1       1.519  -0.905  -3.011  0.00  0.00     0.042 H 
ATOM     19  H   LIG d   1       2.739   0.123  -2.220  0.00  0.00     0.042 H 
ENDBRANCH  12  15
ENDBRANCH   9  12
ENDBRANCH   6   9
ENDBRANCH   1   6
TORSDOF 4
ENDMDL
MODEL 10
REMARK VINA RESULT:      -3.8      1.932      2.562
REMARK  4 active torsions:
REMARK  status: ('A' for Active; 'I' for Inactive)
REMARK    1  A    between atoms: C_1  and  C_2 
REMARK    2  A    between atoms: C_1  and  C_6 
REMARK    3  A    between atoms: C_2  and  C_3 
REMARK    4  A    between atoms: C_6  and  C_7 
ROOT
ATOM      1  C   LIG d   1       3.561  -0.608  -6.832  0.00  0.00     0.035 C 
ATOM      2  C   LIG d   1       3.253   0.720  -7.387  0.00  0.00     0.062 C 
ATOM      3  N   LIG d   1       3.015   1.745  -7.816  0.00  0.00    -0.197 NA
ATOM      4  H   LIG d   1       2.687  -1.253  -6.929  0.00  0.00     0.042 H 
ATOM      5  H   LIG d   1       4.397  -1.045  -7.377  0.00  0.00     0.042 H 
ENDROOT
BRANCH   1   6
ATOM      6  C   LIG d   1       3.931  -0.469  -5.354  0.00  0.00    -0.040 C 
ATOM      7  H   LIG d   1       4.181  -1.449  -4.947  0.00  0.00     0.028 H 
ATOM      8  H   LIG d   1       4.790   0.195  -5.255  0.00  0.00     0.028 H 
BRANCH   6   9
ATOM      9  C   LIG d   1       2.745   0.115  -4.584  0.00  0.00    -0.051 C 
ATOM     10  H   LIG d   1       2.938   1.164  -4.359  0.00  0.00     0.027 H 
ATOM     11  H   LIG d   1       1.842   0.033  -5.190  0.00  0.00     0.027 H 
BRANCH   9  12
ATOM     12  C   LIG d   1       2.554  -0.660  -3.278  0.00  0.00    -0.040 C 
ATOM     13  H   LIG d   1       1.957  -0.065  -2.587  0.00  0.00     0.028 H 
ATOM     14  H   LIG d   1       2.043  -1.600  -3.484  0.00  0.00     0.028 H 
BRANCH  12  15
ATOM     15  C   LIG d   1       3.921  -0.948  -2.653  0.00  0.00     0.035 C 
ATOM     16  C   LIG d   1       4.398   0.249  -1.941  0.00  0.00     0.062 C 
ATOM     17  N   LIG d   1       4.766   1.172  -1.393  0.00  0.00    -0.197 NA
ATOM     18  H   LIG d   1       3.831  -1.777  -1.949  0.00  0.00     0.042 H 
ATOM     19  H   LIG d   1       4.630  -1.213  -3.437  0.00  0.00     0.042 H 
ENDBRANCH  12  15
ENDBRANCH   9  12
ENDBRANCH   6   9
ENDBRANCH   1   6
TORSDOF 4
ENDMDL
