MODEL 1
REMARK VINA RESULT:      -5.8      0.000      0.000
REMARK  15 active torsions:
REMARK  status: ('A' for Active; 'I' for Inactive)
REMARK    1  A    between atoms: C_1  and  C_2 
REMARK    2  A    between atoms: C_5  and  O_36 
REMARK    3  A    between atoms: C_7  and  C_33 
REMARK    4  A    between atoms: C_7  and  C_34 
REMARK    5  A    between atoms: C_14  and  N_16 
REMARK       I    between atoms: N_16  and  C_17 
REMARK    6  A    between atoms: C_17  and  C_19 
REMARK    7  A    between atoms: C_19  and  C_20 
REMARK    8  A    between atoms: C_20  and  C_21 
REMARK    9  A    between atoms: C_20  and  C_22 
REMARK   10  A    between atoms: C_20  and  C_23 
REMARK   11  A    between atoms: C_24  and  C_26 
REMARK   12  A    between atoms: C_26  and  C_27 
REMARK       I    between atoms: C_27  and  N_29 
REMARK   13  A    between atoms: N_29  and  C_30 
REMARK   14  A    between atoms: C_30  and  C_31 
REMARK   15  A    between atoms: C_34  and  O_35 
ROOT
ATOM      1  C   LIG d   1       4.279  -1.302  -2.276  0.00  0.00    -0.087 C 
ATOM      2  C   LIG d   1       3.699  -2.322  -2.300  0.00  0.00    -0.118 C 
ATOM      3  H   LIG d   1       3.181  -3.235  -2.322  0.00  0.00     0.123 H 
ENDROOT
BRANCH   1   4
ATOM      4  C   LIG d   1       5.006  -0.022  -2.245  0.00  0.00     0.073 C 
ATOM      5  H   LIG d   1       5.277   0.217  -1.217  0.00  0.00     0.060 H 
ATOM      6  H   LIG d   1       4.370   0.766  -2.647  0.00  0.00     0.060 H 
BRANCH   4   7
ATOM      7  N   LIG d   1       6.221  -0.132  -3.058  0.00  0.00    -0.304 N 
ATOM      8  C   LIG d   1       6.804   0.979  -3.551  0.00  0.00     0.214 C 
ATOM      9  O   LIG d   1       6.323   2.069  -3.322  0.00  0.00    -0.276 OA
ATOM     10  H   LIG d   1       6.605  -1.004  -3.241  0.00  0.00     0.150 HD
BRANCH   8  11
ATOM     11  C   LIG d   1       8.052   0.867  -4.387  0.00  0.00     0.033 C 
ATOM     12  H   LIG d   1       7.906   0.112  -5.159  0.00  0.00     0.036 H 
ATOM     13  H   LIG d   1       8.890   0.578  -3.752  0.00  0.00     0.036 H 
BRANCH  11  14
ATOM     14  C   LIG d   1       8.351   2.217  -5.041  0.00  0.00     0.016 C 
ATOM     15  C   LIG d   1       9.784   2.645  -4.699  0.00  0.00    -0.019 C 
ATOM     16  C   LIG d   1      10.167   3.894  -5.498  0.00  0.00    -0.021 C 
ATOM     17  C   LIG d   1       9.828   2.946  -3.197  0.00  0.00    -0.044 C 
ATOM     18  C   LIG d   1      11.536   4.412  -5.044  0.00  0.00     0.021 C 
ATOM     19  H   LIG d   1       9.412   4.668  -5.363  0.00  0.00     0.032 H 
ATOM     20  C   LIG d   1      10.278   3.519  -6.988  0.00  0.00    -0.016 C 
ATOM     21  C   LIG d   1      11.517   4.726  -3.550  0.00  0.00     0.063 C 
ATOM     22  C   LIG d   1      11.198   3.440  -2.781  0.00  0.00    -0.026 C 
ATOM     23  H   LIG d   1      10.755   5.476  -3.343  0.00  0.00     0.060 H 
ATOM     24  H   LIG d   1      11.940   2.678  -3.017  0.00  0.00     0.029 H 
ATOM     25  H   LIG d   1      11.207   3.642  -1.709  0.00  0.00     0.029 H 
ATOM     26  C   LIG d   1       9.097   2.700  -7.373  0.00  0.00     0.015 A 
ATOM     27  H   LIG d   1      11.189   2.945  -7.153  0.00  0.00     0.032 H 
ATOM     28  H   LIG d   1      10.304   4.427  -7.591  0.00  0.00     0.032 H 
ATOM     29  S   LIG d   1       8.499   2.267  -8.985  0.00  0.00    -0.057 SA
ATOM     30  C   LIG d   1       8.205   2.093  -6.550  0.00  0.00     0.058 A 
ATOM     31  C   LIG d   1       7.134   1.327  -8.459  0.00  0.00     0.165 A 
ATOM     32  N   LIG d   1       7.231   1.410  -7.148  0.00  0.00    -0.229 NA
ATOM     33  H   LIG d   1       9.098   3.719  -2.962  0.00  0.00     0.027 H 
ATOM     34  H   LIG d   1       9.583   2.040  -2.641  0.00  0.00     0.027 H 
ATOM     35  H   LIG d   1       7.650   2.964  -4.669  0.00  0.00     0.037 H 
BRANCH  15  36
ATOM     36  C   LIG d   1      10.751   1.508  -5.031  0.00  0.00    -0.059 C 
ATOM     37  H   LIG d   1      11.770   1.894  -5.061  0.00  0.00     0.024 H 
ATOM     38  H   LIG d   1      10.678   0.734  -4.266  0.00  0.00     0.024 H 
ATOM     39  H   LIG d   1      10.495   1.084  -6.002  0.00  0.00     0.024 H 
ENDBRANCH  15  36
BRANCH  18  40
ATOM     40  C   LIG d   1      11.878   5.683  -5.823  0.00  0.00    -0.055 C 
ATOM     41  H   LIG d   1      12.240   6.447  -5.134  0.00  0.00     0.024 H 
ATOM     42  H   LIG d   1      12.652   5.461  -6.559  0.00  0.00     0.024 H 
ATOM     43  H   LIG d   1      10.987   6.048  -6.334  0.00  0.00     0.024 H 
ENDBRANCH  18  40
BRANCH  18  44
ATOM     44  C   LIG d   1      12.598   3.346  -5.321  0.00  0.00     0.052 C 
ATOM     45  H   LIG d   1      12.763   2.755  -4.421  0.00  0.00     0.056 H 
ATOM     46  H   LIG d   1      12.257   2.696  -6.127  0.00  0.00     0.056 H 
BRANCH  44  47
ATOM     47  O   LIG d   1      13.820   3.980  -5.706  0.00  0.00    -0.394 OA
ATOM     48  H   LIG d   1      13.791   4.946  -5.666  0.00  0.00     0.209 HD
ENDBRANCH  44  47
ENDBRANCH  18  44
BRANCH  21  49
ATOM     49  O   LIG d   1      12.797   5.219  -3.148  0.00  0.00    -0.391 OA
ATOM     50  H   LIG d   1      13.525   4.605  -3.317  0.00  0.00     0.210 HD
ENDBRANCH  21  49
BRANCH  31  51
ATOM     51  N   LIG d   1       6.185   0.660  -9.224  0.00  0.00    -0.265 N 
ATOM     52  C   LIG d   1       5.126   1.331  -9.720  0.00  0.00     0.219 C 
ATOM     53  O   LIG d   1       5.001   2.516  -9.498  0.00  0.00    -0.275 OA
ATOM     54  H   LIG d   1       6.285  -0.288  -9.401  0.00  0.00     0.157 HD
BRANCH  52  55
ATOM     55  C   LIG d   1       4.097   0.606 -10.549  0.00  0.00     0.029 C 
ATOM     56  H   LIG d   1       3.581   1.321 -11.192  0.00  0.00     0.036 H 
ATOM     57  H   LIG d   1       4.590  -0.146 -11.165  0.00  0.00     0.036 H 
BRANCH  55  58
ATOM     58  C   LIG d   1       3.084  -0.073  -9.625  0.00  0.00    -0.029 C 
BRANCH  58  59
ATOM     59  C   LIG d   1       2.693   0.888  -8.501  0.00  0.00    -0.060 C 
ATOM     60  H   LIG d   1       3.593   1.252  -8.005  0.00  0.00     0.024 H 
ATOM     61  H   LIG d   1       2.142   1.731  -8.919  0.00  0.00     0.024 H 
ATOM     62  H   LIG d   1       2.065   0.366  -7.779  0.00  0.00     0.024 H 
ENDBRANCH  58  59
BRANCH  58  63
ATOM     63  C   LIG d   1       1.838  -0.454 -10.427  0.00  0.00    -0.060 C 
ATOM     64  H   LIG d   1       1.976  -0.170 -11.470  0.00  0.00     0.024 H 
ATOM     65  H   LIG d   1       1.678  -1.531 -10.362  0.00  0.00     0.024 H 
ATOM     66  H   LIG d   1       0.971   0.067 -10.021  0.00  0.00     0.024 H 
ENDBRANCH  58  63
BRANCH  58  67
ATOM     67  C   LIG d   1       3.709  -1.334  -9.024  0.00  0.00    -0.060 C 
ATOM     68  H   LIG d   1       2.921  -1.982  -8.641  0.00  0.00     0.024 H 
ATOM     69  H   LIG d   1       4.273  -1.862  -9.794  0.00  0.00     0.024 H 
ATOM     70  H   LIG d   1       4.379  -1.055  -8.211  0.00  0.00     0.024 H 
ENDBRANCH  58  67
ENDBRANCH  55  58
ENDBRANCH  52  55
ENDBRANCH  31  51
ENDBRANCH  11  14
ENDBRANCH   8  11
ENDBRANCH   4   7
ENDBRANCH   1   4
TORSDOF 15
ENDMDL
MODEL 2
REMARK VINA RESULT:      -5.8      3.332      5.874
REMARK  15 active torsions:
REMARK  status: ('A' for Active; 'I' for Inactive)
REMARK    1  A    between atoms: C_1  and  C_2 
REMARK    2  A    between atoms: C_5  and  O_36 
REMARK    3  A    between atoms: C_7  and  C_33 
REMARK    4  A    between atoms: C_7  and  C_34 
REMARK    5  A    between atoms: C_14  and  N_16 
REMARK       I    between atoms: N_16  and  C_17 
REMARK    6  A    between atoms: C_17  and  C_19 
REMARK    7  A    between atoms: C_19  and  C_20 
REMARK    8  A    between atoms: C_20  and  C_21 
REMARK    9  A    between atoms: C_20  and  C_22 
REMARK   10  A    between atoms: C_20  and  C_23 
REMARK   11  A    between atoms: C_24  and  C_26 
REMARK   12  A    between atoms: C_26  and  C_27 
REMARK       I    between atoms: C_27  and  N_29 
REMARK   13  A    between atoms: N_29  and  C_30 
REMARK   14  A    between atoms: C_30  and  C_31 
REMARK   15  A    between atoms: C_34  and  O_35 
ROOT
ATOM      1  C   LIG d   1      11.728   7.374   0.287  0.00  0.00    -0.087 C 
ATOM      2  C   LIG d   1      12.550   8.207   0.195  0.00  0.00    -0.118 C 
ATOM      3  H   LIG d   1      13.286   8.952   0.114  0.00  0.00     0.123 H 
ENDROOT
BRANCH   1   4
ATOM      4  C   LIG d   1      10.697   6.330   0.402  0.00  0.00     0.073 C 
ATOM      5  H   LIG d   1       9.718   6.762   0.196  0.00  0.00     0.060 H 
ATOM      6  H   LIG d   1      10.709   5.917   1.410  0.00  0.00     0.060 H 
BRANCH   4   7
ATOM      7  N   LIG d   1      10.973   5.264  -0.566  0.00  0.00    -0.304 N 
ATOM      8  C   LIG d   1      10.346   5.258  -1.758  0.00  0.00     0.214 C 
ATOM      9  O   LIG d   1       9.554   6.135  -2.032  0.00  0.00    -0.276 OA
ATOM     10  H   LIG d   1      11.606   4.562  -0.347  0.00  0.00     0.150 HD
BRANCH   8  11
ATOM     11  C   LIG d   1      10.628   4.162  -2.753  0.00  0.00     0.033 C 
ATOM     12  H   LIG d   1      10.312   3.205  -2.339  0.00  0.00     0.036 H 
ATOM     13  H   LIG d   1      11.697   4.130  -2.965  0.00  0.00     0.036 H 
BRANCH  11  14
ATOM     14  C   LIG d   1       9.861   4.437  -4.048  0.00  0.00     0.016 C 
ATOM     15  C   LIG d   1      10.854   4.748  -5.175  0.00  0.00    -0.019 C 
ATOM     16  C   LIG d   1      10.120   4.837  -6.515  0.00  0.00    -0.021 C 
ATOM     17  C   LIG d   1      11.516   6.091  -4.846  0.00  0.00    -0.044 C 
ATOM     18  C   LIG d   1      11.082   5.300  -7.614  0.00  0.00     0.021 C 
ATOM     19  H   LIG d   1       9.283   5.530  -6.436  0.00  0.00     0.032 H 
ATOM     20  C   LIG d   1       9.610   3.435  -6.900  0.00  0.00    -0.016 C 
ATOM     21  C   LIG d   1      11.689   6.655  -7.254  0.00  0.00     0.063 C 
ATOM     22  C   LIG d   1      12.470   6.511  -5.944  0.00  0.00    -0.026 C 
ATOM     23  H   LIG d   1      10.895   7.390  -7.129  0.00  0.00     0.060 H 
ATOM     24  H   LIG d   1      13.241   5.748  -6.059  0.00  0.00     0.029 H 
ATOM     25  H   LIG d   1      12.933   7.464  -5.687  0.00  0.00     0.029 H 
ATOM     26  C   LIG d   1       8.961   2.812  -5.714  0.00  0.00     0.015 A 
ATOM     27  H   LIG d   1      10.448   2.817  -7.222  0.00  0.00     0.032 H 
ATOM     28  H   LIG d   1       8.886   3.520  -7.709  0.00  0.00     0.032 H 
ATOM     29  S   LIG d   1       7.911   1.387  -5.620  0.00  0.00    -0.057 SA
ATOM     30  C   LIG d   1       9.039   3.213  -4.420  0.00  0.00     0.058 A 
ATOM     31  C   LIG d   1       7.657   1.424  -3.900  0.00  0.00     0.165 A 
ATOM     32  N   LIG d   1       8.362   2.477  -3.540  0.00  0.00    -0.229 NA
ATOM     33  H   LIG d   1      10.747   6.858  -4.747  0.00  0.00     0.027 H 
ATOM     34  H   LIG d   1      12.059   6.004  -3.904  0.00  0.00     0.027 H 
ATOM     35  H   LIG d   1       9.197   5.289  -3.902  0.00  0.00     0.037 H 
BRANCH  15  36
ATOM     36  C   LIG d   1      11.914   3.648  -5.242  0.00  0.00    -0.059 C 
ATOM     37  H   LIG d   1      11.522   2.800  -5.803  0.00  0.00     0.024 H 
ATOM     38  H   LIG d   1      12.805   4.032  -5.739  0.00  0.00     0.024 H 
ATOM     39  H   LIG d   1      12.171   3.328  -4.233  0.00  0.00     0.024 H 
ENDBRANCH  15  36
BRANCH  18  40
ATOM     40  C   LIG d   1      10.319   5.424  -8.935  0.00  0.00    -0.055 C 
ATOM     41  H   LIG d   1      10.897   6.029  -9.634  0.00  0.00     0.024 H 
ATOM     42  H   LIG d   1      10.161   4.431  -9.357  0.00  0.00     0.024 H 
ATOM     43  H   LIG d   1       9.355   5.898  -8.754  0.00  0.00     0.024 H 
ENDBRANCH  18  40
BRANCH  18  44
ATOM     44  C   LIG d   1      12.204   4.272  -7.772  0.00  0.00     0.052 C 
ATOM     45  H   LIG d   1      13.037   4.541  -7.123  0.00  0.00     0.056 H 
ATOM     46  H   LIG d   1      11.833   3.285  -7.497  0.00  0.00     0.056 H 
BRANCH  44  47
ATOM     47  O   LIG d   1      12.645   4.253  -9.131  0.00  0.00    -0.394 OA
ATOM     48  H   LIG d   1      12.334   3.489  -9.635  0.00  0.00     0.209 HD
ENDBRANCH  44  47
ENDBRANCH  18  44
BRANCH  21  49
ATOM     49  O   LIG d   1      12.574   7.076  -8.295  0.00  0.00    -0.391 OA
ATOM     50  H   LIG d   1      12.266   7.852  -8.782  0.00  0.00     0.210 HD
ENDBRANCH  21  49
BRANCH  31  51
ATOM     51  N   LIG d   1       6.905   0.565  -3.109  0.00  0.00    -0.265 N 
ATOM     52  C   LIG d   1       5.603   0.826  -2.878  0.00  0.00     0.219 C 
ATOM     53  O   LIG d   1       5.088   1.811  -3.362  0.00  0.00    -0.275 OA
ATOM     54  H   LIG d   1       7.317  -0.224  -2.722  0.00  0.00     0.157 HD
BRANCH  52  55
ATOM     55  C   LIG d   1       4.788  -0.106  -2.019  0.00  0.00     0.029 C 
ATOM     56  H   LIG d   1       5.456  -0.718  -1.412  0.00  0.00     0.036 H 
ATOM     57  H   LIG d   1       4.135   0.476  -1.369  0.00  0.00     0.036 H 
BRANCH  55  58
ATOM     58  C   LIG d   1       3.939  -1.012  -2.914  0.00  0.00    -0.029 C 
BRANCH  58  59
ATOM     59  C   LIG d   1       4.568  -1.088  -4.307  0.00  0.00    -0.060 C 
ATOM     60  H   LIG d   1       4.935  -2.098  -4.485  0.00  0.00     0.024 H 
ATOM     61  H   LIG d   1       3.819  -0.835  -5.058  0.00  0.00     0.024 H 
ATOM     62  H   LIG d   1       5.397  -0.383  -4.370  0.00  0.00     0.024 H 
ENDBRANCH  58  59
BRANCH  58  63
ATOM     63  C   LIG d   1       3.877  -2.414  -2.306  0.00  0.00    -0.060 C 
ATOM     64  H   LIG d   1       4.287  -2.392  -1.297  0.00  0.00     0.024 H 
ATOM     65  H   LIG d   1       2.839  -2.749  -2.269  0.00  0.00     0.024 H 
ATOM     66  H   LIG d   1       4.458  -3.103  -2.919  0.00  0.00     0.024 H 
ENDBRANCH  58  63
BRANCH  58  67
ATOM     67  C   LIG d   1       2.525  -0.440  -3.023  0.00  0.00    -0.060 C 
ATOM     68  H   LIG d   1       2.449   0.461  -2.414  0.00  0.00     0.024 H 
ATOM     69  H   LIG d   1       2.312  -0.194  -4.064  0.00  0.00     0.024 H 
ATOM     70  H   LIG d   1       1.806  -1.179  -2.671  0.00  0.00     0.024 H 
ENDBRANCH  58  67
ENDBRANCH  55  58
ENDBRANCH  52  55
ENDBRANCH  31  51
ENDBRANCH  11  14
ENDBRANCH   8  11
ENDBRANCH   4   7
ENDBRANCH   1   4
TORSDOF 15
ENDMDL
MODEL 3
REMARK VINA RESULT:      -5.7      4.293      5.584
REMARK  15 active torsions:
REMARK  status: ('A' for Active; 'I' for Inactive)
REMARK    1  A    between atoms: C_1  and  C_2 
REMARK    2  A    between atoms: C_5  and  O_36 
REMARK    3  A    between atoms: C_7  and  C_33 
REMARK    4  A    between atoms: C_7  and  C_34 
REMARK    5  A    between atoms: C_14  and  N_16 
REMARK       I    between atoms: N_16  and  C_17 
REMARK    6  A    between atoms: C_17  and  C_19 
REMARK    7  A    between atoms: C_19  and  C_20 
REMARK    8  A    between atoms: C_20  and  C_21 
REMARK    9  A    between atoms: C_20  and  C_22 
REMARK   10  A    between atoms: C_20  and  C_23 
REMARK   11  A    between atoms: C_24  and  C_26 
REMARK   12  A    between atoms: C_26  and  C_27 
REMARK       I    between atoms: C_27  and  N_29 
REMARK   13  A    between atoms: N_29  and  C_30 
REMARK   14  A    between atoms: C_30  and  C_31 
REMARK   15  A    between atoms: C_34  and  O_35 
ROOT
ATOM      1  C   LIG d   1       4.542  -0.254  -2.016  0.00  0.00    -0.087 C 
ATOM      2  C   LIG d   1       4.581   0.889  -1.750  0.00  0.00    -0.118 C 
ATOM      3  H   LIG d   1       4.617   1.912  -1.512  0.00  0.00     0.123 H 
ENDROOT
BRANCH   1   4
ATOM      4  C   LIG d   1       4.492  -1.686  -2.349  0.00  0.00     0.073 C 
ATOM      5  H   LIG d   1       3.560  -1.906  -2.871  0.00  0.00     0.060 H 
ATOM      6  H   LIG d   1       4.543  -2.274  -1.432  0.00  0.00     0.060 H 
BRANCH   4   7
ATOM      7  N   LIG d   1       5.626  -2.026  -3.211  0.00  0.00    -0.304 N 
ATOM      8  C   LIG d   1       5.507  -3.010  -4.124  0.00  0.00     0.214 C 
ATOM      9  O   LIG d   1       4.460  -3.614  -4.232  0.00  0.00    -0.276 OA
ATOM     10  H   LIG d   1       6.464  -1.544  -3.125  0.00  0.00     0.150 HD
BRANCH   8  11
ATOM     11  C   LIG d   1       6.674  -3.361  -5.011  0.00  0.00     0.033 C 
ATOM     12  H   LIG d   1       6.456  -3.056  -6.035  0.00  0.00     0.036 H 
ATOM     13  H   LIG d   1       6.842  -4.438  -4.981  0.00  0.00     0.036 H 
BRANCH  11  14
ATOM     14  C   LIG d   1       7.927  -2.635  -4.518  0.00  0.00     0.016 C 
ATOM     15  C   LIG d   1       9.120  -3.600  -4.542  0.00  0.00    -0.019 C 
ATOM     16  C   LIG d   1      10.415  -2.845  -4.236  0.00  0.00    -0.021 C 
ATOM     17  C   LIG d   1       8.868  -4.670  -3.474  0.00  0.00    -0.044 C 
ATOM     18  C   LIG d   1      11.583  -3.829  -4.107  0.00  0.00     0.021 C 
ATOM     19  H   LIG d   1      10.305  -2.274  -3.314  0.00  0.00     0.032 H 
ATOM     20  C   LIG d   1      10.731  -1.897  -5.409  0.00  0.00    -0.016 C 
ATOM     21  C   LIG d   1      11.297  -4.853  -3.009  0.00  0.00     0.063 C 
ATOM     22  C   LIG d   1      10.033  -5.633  -3.383  0.00  0.00    -0.026 C 
ATOM     23  H   LIG d   1      11.144  -4.339  -2.061  0.00  0.00     0.060 H 
ATOM     24  H   LIG d   1      10.173  -6.117  -4.350  0.00  0.00     0.029 H 
ATOM     25  H   LIG d   1       9.829  -6.387  -2.622  0.00  0.00     0.029 H 
ATOM     26  C   LIG d   1       9.492  -1.164  -5.788  0.00  0.00     0.015 A 
ATOM     27  H   LIG d   1      11.086  -2.476  -6.261  0.00  0.00     0.032 H 
ATOM     28  H   LIG d   1      11.497  -1.184  -5.105  0.00  0.00     0.032 H 
ATOM     29  S   LIG d   1       9.296   0.271  -6.810  0.00  0.00    -0.057 SA
ATOM     30  C   LIG d   1       8.216  -1.448  -5.423  0.00  0.00     0.058 A 
ATOM     31  C   LIG d   1       7.565   0.387  -6.683  0.00  0.00     0.165 A 
ATOM     32  N   LIG d   1       7.277  -0.634  -5.903  0.00  0.00    -0.229 NA
ATOM     33  H   LIG d   1       8.744  -4.189  -2.503  0.00  0.00     0.027 H 
ATOM     34  H   LIG d   1       7.959  -5.219  -3.720  0.00  0.00     0.027 H 
ATOM     35  H   LIG d   1       7.764  -2.283  -3.498  0.00  0.00     0.037 H 
BRANCH  15  36
ATOM     36  C   LIG d   1       9.221  -4.255  -5.921  0.00  0.00    -0.059 C 
ATOM     37  H   LIG d   1       8.333  -4.011  -6.504  0.00  0.00     0.024 H 
ATOM     38  H   LIG d   1      10.108  -3.883  -6.435  0.00  0.00     0.024 H 
ATOM     39  H   LIG d   1       9.294  -5.335  -5.805  0.00  0.00     0.024 H 
ENDBRANCH  15  36
BRANCH  18  40
ATOM     40  C   LIG d   1      12.858  -3.058  -3.758  0.00  0.00    -0.055 C 
ATOM     41  H   LIG d   1      12.593  -2.098  -3.316  0.00  0.00     0.024 H 
ATOM     42  H   LIG d   1      13.448  -3.636  -3.047  0.00  0.00     0.024 H 
ATOM     43  H   LIG d   1      13.442  -2.892  -4.664  0.00  0.00     0.024 H 
ENDBRANCH  18  40
BRANCH  18  44
ATOM     44  C   LIG d   1      11.780  -4.559  -5.437  0.00  0.00     0.052 C 
ATOM     45  H   LIG d   1      11.177  -5.468  -5.445  0.00  0.00     0.056 H 
ATOM     46  H   LIG d   1      11.471  -3.910  -6.256  0.00  0.00     0.056 H 
BRANCH  44  47
ATOM     47  O   LIG d   1      13.159  -4.900  -5.593  0.00  0.00    -0.394 OA
ATOM     48  H   LIG d   1      13.768  -4.274  -5.179  0.00  0.00     0.209 HD
ENDBRANCH  44  47
ENDBRANCH  18  44
BRANCH  21  49
ATOM     49  O   LIG d   1      12.400  -5.754  -2.895  0.00  0.00    -0.391 OA
ATOM     50  H   LIG d   1      12.142  -6.671  -2.729  0.00  0.00     0.210 HD
ENDBRANCH  21  49
BRANCH  31  51
ATOM     51  N   LIG d   1       6.708   1.317  -7.257  0.00  0.00    -0.265 N 
ATOM     52  C   LIG d   1       6.342   1.191  -8.548  0.00  0.00     0.219 C 
ATOM     53  O   LIG d   1       6.761   0.264  -9.208  0.00  0.00    -0.275 OA
ATOM     54  H   LIG d   1       6.373   2.059  -6.728  0.00  0.00     0.157 HD
BRANCH  52  55
ATOM     55  C   LIG d   1       5.413   2.201  -9.170  0.00  0.00     0.029 C 
ATOM     56  H   LIG d   1       5.321   3.064  -8.511  0.00  0.00     0.036 H 
ATOM     57  H   LIG d   1       5.814   2.519 -10.133  0.00  0.00     0.036 H 
BRANCH  55  58
ATOM     58  C   LIG d   1       4.035   1.567  -9.375  0.00  0.00    -0.029 C 
BRANCH  58  59
ATOM     59  C   LIG d   1       3.824   1.274 -10.862  0.00  0.00    -0.060 C 
ATOM     60  H   LIG d   1       4.750   1.463 -11.405  0.00  0.00     0.024 H 
ATOM     61  H   LIG d   1       3.534   0.231 -10.989  0.00  0.00     0.024 H 
ATOM     62  H   LIG d   1       3.036   1.920 -11.250  0.00  0.00     0.024 H 
ENDBRANCH  58  59
BRANCH  58  63
ATOM     63  C   LIG d   1       3.950   0.263  -8.581  0.00  0.00    -0.060 C 
ATOM     64  H   LIG d   1       2.976  -0.198  -8.741  0.00  0.00     0.024 H 
ATOM     65  H   LIG d   1       4.734  -0.418  -8.915  0.00  0.00     0.024 H 
ATOM     66  H   LIG d   1       4.082   0.474  -7.520  0.00  0.00     0.024 H 
ENDBRANCH  58  63
BRANCH  58  67
ATOM     67  C   LIG d   1       2.954   2.533  -8.887  0.00  0.00    -0.060 C 
ATOM     68  H   LIG d   1       1.970   2.123  -9.116  0.00  0.00     0.024 H 
ATOM     69  H   LIG d   1       3.049   2.670  -7.809  0.00  0.00     0.024 H 
ATOM     70  H   LIG d   1       3.073   3.495  -9.386  0.00  0.00     0.024 H 
ENDBRANCH  58  67
ENDBRANCH  55  58
ENDBRANCH  52  55
ENDBRANCH  31  51
ENDBRANCH  11  14
ENDBRANCH   8  11
ENDBRANCH   4   7
ENDBRANCH   1   4
TORSDOF 15
ENDMDL
MODEL 4
REMARK VINA RESULT:      -5.6      2.411      8.380
REMARK  15 active torsions:
REMARK  status: ('A' for Active; 'I' for Inactive)
REMARK    1  A    between atoms: C_1  and  C_2 
REMARK    2  A    between atoms: C_5  and  O_36 
REMARK    3  A    between atoms: C_7  and  C_33 
REMARK    4  A    between atoms: C_7  and  C_34 
REMARK    5  A    between atoms: C_14  and  N_16 
REMARK       I    between atoms: N_16  and  C_17 
REMARK    6  A    between atoms: C_17  and  C_19 
REMARK    7  A    between atoms: C_19  and  C_20 
REMARK    8  A    between atoms: C_20  and  C_21 
REMARK    9  A    between atoms: C_20  and  C_22 
REMARK   10  A    between atoms: C_20  and  C_23 
REMARK   11  A    between atoms: C_24  and  C_26 
REMARK   12  A    between atoms: C_26  and  C_27 
REMARK       I    between atoms: C_27  and  N_29 
REMARK   13  A    between atoms: N_29  and  C_30 
REMARK   14  A    between atoms: C_30  and  C_31 
REMARK   15  A    between atoms: C_34  and  O_35 
ROOT
ATOM      1  C   LIG d   1       3.582  -1.174  -2.618  0.00  0.00    -0.087 C 
ATOM      2  C   LIG d   1       3.924  -2.285  -2.453  0.00  0.00    -0.118 C 
ATOM      3  H   LIG d   1       4.230  -3.279  -2.305  0.00  0.00     0.123 H 
ENDROOT
BRANCH   1   4
ATOM      4  C   LIG d   1       3.154   0.219  -2.825  0.00  0.00     0.073 C 
ATOM      5  H   LIG d   1       3.644   0.862  -2.094  0.00  0.00     0.060 H 
ATOM      6  H   LIG d   1       2.073   0.288  -2.704  0.00  0.00     0.060 H 
BRANCH   4   7
ATOM      7  N   LIG d   1       3.523   0.647  -4.177  0.00  0.00    -0.304 N 
ATOM      8  C   LIG d   1       2.670   0.451  -5.202  0.00  0.00     0.214 C 
ATOM      9  O   LIG d   1       1.597  -0.078  -5.005  0.00  0.00    -0.276 OA
ATOM     10  H   LIG d   1       4.382   1.070  -4.335  0.00  0.00     0.150 HD
BRANCH   8  11
ATOM     11  C   LIG d   1       3.049   0.891  -6.593  0.00  0.00     0.033 C 
ATOM     12  H   LIG d   1       3.733   1.738  -6.532  0.00  0.00     0.036 H 
ATOM     13  H   LIG d   1       2.153   1.186  -7.137  0.00  0.00     0.036 H 
BRANCH  11  14
ATOM     14  C   LIG d   1       3.732  -0.265  -7.325  0.00  0.00     0.016 C 
ATOM     15  C   LIG d   1       3.372  -0.211  -8.816  0.00  0.00    -0.019 C 
ATOM     16  C   LIG d   1       4.194  -1.240  -9.595  0.00  0.00    -0.021 C 
ATOM     17  C   LIG d   1       1.878  -0.528  -8.939  0.00  0.00    -0.044 C 
ATOM     18  C   LIG d   1       3.726  -1.295 -11.054  0.00  0.00     0.021 C 
ATOM     19  H   LIG d   1       4.096  -2.222  -9.135  0.00  0.00     0.032 H 
ATOM     20  C   LIG d   1       5.672  -0.803  -9.595  0.00  0.00    -0.016 C 
ATOM     21  C   LIG d   1       2.241  -1.645 -11.123  0.00  0.00     0.063 C 
ATOM     22  C   LIG d   1       1.446  -0.560 -10.390  0.00  0.00    -0.026 C 
ATOM     23  H   LIG d   1       2.070  -2.609 -10.646  0.00  0.00     0.060 H 
ATOM     24  H   LIG d   1       1.647   0.411 -10.845  0.00  0.00     0.029 H 
ATOM     25  H   LIG d   1       0.380  -0.781 -10.453  0.00  0.00     0.029 H 
ATOM     26  C   LIG d   1       6.060  -0.404  -8.215  0.00  0.00     0.015 A 
ATOM     27  H   LIG d   1       5.803   0.043 -10.269  0.00  0.00     0.032 H 
ATOM     28  H   LIG d   1       6.297  -1.633  -9.923  0.00  0.00     0.032 H 
ATOM     29  S   LIG d   1       7.672  -0.140  -7.525  0.00  0.00    -0.057 SA
ATOM     30  C   LIG d   1       5.240  -0.149  -7.163  0.00  0.00     0.058 A 
ATOM     31  C   LIG d   1       7.150   0.284  -5.922  0.00  0.00     0.165 A 
ATOM     32  N   LIG d   1       5.840   0.196  -6.026  0.00  0.00    -0.229 NA
ATOM     33  H   LIG d   1       1.678  -1.505  -8.500  0.00  0.00     0.027 H 
ATOM     34  H   LIG d   1       1.303   0.229  -8.404  0.00  0.00     0.027 H 
ATOM     35  H   LIG d   1       3.394  -1.212  -6.903  0.00  0.00     0.037 H 
BRANCH  15  36
ATOM     36  C   LIG d   1       3.654   1.190  -9.360  0.00  0.00    -0.059 C 
ATOM     37  H   LIG d   1       3.336   1.934  -8.630  0.00  0.00     0.024 H 
ATOM     38  H   LIG d   1       4.723   1.298  -9.548  0.00  0.00     0.024 H 
ATOM     39  H   LIG d   1       3.105   1.336 -10.289  0.00  0.00     0.024 H 
ENDBRANCH  15  36
BRANCH  18  40
ATOM     40  C   LIG d   1       4.531  -2.359 -11.803  0.00  0.00    -0.055 C 
ATOM     41  H   LIG d   1       3.985  -3.303 -11.793  0.00  0.00     0.024 H 
ATOM     42  H   LIG d   1       4.685  -2.039 -12.833  0.00  0.00     0.024 H 
ATOM     43  H   LIG d   1       5.497  -2.494 -11.317  0.00  0.00     0.024 H 
ENDBRANCH  18  40
BRANCH  18  44
ATOM     44  C   LIG d   1       3.953   0.068 -11.710  0.00  0.00     0.052 C 
ATOM     45  H   LIG d   1       3.022   0.634 -11.702  0.00  0.00     0.056 H 
ATOM     46  H   LIG d   1       4.717   0.614 -11.157  0.00  0.00     0.056 H 
BRANCH  44  47
ATOM     47  O   LIG d   1       4.386  -0.120 -13.060  0.00  0.00    -0.394 OA
ATOM     48  H   LIG d   1       5.038  -0.825 -13.169  0.00  0.00     0.209 HD
ENDBRANCH  44  47
ENDBRANCH  18  44
BRANCH  21  49
ATOM     49  O   LIG d   1       1.825  -1.703 -12.489  0.00  0.00    -0.391 OA
ATOM     50  H   LIG d   1       2.229  -2.423 -12.992  0.00  0.00     0.210 HD
ENDBRANCH  21  49
BRANCH  31  51
ATOM     51  N   LIG d   1       7.918   0.627  -4.816  0.00  0.00    -0.265 N 
ATOM     52  C   LIG d   1       8.300   1.906  -4.631  0.00  0.00     0.219 C 
ATOM     53  O   LIG d   1       7.972   2.758  -5.429  0.00  0.00    -0.275 OA
ATOM     54  H   LIG d   1       8.180  -0.055  -4.177  0.00  0.00     0.157 HD
BRANCH  52  55
ATOM     55  C   LIG d   1       9.133   2.278  -3.431  0.00  0.00     0.029 C 
ATOM     56  H   LIG d   1       8.699   3.152  -2.944  0.00  0.00     0.036 H 
ATOM     57  H   LIG d   1       9.155   1.443  -2.731  0.00  0.00     0.036 H 
BRANCH  55  58
ATOM     58  C   LIG d   1      10.559   2.603  -3.882  0.00  0.00    -0.029 C 
BRANCH  58  59
ATOM     59  C   LIG d   1      10.513   3.592  -5.049  0.00  0.00    -0.060 C 
ATOM     60  H   LIG d   1      11.452   3.549  -5.599  0.00  0.00     0.024 H 
ATOM     61  H   LIG d   1       9.689   3.332  -5.713  0.00  0.00     0.024 H 
ATOM     62  H   LIG d   1      10.364   4.601  -4.663  0.00  0.00     0.024 H 
ENDBRANCH  58  59
BRANCH  58  63
ATOM     63  C   LIG d   1      11.333   3.223  -2.718  0.00  0.00    -0.060 C 
ATOM     64  H   LIG d   1      10.975   4.237  -2.542  0.00  0.00     0.024 H 
ATOM     65  H   LIG d   1      11.182   2.623  -1.820  0.00  0.00     0.024 H 
ATOM     66  H   LIG d   1      12.395   3.250  -2.962  0.00  0.00     0.024 H 
ENDBRANCH  58  63
BRANCH  58  67
ATOM     67  C   LIG d   1      11.256   1.317  -4.332  0.00  0.00    -0.060 C 
ATOM     68  H   LIG d   1      12.336   1.464  -4.315  0.00  0.00     0.024 H 
ATOM     69  H   LIG d   1      10.989   0.504  -3.655  0.00  0.00     0.024 H 
ATOM     70  H   LIG d   1      10.938   1.066  -5.343  0.00  0.00     0.024 H 
ENDBRANCH  58  67
ENDBRANCH  55  58
ENDBRANCH  52  55
ENDBRANCH  31  51
ENDBRANCH  11  14
ENDBRANCH   8  11
ENDBRANCH   4   7
ENDBRANCH   1   4
TORSDOF 15
ENDMDL
MODEL 5
REMARK VINA RESULT:      -5.4      5.628      9.387
REMARK  15 active torsions:
REMARK  status: ('A' for Active; 'I' for Inactive)
REMARK    1  A    between atoms: C_1  and  C_2 
REMARK    2  A    between atoms: C_5  and  O_36 
REMARK    3  A    between atoms: C_7  and  C_33 
REMARK    4  A    between atoms: C_7  and  C_34 
REMARK    5  A    between atoms: C_14  and  N_16 
REMARK       I    between atoms: N_16  and  C_17 
REMARK    6  A    between atoms: C_17  and  C_19 
REMARK    7  A    between atoms: C_19  and  C_20 
REMARK    8  A    between atoms: C_20  and  C_21 
REMARK    9  A    between atoms: C_20  and  C_22 
REMARK   10  A    between atoms: C_20  and  C_23 
REMARK   11  A    between atoms: C_24  and  C_26 
REMARK   12  A    between atoms: C_26  and  C_27 
REMARK       I    between atoms: C_27  and  N_29 
REMARK   13  A    between atoms: N_29  and  C_30 
REMARK   14  A    between atoms: C_30  and  C_31 
REMARK   15  A    between atoms: C_34  and  O_35 
ROOT
ATOM      1  C   LIG d   1       3.716   0.272  -2.378  0.00  0.00    -0.087 C 
ATOM      2  C   LIG d   1       4.458   0.839  -1.667  0.00  0.00    -0.118 C 
ATOM      3  H   LIG d   1       5.122   1.346  -1.030  0.00  0.00     0.123 H 
ENDROOT
BRANCH   1   4
ATOM      4  C   LIG d   1       2.785  -0.439  -3.269  0.00  0.00     0.073 C 
ATOM      5  H   LIG d   1       1.925   0.198  -3.479  0.00  0.00     0.060 H 
ATOM      6  H   LIG d   1       2.450  -1.356  -2.787  0.00  0.00     0.060 H 
BRANCH   4   7
ATOM      7  N   LIG d   1       3.467  -0.768  -4.524  0.00  0.00    -0.304 N 
ATOM      8  C   LIG d   1       3.366   0.060  -5.583  0.00  0.00     0.214 C 
ATOM      9  O   LIG d   1       2.711   1.078  -5.497  0.00  0.00    -0.276 OA
ATOM     10  H   LIG d   1       3.990  -1.582  -4.593  0.00  0.00     0.150 HD
BRANCH   8  11
ATOM     11  C   LIG d   1       4.066  -0.278  -6.874  0.00  0.00     0.033 C 
ATOM     12  H   LIG d   1       5.142  -0.311  -6.705  0.00  0.00     0.036 H 
ATOM     13  H   LIG d   1       3.839   0.483  -7.620  0.00  0.00     0.036 H 
BRANCH  11  14
ATOM     14  C   LIG d   1       3.585  -1.641  -7.374  0.00  0.00     0.016 C 
ATOM     15  C   LIG d   1       3.362  -1.581  -8.890  0.00  0.00    -0.019 C 
ATOM     16  C   LIG d   1       3.067  -2.980  -9.437  0.00  0.00    -0.021 C 
ATOM     17  C   LIG d   1       2.169  -0.653  -9.144  0.00  0.00    -0.044 C 
ATOM     18  C   LIG d   1       2.693  -2.899 -10.921  0.00  0.00     0.021 C 
ATOM     19  H   LIG d   1       2.255  -3.437  -8.872  0.00  0.00     0.032 H 
ATOM     20  C   LIG d   1       4.340  -3.841  -9.321  0.00  0.00    -0.016 C 
ATOM     21  C   LIG d   1       1.481  -1.990 -11.115  0.00  0.00     0.063 C 
ATOM     22  C   LIG d   1       1.836  -0.585 -10.619  0.00  0.00    -0.026 C 
ATOM     23  H   LIG d   1       0.638  -2.377 -10.545  0.00  0.00     0.060 H 
ATOM     24  H   LIG d   1       2.703  -0.213 -11.165  0.00  0.00     0.029 H 
ATOM     25  H   LIG d   1       0.989   0.084 -10.776  0.00  0.00     0.029 H 
ATOM     26  C   LIG d   1       4.928  -3.659  -7.966  0.00  0.00     0.015 A 
ATOM     27  H   LIG d   1       5.061  -3.528 -10.076  0.00  0.00     0.032 H 
ATOM     28  H   LIG d   1       4.085  -4.890  -9.470  0.00  0.00     0.032 H 
ATOM     29  S   LIG d   1       6.168  -4.615  -7.135  0.00  0.00    -0.057 SA
ATOM     30  C   LIG d   1       4.632  -2.697  -7.056  0.00  0.00     0.058 A 
ATOM     31  C   LIG d   1       6.205  -3.684  -5.667  0.00  0.00     0.165 A 
ATOM     32  N   LIG d   1       5.307  -2.752  -5.909  0.00  0.00    -0.229 NA
ATOM     33  H   LIG d   1       1.297  -1.033  -8.612  0.00  0.00     0.027 H 
ATOM     34  H   LIG d   1       2.405   0.347  -8.776  0.00  0.00     0.027 H 
ATOM     35  H   LIG d   1       2.648  -1.899  -6.879  0.00  0.00     0.037 H 
BRANCH  15  36
ATOM     36  C   LIG d   1       4.613  -1.018  -9.569  0.00  0.00    -0.059 C 
ATOM     37  H   LIG d   1       4.649  -1.360 -10.603  0.00  0.00     0.024 H 
ATOM     38  H   LIG d   1       4.578   0.072  -9.547  0.00  0.00     0.024 H 
ATOM     39  H   LIG d   1       5.500  -1.365  -9.041  0.00  0.00     0.024 H 
ENDBRANCH  15  36
BRANCH  18  40
ATOM     40  C   LIG d   1       2.360  -4.301 -11.435  0.00  0.00    -0.055 C 
ATOM     41  H   LIG d   1       3.067  -4.580 -12.216  0.00  0.00     0.024 H 
ATOM     42  H   LIG d   1       2.426  -5.014 -10.613  0.00  0.00     0.024 H 
ATOM     43  H   LIG d   1       1.348  -4.309 -11.841  0.00  0.00     0.024 H 
ENDBRANCH  18  40
BRANCH  18  44
ATOM     44  C   LIG d   1       3.875  -2.337 -11.712  0.00  0.00     0.052 C 
ATOM     45  H   LIG d   1       3.798  -1.251 -11.758  0.00  0.00     0.056 H 
ATOM     46  H   LIG d   1       4.807  -2.615 -11.218  0.00  0.00     0.056 H 
BRANCH  44  47
ATOM     47  O   LIG d   1       3.860  -2.873 -13.037  0.00  0.00    -0.394 OA
ATOM     48  H   LIG d   1       3.596  -2.236 -13.715  0.00  0.00     0.209 HD
ENDBRANCH  44  47
ENDBRANCH  18  44
BRANCH  21  49
ATOM     49  O   LIG d   1       1.139  -1.936 -12.502  0.00  0.00    -0.391 OA
ATOM     50  H   LIG d   1       1.330  -1.086 -12.921  0.00  0.00     0.210 HD
ENDBRANCH  21  49
BRANCH  31  51
ATOM     51  N   LIG d   1       6.983  -3.874  -4.532  0.00  0.00    -0.265 N 
ATOM     52  C   LIG d   1       8.286  -3.527  -4.541  0.00  0.00     0.219 C 
ATOM     53  O   LIG d   1       8.778  -3.048  -5.540  0.00  0.00    -0.275 OA
ATOM     54  H   LIG d   1       6.590  -4.258  -3.733  0.00  0.00     0.157 HD
BRANCH  52  55
ATOM     55  C   LIG d   1       9.130  -3.735  -3.310  0.00  0.00     0.029 C 
ATOM     56  H   LIG d   1       9.899  -2.963  -3.263  0.00  0.00     0.036 H 
ATOM     57  H   LIG d   1       8.500  -3.674  -2.423  0.00  0.00     0.036 H 
BRANCH  55  58
ATOM     58  C   LIG d   1       9.793  -5.112  -3.373  0.00  0.00    -0.029 C 
BRANCH  58  59
ATOM     59  C   LIG d   1       8.959  -6.041  -4.258  0.00  0.00    -0.060 C 
ATOM     60  H   LIG d   1       8.528  -6.834  -3.647  0.00  0.00     0.024 H 
ATOM     61  H   LIG d   1       8.160  -5.471  -4.731  0.00  0.00     0.024 H 
ATOM     62  H   LIG d   1       9.597  -6.479  -5.026  0.00  0.00     0.024 H 
ENDBRANCH  58  59
BRANCH  58  63
ATOM     63  C   LIG d   1      11.199  -4.974  -3.961  0.00  0.00    -0.060 C 
ATOM     64  H   LIG d   1      11.818  -5.805  -3.621  0.00  0.00     0.024 H 
ATOM     65  H   LIG d   1      11.141  -4.986  -5.049  0.00  0.00     0.024 H 
ATOM     66  H   LIG d   1      11.640  -4.034  -3.631  0.00  0.00     0.024 H 
ENDBRANCH  58  63
BRANCH  58  67
ATOM     67  C   LIG d   1       9.885  -5.698  -1.963  0.00  0.00    -0.060 C 
ATOM     68  H   LIG d   1      10.607  -6.514  -1.955  0.00  0.00     0.024 H 
ATOM     69  H   LIG d   1      10.206  -4.921  -1.267  0.00  0.00     0.024 H 
ATOM     70  H   LIG d   1       8.907  -6.073  -1.661  0.00  0.00     0.024 H 
ENDBRANCH  58  67
ENDBRANCH  55  58
ENDBRANCH  52  55
ENDBRANCH  31  51
ENDBRANCH  11  14
ENDBRANCH   8  11
ENDBRANCH   4   7
ENDBRANCH   1   4
TORSDOF 15
ENDMDL
MODEL 6
REMARK VINA RESULT:      -5.3      5.969      9.032
REMARK  15 active torsions:
REMARK  status: ('A' for Active; 'I' for Inactive)
REMARK    1  A    between atoms: C_1  and  C_2 
REMARK    2  A    between atoms: C_5  and  O_36 
REMARK    3  A    between atoms: C_7  and  C_33 
REMARK    4  A    between atoms: C_7  and  C_34 
REMARK    5  A    between atoms: C_14  and  N_16 
REMARK       I    between atoms: N_16  and  C_17 
REMARK    6  A    between atoms: C_17  and  C_19 
REMARK    7  A    between atoms: C_19  and  C_20 
REMARK    8  A    between atoms: C_20  and  C_21 
REMARK    9  A    between atoms: C_20  and  C_22 
REMARK   10  A    between atoms: C_20  and  C_23 
REMARK   11  A    between atoms: C_24  and  C_26 
REMARK   12  A    between atoms: C_26  and  C_27 
REMARK       I    between atoms: C_27  and  N_29 
REMARK   13  A    between atoms: N_29  and  C_30 
REMARK   14  A    between atoms: C_30  and  C_31 
REMARK   15  A    between atoms: C_34  and  O_35 
ROOT
ATOM      1  C   LIG d   1       3.709  -0.809  -2.480  0.00  0.00    -0.087 C 
ATOM      2  C   LIG d   1       3.574   0.349  -2.337  0.00  0.00    -0.118 C 
ATOM      3  H   LIG d   1       3.454   1.384  -2.209  0.00  0.00     0.123 H 
ENDROOT
BRANCH   1   4
ATOM      4  C   LIG d   1       3.878  -2.260  -2.659  0.00  0.00     0.073 C 
ATOM      5  H   LIG d   1       2.978  -2.775  -2.321  0.00  0.00     0.060 H 
ATOM      6  H   LIG d   1       4.733  -2.600  -2.076  0.00  0.00     0.060 H 
BRANCH   4   7
ATOM      7  N   LIG d   1       4.105  -2.553  -4.077  0.00  0.00    -0.304 N 
ATOM      8  C   LIG d   1       5.362  -2.659  -4.550  0.00  0.00     0.214 C 
ATOM      9  O   LIG d   1       6.306  -2.510  -3.802  0.00  0.00    -0.276 OA
ATOM     10  H   LIG d   1       3.350  -2.671  -4.675  0.00  0.00     0.150 HD
BRANCH   8  11
ATOM     11  C   LIG d   1       5.597  -2.960  -6.008  0.00  0.00     0.033 C 
ATOM     12  H   LIG d   1       6.056  -3.943  -6.106  0.00  0.00     0.036 H 
ATOM     13  H   LIG d   1       6.259  -2.206  -6.432  0.00  0.00     0.036 H 
BRANCH  11  14
ATOM     14  C   LIG d   1       4.261  -2.943  -6.753  0.00  0.00     0.016 C 
ATOM     15  C   LIG d   1       4.259  -1.796  -7.772  0.00  0.00    -0.019 C 
ATOM     16  C   LIG d   1       3.013  -1.879  -8.658  0.00  0.00    -0.021 C 
ATOM     17  C   LIG d   1       4.258  -0.481  -6.984  0.00  0.00    -0.044 C 
ATOM     18  C   LIG d   1       2.930  -0.650  -9.570  0.00  0.00     0.021 C 
ATOM     19  H   LIG d   1       2.119  -1.945  -8.039  0.00  0.00     0.032 H 
ATOM     20  C   LIG d   1       3.124  -3.124  -9.560  0.00  0.00    -0.016 C 
ATOM     21  C   LIG d   1       2.900   0.630  -8.736  0.00  0.00     0.063 C 
ATOM     22  C   LIG d   1       4.190   0.712  -7.915  0.00  0.00    -0.026 C 
ATOM     23  H   LIG d   1       2.040   0.611  -8.068  0.00  0.00     0.060 H 
ATOM     24  H   LIG d   1       5.051   0.693  -8.583  0.00  0.00     0.029 H 
ATOM     25  H   LIG d   1       4.196   1.634  -7.333  0.00  0.00     0.029 H 
ATOM     26  C   LIG d   1       3.552  -4.286  -8.734  0.00  0.00     0.015 A 
ATOM     27  H   LIG d   1       3.860  -2.943 -10.343  0.00  0.00     0.032 H 
ATOM     28  H   LIG d   1       2.154  -3.334 -10.010  0.00  0.00     0.032 H 
ATOM     29  S   LIG d   1       3.526  -6.016  -9.118  0.00  0.00    -0.057 SA
ATOM     30  C   LIG d   1       4.068  -4.266  -7.478  0.00  0.00     0.058 A 
ATOM     31  C   LIG d   1       4.192  -6.577  -7.613  0.00  0.00     0.165 A 
ATOM     32  N   LIG d   1       4.376  -5.451  -6.956  0.00  0.00    -0.229 NA
ATOM     33  H   LIG d   1       3.388  -0.454  -6.328  0.00  0.00     0.027 H 
ATOM     34  H   LIG d   1       5.164  -0.422  -6.380  0.00  0.00     0.027 H 
ATOM     35  H   LIG d   1       3.449  -2.798  -6.040  0.00  0.00     0.037 H 
BRANCH  15  36
ATOM     36  C   LIG d   1       5.514  -1.880  -8.642  0.00  0.00    -0.059 C 
ATOM     37  H   LIG d   1       6.356  -2.208  -8.033  0.00  0.00     0.024 H 
ATOM     38  H   LIG d   1       5.349  -2.596  -9.448  0.00  0.00     0.024 H 
ATOM     39  H   LIG d   1       5.730  -0.900  -9.064  0.00  0.00     0.024 H 
ENDBRANCH  15  36
BRANCH  18  40
ATOM     40  C   LIG d   1       1.657  -0.733 -10.415  0.00  0.00    -0.055 C 
ATOM     41  H   LIG d   1       1.441   0.246 -10.844  0.00  0.00     0.024 H 
ATOM     42  H   LIG d   1       1.800  -1.458 -11.216  0.00  0.00     0.024 H 
ATOM     43  H   LIG d   1       0.823  -1.046  -9.786  0.00  0.00     0.024 H 
ENDBRANCH  18  40
BRANCH  18  44
ATOM     44  C   LIG d   1       4.150  -0.620 -10.493  0.00  0.00     0.052 C 
ATOM     45  H   LIG d   1       4.993  -0.172  -9.967  0.00  0.00     0.056 H 
ATOM     46  H   LIG d   1       4.405  -1.638 -10.789  0.00  0.00     0.056 H 
BRANCH  44  47
ATOM     47  O   LIG d   1       3.848   0.152 -11.657  0.00  0.00    -0.394 OA
ATOM     48  H   LIG d   1       3.830   1.106 -11.501  0.00  0.00     0.209 HD
ENDBRANCH  44  47
ENDBRANCH  18  44
BRANCH  21  49
ATOM     49  O   LIG d   1       2.811   1.763  -9.602  0.00  0.00    -0.391 OA
ATOM     50  H   LIG d   1       2.867   2.613  -9.143  0.00  0.00     0.210 HD
ENDBRANCH  21  49
BRANCH  31  51
ATOM     51  N   LIG d   1       4.460  -7.879  -7.208  0.00  0.00    -0.265 N 
ATOM     52  C   LIG d   1       5.730  -8.263  -6.972  0.00  0.00     0.219 C 
ATOM     53  O   LIG d   1       6.639  -7.472  -7.111  0.00  0.00    -0.275 OA
ATOM     54  H   LIG d   1       3.733  -8.512  -7.097  0.00  0.00     0.157 HD
BRANCH  52  55
ATOM     55  C   LIG d   1       6.021  -9.676  -6.534  0.00  0.00     0.029 C 
ATOM     56  H   LIG d   1       5.297 -10.353  -6.989  0.00  0.00     0.036 H 
ATOM     57  H   LIG d   1       7.027  -9.954  -6.849  0.00  0.00     0.036 H 
BRANCH  55  58
ATOM     58  C   LIG d   1       5.918  -9.768  -5.010  0.00  0.00    -0.029 C 
BRANCH  58  59
ATOM     59  C   LIG d   1       5.970 -11.237  -4.583  0.00  0.00    -0.060 C 
ATOM     60  H   LIG d   1       6.868 -11.411  -3.991  0.00  0.00     0.024 H 
ATOM     61  H   LIG d   1       5.089 -11.473  -3.987  0.00  0.00     0.024 H 
ATOM     62  H   LIG d   1       5.990 -11.872  -5.469  0.00  0.00     0.024 H 
ENDBRANCH  58  59
BRANCH  58  63
ATOM     63  C   LIG d   1       7.084  -9.011  -4.374  0.00  0.00    -0.060 C 
ATOM     64  H   LIG d   1       7.334  -9.466  -3.415  0.00  0.00     0.024 H 
ATOM     65  H   LIG d   1       7.951  -9.056  -5.034  0.00  0.00     0.024 H 
ATOM     66  H   LIG d   1       6.800  -7.970  -4.218  0.00  0.00     0.024 H 
ENDBRANCH  58  63
BRANCH  58  67
ATOM     67  C   LIG d   1       4.597  -9.150  -4.551  0.00  0.00    -0.060 C 
ATOM     68  H   LIG d   1       4.799  -8.321  -3.872  0.00  0.00     0.024 H 
ATOM     69  H   LIG d   1       4.047  -8.783  -5.418  0.00  0.00     0.024 H 
ATOM     70  H   LIG d   1       4.001  -9.904  -4.037  0.00  0.00     0.024 H 
ENDBRANCH  58  67
ENDBRANCH  55  58
ENDBRANCH  52  55
ENDBRANCH  31  51
ENDBRANCH  11  14
ENDBRANCH   8  11
ENDBRANCH   4   7
ENDBRANCH   1   4
TORSDOF 15
ENDMDL
MODEL 7
REMARK VINA RESULT:      -5.3      4.943      5.526
REMARK  15 active torsions:
REMARK  status: ('A' for Active; 'I' for Inactive)
REMARK    1  A    between atoms: C_1  and  C_2 
REMARK    2  A    between atoms: C_5  and  O_36 
REMARK    3  A    between atoms: C_7  and  C_33 
REMARK    4  A    between atoms: C_7  and  C_34 
REMARK    5  A    between atoms: C_14  and  N_16 
REMARK       I    between atoms: N_16  and  C_17 
REMARK    6  A    between atoms: C_17  and  C_19 
REMARK    7  A    between atoms: C_19  and  C_20 
REMARK    8  A    between atoms: C_20  and  C_21 
REMARK    9  A    between atoms: C_20  and  C_22 
REMARK   10  A    between atoms: C_20  and  C_23 
REMARK   11  A    between atoms: C_24  and  C_26 
REMARK   12  A    between atoms: C_26  and  C_27 
REMARK       I    between atoms: C_27  and  N_29 
REMARK   13  A    between atoms: N_29  and  C_30 
REMARK   14  A    between atoms: C_30  and  C_31 
REMARK   15  A    between atoms: C_34  and  O_35 
ROOT
ATOM      1  C   LIG d   1       3.975   0.893  -2.448  0.00  0.00    -0.087 C 
ATOM      2  C   LIG d   1       3.492   1.800  -3.015  0.00  0.00    -0.118 C 
ATOM      3  H   LIG d   1       3.058   2.612  -3.522  0.00  0.00     0.123 H 
ENDROOT
BRANCH   1   4
ATOM      4  C   LIG d   1       4.581  -0.244  -1.737  0.00  0.00     0.073 C 
ATOM      5  H   LIG d   1       3.797  -0.837  -1.265  0.00  0.00     0.060 H 
ATOM      6  H   LIG d   1       5.266   0.128  -0.975  0.00  0.00     0.060 H 
BRANCH   4   7
ATOM      7  N   LIG d   1       5.317  -1.079  -2.690  0.00  0.00    -0.304 N 
ATOM      8  C   LIG d   1       4.779  -2.233  -3.131  0.00  0.00     0.214 C 
ATOM      9  O   LIG d   1       3.684  -2.580  -2.739  0.00  0.00    -0.276 OA
ATOM     10  H   LIG d   1       6.193  -0.801  -3.003  0.00  0.00     0.150 HD
BRANCH   8  11
ATOM     11  C   LIG d   1       5.536  -3.092  -4.111  0.00  0.00     0.033 C 
ATOM     12  H   LIG d   1       4.886  -3.347  -4.948  0.00  0.00     0.036 H 
ATOM     13  H   LIG d   1       5.864  -4.005  -3.615  0.00  0.00     0.036 H 
BRANCH  11  14
ATOM     14  C   LIG d   1       6.756  -2.326  -4.625  0.00  0.00     0.016 C 
ATOM     15  C   LIG d   1       8.009  -3.197  -4.472  0.00  0.00    -0.019 C 
ATOM     16  C   LIG d   1       9.204  -2.527  -5.155  0.00  0.00    -0.021 C 
ATOM     17  C   LIG d   1       8.279  -3.355  -2.972  0.00  0.00    -0.044 C 
ATOM     18  C   LIG d   1      10.486  -3.318  -4.871  0.00  0.00     0.021 C 
ATOM     19  H   LIG d   1       9.311  -1.503  -4.798  0.00  0.00     0.032 H 
ATOM     20  C   LIG d   1       8.978  -2.534  -6.679  0.00  0.00    -0.016 C 
ATOM     21  C   LIG d   1      10.726  -3.419  -3.365  0.00  0.00     0.063 C 
ATOM     22  C   LIG d   1       9.543  -4.153  -2.727  0.00  0.00    -0.026 C 
ATOM     23  H   LIG d   1      10.810  -2.419  -2.940  0.00  0.00     0.060 H 
ATOM     24  H   LIG d   1       9.437  -5.139  -3.180  0.00  0.00     0.029 H 
ATOM     25  H   LIG d   1       9.711  -4.257  -1.655  0.00  0.00     0.029 H 
ATOM     26  C   LIG d   1       7.588  -2.089  -6.966  0.00  0.00     0.015 A 
ATOM     27  H   LIG d   1       9.125  -3.543  -7.065  0.00  0.00     0.032 H 
ATOM     28  H   LIG d   1       9.685  -1.854  -7.155  0.00  0.00     0.032 H 
ATOM     29  S   LIG d   1       6.859  -1.578  -8.499  0.00  0.00    -0.057 SA
ATOM     30  C   LIG d   1       6.555  -1.979  -6.092  0.00  0.00     0.058 A 
ATOM     31  C   LIG d   1       5.264  -1.262  -7.881  0.00  0.00     0.165 A 
ATOM     32  N   LIG d   1       5.400  -1.557  -6.605  0.00  0.00    -0.229 NA
ATOM     33  H   LIG d   1       8.402  -2.370  -2.522  0.00  0.00     0.027 H 
ATOM     34  H   LIG d   1       7.433  -3.860  -2.505  0.00  0.00     0.027 H 
ATOM     35  H   LIG d   1       6.878  -1.408  -4.049  0.00  0.00     0.037 H 
BRANCH  15  36
ATOM     36  C   LIG d   1       7.760  -4.568  -5.104  0.00  0.00    -0.059 C 
ATOM     37  H   LIG d   1       8.675  -5.159  -5.061  0.00  0.00     0.024 H 
ATOM     38  H   LIG d   1       6.970  -5.082  -4.555  0.00  0.00     0.024 H 
ATOM     39  H   LIG d   1       7.458  -4.440  -6.142  0.00  0.00     0.024 H 
ENDBRANCH  15  36
BRANCH  18  40
ATOM     40  C   LIG d   1      11.673  -2.607  -5.525  0.00  0.00    -0.055 C 
ATOM     41  H   LIG d   1      12.459  -3.332  -5.737  0.00  0.00     0.024 H 
ATOM     42  H   LIG d   1      11.349  -2.139  -6.454  0.00  0.00     0.024 H 
ATOM     43  H   LIG d   1      12.057  -1.843  -4.849  0.00  0.00     0.024 H 
ENDBRANCH  18  40
BRANCH  18  44
ATOM     44  C   LIG d   1      10.353  -4.725  -5.455  0.00  0.00     0.052 C 
ATOM     45  H   LIG d   1       9.912  -5.387  -4.710  0.00  0.00     0.056 H 
ATOM     46  H   LIG d   1       9.715  -4.693  -6.337  0.00  0.00     0.056 H 
BRANCH  44  47
ATOM     47  O   LIG d   1      11.646  -5.213  -5.819  0.00  0.00    -0.394 OA
ATOM     48  H   LIG d   1      11.832  -6.108  -5.505  0.00  0.00     0.209 HD
ENDBRANCH  44  47
ENDBRANCH  18  44
BRANCH  21  49
ATOM     49  O   LIG d   1      11.931  -4.148  -3.120  0.00  0.00    -0.391 OA
ATOM     50  H   LIG d   1      11.883  -4.740  -2.357  0.00  0.00     0.210 HD
ENDBRANCH  21  49
BRANCH  31  51
ATOM     51  N   LIG d   1       4.138  -0.815  -8.559  0.00  0.00    -0.265 N 
ATOM     52  C   LIG d   1       3.165  -1.684  -8.899  0.00  0.00     0.219 C 
ATOM     53  O   LIG d   1       3.274  -2.857  -8.612  0.00  0.00    -0.275 OA
ATOM     54  H   LIG d   1       4.051   0.124  -8.789  0.00  0.00     0.157 HD
BRANCH  52  55
ATOM     55  C   LIG d   1       1.943  -1.199  -9.636  0.00  0.00     0.029 C 
ATOM     56  H   LIG d   1       1.081  -1.800  -9.345  0.00  0.00     0.036 H 
ATOM     57  H   LIG d   1       1.759  -0.154  -9.385  0.00  0.00     0.036 H 
BRANCH  55  58
ATOM     58  C   LIG d   1       2.172  -1.329 -11.143  0.00  0.00    -0.029 C 
BRANCH  58  59
ATOM     59  C   LIG d   1       0.838  -1.174 -11.877  0.00  0.00    -0.060 C 
ATOM     60  H   LIG d   1       0.098  -0.748 -11.200  0.00  0.00     0.024 H 
ATOM     61  H   LIG d   1       0.970  -0.514 -12.734  0.00  0.00     0.024 H 
ATOM     62  H   LIG d   1       0.497  -2.151 -12.220  0.00  0.00     0.024 H 
ENDBRANCH  58  59
BRANCH  58  63
ATOM     63  C   LIG d   1       3.139  -0.240 -11.608  0.00  0.00    -0.060 C 
ATOM     64  H   LIG d   1       4.165  -0.564 -11.430  0.00  0.00     0.024 H 
ATOM     65  H   LIG d   1       2.997  -0.057 -12.674  0.00  0.00     0.024 H 
ATOM     66  H   LIG d   1       2.947   0.678 -11.054  0.00  0.00     0.024 H 
ENDBRANCH  58  63
BRANCH  58  67
ATOM     67  C   LIG d   1       2.766  -2.705 -11.450  0.00  0.00    -0.060 C 
ATOM     68  H   LIG d   1       2.216  -3.164 -12.272  0.00  0.00     0.024 H 
ATOM     69  H   LIG d   1       3.814  -2.593 -11.731  0.00  0.00     0.024 H 
ATOM     70  H   LIG d   1       2.694  -3.338 -10.566  0.00  0.00     0.024 H 
ENDBRANCH  58  67
ENDBRANCH  55  58
ENDBRANCH  52  55
ENDBRANCH  31  51
ENDBRANCH  11  14
ENDBRANCH   8  11
ENDBRANCH   4   7
ENDBRANCH   1   4
TORSDOF 15
ENDMDL
MODEL 8
REMARK VINA RESULT:      -5.2      5.342      9.263
REMARK  15 active torsions:
REMARK  status: ('A' for Active; 'I' for Inactive)
REMARK    1  A    between atoms: C_1  and  C_2 
REMARK    2  A    between atoms: C_5  and  O_36 
REMARK    3  A    between atoms: C_7  and  C_33 
REMARK    4  A    between atoms: C_7  and  C_34 
REMARK    5  A    between atoms: C_14  and  N_16 
REMARK       I    between atoms: N_16  and  C_17 
REMARK    6  A    between atoms: C_17  and  C_19 
REMARK    7  A    between atoms: C_19  and  C_20 
REMARK    8  A    between atoms: C_20  and  C_21 
REMARK    9  A    between atoms: C_20  and  C_22 
REMARK   10  A    between atoms: C_20  and  C_23 
REMARK   11  A    between atoms: C_24  and  C_26 
REMARK   12  A    between atoms: C_26  and  C_27 
REMARK       I    between atoms: C_27  and  N_29 
REMARK   13  A    between atoms: N_29  and  C_30 
REMARK   14  A    between atoms: C_30  and  C_31 
REMARK   15  A    between atoms: C_34  and  O_35 
ROOT
ATOM      1  C   LIG d   1       5.625  -4.613  -5.315  0.00  0.00    -0.087 C 
ATOM      2  C   LIG d   1       6.667  -4.177  -4.994  0.00  0.00    -0.118 C 
ATOM      3  H   LIG d   1       7.599  -3.787  -4.708  0.00  0.00     0.123 H 
ENDROOT
BRANCH   1   4
ATOM      4  C   LIG d   1       4.319  -5.158  -5.717  0.00  0.00     0.073 C 
ATOM      5  H   LIG d   1       3.661  -5.204  -4.849  0.00  0.00     0.060 H 
ATOM      6  H   LIG d   1       4.454  -6.160  -6.125  0.00  0.00     0.060 H 
BRANCH   4   7
ATOM      7  N   LIG d   1       3.721  -4.292  -6.737  0.00  0.00    -0.304 N 
ATOM      8  C   LIG d   1       3.679  -4.694  -8.023  0.00  0.00     0.214 C 
ATOM      9  O   LIG d   1       4.136  -5.774  -8.335  0.00  0.00    -0.276 OA
ATOM     10  H   LIG d   1       3.356  -3.429  -6.487  0.00  0.00     0.150 HD
BRANCH   8  11
ATOM     11  C   LIG d   1       3.065  -3.804  -9.071  0.00  0.00     0.033 C 
ATOM     12  H   LIG d   1       2.277  -3.201  -8.620  0.00  0.00     0.036 H 
ATOM     13  H   LIG d   1       2.642  -4.418  -9.867  0.00  0.00     0.036 H 
BRANCH  11  14
ATOM     14  C   LIG d   1       4.140  -2.885  -9.654  0.00  0.00     0.016 C 
ATOM     15  C   LIG d   1       3.988  -2.824 -11.180  0.00  0.00    -0.019 C 
ATOM     16  C   LIG d   1       4.928  -1.765 -11.762  0.00  0.00    -0.021 C 
ATOM     17  C   LIG d   1       4.346  -4.207 -11.734  0.00  0.00    -0.044 C 
ATOM     18  C   LIG d   1       4.892  -1.810 -13.293  0.00  0.00     0.021 C 
ATOM     19  H   LIG d   1       5.945  -1.934 -11.408  0.00  0.00     0.032 H 
ATOM     20  C   LIG d   1       4.443  -0.370 -11.323  0.00  0.00    -0.016 C 
ATOM     21  C   LIG d   1       5.286  -3.198 -13.794  0.00  0.00     0.063 C 
ATOM     22  C   LIG d   1       4.285  -4.220 -13.247  0.00  0.00    -0.026 C 
ATOM     23  H   LIG d   1       6.288  -3.442 -13.444  0.00  0.00     0.060 H 
ATOM     24  H   LIG d   1       3.278  -3.954 -13.567  0.00  0.00     0.029 H 
ATOM     25  H   LIG d   1       4.538  -5.215 -13.617  0.00  0.00     0.029 H 
ATOM     26  C   LIG d   1       4.133  -0.398  -9.868  0.00  0.00     0.015 A 
ATOM     27  H   LIG d   1       3.545  -0.104 -11.881  0.00  0.00     0.032 H 
ATOM     28  H   LIG d   1       5.224   0.365 -11.515  0.00  0.00     0.032 H 
ATOM     29  S   LIG d   1       3.866   0.945  -8.742  0.00  0.00    -0.057 SA
ATOM     30  C   LIG d   1       3.985  -1.489  -9.072  0.00  0.00     0.058 A 
ATOM     31  C   LIG d   1       3.580  -0.020  -7.324  0.00  0.00     0.165 A 
ATOM     32  N   LIG d   1       3.704  -1.244  -7.794  0.00  0.00    -0.229 NA
ATOM     33  H   LIG d   1       5.359  -4.467 -11.428  0.00  0.00     0.027 H 
ATOM     34  H   LIG d   1       3.650  -4.946 -11.334  0.00  0.00     0.027 H 
ATOM     35  H   LIG d   1       5.127  -3.275  -9.402  0.00  0.00     0.037 H 
BRANCH  15  36
ATOM     36  C   LIG d   1       2.542  -2.478 -11.537  0.00  0.00    -0.059 C 
ATOM     37  H   LIG d   1       1.945  -3.389 -11.556  0.00  0.00     0.024 H 
ATOM     38  H   LIG d   1       2.137  -1.793 -10.791  0.00  0.00     0.024 H 
ATOM     39  H   LIG d   1       2.513  -2.004 -12.518  0.00  0.00     0.024 H 
ENDBRANCH  15  36
BRANCH  18  40
ATOM     40  C   LIG d   1       5.870  -0.775 -13.852  0.00  0.00    -0.055 C 
ATOM     41  H   LIG d   1       6.563  -1.262 -14.538  0.00  0.00     0.024 H 
ATOM     42  H   LIG d   1       5.315  -0.002 -14.385  0.00  0.00     0.024 H 
ATOM     43  H   LIG d   1       6.428  -0.321 -13.033  0.00  0.00     0.024 H 
ENDBRANCH  18  40
BRANCH  18  44
ATOM     44  C   LIG d   1       3.477  -1.484 -13.776  0.00  0.00     0.052 C 
ATOM     45  H   LIG d   1       2.899  -2.404 -13.854  0.00  0.00     0.056 H 
ATOM     46  H   LIG d   1       2.997  -0.811 -13.065  0.00  0.00     0.056 H 
BRANCH  44  47
ATOM     47  O   LIG d   1       3.545  -0.853 -15.057  0.00  0.00    -0.394 OA
ATOM     48  H   LIG d   1       3.246   0.066 -15.059  0.00  0.00     0.209 HD
ENDBRANCH  44  47
ENDBRANCH  18  44
BRANCH  21  49
ATOM     49  O   LIG d   1       5.258  -3.218 -15.223  0.00  0.00    -0.391 OA
ATOM     50  H   LIG d   1       5.339  -2.345 -15.629  0.00  0.00     0.210 HD
ENDBRANCH  21  49
BRANCH  31  51
ATOM     51  N   LIG d   1       3.293   0.394  -6.030  0.00  0.00    -0.265 N 
ATOM     52  C   LIG d   1       3.547  -0.423  -4.988  0.00  0.00     0.219 C 
ATOM     53  O   LIG d   1       4.027  -1.519  -5.181  0.00  0.00    -0.275 OA
ATOM     54  H   LIG d   1       2.909   1.272  -5.875  0.00  0.00     0.157 HD
BRANCH  52  55
ATOM     55  C   LIG d   1       3.235   0.026  -3.584  0.00  0.00     0.029 C 
ATOM     56  H   LIG d   1       2.926   1.072  -3.598  0.00  0.00     0.036 H 
ATOM     57  H   LIG d   1       2.429  -0.585  -3.177  0.00  0.00     0.036 H 
BRANCH  55  58
ATOM     58  C   LIG d   1       4.482  -0.126  -2.711  0.00  0.00    -0.029 C 
BRANCH  58  59
ATOM     59  C   LIG d   1       4.458  -1.490  -2.018  0.00  0.00    -0.060 C 
ATOM     60  H   LIG d   1       4.611  -2.275  -2.758  0.00  0.00     0.024 H 
ATOM     61  H   LIG d   1       5.251  -1.533  -1.272  0.00  0.00     0.024 H 
ATOM     62  H   LIG d   1       3.493  -1.632  -1.531  0.00  0.00     0.024 H 
ENDBRANCH  58  59
BRANCH  58  63
ATOM     63  C   LIG d   1       5.732  -0.020  -3.585  0.00  0.00    -0.060 C 
ATOM     64  H   LIG d   1       6.353   0.805  -3.235  0.00  0.00     0.024 H 
ATOM     65  H   LIG d   1       6.298  -0.950  -3.526  0.00  0.00     0.024 H 
ATOM     66  H   LIG d   1       5.439   0.161  -4.619  0.00  0.00     0.024 H 
ENDBRANCH  58  63
BRANCH  58  67
ATOM     67  C   LIG d   1       4.502   0.982  -1.655  0.00  0.00    -0.060 C 
ATOM     68  H   LIG d   1       4.701   0.547  -0.676  0.00  0.00     0.024 H 
ATOM     69  H   LIG d   1       5.284   1.702  -1.899  0.00  0.00     0.024 H 
ATOM     70  H   LIG d   1       3.537   1.487  -1.640  0.00  0.00     0.024 H 
ENDBRANCH  58  67
ENDBRANCH  55  58
ENDBRANCH  52  55
ENDBRANCH  31  51
ENDBRANCH  11  14
ENDBRANCH   8  11
ENDBRANCH   4   7
ENDBRANCH   1   4
TORSDOF 15
ENDMDL
MODEL 9
REMARK VINA RESULT:      -5.2      4.771      8.552
REMARK  15 active torsions:
REMARK  status: ('A' for Active; 'I' for Inactive)
REMARK    1  A    between atoms: C_1  and  C_2 
REMARK    2  A    between atoms: C_5  and  O_36 
REMARK    3  A    between atoms: C_7  and  C_33 
REMARK    4  A    between atoms: C_7  and  C_34 
REMARK    5  A    between atoms: C_14  and  N_16 
REMARK       I    between atoms: N_16  and  C_17 
REMARK    6  A    between atoms: C_17  and  C_19 
REMARK    7  A    between atoms: C_19  and  C_20 
REMARK    8  A    between atoms: C_20  and  C_21 
REMARK    9  A    between atoms: C_20  and  C_22 
REMARK   10  A    between atoms: C_20  and  C_23 
REMARK   11  A    between atoms: C_24  and  C_26 
REMARK   12  A    between atoms: C_26  and  C_27 
REMARK       I    between atoms: C_27  and  N_29 
REMARK   13  A    between atoms: N_29  and  C_30 
REMARK   14  A    between atoms: C_30  and  C_31 
REMARK   15  A    between atoms: C_34  and  O_35 
ROOT
ATOM      1  C   LIG d   1      13.405  -0.813  -3.864  0.00  0.00    -0.087 C 
ATOM      2  C   LIG d   1      14.134  -1.718  -3.700  0.00  0.00    -0.118 C 
ATOM      3  H   LIG d   1      14.787  -2.528  -3.553  0.00  0.00     0.123 H 
ENDROOT
BRANCH   1   4
ATOM      4  C   LIG d   1      12.492   0.322  -4.069  0.00  0.00     0.073 C 
ATOM      5  H   LIG d   1      12.942   1.029  -4.767  0.00  0.00     0.060 H 
ATOM      6  H   LIG d   1      12.309   0.818  -3.116  0.00  0.00     0.060 H 
BRANCH   4   7
ATOM      7  N   LIG d   1      11.223  -0.165  -4.618  0.00  0.00    -0.304 N 
ATOM      8  C   LIG d   1      10.188   0.682  -4.778  0.00  0.00     0.214 C 
ATOM      9  O   LIG d   1      10.307   1.849  -4.467  0.00  0.00    -0.276 OA
ATOM     10  H   LIG d   1      11.129  -1.099  -4.866  0.00  0.00     0.150 HD
BRANCH   8  11
ATOM     11  C   LIG d   1       8.884   0.182  -5.342  0.00  0.00     0.033 C 
ATOM     12  H   LIG d   1       9.072  -0.352  -6.273  0.00  0.00     0.036 H 
ATOM     13  H   LIG d   1       8.223   1.027  -5.535  0.00  0.00     0.036 H 
BRANCH  11  14
ATOM     14  C   LIG d   1       8.222  -0.763  -4.336  0.00  0.00     0.016 C 
ATOM     15  C   LIG d   1       6.754  -0.358  -4.144  0.00  0.00    -0.019 C 
ATOM     16  C   LIG d   1       6.027  -1.402  -3.293  0.00  0.00    -0.021 C 
ATOM     17  C   LIG d   1       6.741   1.001  -3.437  0.00  0.00    -0.044 C 
ATOM     18  C   LIG d   1       4.607  -0.924  -2.971  0.00  0.00     0.021 C 
ATOM     19  H   LIG d   1       6.578  -1.581  -2.370  0.00  0.00     0.032 H 
ATOM     20  C   LIG d   1       5.908  -2.710  -4.099  0.00  0.00    -0.016 C 
ATOM     21  C   LIG d   1       4.650   0.417  -2.239  0.00  0.00     0.063 C 
ATOM     22  C   LIG d   1       5.324   1.450  -3.147  0.00  0.00    -0.026 C 
ATOM     23  H   LIG d   1       5.220   0.312  -1.317  0.00  0.00     0.060 H 
ATOM     24  H   LIG d   1       4.774   1.527  -4.085  0.00  0.00     0.029 H 
ATOM     25  H   LIG d   1       5.339   2.420  -2.650  0.00  0.00     0.029 H 
ATOM     26  C   LIG d   1       7.224  -3.017  -4.722  0.00  0.00     0.015 A 
ATOM     27  H   LIG d   1       5.155  -2.592  -4.877  0.00  0.00     0.032 H 
ATOM     28  H   LIG d   1       5.622  -3.523  -3.432  0.00  0.00     0.032 H 
ATOM     29  S   LIG d   1       7.799  -4.520  -5.466  0.00  0.00    -0.057 SA
ATOM     30  C   LIG d   1       8.291  -2.189  -4.858  0.00  0.00     0.058 A 
ATOM     31  C   LIG d   1       9.384  -3.951  -5.898  0.00  0.00     0.165 A 
ATOM     32  N   LIG d   1       9.359  -2.709  -5.461  0.00  0.00    -0.229 NA
ATOM     33  H   LIG d   1       7.276   0.921  -2.491  0.00  0.00     0.027 H 
ATOM     34  H   LIG d   1       7.236   1.741  -4.067  0.00  0.00     0.027 H 
ATOM     35  H   LIG d   1       8.745  -0.700  -3.381  0.00  0.00     0.037 H 
BRANCH  15  36
ATOM     36  C   LIG d   1       6.072  -0.243  -5.508  0.00  0.00    -0.059 C 
ATOM     37  H   LIG d   1       5.132  -0.794  -5.492  0.00  0.00     0.024 H 
ATOM     38  H   LIG d   1       5.874   0.807  -5.727  0.00  0.00     0.024 H 
ATOM     39  H   LIG d   1       6.723  -0.657  -6.276  0.00  0.00     0.024 H 
ENDBRANCH  15  36
BRANCH  18  40
ATOM     40  C   LIG d   1       3.914  -1.960  -2.084  0.00  0.00    -0.055 C 
ATOM     41  H   LIG d   1       2.981  -2.276  -2.553  0.00  0.00     0.024 H 
ATOM     42  H   LIG d   1       4.567  -2.824  -1.956  0.00  0.00     0.024 H 
ATOM     43  H   LIG d   1       3.699  -1.521  -1.110  0.00  0.00     0.024 H 
ENDBRANCH  18  40
BRANCH  18  44
ATOM     44  C   LIG d   1       3.819  -0.762  -4.272  0.00  0.00     0.052 C 
ATOM     45  H   LIG d   1       4.051   0.205  -4.719  0.00  0.00     0.056 H 
ATOM     46  H   LIG d   1       4.094  -1.558  -4.964  0.00  0.00     0.056 H 
BRANCH  44  47
ATOM     47  O   LIG d   1       2.419  -0.835  -3.993  0.00  0.00    -0.394 OA
ATOM     48  H   LIG d   1       2.026  -1.699  -4.180  0.00  0.00     0.209 HD
ENDBRANCH  44  47
ENDBRANCH  18  44
BRANCH  21  49
ATOM     49  O   LIG d   1       3.319   0.841  -1.937  0.00  0.00    -0.391 OA
ATOM     50  H   LIG d   1       3.180   1.066  -1.007  0.00  0.00     0.210 HD
ENDBRANCH  21  49
BRANCH  31  51
ATOM     51  N   LIG d   1      10.411  -4.631  -6.540  0.00  0.00    -0.265 N 
ATOM     52  C   LIG d   1      11.340  -5.288  -5.816  0.00  0.00     0.219 C 
ATOM     53  O   LIG d   1      11.277  -5.287  -4.606  0.00  0.00    -0.275 OA
ATOM     54  H   LIG d   1      10.461  -4.631  -7.509  0.00  0.00     0.157 HD
BRANCH  52  55
ATOM     55  C   LIG d   1      12.455  -6.025  -6.513  0.00  0.00     0.029 C 
ATOM     56  H   LIG d   1      12.643  -6.969  -5.999  0.00  0.00     0.036 H 
ATOM     57  H   LIG d   1      12.170  -6.224  -7.546  0.00  0.00     0.036 H 
BRANCH  55  58
ATOM     58  C   LIG d   1      13.724  -5.170  -6.488  0.00  0.00    -0.029 C 
BRANCH  58  59
ATOM     59  C   LIG d   1      13.363  -3.712  -6.779  0.00  0.00    -0.060 C 
ATOM     60  H   LIG d   1      13.791  -3.416  -7.737  0.00  0.00     0.024 H 
ATOM     61  H   LIG d   1      12.279  -3.607  -6.816  0.00  0.00     0.024 H 
ATOM     62  H   LIG d   1      13.762  -3.075  -5.990  0.00  0.00     0.024 H 
ENDBRANCH  58  59
BRANCH  58  63
ATOM     63  C   LIG d   1      14.378  -5.269  -5.109  0.00  0.00    -0.060 C 
ATOM     64  H   LIG d   1      15.014  -6.153  -5.070  0.00  0.00     0.024 H 
ATOM     65  H   LIG d   1      14.982  -4.379  -4.929  0.00  0.00     0.024 H 
ATOM     66  H   LIG d   1      13.605  -5.343  -4.344  0.00  0.00     0.024 H 
ENDBRANCH  58  63
BRANCH  58  67
ATOM     67  C   LIG d   1      14.699  -5.676  -7.553  0.00  0.00    -0.060 C 
ATOM     68  H   LIG d   1      14.142  -6.162  -8.354  0.00  0.00     0.024 H 
ATOM     69  H   LIG d   1      15.262  -4.835  -7.959  0.00  0.00     0.024 H 
ATOM     70  H   LIG d   1      15.388  -6.391  -7.104  0.00  0.00     0.024 H 
ENDBRANCH  58  67
ENDBRANCH  55  58
ENDBRANCH  52  55
ENDBRANCH  31  51
ENDBRANCH  11  14
ENDBRANCH   8  11
ENDBRANCH   4   7
ENDBRANCH   1   4
TORSDOF 15
ENDMDL
