MODEL 1
REMARK VINA RESULT:      -8.1      0.000      0.000
REMARK  5 active torsions:
REMARK  status: ('A' for Active; 'I' for Inactive)
REMARK    1  A    between atoms: C_6  and  C_11 
REMARK    2  A    between atoms: N_25  and  C_27 
REMARK    3  A    between atoms: C_27  and  C_28 
REMARK    4  A    between atoms: C_31  and  C_33 
REMARK    5  A    between atoms: C_33  and  O_34 
ROOT
ATOM      1  C   LIG d   1       4.725  -2.380  -5.990  0.00  0.00     0.002 C 
ATOM      2  C   LIG d   1       4.378  -1.945  -7.284  0.00  0.00    -0.047 C 
ATOM      3  C   LIG d   1       3.714  -0.763  -7.422  0.00  0.00     0.004 C 
ATOM      4  C   LIG d   1       3.372  -0.031  -6.276  0.00  0.00     0.252 C 
ATOM      5  O   LIG d   1       2.839   1.061  -6.396  0.00  0.00    -0.268 OA
ATOM      6  N   LIG d   1       3.623  -0.520  -5.037  0.00  0.00    -0.311 N 
ATOM      7  C   LIG d   1       4.361  -1.642  -4.892  0.00  0.00     0.034 C 
ATOM      8  C   LIG d   1       4.818  -2.133  -3.537  0.00  0.00     0.013 C 
ATOM      9  H   LIG d   1       4.896  -3.231  -3.548  0.00  0.00     0.038 H 
ATOM     10  C   LIG d   1       3.812  -1.681  -2.473  0.00  0.00    -0.038 C 
ATOM     11  C   LIG d   1       3.670  -0.161  -2.585  0.00  0.00    -0.009 C 
ATOM     12  H   LIG d   1       3.027   0.215  -1.776  0.00  0.00     0.033 H 
ATOM     13  C   LIG d   1       3.014   0.188  -3.909  0.00  0.00     0.030 C 
ATOM     14  C   LIG d   1       5.021   0.520  -2.425  0.00  0.00     0.004 C 
ATOM     15  N   LIG d   1       5.993  -0.006  -3.390  0.00  0.00    -0.294 N 
ATOM     16  C   LIG d   1       6.167  -1.457  -3.232  0.00  0.00     0.007 C 
ATOM     17  H   LIG d   1       4.632  -2.537  -8.150  0.00  0.00     0.063 H 
ATOM     18  H   LIG d   1       3.456  -0.394  -8.404  0.00  0.00     0.067 H 
ATOM     19  H   LIG d   1       2.844  -2.172  -2.652  0.00  0.00     0.028 H 
ATOM     20  H   LIG d   1       4.184  -1.959  -1.475  0.00  0.00     0.028 H 
ATOM     21  H   LIG d   1       3.112   1.274  -4.062  0.00  0.00     0.050 H 
ATOM     22  H   LIG d   1       1.949  -0.077  -3.842  0.00  0.00     0.050 H 
ATOM     23  H   LIG d   1       4.909   1.601  -2.593  0.00  0.00     0.043 H 
ATOM     24  H   LIG d   1       5.403   0.344  -1.409  0.00  0.00     0.043 H 
ATOM     25  H   LIG d   1       6.470  -1.694  -2.202  0.00  0.00     0.043 H 
ATOM     26  H   LIG d   1       6.929  -1.827  -3.934  0.00  0.00     0.043 H 
ENDROOT
BRANCH   1  27
ATOM     27  C   LIG d   1       5.488  -3.639  -5.813  0.00  0.00    -0.016 A 
ATOM     28  C   LIG d   1       4.812  -4.837  -5.680  0.00  0.00    -0.046 A 
ATOM     29  C   LIG d   1       5.540  -6.027  -5.516  0.00  0.00    -0.017 A 
ATOM     30  H   LIG d   1       3.732  -4.858  -5.705  0.00  0.00     0.063 H 
ATOM     31  C   LIG d   1       4.887  -7.265  -5.382  0.00  0.00    -0.054 A 
ATOM     32  C   LIG d   1       6.955  -5.979  -5.480  0.00  0.00    -0.018 A 
ATOM     33  C   LIG d   1       5.622  -8.399  -5.220  0.00  0.00    -0.061 A 
ATOM     34  H   LIG d   1       3.809  -7.317  -5.409  0.00  0.00     0.062 H 
ATOM     35  C   LIG d   1       7.014  -8.352  -5.185  0.00  0.00    -0.061 A 
ATOM     36  H   LIG d   1       5.119  -9.350  -5.117  0.00  0.00     0.062 H 
ATOM     37  C   LIG d   1       7.679  -7.172  -5.311  0.00  0.00    -0.054 A 
ATOM     38  H   LIG d   1       7.574  -9.267  -5.055  0.00  0.00     0.062 H 
ATOM     39  H   LIG d   1       8.759  -7.150  -5.280  0.00  0.00     0.062 H 
ATOM     40  C   LIG d   1       7.613  -4.743  -5.613  0.00  0.00    -0.053 A 
ATOM     41  C   LIG d   1       6.891  -3.604  -5.775  0.00  0.00    -0.053 A 
ATOM     42  H   LIG d   1       8.692  -4.699  -5.586  0.00  0.00     0.062 H 
ATOM     43  H   LIG d   1       7.404  -2.659  -5.876  0.00  0.00     0.062 H 
ENDBRANCH   1  27
BRANCH  15  44
ATOM     44  C   LIG d   1       7.281   0.693  -3.273  0.00  0.00     0.057 C 
ATOM     45  H   LIG d   1       7.173   1.547  -2.586  0.00  0.00     0.051 H 
ATOM     46  H   LIG d   1       8.040   0.001  -2.881  0.00  0.00     0.051 H 
BRANCH  44  47
ATOM     47  C   LIG d   1       7.707   1.191  -4.630  0.00  0.00     0.119 A 
ATOM     48  O   LIG d   1       7.081   0.940  -5.790  0.00  0.00    -0.461 OA
ATOM     49  C   LIG d   1       7.739   1.542  -6.794  0.00  0.00     0.131 A 
ATOM     50  C   LIG d   1       8.801   2.188  -6.279  0.00  0.00    -0.018 A 
ATOM     51  C   LIG d   1       8.778   1.966  -4.883  0.00  0.00    -0.019 A 
ATOM     52  H   LIG d   1       9.529   2.769  -6.826  0.00  0.00     0.065 H 
ATOM     53  H   LIG d   1       9.485   2.344  -4.159  0.00  0.00     0.065 H 
BRANCH  49  54
ATOM     54  C   LIG d   1       7.353   1.501  -8.251  0.00  0.00     0.102 C 
ATOM     55  H   LIG d   1       7.942   2.244  -8.807  0.00  0.00     0.064 H 
ATOM     56  H   LIG d   1       7.553   0.497  -8.655  0.00  0.00     0.064 H 
BRANCH  54  57
ATOM     57  O   LIG d   1       5.962   1.800  -8.384  0.00  0.00    -0.387 OA
ATOM     58  H   LIG d   1       5.228   1.308  -7.729  0.00  0.00     0.210 HD
ENDBRANCH  54  57
ENDBRANCH  49  54
ENDBRANCH  44  47
ENDBRANCH  15  44
TORSDOF 5
ENDMDL
MODEL 2
REMARK VINA RESULT:      -7.8      0.499      1.456
REMARK  5 active torsions:
REMARK  status: ('A' for Active; 'I' for Inactive)
REMARK    1  A    between atoms: C_6  and  C_11 
REMARK    2  A    between atoms: N_25  and  C_27 
REMARK    3  A    between atoms: C_27  and  C_28 
REMARK    4  A    between atoms: C_31  and  C_33 
REMARK    5  A    between atoms: C_33  and  O_34 
ROOT
ATOM      1  C   LIG d   1       4.649  -2.455  -5.997  0.00  0.00     0.002 C 
ATOM      2  C   LIG d   1       4.375  -2.021  -7.309  0.00  0.00    -0.047 C 
ATOM      3  C   LIG d   1       3.761  -0.817  -7.485  0.00  0.00     0.004 C 
ATOM      4  C   LIG d   1       3.396  -0.062  -6.361  0.00  0.00     0.252 C 
ATOM      5  O   LIG d   1       2.909   1.047  -6.513  0.00  0.00    -0.268 OA
ATOM      6  N   LIG d   1       3.575  -0.548  -5.108  0.00  0.00    -0.311 N 
ATOM      7  C   LIG d   1       4.264  -1.695  -4.922  0.00  0.00     0.034 C 
ATOM      8  C   LIG d   1       4.644  -2.189  -3.545  0.00  0.00     0.013 C 
ATOM      9  H   LIG d   1       4.682  -3.289  -3.543  0.00  0.00     0.038 H 
ATOM     10  C   LIG d   1       3.610  -1.692  -2.529  0.00  0.00    -0.038 C 
ATOM     11  C   LIG d   1       3.528  -0.168  -2.659  0.00  0.00    -0.009 C 
ATOM     12  H   LIG d   1       2.864   0.238  -1.882  0.00  0.00     0.033 H 
ATOM     13  C   LIG d   1       2.943   0.192  -4.014  0.00  0.00     0.030 C 
ATOM     14  C   LIG d   1       4.894   0.465  -2.446  0.00  0.00     0.004 C 
ATOM     15  N   LIG d   1       5.888  -0.104  -3.363  0.00  0.00    -0.294 N 
ATOM     16  C   LIG d   1       6.002  -1.559  -3.186  0.00  0.00     0.007 C 
ATOM     17  H   LIG d   1       4.645  -2.630  -8.158  0.00  0.00     0.063 H 
ATOM     18  H   LIG d   1       3.560  -0.448  -8.480  0.00  0.00     0.067 H 
ATOM     19  H   LIG d   1       2.633  -2.149  -2.747  0.00  0.00     0.028 H 
ATOM     20  H   LIG d   1       3.927  -1.973  -1.514  0.00  0.00     0.028 H 
ATOM     21  H   LIG d   1       3.087   1.271  -4.170  0.00  0.00     0.050 H 
ATOM     22  H   LIG d   1       1.867  -0.034  -3.992  0.00  0.00     0.050 H 
ATOM     23  H   LIG d   1       4.829   1.548  -2.627  0.00  0.00     0.043 H 
ATOM     24  H   LIG d   1       5.225   0.285  -1.413  0.00  0.00     0.043 H 
ATOM     25  H   LIG d   1       6.251  -1.797  -2.142  0.00  0.00     0.043 H 
ATOM     26  H   LIG d   1       6.780  -1.963  -3.850  0.00  0.00     0.043 H 
ENDROOT
BRANCH   1  27
ATOM     27  C   LIG d   1       5.358  -3.740  -5.777  0.00  0.00    -0.016 A 
ATOM     28  C   LIG d   1       6.728  -3.743  -5.590  0.00  0.00    -0.046 A 
ATOM     29  C   LIG d   1       7.393  -4.961  -5.378  0.00  0.00    -0.017 A 
ATOM     30  H   LIG d   1       7.281  -2.816  -5.604  0.00  0.00     0.063 H 
ATOM     31  C   LIG d   1       8.784  -5.004  -5.180  0.00  0.00    -0.054 A 
ATOM     32  C   LIG d   1       6.651  -6.168  -5.369  0.00  0.00    -0.018 A 
ATOM     33  C   LIG d   1       9.399  -6.202  -4.983  0.00  0.00    -0.061 A 
ATOM     34  H   LIG d   1       9.362  -4.092  -5.184  0.00  0.00     0.062 H 
ATOM     35  C   LIG d   1       8.669  -7.390  -4.974  0.00  0.00    -0.061 A 
ATOM     36  H   LIG d   1      10.468  -6.234  -4.831  0.00  0.00     0.062 H 
ATOM     37  C   LIG d   1       7.322  -7.386  -5.161  0.00  0.00    -0.054 A 
ATOM     38  H   LIG d   1       9.182  -8.327  -4.814  0.00  0.00     0.062 H 
ATOM     39  H   LIG d   1       6.770  -8.314  -5.153  0.00  0.00     0.062 H 
ATOM     40  C   LIG d   1       5.259  -6.131  -5.567  0.00  0.00    -0.053 A 
ATOM     41  C   LIG d   1       4.633  -4.942  -5.765  0.00  0.00    -0.053 A 
ATOM     42  H   LIG d   1       4.687  -7.048  -5.561  0.00  0.00     0.062 H 
ATOM     43  H   LIG d   1       3.564  -4.922  -5.917  0.00  0.00     0.062 H 
ENDBRANCH   1  27
BRANCH  15  44
ATOM     44  C   LIG d   1       7.194   0.550  -3.195  0.00  0.00     0.057 C 
ATOM     45  H   LIG d   1       7.102   1.370  -2.467  0.00  0.00     0.051 H 
ATOM     46  H   LIG d   1       7.927  -0.184  -2.829  0.00  0.00     0.051 H 
BRANCH  44  47
ATOM     47  C   LIG d   1       7.652   1.102  -4.519  0.00  0.00     0.119 A 
ATOM     48  O   LIG d   1       7.076   0.869  -5.709  0.00  0.00    -0.461 OA
ATOM     49  C   LIG d   1       7.751   1.523  -6.669  0.00  0.00     0.131 A 
ATOM     50  C   LIG d   1       8.773   2.185  -6.096  0.00  0.00    -0.018 A 
ATOM     51  C   LIG d   1       8.706   1.917  -4.709  0.00  0.00    -0.019 A 
ATOM     52  H   LIG d   1       9.501   2.804  -6.598  0.00  0.00     0.065 H 
ATOM     53  H   LIG d   1       9.374   2.294  -3.948  0.00  0.00     0.065 H 
BRANCH  49  54
ATOM     54  C   LIG d   1       7.419   1.516  -8.139  0.00  0.00     0.102 C 
ATOM     55  H   LIG d   1       8.019   2.281  -8.654  0.00  0.00     0.064 H 
ATOM     56  H   LIG d   1       7.647   0.526  -8.562  0.00  0.00     0.064 H 
BRANCH  54  57
ATOM     57  O   LIG d   1       6.030   1.801  -8.316  0.00  0.00    -0.387 OA
ATOM     58  H   LIG d   1       5.276   1.234  -7.751  0.00  0.00     0.210 HD
ENDBRANCH  54  57
ENDBRANCH  49  54
ENDBRANCH  44  47
ENDBRANCH  15  44
TORSDOF 5
ENDMDL
MODEL 3
REMARK VINA RESULT:      -7.8      2.269      6.186
REMARK  5 active torsions:
REMARK  status: ('A' for Active; 'I' for Inactive)
REMARK    1  A    between atoms: C_6  and  C_11 
REMARK    2  A    between atoms: N_25  and  C_27 
REMARK    3  A    between atoms: C_27  and  C_28 
REMARK    4  A    between atoms: C_31  and  C_33 
REMARK    5  A    between atoms: C_33  and  O_34 
ROOT
ATOM      1  C   LIG d   1       6.788  -1.076  -5.041  0.00  0.00     0.002 C 
ATOM      2  C   LIG d   1       7.129  -2.197  -5.823  0.00  0.00    -0.047 C 
ATOM      3  C   LIG d   1       6.398  -3.339  -5.684  0.00  0.00     0.004 C 
ATOM      4  C   LIG d   1       5.352  -3.374  -4.750  0.00  0.00     0.252 C 
ATOM      5  O   LIG d   1       4.651  -4.370  -4.668  0.00  0.00    -0.268 OA
ATOM      6  N   LIG d   1       5.111  -2.318  -3.935  0.00  0.00    -0.311 N 
ATOM      7  C   LIG d   1       5.767  -1.153  -4.129  0.00  0.00     0.034 C 
ATOM      8  C   LIG d   1       5.413   0.104  -3.368  0.00  0.00     0.013 C 
ATOM      9  H   LIG d   1       6.313   0.725  -3.239  0.00  0.00     0.038 H 
ATOM     10  C   LIG d   1       4.833  -0.281  -2.002  0.00  0.00    -0.038 C 
ATOM     11  C   LIG d   1       3.656  -1.229  -2.250  0.00  0.00    -0.009 C 
ATOM     12  H   LIG d   1       3.153  -1.455  -1.298  0.00  0.00     0.033 H 
ATOM     13  C   LIG d   1       4.172  -2.533  -2.832  0.00  0.00     0.030 C 
ATOM     14  C   LIG d   1       2.620  -0.576  -3.152  0.00  0.00     0.004 C 
ATOM     15  N   LIG d   1       3.224  -0.125  -4.410  0.00  0.00    -0.294 N 
ATOM     16  C   LIG d   1       4.313   0.831  -4.162  0.00  0.00     0.007 C 
ATOM     17  H   LIG d   1       7.953  -2.154  -6.519  0.00  0.00     0.063 H 
ATOM     18  H   LIG d   1       6.622  -4.207  -6.287  0.00  0.00     0.067 H 
ATOM     19  H   LIG d   1       5.608  -0.781  -1.402  0.00  0.00     0.028 H 
ATOM     20  H   LIG d   1       4.493   0.625  -1.479  0.00  0.00     0.028 H 
ATOM     21  H   LIG d   1       3.307  -3.109  -3.194  0.00  0.00     0.050 H 
ATOM     22  H   LIG d   1       4.672  -3.091  -2.028  0.00  0.00     0.050 H 
ATOM     23  H   LIG d   1       1.826  -1.303  -3.384  0.00  0.00     0.043 H 
ATOM     24  H   LIG d   1       2.182   0.293  -2.640  0.00  0.00     0.043 H 
ATOM     25  H   LIG d   1       3.944   1.686  -3.576  0.00  0.00     0.043 H 
ATOM     26  H   LIG d   1       4.727   1.191  -5.116  0.00  0.00     0.043 H 
ENDROOT
BRANCH   1  27
ATOM     27  C   LIG d   1       7.536   0.195  -5.206  0.00  0.00    -0.016 A 
ATOM     28  C   LIG d   1       8.227   0.727  -4.134  0.00  0.00    -0.046 A 
ATOM     29  C   LIG d   1       8.936   1.928  -4.297  0.00  0.00    -0.017 A 
ATOM     30  H   LIG d   1       8.224   0.221  -3.180  0.00  0.00     0.063 H 
ATOM     31  C   LIG d   1       9.655   2.498  -3.230  0.00  0.00    -0.054 A 
ATOM     32  C   LIG d   1       8.924   2.580  -5.554  0.00  0.00    -0.018 A 
ATOM     33  C   LIG d   1      10.327   3.665  -3.420  0.00  0.00    -0.061 A 
ATOM     34  H   LIG d   1       9.673   2.011  -2.267  0.00  0.00     0.062 H 
ATOM     35  C   LIG d   1      10.315   4.307  -4.657  0.00  0.00    -0.061 A 
ATOM     36  H   LIG d   1      10.879   4.102  -2.600  0.00  0.00     0.062 H 
ATOM     37  C   LIG d   1       9.631   3.784  -5.711  0.00  0.00    -0.054 A 
ATOM     38  H   LIG d   1      10.858   5.233  -4.781  0.00  0.00     0.062 H 
ATOM     39  H   LIG d   1       9.630   4.294  -6.664  0.00  0.00     0.062 H 
ATOM     40  C   LIG d   1       8.207   2.015  -6.625  0.00  0.00    -0.053 A 
ATOM     41  C   LIG d   1       7.531   0.850  -6.448  0.00  0.00    -0.053 A 
ATOM     42  H   LIG d   1       8.193   2.507  -7.586  0.00  0.00     0.062 H 
ATOM     43  H   LIG d   1       6.983   0.423  -7.274  0.00  0.00     0.062 H 
ENDBRANCH   1  27
BRANCH  15  44
ATOM     44  C   LIG d   1       2.211   0.452  -5.303  0.00  0.00     0.057 C 
ATOM     45  H   LIG d   1       1.293  -0.154  -5.257  0.00  0.00     0.051 H 
ATOM     46  H   LIG d   1       1.986   1.481  -4.987  0.00  0.00     0.051 H 
BRANCH  44  47
ATOM     47  C   LIG d   1       2.734   0.464  -6.716  0.00  0.00     0.119 A 
ATOM     48  O   LIG d   1       2.884   1.551  -7.489  0.00  0.00    -0.461 OA
ATOM     49  C   LIG d   1       3.375   1.186  -8.685  0.00  0.00     0.131 A 
ATOM     50  C   LIG d   1       3.545  -0.148  -8.686  0.00  0.00    -0.018 A 
ATOM     51  C   LIG d   1       3.137  -0.614  -7.414  0.00  0.00    -0.019 A 
ATOM     52  H   LIG d   1       3.925  -0.748  -9.499  0.00  0.00     0.065 H 
ATOM     53  H   LIG d   1       3.145  -1.638  -7.071  0.00  0.00     0.065 H 
BRANCH  49  54
ATOM     54  C   LIG d   1       3.683   2.115  -9.831  0.00  0.00     0.102 C 
ATOM     55  H   LIG d   1       2.873   2.065 -10.572  0.00  0.00     0.064 H 
ATOM     56  H   LIG d   1       3.772   3.146  -9.455  0.00  0.00     0.064 H 
BRANCH  54  57
ATOM     57  O   LIG d   1       4.914   1.725 -10.443  0.00  0.00    -0.387 OA
ATOM     58  H   LIG d   1       5.848   2.242 -10.180  0.00  0.00     0.210 HD
ENDBRANCH  54  57
ENDBRANCH  49  54
ENDBRANCH  44  47
ENDBRANCH  15  44
TORSDOF 5
ENDMDL
MODEL 4
REMARK VINA RESULT:      -7.6      2.592      6.345
REMARK  5 active torsions:
REMARK  status: ('A' for Active; 'I' for Inactive)
REMARK    1  A    between atoms: C_6  and  C_11 
REMARK    2  A    between atoms: N_25  and  C_27 
REMARK    3  A    between atoms: C_27  and  C_28 
REMARK    4  A    between atoms: C_31  and  C_33 
REMARK    5  A    between atoms: C_33  and  O_34 
ROOT
ATOM      1  C   LIG d   1       4.930  -3.520  -7.456  0.00  0.00     0.002 C 
ATOM      2  C   LIG d   1       3.852  -4.423  -7.360  0.00  0.00    -0.047 C 
ATOM      3  C   LIG d   1       4.011  -5.555  -6.618  0.00  0.00     0.004 C 
ATOM      4  C   LIG d   1       5.244  -5.801  -5.998  0.00  0.00     0.252 C 
ATOM      5  O   LIG d   1       5.370  -6.778  -5.276  0.00  0.00    -0.268 OA
ATOM      6  N   LIG d   1       6.298  -4.971  -6.190  0.00  0.00    -0.311 N 
ATOM      7  C   LIG d   1       6.125  -3.803  -6.846  0.00  0.00     0.034 C 
ATOM      8  C   LIG d   1       7.219  -2.763  -6.936  0.00  0.00     0.013 C 
ATOM      9  H   LIG d   1       7.122  -2.204  -7.880  0.00  0.00     0.038 H 
ATOM     10  C   LIG d   1       8.582  -3.460  -6.869  0.00  0.00    -0.038 C 
ATOM     11  C   LIG d   1       8.609  -4.303  -5.591  0.00  0.00    -0.009 C 
ATOM     12  H   LIG d   1       9.606  -4.747  -5.457  0.00  0.00     0.033 H 
ATOM     13  C   LIG d   1       7.602  -5.435  -5.712  0.00  0.00     0.030 C 
ATOM     14  C   LIG d   1       8.344  -3.438  -4.369  0.00  0.00     0.004 C 
ATOM     15  N   LIG d   1       7.082  -2.704  -4.506  0.00  0.00    -0.294 N 
ATOM     16  C   LIG d   1       7.092  -1.851  -5.703  0.00  0.00     0.007 C 
ATOM     17  H   LIG d   1       2.920  -4.223  -7.866  0.00  0.00     0.063 H 
ATOM     18  H   LIG d   1       3.194  -6.253  -6.508  0.00  0.00     0.067 H 
ATOM     19  H   LIG d   1       8.711  -4.100  -7.754  0.00  0.00     0.028 H 
ATOM     20  H   LIG d   1       9.381  -2.703  -6.845  0.00  0.00     0.028 H 
ATOM     21  H   LIG d   1       7.487  -5.894  -4.719  0.00  0.00     0.050 H 
ATOM     22  H   LIG d   1       8.007  -6.178  -6.414  0.00  0.00     0.050 H 
ATOM     23  H   LIG d   1       8.284  -4.076  -3.474  0.00  0.00     0.043 H 
ATOM     24  H   LIG d   1       9.162  -2.713  -4.248  0.00  0.00     0.043 H 
ATOM     25  H   LIG d   1       7.946  -1.159  -5.671  0.00  0.00     0.043 H 
ATOM     26  H   LIG d   1       6.156  -1.275  -5.768  0.00  0.00     0.043 H 
ENDROOT
BRANCH   1  27
ATOM     27  C   LIG d   1       4.771  -2.257  -8.218  0.00  0.00    -0.016 A 
ATOM     28  C   LIG d   1       3.996  -1.237  -7.699  0.00  0.00    -0.046 A 
ATOM     29  C   LIG d   1       3.853  -0.042  -8.423  0.00  0.00    -0.017 A 
ATOM     30  H   LIG d   1       3.510  -1.355  -6.743  0.00  0.00     0.063 H 
ATOM     31  C   LIG d   1       3.077   1.020  -7.926  0.00  0.00    -0.054 A 
ATOM     32  C   LIG d   1       4.495   0.093  -9.679  0.00  0.00    -0.018 A 
ATOM     33  C   LIG d   1       2.954   2.162  -8.655  0.00  0.00    -0.061 A 
ATOM     34  H   LIG d   1       2.583   0.931  -6.971  0.00  0.00     0.062 H 
ATOM     35  C   LIG d   1       3.585   2.296  -9.891  0.00  0.00    -0.061 A 
ATOM     36  H   LIG d   1       2.357   2.977  -8.272  0.00  0.00     0.062 H 
ATOM     37  C   LIG d   1       4.343   1.289 -10.403  0.00  0.00    -0.054 A 
ATOM     38  H   LIG d   1       3.471   3.213 -10.450  0.00  0.00     0.062 H 
ATOM     39  H   LIG d   1       4.826   1.406 -11.362  0.00  0.00     0.062 H 
ATOM     40  C   LIG d   1       5.271  -0.966 -10.182  0.00  0.00    -0.053 A 
ATOM     41  C   LIG d   1       5.402  -2.111  -9.464  0.00  0.00    -0.053 A 
ATOM     42  H   LIG d   1       5.763  -0.869 -11.139  0.00  0.00     0.062 H 
ATOM     43  H   LIG d   1       6.000  -2.920  -9.857  0.00  0.00     0.062 H 
ENDBRANCH   1  27
BRANCH  15  44
ATOM     44  C   LIG d   1       6.800  -1.913  -3.299  0.00  0.00     0.057 C 
ATOM     45  H   LIG d   1       7.006  -2.522  -2.406  0.00  0.00     0.051 H 
ATOM     46  H   LIG d   1       7.439  -1.019  -3.289  0.00  0.00     0.051 H 
BRANCH  44  47
ATOM     47  C   LIG d   1       5.352  -1.497  -3.300  0.00  0.00     0.119 A 
ATOM     48  O   LIG d   1       4.812  -0.536  -4.066  0.00  0.00    -0.461 OA
ATOM     49  C   LIG d   1       3.499  -0.437  -3.802  0.00  0.00     0.131 A 
ATOM     50  C   LIG d   1       3.186  -1.341  -2.855  0.00  0.00    -0.018 A 
ATOM     51  C   LIG d   1       4.380  -2.027  -2.535  0.00  0.00    -0.019 A 
ATOM     52  H   LIG d   1       2.210  -1.512  -2.426  0.00  0.00     0.065 H 
ATOM     53  H   LIG d   1       4.491  -2.824  -1.814  0.00  0.00     0.065 H 
BRANCH  49  54
ATOM     54  C   LIG d   1       2.538   0.524  -4.454  0.00  0.00     0.102 C 
ATOM     55  H   LIG d   1       2.248   1.300  -3.731  0.00  0.00     0.064 H 
ATOM     56  H   LIG d   1       3.024   0.995  -5.322  0.00  0.00     0.064 H 
BRANCH  54  57
ATOM     57  O   LIG d   1       1.375  -0.184  -4.886  0.00  0.00    -0.387 OA
ATOM     58  H   LIG d   1       1.479  -1.117  -5.460  0.00  0.00     0.210 HD
ENDBRANCH  54  57
ENDBRANCH  49  54
ENDBRANCH  44  47
ENDBRANCH  15  44
TORSDOF 5
ENDMDL
MODEL 5
REMARK VINA RESULT:      -7.4      2.022      4.589
REMARK  5 active torsions:
REMARK  status: ('A' for Active; 'I' for Inactive)
REMARK    1  A    between atoms: C_6  and  C_11 
REMARK    2  A    between atoms: N_25  and  C_27 
REMARK    3  A    between atoms: C_27  and  C_28 
REMARK    4  A    between atoms: C_31  and  C_33 
REMARK    5  A    between atoms: C_33  and  O_34 
ROOT
ATOM      1  C   LIG d   1       7.043  -1.720  -3.660  0.00  0.00     0.002 C 
ATOM      2  C   LIG d   1       5.944  -1.598  -2.786  0.00  0.00    -0.047 C 
ATOM      3  C   LIG d   1       5.424  -0.359  -2.557  0.00  0.00     0.004 C 
ATOM      4  C   LIG d   1       6.013   0.756  -3.170  0.00  0.00     0.252 C 
ATOM      5  O   LIG d   1       5.510   1.859  -3.023  0.00  0.00    -0.268 OA
ATOM      6  N   LIG d   1       7.133   0.626  -3.922  0.00  0.00    -0.311 N 
ATOM      7  C   LIG d   1       7.599  -0.604  -4.230  0.00  0.00     0.034 C 
ATOM      8  C   LIG d   1       8.736  -0.810  -5.205  0.00  0.00     0.013 C 
ATOM      9  H   LIG d   1       9.303  -1.712  -4.928  0.00  0.00     0.038 H 
ATOM     10  C   LIG d   1       9.650   0.420  -5.181  0.00  0.00    -0.038 C 
ATOM     11  C   LIG d   1       8.781   1.648  -5.467  0.00  0.00    -0.009 C 
ATOM     12  H   LIG d   1       9.415   2.543  -5.550  0.00  0.00     0.033 H 
ATOM     13  C   LIG d   1       7.815   1.862  -4.314  0.00  0.00     0.030 C 
ATOM     14  C   LIG d   1       8.054   1.497  -6.794  0.00  0.00     0.004 C 
ATOM     15  N   LIG d   1       7.268   0.259  -6.827  0.00  0.00    -0.294 N 
ATOM     16  C   LIG d   1       8.123  -0.918  -6.613  0.00  0.00     0.007 C 
ATOM     17  H   LIG d   1       5.522  -2.469  -2.307  0.00  0.00     0.063 H 
ATOM     18  H   LIG d   1       4.567  -0.239  -1.910  0.00  0.00     0.067 H 
ATOM     19  H   LIG d   1      10.123   0.506  -4.191  0.00  0.00     0.028 H 
ATOM     20  H   LIG d   1      10.429   0.314  -5.951  0.00  0.00     0.028 H 
ATOM     21  H   LIG d   1       7.070   2.608  -4.629  0.00  0.00     0.050 H 
ATOM     22  H   LIG d   1       8.385   2.253  -3.459  0.00  0.00     0.050 H 
ATOM     23  H   LIG d   1       7.373   2.350  -6.938  0.00  0.00     0.043 H 
ATOM     24  H   LIG d   1       8.787   1.471  -7.613  0.00  0.00     0.043 H 
ATOM     25  H   LIG d   1       8.929  -0.945  -7.361  0.00  0.00     0.043 H 
ATOM     26  H   LIG d   1       7.526  -1.839  -6.683  0.00  0.00     0.043 H 
ENDROOT
BRANCH   1  27
ATOM     27  C   LIG d   1       7.600  -3.060  -3.964  0.00  0.00    -0.016 A 
ATOM     28  C   LIG d   1       8.714  -3.510  -3.282  0.00  0.00    -0.046 A 
ATOM     29  C   LIG d   1       9.235  -4.782  -3.572  0.00  0.00    -0.017 A 
ATOM     30  H   LIG d   1       9.179  -2.890  -2.530  0.00  0.00     0.063 H 
ATOM     31  C   LIG d   1      10.365  -5.276  -2.896  0.00  0.00    -0.054 A 
ATOM     32  C   LIG d   1       8.615  -5.579  -4.566  0.00  0.00    -0.018 A 
ATOM     33  C   LIG d   1      10.847  -6.510  -3.205  0.00  0.00    -0.061 A 
ATOM     34  H   LIG d   1      10.847  -4.680  -2.136  0.00  0.00     0.062 H 
ATOM     35  C   LIG d   1      10.237  -7.294  -4.183  0.00  0.00    -0.061 A 
ATOM     36  H   LIG d   1      11.715  -6.888  -2.685  0.00  0.00     0.062 H 
ATOM     37  C   LIG d   1       9.143  -6.849  -4.857  0.00  0.00    -0.054 A 
ATOM     38  H   LIG d   1      10.640  -8.271  -4.408  0.00  0.00     0.062 H 
ATOM     39  H   LIG d   1       8.682  -7.467  -5.613  0.00  0.00     0.062 H 
ATOM     40  C   LIG d   1       7.485  -5.090  -5.246  0.00  0.00    -0.053 A 
ATOM     41  C   LIG d   1       6.994  -3.859  -4.947  0.00  0.00    -0.053 A 
ATOM     42  H   LIG d   1       7.008  -5.692  -6.005  0.00  0.00     0.062 H 
ATOM     43  H   LIG d   1       6.126  -3.491  -5.474  0.00  0.00     0.062 H 
ENDBRANCH   1  27
BRANCH  15  44
ATOM     44  C   LIG d   1       6.522   0.144  -8.088  0.00  0.00     0.057 C 
ATOM     45  H   LIG d   1       6.772   0.994  -8.741  0.00  0.00     0.051 H 
ATOM     46  H   LIG d   1       6.793  -0.796  -8.591  0.00  0.00     0.051 H 
BRANCH  44  47
ATOM     47  C   LIG d   1       5.043   0.151  -7.798  0.00  0.00     0.119 A 
ATOM     48  O   LIG d   1       4.480   0.332  -6.593  0.00  0.00    -0.461 OA
ATOM     49  C   LIG d   1       3.144   0.277  -6.710  0.00  0.00     0.131 A 
ATOM     50  C   LIG d   1       2.838   0.058  -8.002  0.00  0.00    -0.018 A 
ATOM     51  C   LIG d   1       4.063  -0.019  -8.704  0.00  0.00    -0.019 A 
ATOM     52  H   LIG d   1       1.848  -0.037  -8.422  0.00  0.00     0.065 H 
ATOM     53  H   LIG d   1       4.187  -0.183  -9.764  0.00  0.00     0.065 H 
BRANCH  49  54
ATOM     54  C   LIG d   1       2.153   0.433  -5.584  0.00  0.00     0.102 C 
ATOM     55  H   LIG d   1       1.245   0.925  -5.961  0.00  0.00     0.064 H 
ATOM     56  H   LIG d   1       1.894  -0.559  -5.183  0.00  0.00     0.064 H 
BRANCH  54  57
ATOM     57  O   LIG d   1       2.732   1.229  -4.548  0.00  0.00    -0.387 OA
ATOM     58  H   LIG d   1       3.825   1.274  -4.433  0.00  0.00     0.210 HD
ENDBRANCH  54  57
ENDBRANCH  49  54
ENDBRANCH  44  47
ENDBRANCH  15  44
TORSDOF 5
ENDMDL
MODEL 6
REMARK VINA RESULT:      -7.2      4.541      7.137
REMARK  5 active torsions:
REMARK  status: ('A' for Active; 'I' for Inactive)
REMARK    1  A    between atoms: C_6  and  C_11 
REMARK    2  A    between atoms: N_25  and  C_27 
REMARK    3  A    between atoms: C_27  and  C_28 
REMARK    4  A    between atoms: C_31  and  C_33 
REMARK    5  A    between atoms: C_33  and  O_34 
ROOT
ATOM      1  C   LIG d   1       8.715   2.389  -5.629  0.00  0.00     0.002 C 
ATOM      2  C   LIG d   1       8.609   2.450  -7.032  0.00  0.00    -0.047 C 
ATOM      3  C   LIG d   1       9.358   3.368  -7.706  0.00  0.00     0.004 C 
ATOM      4  C   LIG d   1      10.186   4.240  -6.985  0.00  0.00     0.252 C 
ATOM      5  O   LIG d   1      10.910   5.017  -7.585  0.00  0.00    -0.268 OA
ATOM      6  N   LIG d   1      10.192   4.232  -5.629  0.00  0.00    -0.311 N 
ATOM      7  C   LIG d   1       9.526   3.268  -4.958  0.00  0.00     0.034 C 
ATOM      8  C   LIG d   1       9.641   3.107  -3.458  0.00  0.00     0.013 C 
ATOM      9  H   LIG d   1       8.700   2.701  -3.056  0.00  0.00     0.038 H 
ATOM     10  C   LIG d   1       9.945   4.471  -2.828  0.00  0.00    -0.038 C 
ATOM     11  C   LIG d   1      11.200   5.026  -3.508  0.00  0.00    -0.009 C 
ATOM     12  H   LIG d   1      11.506   5.962  -3.019  0.00  0.00     0.033 H 
ATOM     13  C   LIG d   1      10.891   5.333  -4.963  0.00  0.00     0.030 C 
ATOM     14  C   LIG d   1      12.363   4.056  -3.368  0.00  0.00     0.004 C 
ATOM     15  N   LIG d   1      12.009   2.730  -3.886  0.00  0.00    -0.294 N 
ATOM     16  C   LIG d   1      10.839   2.181  -3.184  0.00  0.00     0.007 C 
ATOM     17  H   LIG d   1       7.947   1.784  -7.564  0.00  0.00     0.063 H 
ATOM     18  H   LIG d   1       9.314   3.422  -8.784  0.00  0.00     0.067 H 
ATOM     19  H   LIG d   1       9.091   5.146  -2.987  0.00  0.00     0.028 H 
ATOM     20  H   LIG d   1      10.117   4.346  -1.749  0.00  0.00     0.028 H 
ATOM     21  H   LIG d   1      11.844   5.528  -5.479  0.00  0.00     0.050 H 
ATOM     22  H   LIG d   1      10.267   6.238  -4.996  0.00  0.00     0.050 H 
ATOM     23  H   LIG d   1      13.227   4.435  -3.934  0.00  0.00     0.043 H 
ATOM     24  H   LIG d   1      12.634   3.958  -2.307  0.00  0.00     0.043 H 
ATOM     25  H   LIG d   1      11.030   2.140  -2.102  0.00  0.00     0.043 H 
ATOM     26  H   LIG d   1      10.613   1.170  -3.555  0.00  0.00     0.043 H 
ENDROOT
BRANCH   1  27
ATOM     27  C   LIG d   1       7.947   1.369  -4.873  0.00  0.00    -0.016 A 
ATOM     28  C   LIG d   1       6.917   1.765  -4.041  0.00  0.00    -0.046 A 
ATOM     29  C   LIG d   1       6.191   0.795  -3.332  0.00  0.00    -0.017 A 
ATOM     30  H   LIG d   1       6.670   2.811  -3.940  0.00  0.00     0.063 H 
ATOM     31  C   LIG d   1       5.133   1.158  -2.478  0.00  0.00    -0.054 A 
ATOM     32  C   LIG d   1       6.532  -0.573  -3.473  0.00  0.00    -0.018 A 
ATOM     33  C   LIG d   1       4.454   0.194  -1.801  0.00  0.00    -0.061 A 
ATOM     34  H   LIG d   1       4.862   2.196  -2.362  0.00  0.00     0.062 H 
ATOM     35  C   LIG d   1       4.789  -1.152  -1.940  0.00  0.00    -0.061 A 
ATOM     36  H   LIG d   1       3.641   0.474  -1.146  0.00  0.00     0.062 H 
ATOM     37  C   LIG d   1       5.805  -1.541  -2.757  0.00  0.00    -0.054 A 
ATOM     38  H   LIG d   1       4.232  -1.898  -1.391  0.00  0.00     0.062 H 
ATOM     39  H   LIG d   1       6.055  -2.587  -2.853  0.00  0.00     0.062 H 
ATOM     40  C   LIG d   1       7.589  -0.943  -4.324  0.00  0.00    -0.053 A 
ATOM     41  C   LIG d   1       8.276   0.010  -5.005  0.00  0.00    -0.053 A 
ATOM     42  H   LIG d   1       7.854  -1.984  -4.436  0.00  0.00     0.062 H 
ATOM     43  H   LIG d   1       9.086  -0.281  -5.657  0.00  0.00     0.062 H 
ENDBRANCH   1  27
BRANCH  15  44
ATOM     44  C   LIG d   1      13.152   1.810  -3.803  0.00  0.00     0.057 C 
ATOM     45  H   LIG d   1      13.981   2.200  -4.414  0.00  0.00     0.051 H 
ATOM     46  H   LIG d   1      13.478   1.724  -2.756  0.00  0.00     0.051 H 
BRANCH  44  47
ATOM     47  C   LIG d   1      12.743   0.454  -4.316  0.00  0.00     0.119 A 
ATOM     48  O   LIG d   1      12.766  -0.690  -3.615  0.00  0.00    -0.461 OA
ATOM     49  C   LIG d   1      12.335  -1.699  -4.389  0.00  0.00     0.131 A 
ATOM     50  C   LIG d   1      12.030  -1.204  -5.603  0.00  0.00    -0.018 A 
ATOM     51  C   LIG d   1      12.289   0.185  -5.554  0.00  0.00    -0.019 A 
ATOM     52  H   LIG d   1      11.656  -1.760  -6.449  0.00  0.00     0.065 H 
ATOM     53  H   LIG d   1      12.150   0.894  -6.357  0.00  0.00     0.065 H 
BRANCH  49  54
ATOM     54  C   LIG d   1      12.213  -3.142  -3.970  0.00  0.00     0.102 C 
ATOM     55  H   LIG d   1      12.219  -3.785  -4.862  0.00  0.00     0.064 H 
ATOM     56  H   LIG d   1      13.062  -3.408  -3.321  0.00  0.00     0.064 H 
BRANCH  54  57
ATOM     57  O   LIG d   1      10.990  -3.329  -3.255  0.00  0.00    -0.387 OA
ATOM     58  H   LIG d   1      10.033  -3.348  -3.797  0.00  0.00     0.210 HD
ENDBRANCH  54  57
ENDBRANCH  49  54
ENDBRANCH  44  47
ENDBRANCH  15  44
TORSDOF 5
ENDMDL
MODEL 7
REMARK VINA RESULT:      -7.2      3.045      6.400
REMARK  5 active torsions:
REMARK  status: ('A' for Active; 'I' for Inactive)
REMARK    1  A    between atoms: C_6  and  C_11 
REMARK    2  A    between atoms: N_25  and  C_27 
REMARK    3  A    between atoms: C_27  and  C_28 
REMARK    4  A    between atoms: C_31  and  C_33 
REMARK    5  A    between atoms: C_33  and  O_34 
ROOT
ATOM      1  C   LIG d   1       3.634  -0.959  -8.302  0.00  0.00     0.002 C 
ATOM      2  C   LIG d   1       2.546  -1.577  -8.950  0.00  0.00    -0.047 C 
ATOM      3  C   LIG d   1       2.660  -1.882 -10.273  0.00  0.00     0.004 C 
ATOM      4  C   LIG d   1       3.839  -1.547 -10.955  0.00  0.00     0.252 C 
ATOM      5  O   LIG d   1       3.974  -1.879 -12.122  0.00  0.00    -0.268 OA
ATOM      6  N   LIG d   1       4.829  -0.859 -10.337  0.00  0.00    -0.311 N 
ATOM      7  C   LIG d   1       4.765  -0.635  -9.006  0.00  0.00     0.034 C 
ATOM      8  C   LIG d   1       5.918  -0.031  -8.237  0.00  0.00     0.013 C 
ATOM      9  H   LIG d   1       5.532   0.550  -7.385  0.00  0.00     0.038 H 
ATOM     10  C   LIG d   1       6.728   0.874  -9.173  0.00  0.00    -0.038 C 
ATOM     11  C   LIG d   1       7.141   0.035 -10.386  0.00  0.00    -0.009 C 
ATOM     12  H   LIG d   1       7.804   0.622 -11.038  0.00  0.00     0.033 H 
ATOM     13  C   LIG d   1       5.905  -0.340 -11.185  0.00  0.00     0.030 C 
ATOM     14  C   LIG d   1       7.927  -1.192  -9.950  0.00  0.00     0.004 C 
ATOM     15  N   LIG d   1       7.169  -1.985  -8.976  0.00  0.00    -0.294 N 
ATOM     16  C   LIG d   1       6.831  -1.186  -7.789  0.00  0.00     0.007 C 
ATOM     17  H   LIG d   1       1.640  -1.804  -8.409  0.00  0.00     0.063 H 
ATOM     18  H   LIG d   1       1.851  -2.377 -10.790  0.00  0.00     0.067 H 
ATOM     19  H   LIG d   1       6.106   1.725  -9.489  0.00  0.00     0.028 H 
ATOM     20  H   LIG d   1       7.618   1.247  -8.644  0.00  0.00     0.028 H 
ATOM     21  H   LIG d   1       6.194  -1.106 -11.920  0.00  0.00     0.050 H 
ATOM     22  H   LIG d   1       5.554   0.559 -11.712  0.00  0.00     0.050 H 
ATOM     23  H   LIG d   1       8.139  -1.822 -10.827  0.00  0.00     0.043 H 
ATOM     24  H   LIG d   1       8.873  -0.877  -9.486  0.00  0.00     0.043 H 
ATOM     25  H   LIG d   1       7.744  -0.776  -7.334  0.00  0.00     0.043 H 
ATOM     26  H   LIG d   1       6.300  -1.807  -7.051  0.00  0.00     0.043 H 
ENDROOT
BRANCH   1  27
ATOM     27  C   LIG d   1       3.556  -0.658  -6.851  0.00  0.00    -0.016 A 
ATOM     28  C   LIG d   1       4.230  -1.459  -5.949  0.00  0.00    -0.046 A 
ATOM     29  C   LIG d   1       4.156  -1.167  -4.577  0.00  0.00    -0.017 A 
ATOM     30  H   LIG d   1       4.812  -2.300  -6.296  0.00  0.00     0.063 H 
ATOM     31  C   LIG d   1       4.832  -1.957  -3.629  0.00  0.00    -0.054 A 
ATOM     32  C   LIG d   1       3.384  -0.063  -4.140  0.00  0.00    -0.018 A 
ATOM     33  C   LIG d   1       4.735  -1.650  -2.307  0.00  0.00    -0.061 A 
ATOM     34  H   LIG d   1       5.424  -2.801  -3.948  0.00  0.00     0.062 H 
ATOM     35  C   LIG d   1       3.975  -0.563  -1.876  0.00  0.00    -0.061 A 
ATOM     36  H   LIG d   1       5.254  -2.257  -1.579  0.00  0.00     0.062 H 
ATOM     37  C   LIG d   1       3.309   0.222  -2.765  0.00  0.00    -0.054 A 
ATOM     38  H   LIG d   1       3.916  -0.341  -0.821  0.00  0.00     0.062 H 
ATOM     39  H   LIG d   1       2.723   1.060  -2.417  0.00  0.00     0.062 H 
ATOM     40  C   LIG d   1       2.706   0.730  -5.084  0.00  0.00    -0.053 A 
ATOM     41  C   LIG d   1       2.794   0.434  -6.406  0.00  0.00    -0.053 A 
ATOM     42  H   LIG d   1       2.116   1.573  -4.757  0.00  0.00     0.062 H 
ATOM     43  H   LIG d   1       2.271   1.047  -7.124  0.00  0.00     0.062 H 
ENDBRANCH   1  27
BRANCH  15  44
ATOM     44  C   LIG d   1       7.905  -3.200  -8.600  0.00  0.00     0.057 C 
ATOM     45  H   LIG d   1       8.023  -3.846  -9.484  0.00  0.00     0.051 H 
ATOM     46  H   LIG d   1       8.897  -2.923  -8.214  0.00  0.00     0.051 H 
BRANCH  44  47
ATOM     47  C   LIG d   1       7.140  -3.941  -7.535  0.00  0.00     0.119 A 
ATOM     48  O   LIG d   1       5.976  -4.587  -7.710  0.00  0.00    -0.461 OA
ATOM     49  C   LIG d   1       5.587  -5.132  -6.546  0.00  0.00     0.131 A 
ATOM     50  C   LIG d   1       6.506  -4.837  -5.609  0.00  0.00    -0.018 A 
ATOM     51  C   LIG d   1       7.510  -4.073  -6.248  0.00  0.00    -0.019 A 
ATOM     52  H   LIG d   1       6.484  -5.130  -4.570  0.00  0.00     0.065 H 
ATOM     53  H   LIG d   1       8.402  -3.672  -5.790  0.00  0.00     0.065 H 
BRANCH  49  54
ATOM     54  C   LIG d   1       4.332  -5.938  -6.327  0.00  0.00     0.102 C 
ATOM     55  H   LIG d   1       4.207  -6.655  -7.151  0.00  0.00     0.064 H 
ATOM     56  H   LIG d   1       4.409  -6.485  -5.374  0.00  0.00     0.064 H 
BRANCH  54  57
ATOM     57  O   LIG d   1       3.204  -5.062  -6.282  0.00  0.00    -0.387 OA
ATOM     58  H   LIG d   1       2.928  -4.474  -7.170  0.00  0.00     0.210 HD
ENDBRANCH  54  57
ENDBRANCH  49  54
ENDBRANCH  44  47
ENDBRANCH  15  44
TORSDOF 5
ENDMDL
MODEL 8
REMARK VINA RESULT:      -7.0      4.133      7.656
REMARK  5 active torsions:
REMARK  status: ('A' for Active; 'I' for Inactive)
REMARK    1  A    between atoms: C_6  and  C_11 
REMARK    2  A    between atoms: N_25  and  C_27 
REMARK    3  A    between atoms: C_27  and  C_28 
REMARK    4  A    between atoms: C_31  and  C_33 
REMARK    5  A    between atoms: C_33  and  O_34 
ROOT
ATOM      1  C   LIG d   1       3.968   0.181  -8.292  0.00  0.00     0.002 C 
ATOM      2  C   LIG d   1       3.571   1.387  -8.904  0.00  0.00    -0.047 C 
ATOM      3  C   LIG d   1       3.714   1.515 -10.253  0.00  0.00     0.004 C 
ATOM      4  C   LIG d   1       4.277   0.460 -10.986  0.00  0.00     0.252 C 
ATOM      5  O   LIG d   1       4.345   0.541 -12.202  0.00  0.00    -0.268 OA
ATOM      6  N   LIG d   1       4.749  -0.647 -10.362  0.00  0.00    -0.311 N 
ATOM      7  C   LIG d   1       4.528  -0.822  -9.041  0.00  0.00     0.034 C 
ATOM      8  C   LIG d   1       4.875  -2.112  -8.332  0.00  0.00     0.013 C 
ATOM      9  H   LIG d   1       5.139  -1.900  -7.285  0.00  0.00     0.038 H 
ATOM     10  C   LIG d   1       6.052  -2.780  -9.053  0.00  0.00    -0.038 C 
ATOM     11  C   LIG d   1       5.660  -2.947 -10.524  0.00  0.00    -0.009 C 
ATOM     12  H   LIG d   1       6.441  -3.508 -11.057  0.00  0.00     0.033 H 
ATOM     13  C   LIG d   1       5.538  -1.578 -11.171  0.00  0.00     0.030 C 
ATOM     14  C   LIG d   1       4.375  -3.751 -10.652  0.00  0.00     0.004 C 
ATOM     15  N   LIG d   1       3.293  -3.144  -9.870  0.00  0.00    -0.294 N 
ATOM     16  C   LIG d   1       3.657  -3.045  -8.448  0.00  0.00     0.007 C 
ATOM     17  H   LIG d   1       3.161   2.194  -8.315  0.00  0.00     0.063 H 
ATOM     18  H   LIG d   1       3.396   2.418 -10.752  0.00  0.00     0.067 H 
ATOM     19  H   LIG d   1       6.945  -2.145  -8.963  0.00  0.00     0.028 H 
ATOM     20  H   LIG d   1       6.252  -3.761  -8.596  0.00  0.00     0.028 H 
ATOM     21  H   LIG d   1       5.058  -1.708 -12.153  0.00  0.00     0.050 H 
ATOM     22  H   LIG d   1       6.551  -1.175 -11.310  0.00  0.00     0.050 H 
ATOM     23  H   LIG d   1       4.069  -3.785 -11.708  0.00  0.00     0.043 H 
ATOM     24  H   LIG d   1       4.544  -4.774 -10.285  0.00  0.00     0.043 H 
ATOM     25  H   LIG d   1       3.917  -4.038  -8.052  0.00  0.00     0.043 H 
ATOM     26  H   LIG d   1       2.819  -2.628  -7.870  0.00  0.00     0.043 H 
ENDROOT
BRANCH   1  27
ATOM     27  C   LIG d   1       3.781  -0.004  -6.832  0.00  0.00    -0.016 A 
ATOM     28  C   LIG d   1       4.797  -0.558  -6.076  0.00  0.00    -0.046 A 
ATOM     29  C   LIG d   1       4.615  -0.727  -4.694  0.00  0.00    -0.017 A 
ATOM     30  H   LIG d   1       5.723  -0.855  -6.544  0.00  0.00     0.063 H 
ATOM     31  C   LIG d   1       5.627  -1.283  -3.891  0.00  0.00    -0.054 A 
ATOM     32  C   LIG d   1       3.390  -0.336  -4.099  0.00  0.00    -0.018 A 
ATOM     33  C   LIG d   1       5.417  -1.438  -2.556  0.00  0.00    -0.061 A 
ATOM     34  H   LIG d   1       6.565  -1.585  -4.331  0.00  0.00     0.062 H 
ATOM     35  C   LIG d   1       4.212  -1.054  -1.970  0.00  0.00    -0.061 A 
ATOM     36  H   LIG d   1       6.195  -1.866  -1.940  0.00  0.00     0.062 H 
ATOM     37  C   LIG d   1       3.211  -0.512  -2.715  0.00  0.00    -0.054 A 
ATOM     38  H   LIG d   1       4.071  -1.187  -0.907  0.00  0.00     0.062 H 
ATOM     39  H   LIG d   1       2.282  -0.220  -2.248  0.00  0.00     0.062 H 
ATOM     40  C   LIG d   1       2.374   0.220  -4.897  0.00  0.00    -0.053 A 
ATOM     41  C   LIG d   1       2.571   0.380  -6.231  0.00  0.00    -0.053 A 
ATOM     42  H   LIG d   1       1.438   0.520  -4.449  0.00  0.00     0.062 H 
ATOM     43  H   LIG d   1       1.787   0.808  -6.837  0.00  0.00     0.062 H 
ENDBRANCH   1  27
BRANCH  15  44
ATOM     44  C   LIG d   1       2.038  -3.889 -10.041  0.00  0.00     0.057 C 
ATOM     45  H   LIG d   1       2.263  -4.912 -10.379  0.00  0.00     0.051 H 
ATOM     46  H   LIG d   1       1.502  -3.930  -9.082  0.00  0.00     0.051 H 
BRANCH  44  47
ATOM     47  C   LIG d   1       1.180  -3.198 -11.068  0.00  0.00     0.119 A 
ATOM     48  O   LIG d   1       0.102  -3.723 -11.672  0.00  0.00    -0.461 OA
ATOM     49  C   LIG d   1      -0.415  -2.825 -12.526  0.00  0.00     0.131 A 
ATOM     50  C   LIG d   1       0.335  -1.709 -12.476  0.00  0.00    -0.018 A 
ATOM     51  C   LIG d   1       1.361  -1.948 -11.532  0.00  0.00    -0.019 A 
ATOM     52  H   LIG d   1       0.181  -0.804 -13.043  0.00  0.00     0.065 H 
ATOM     53  H   LIG d   1       2.140  -1.259 -11.241  0.00  0.00     0.065 H 
BRANCH  49  54
ATOM     54  C   LIG d   1      -1.629  -3.032 -13.395  0.00  0.00     0.102 C 
ATOM     55  H   LIG d   1      -1.460  -2.570 -14.378  0.00  0.00     0.064 H 
ATOM     56  H   LIG d   1      -1.809  -4.111 -13.523  0.00  0.00     0.064 H 
BRANCH  54  57
ATOM     57  O   LIG d   1      -2.768  -2.431 -12.774  0.00  0.00    -0.387 OA
ATOM     58  H   LIG d   1      -3.181  -1.493 -13.174  0.00  0.00     0.210 HD
ENDBRANCH  54  57
ENDBRANCH  49  54
ENDBRANCH  44  47
ENDBRANCH  15  44
TORSDOF 5
ENDMDL
MODEL 9
REMARK VINA RESULT:      -7.0      3.105      5.684
REMARK  5 active torsions:
REMARK  status: ('A' for Active; 'I' for Inactive)
REMARK    1  A    between atoms: C_6  and  C_11 
REMARK    2  A    between atoms: N_25  and  C_27 
REMARK    3  A    between atoms: C_27  and  C_28 
REMARK    4  A    between atoms: C_31  and  C_33 
REMARK    5  A    between atoms: C_33  and  O_34 
ROOT
ATOM      1  C   LIG d   1       5.745  -2.209  -7.377  0.00  0.00     0.002 C 
ATOM      2  C   LIG d   1       6.986  -2.806  -7.676  0.00  0.00    -0.047 C 
ATOM      3  C   LIG d   1       7.329  -2.985  -8.982  0.00  0.00     0.004 C 
ATOM      4  C   LIG d   1       6.430  -2.598  -9.987  0.00  0.00     0.252 C 
ATOM      5  O   LIG d   1       6.759  -2.692 -11.158  0.00  0.00    -0.268 OA
ATOM      6  N   LIG d   1       5.199  -2.123  -9.674  0.00  0.00    -0.311 N 
ATOM      7  C   LIG d   1       4.886  -1.857  -8.387  0.00  0.00     0.034 C 
ATOM      8  C   LIG d   1       3.599  -1.165  -8.000  0.00  0.00     0.013 C 
ATOM      9  H   LIG d   1       3.277  -1.510  -7.006  0.00  0.00     0.038 H 
ATOM     10  C   LIG d   1       2.524  -1.480  -9.047  0.00  0.00    -0.038 C 
ATOM     11  C   LIG d   1       3.078  -1.076 -10.416  0.00  0.00    -0.009 C 
ATOM     12  H   LIG d   1       2.301  -1.200 -11.184  0.00  0.00     0.033 H 
ATOM     13  C   LIG d   1       4.244  -1.981 -10.775  0.00  0.00     0.030 C 
ATOM     14  C   LIG d   1       3.476   0.391 -10.425  0.00  0.00     0.004 C 
ATOM     15  N   LIG d   1       4.428   0.686  -9.348  0.00  0.00    -0.294 N 
ATOM     16  C   LIG d   1       3.862   0.351  -8.033  0.00  0.00     0.007 C 
ATOM     17  H   LIG d   1       7.652  -3.117  -6.885  0.00  0.00     0.063 H 
ATOM     18  H   LIG d   1       8.284  -3.418  -9.241  0.00  0.00     0.067 H 
ATOM     19  H   LIG d   1       2.298  -2.557  -9.026  0.00  0.00     0.028 H 
ATOM     20  H   LIG d   1       1.612  -0.910  -8.819  0.00  0.00     0.028 H 
ATOM     21  H   LIG d   1       4.754  -1.548 -11.649  0.00  0.00     0.050 H 
ATOM     22  H   LIG d   1       3.841  -2.969 -11.040  0.00  0.00     0.050 H 
ATOM     23  H   LIG d   1       3.948   0.637 -11.388  0.00  0.00     0.043 H 
ATOM     24  H   LIG d   1       2.582   1.015 -10.285  0.00  0.00     0.043 H 
ATOM     25  H   LIG d   1       2.916   0.890  -7.878  0.00  0.00     0.043 H 
ATOM     26  H   LIG d   1       4.571   0.618  -7.235  0.00  0.00     0.043 H 
ENDROOT
BRANCH   1  27
ATOM     27  C   LIG d   1       5.365  -1.960  -5.965  0.00  0.00    -0.016 A 
ATOM     28  C   LIG d   1       5.575  -0.711  -5.410  0.00  0.00    -0.046 A 
ATOM     29  C   LIG d   1       5.210  -0.480  -4.074  0.00  0.00    -0.017 A 
ATOM     30  H   LIG d   1       6.012   0.080  -6.000  0.00  0.00     0.063 H 
ATOM     31  C   LIG d   1       5.403   0.778  -3.475  0.00  0.00    -0.054 A 
ATOM     32  C   LIG d   1       4.642  -1.532  -3.314  0.00  0.00    -0.018 A 
ATOM     33  C   LIG d   1       5.044   0.967  -2.177  0.00  0.00    -0.061 A 
ATOM     34  H   LIG d   1       5.834   1.589  -4.043  0.00  0.00     0.062 H 
ATOM     35  C   LIG d   1       4.485  -0.068  -1.429  0.00  0.00    -0.061 A 
ATOM     36  H   LIG d   1       5.193   1.934  -1.718  0.00  0.00     0.062 H 
ATOM     37  C   LIG d   1       4.283  -1.297  -1.975  0.00  0.00    -0.054 A 
ATOM     38  H   LIG d   1       4.208   0.110  -0.400  0.00  0.00     0.062 H 
ATOM     39  H   LIG d   1       3.851  -2.090  -1.383  0.00  0.00     0.062 H 
ATOM     40  C   LIG d   1       4.447  -2.793  -3.907  0.00  0.00    -0.053 A 
ATOM     41  C   LIG d   1       4.802  -2.995  -5.202  0.00  0.00    -0.053 A 
ATOM     42  H   LIG d   1       4.015  -3.599  -3.333  0.00  0.00     0.062 H 
ATOM     43  H   LIG d   1       4.649  -3.965  -5.650  0.00  0.00     0.062 H 
ENDBRANCH   1  27
BRANCH  15  44
ATOM     44  C   LIG d   1       4.856   2.091  -9.394  0.00  0.00     0.057 C 
ATOM     45  H   LIG d   1       4.702   2.488 -10.410  0.00  0.00     0.051 H 
ATOM     46  H   LIG d   1       4.263   2.679  -8.678  0.00  0.00     0.051 H 
BRANCH  44  47
ATOM     47  C   LIG d   1       6.316   2.184  -9.035  0.00  0.00     0.119 A 
ATOM     48  O   LIG d   1       7.123   3.225  -9.293  0.00  0.00    -0.461 OA
ATOM     49  C   LIG d   1       8.356   2.961  -8.831  0.00  0.00     0.131 A 
ATOM     50  C   LIG d   1       8.348   1.738  -8.270  0.00  0.00    -0.018 A 
ATOM     51  C   LIG d   1       7.031   1.239  -8.397  0.00  0.00    -0.019 A 
ATOM     52  H   LIG d   1       9.184   1.236  -7.807  0.00  0.00     0.065 H 
ATOM     53  H   LIG d   1       6.669   0.283  -8.050  0.00  0.00     0.065 H 
BRANCH  49  54
ATOM     54  C   LIG d   1       9.548   3.879  -8.926  0.00  0.00     0.102 C 
ATOM     55  H   LIG d   1      10.292   3.594  -8.169  0.00  0.00     0.064 H 
ATOM     56  H   LIG d   1       9.995   3.797  -9.929  0.00  0.00     0.064 H 
BRANCH  54  57
ATOM     57  O   LIG d   1       9.130   5.227  -8.700  0.00  0.00    -0.387 OA
ATOM     58  H   LIG d   1       8.785   5.845  -9.543  0.00  0.00     0.210 HD
ENDBRANCH  54  57
ENDBRANCH  49  54
ENDBRANCH  44  47
ENDBRANCH  15  44
TORSDOF 5
ENDMDL
