MODEL 1
REMARK VINA RESULT:      -6.6      0.000      0.000
REMARK  9 active torsions:
REMARK  status: ('A' for Active; 'I' for Inactive)
REMARK    1  A    between atoms: C_3  and  N_31 
REMARK    2  A    between atoms: N_7  and  C_10 
REMARK    3  A    between atoms: C_12  and  O_30 
REMARK    4  A    between atoms: C_14  and  O_29 
REMARK    5  A    between atoms: C_16  and  C_19 
REMARK    6  A    between atoms: C_19  and  O_20 
REMARK    7  A    between atoms: O_20  and  P_21 
REMARK    8  A    between atoms: P_21  and  O_24 
REMARK    9  A    between atoms: O_24  and  S_25 
ROOT
ATOM      1  C   LIG d   1      10.609   9.990  -2.021  0.00  0.00     0.167 C 
ATOM      2  H   LIG d   1      11.572  10.463  -1.830  0.00  0.00     0.087 H 
ATOM      3  C   LIG d   1       9.457  10.914  -1.569  0.00  0.00     0.129 C 
ATOM      4  H   LIG d   1       9.804  11.612  -0.807  0.00  0.00     0.067 H 
ATOM      5  C   LIG d   1       9.056  11.671  -2.855  0.00  0.00     0.114 C 
ATOM      6  H   LIG d   1       9.205  12.744  -2.729  0.00  0.00     0.065 H 
ATOM      7  C   LIG d   1      10.013  11.115  -3.932  0.00  0.00     0.113 C 
ATOM      8  H   LIG d   1      10.885  11.760  -4.036  0.00  0.00     0.065 H 
ATOM      9  O   LIG d   1      10.409   9.814  -3.441  0.00  0.00    -0.346 OA
ENDROOT
BRANCH   1  10
ATOM     10  N   LIG d   1      10.529   8.700  -1.332  0.00  0.00    -0.285 N 
ATOM     11  C   LIG d   1      10.915   8.444  -0.040  0.00  0.00     0.167 A 
ATOM     12  C   LIG d   1      10.653   7.082   0.181  0.00  0.00     0.147 A 
ATOM     13  N   LIG d   1      11.437   9.169   0.945  0.00  0.00    -0.216 NA
ATOM     14  C   LIG d   1      10.957   6.543   1.442  0.00  0.00     0.147 A 
ATOM     15  N   LIG d   1      10.130   6.585  -0.966  0.00  0.00    -0.231 NA
ATOM     16  N   LIG d   1      11.477   7.346   2.365  0.00  0.00    -0.219 NA
ATOM     17  C   LIG d   1      11.706   8.622   2.111  0.00  0.00     0.120 A 
ATOM     18  H   LIG d   1      12.125   9.240   2.891  0.00  0.00     0.105 H 
ATOM     19  C   LIG d   1      10.057   7.533  -1.855  0.00  0.00     0.100 A 
ATOM     20  H   LIG d   1       9.678   7.413  -2.859  0.00  0.00     0.103 H 
BRANCH  14  21
ATOM     21  N   LIG d   1      10.721   5.208   1.718  0.00  0.00    -0.341 N 
ATOM     22  H   LIG d   1      10.250   4.956   2.527  0.00  0.00     0.144 HD
ATOM     23  H   LIG d   1      11.028   4.524   1.102  0.00  0.00     0.144 HD
ENDBRANCH  14  21
ENDBRANCH   1  10
BRANCH   3  24
ATOM     24  O   LIG d   1       8.360  10.143  -1.075  0.00  0.00    -0.385 OA
ATOM     25  H   LIG d   1       7.514  10.610  -1.086  0.00  0.00     0.210 HD
ENDBRANCH   3  24
BRANCH   7  26
ATOM     26  C   LIG d   1       9.288  10.982  -5.272  0.00  0.00     0.084 C 
ATOM     27  H   LIG d   1       9.839  10.299  -5.919  0.00  0.00     0.059 H 
ATOM     28  H   LIG d   1       8.284  10.591  -5.104  0.00  0.00     0.059 H 
BRANCH  26  29
ATOM     29  O   LIG d   1       9.200  12.264  -5.897  0.00  0.00    -0.324 OA
BRANCH  29  30
ATOM     30  P   LIG d   1       9.981  12.634  -7.255  0.00  0.00     0.238 P 
ATOM     31  O   LIG d   1       9.078  13.521  -8.142  0.00  0.00    -0.516 OA
ATOM     32  O   LIG d   1      11.278  13.399  -6.910  0.00  0.00    -0.436 OA
BRANCH  30  33
ATOM     33  O   LIG d   1      10.350  11.282  -8.048  0.00  0.00    -0.195 OA
BRANCH  33  34
ATOM     34  S   LIG d   1      11.675  11.345  -8.794  0.00  0.00     0.005 S 
ATOM     35  O   LIG d   1      12.718  11.034  -7.829  0.00  0.00    -0.345 OA
ATOM     36  O   LIG d   1      11.607  10.354  -9.858  0.00  0.00    -0.345 OA
ATOM     37  O   LIG d   1      11.803  12.696  -9.316  0.00  0.00    -0.268 OA
ENDBRANCH  33  34
ENDBRANCH  30  33
ENDBRANCH  29  30
ENDBRANCH  26  29
ENDBRANCH   7  26
BRANCH   5  38
ATOM     38  O   LIG d   1       7.697  11.392  -3.197  0.00  0.00    -0.386 OA
ATOM     39  H   LIG d   1       7.050  11.863  -2.653  0.00  0.00     0.210 HD
ENDBRANCH   5  38
TORSDOF 9
ENDMDL
MODEL 2
REMARK VINA RESULT:      -6.5      2.254      2.936
REMARK  9 active torsions:
REMARK  status: ('A' for Active; 'I' for Inactive)
REMARK    1  A    between atoms: C_3  and  N_31 
REMARK    2  A    between atoms: N_7  and  C_10 
REMARK    3  A    between atoms: C_12  and  O_30 
REMARK    4  A    between atoms: C_14  and  O_29 
REMARK    5  A    between atoms: C_16  and  C_19 
REMARK    6  A    between atoms: C_19  and  O_20 
REMARK    7  A    between atoms: O_20  and  P_21 
REMARK    8  A    between atoms: P_21  and  O_24 
REMARK    9  A    between atoms: O_24  and  S_25 
ROOT
ATOM      1  C   LIG d   1      10.649  10.111  -2.093  0.00  0.00     0.167 C 
ATOM      2  H   LIG d   1      11.570  10.630  -1.825  0.00  0.00     0.087 H 
ATOM      3  C   LIG d   1       9.420  10.944  -1.671  0.00  0.00     0.129 C 
ATOM      4  H   LIG d   1       9.679  11.626  -0.861  0.00  0.00     0.067 H 
ATOM      5  C   LIG d   1       9.046  11.735  -2.946  0.00  0.00     0.114 C 
ATOM      6  H   LIG d   1       9.123  12.808  -2.766  0.00  0.00     0.065 H 
ATOM      7  C   LIG d   1      10.096  11.286  -3.986  0.00  0.00     0.113 C 
ATOM      8  H   LIG d   1      10.930  11.985  -4.010  0.00  0.00     0.065 H 
ATOM      9  O   LIG d   1      10.542   9.990  -3.528  0.00  0.00    -0.346 OA
ENDROOT
BRANCH   1  10
ATOM     10  N   LIG d   1      10.610   8.788  -1.465  0.00  0.00    -0.285 N 
ATOM     11  C   LIG d   1      10.953   8.494  -0.169  0.00  0.00     0.167 A 
ATOM     12  C   LIG d   1      10.755   7.111  -0.020  0.00  0.00     0.147 A 
ATOM     13  N   LIG d   1      11.393   9.199   0.869  0.00  0.00    -0.216 NA
ATOM     14  C   LIG d   1      11.034   6.531   1.228  0.00  0.00     0.147 A 
ATOM     15  N   LIG d   1      10.310   6.641  -1.211  0.00  0.00    -0.231 NA
ATOM     16  N   LIG d   1      11.470   7.317   2.208  0.00  0.00    -0.219 NA
ATOM     17  C   LIG d   1      11.641   8.613   2.021  0.00  0.00     0.120 A 
ATOM     18  H   LIG d   1      11.992   9.215   2.845  0.00  0.00     0.105 H 
ATOM     19  C   LIG d   1      10.224   7.624  -2.060  0.00  0.00     0.100 A 
ATOM     20  H   LIG d   1       9.895   7.531  -3.084  0.00  0.00     0.103 H 
BRANCH  14  21
ATOM     21  N   LIG d   1      10.859   5.175   1.434  0.00  0.00    -0.341 N 
ATOM     22  H   LIG d   1      10.389   4.860   2.223  0.00  0.00     0.144 HD
ATOM     23  H   LIG d   1      11.206   4.537   0.791  0.00  0.00     0.144 HD
ENDBRANCH  14  21
ENDBRANCH   1  10
BRANCH   3  24
ATOM     24  O   LIG d   1       8.346  10.088  -1.277  0.00  0.00    -0.385 OA
ATOM     25  H   LIG d   1       8.579   9.150  -1.251  0.00  0.00     0.210 HD
ENDBRANCH   3  24
BRANCH   7  26
ATOM     26  C   LIG d   1       9.457  11.172  -5.372  0.00  0.00     0.084 C 
ATOM     27  H   LIG d   1       8.505  11.703  -5.379  0.00  0.00     0.059 H 
ATOM     28  H   LIG d   1      10.123  11.612  -6.115  0.00  0.00     0.059 H 
BRANCH  26  29
ATOM     29  O   LIG d   1       9.238   9.796  -5.685  0.00  0.00    -0.324 OA
BRANCH  29  30
ATOM     30  P   LIG d   1       9.850   9.085  -6.994  0.00  0.00     0.238 P 
ATOM     31  O   LIG d   1       8.702   8.499  -7.846  0.00  0.00    -0.516 OA
ATOM     32  O   LIG d   1      10.631  10.127  -7.827  0.00  0.00    -0.436 OA
BRANCH  30  33
ATOM     33  O   LIG d   1      10.845   7.902  -6.546  0.00  0.00    -0.195 OA
BRANCH  33  34
ATOM     34  S   LIG d   1      10.137   6.674  -5.994  0.00  0.00     0.005 S 
ATOM     35  O   LIG d   1       8.988   7.152  -5.240  0.00  0.00    -0.345 OA
ATOM     36  O   LIG d   1       9.738   5.866  -7.137  0.00  0.00    -0.345 OA
ATOM     37  O   LIG d   1      11.093   5.980  -5.145  0.00  0.00    -0.268 OA
ENDBRANCH  33  34
ENDBRANCH  30  33
ENDBRANCH  29  30
ENDBRANCH  26  29
ENDBRANCH   7  26
BRANCH   5  38
ATOM     38  O   LIG d   1       7.729  11.393  -3.379  0.00  0.00    -0.386 OA
ATOM     39  H   LIG d   1       7.706  10.871  -4.193  0.00  0.00     0.210 HD
ENDBRANCH   5  38
TORSDOF 9
ENDMDL
MODEL 3
REMARK VINA RESULT:      -6.4     13.866     15.971
REMARK  9 active torsions:
REMARK  status: ('A' for Active; 'I' for Inactive)
REMARK    1  A    between atoms: C_3  and  N_31 
REMARK    2  A    between atoms: N_7  and  C_10 
REMARK    3  A    between atoms: C_12  and  O_30 
REMARK    4  A    between atoms: C_14  and  O_29 
REMARK    5  A    between atoms: C_16  and  C_19 
REMARK    6  A    between atoms: C_19  and  O_20 
REMARK    7  A    between atoms: O_20  and  P_21 
REMARK    8  A    between atoms: P_21  and  O_24 
REMARK    9  A    between atoms: O_24  and  S_25 
ROOT
ATOM      1  C   LIG d   1       5.023  -4.343  -7.806  0.00  0.00     0.167 C 
ATOM      2  H   LIG d   1       5.846  -4.838  -8.324  0.00  0.00     0.087 H 
ATOM      3  C   LIG d   1       4.523  -5.216  -6.635  0.00  0.00     0.129 C 
ATOM      4  H   LIG d   1       4.771  -6.264  -6.804  0.00  0.00     0.067 H 
ATOM      5  C   LIG d   1       5.287  -4.669  -5.407  0.00  0.00     0.114 C 
ATOM      6  H   LIG d   1       5.915  -5.447  -4.971  0.00  0.00     0.065 H 
ATOM      7  C   LIG d   1       6.159  -3.533  -5.984  0.00  0.00     0.113 C 
ATOM      8  H   LIG d   1       7.157  -3.901  -6.220  0.00  0.00     0.065 H 
ATOM      9  O   LIG d   1       5.479  -3.120  -7.191  0.00  0.00    -0.346 OA
ENDROOT
BRANCH   1  10
ATOM     10  N   LIG d   1       3.928  -4.067  -8.740  0.00  0.00    -0.285 N 
ATOM     11  C   LIG d   1       3.268  -2.873  -8.888  0.00  0.00     0.167 A 
ATOM     12  C   LIG d   1       2.309  -3.082  -9.892  0.00  0.00     0.147 A 
ATOM     13  N   LIG d   1       3.357  -1.675  -8.319  0.00  0.00    -0.216 NA
ATOM     14  C   LIG d   1       1.478  -2.008 -10.252  0.00  0.00     0.147 A 
ATOM     15  N   LIG d   1       2.430  -4.369 -10.298  0.00  0.00    -0.231 NA
ATOM     16  N   LIG d   1       1.641  -0.846  -9.627  0.00  0.00    -0.219 NA
ATOM     17  C   LIG d   1       2.558  -0.696  -8.687  0.00  0.00     0.120 A 
ATOM     18  H   LIG d   1       2.659   0.266  -8.208  0.00  0.00     0.105 H 
ATOM     19  C   LIG d   1       3.380  -4.949  -9.623  0.00  0.00     0.100 A 
ATOM     20  H   LIG d   1       3.688  -5.977  -9.745  0.00  0.00     0.103 H 
BRANCH  14  21
ATOM     21  N   LIG d   1       0.515  -2.154 -11.233  0.00  0.00    -0.341 N 
ATOM     22  H   LIG d   1      -0.295  -1.621 -11.202  0.00  0.00     0.144 HD
ATOM     23  H   LIG d   1       0.648  -2.791 -11.954  0.00  0.00     0.144 HD
ENDBRANCH  14  21
ENDBRANCH   1  10
BRANCH   3  24
ATOM     24  O   LIG d   1       3.113  -5.060  -6.460  0.00  0.00    -0.385 OA
ATOM     25  H   LIG d   1       2.745  -5.588  -5.738  0.00  0.00     0.210 HD
ENDBRANCH   3  24
BRANCH   7  26
ATOM     26  C   LIG d   1       6.242  -2.370  -4.993  0.00  0.00     0.084 C 
ATOM     27  H   LIG d   1       5.853  -2.687  -4.026  0.00  0.00     0.059 H 
ATOM     28  H   LIG d   1       7.282  -2.063  -4.882  0.00  0.00     0.059 H 
BRANCH  26  29
ATOM     29  O   LIG d   1       5.471  -1.271  -5.481  0.00  0.00    -0.324 OA
BRANCH  29  30
ATOM     30  P   LIG d   1       4.355  -0.521  -4.597  0.00  0.00     0.238 P 
ATOM     31  O   LIG d   1       3.555   0.451  -5.493  0.00  0.00    -0.516 OA
ATOM     32  O   LIG d   1       3.395  -1.566  -3.985  0.00  0.00    -0.436 OA
BRANCH  30  33
ATOM     33  O   LIG d   1       5.071   0.305  -3.415  0.00  0.00    -0.195 OA
BRANCH  33  34
ATOM     34  S   LIG d   1       4.330   0.253  -2.087  0.00  0.00     0.005 S 
ATOM     35  O   LIG d   1       2.943   0.595  -2.363  0.00  0.00    -0.345 OA
ATOM     36  O   LIG d   1       4.465  -1.105  -1.581  0.00  0.00    -0.345 OA
ATOM     37  O   LIG d   1       4.965   1.225  -1.210  0.00  0.00    -0.268 OA
ENDBRANCH  33  34
ENDBRANCH  30  33
ENDBRANCH  29  30
ENDBRANCH  26  29
ENDBRANCH   7  26
BRANCH   5  38
ATOM     38  O   LIG d   1       4.374  -4.160  -4.434  0.00  0.00    -0.386 OA
ATOM     39  H   LIG d   1       3.886  -3.377  -4.725  0.00  0.00     0.210 HD
ENDBRANCH   5  38
TORSDOF 9
ENDMDL
MODEL 4
REMARK VINA RESULT:      -6.4      1.457      1.963
REMARK  9 active torsions:
REMARK  status: ('A' for Active; 'I' for Inactive)
REMARK    1  A    between atoms: C_3  and  N_31 
REMARK    2  A    between atoms: N_7  and  C_10 
REMARK    3  A    between atoms: C_12  and  O_30 
REMARK    4  A    between atoms: C_14  and  O_29 
REMARK    5  A    between atoms: C_16  and  C_19 
REMARK    6  A    between atoms: C_19  and  O_20 
REMARK    7  A    between atoms: O_20  and  P_21 
REMARK    8  A    between atoms: P_21  and  O_24 
REMARK    9  A    between atoms: O_24  and  S_25 
ROOT
ATOM      1  C   LIG d   1      10.607  10.079  -2.080  0.00  0.00     0.167 C 
ATOM      2  H   LIG d   1      11.554  10.570  -1.855  0.00  0.00     0.087 H 
ATOM      3  C   LIG d   1       9.424  10.946  -1.597  0.00  0.00     0.129 C 
ATOM      4  H   LIG d   1       9.742  11.617  -0.798  0.00  0.00     0.067 H 
ATOM      5  C   LIG d   1       9.013  11.752  -2.850  0.00  0.00     0.114 C 
ATOM      6  H   LIG d   1       9.129  12.822  -2.671  0.00  0.00     0.065 H 
ATOM      7  C   LIG d   1       9.997  11.278  -3.941  0.00  0.00     0.113 C 
ATOM      8  H   LIG d   1      10.850  11.952  -4.003  0.00  0.00     0.065 H 
ATOM      9  O   LIG d   1      10.427   9.967  -3.508  0.00  0.00    -0.346 OA
ENDROOT
BRANCH   1  10
ATOM     10  N   LIG d   1      10.559   8.755  -1.454  0.00  0.00    -0.285 N 
ATOM     11  C   LIG d   1      10.922   8.452  -0.166  0.00  0.00     0.167 A 
ATOM     12  C   LIG d   1      10.706   7.073  -0.017  0.00  0.00     0.147 A 
ATOM     13  N   LIG d   1      11.391   9.148   0.865  0.00  0.00    -0.216 NA
ATOM     14  C   LIG d   1      10.998   6.485   1.225  0.00  0.00     0.147 A 
ATOM     15  N   LIG d   1      10.231   6.613  -1.200  0.00  0.00    -0.231 NA
ATOM     16  N   LIG d   1      11.464   7.261   2.199  0.00  0.00    -0.219 NA
ATOM     17  C   LIG d   1      11.651   8.556   2.011  0.00  0.00     0.120 A 
ATOM     18  H   LIG d   1      12.027   9.150   2.831  0.00  0.00     0.105 H 
ATOM     19  C   LIG d   1      10.145   7.599  -2.045  0.00  0.00     0.100 A 
ATOM     20  H   LIG d   1       9.796   7.513  -3.063  0.00  0.00     0.103 H 
BRANCH  14  21
ATOM     21  N   LIG d   1      10.807   5.131   1.431  0.00  0.00    -0.341 N 
ATOM     22  H   LIG d   1      10.772   4.525   0.675  0.00  0.00     0.144 HD
ATOM     23  H   LIG d   1      10.705   4.787   2.333  0.00  0.00     0.144 HD
ENDBRANCH  14  21
ENDBRANCH   1  10
BRANCH   3  24
ATOM     24  O   LIG d   1       8.345  10.120  -1.154  0.00  0.00    -0.385 OA
ATOM     25  H   LIG d   1       7.488  10.567  -1.138  0.00  0.00     0.210 HD
ENDBRANCH   3  24
BRANCH   7  26
ATOM     26  C   LIG d   1       9.290  11.188  -5.294  0.00  0.00     0.084 C 
ATOM     27  H   LIG d   1       8.220  11.054  -5.138  0.00  0.00     0.059 H 
ATOM     28  H   LIG d   1       9.461  12.108  -5.854  0.00  0.00     0.059 H 
BRANCH  26  29
ATOM     29  O   LIG d   1       9.808  10.080  -6.031  0.00  0.00    -0.324 OA
BRANCH  29  30
ATOM     30  P   LIG d   1      10.884  10.240  -7.218  0.00  0.00     0.238 P 
ATOM     31  O   LIG d   1      10.353  11.248  -8.262  0.00  0.00    -0.516 OA
ATOM     32  O   LIG d   1      12.219  10.757  -6.635  0.00  0.00    -0.436 OA
BRANCH  30  33
ATOM     33  O   LIG d   1      11.123   8.813  -7.923  0.00  0.00    -0.195 OA
BRANCH  33  34
ATOM     34  S   LIG d   1      10.049   8.433  -8.931  0.00  0.00     0.005 S 
ATOM     35  O   LIG d   1       8.794   8.980  -8.438  0.00  0.00    -0.345 OA
ATOM     36  O   LIG d   1      10.436   9.024 -10.203  0.00  0.00    -0.345 OA
ATOM     37  O   LIG d   1      10.021   6.980  -8.993  0.00  0.00    -0.268 OA
ENDBRANCH  33  34
ENDBRANCH  30  33
ENDBRANCH  29  30
ENDBRANCH  26  29
ENDBRANCH   7  26
BRANCH   5  38
ATOM     38  O   LIG d   1       7.667  11.451  -3.220  0.00  0.00    -0.386 OA
ATOM     39  H   LIG d   1       7.144  12.226  -3.467  0.00  0.00     0.210 HD
ENDBRANCH   5  38
TORSDOF 9
ENDMDL
MODEL 5
REMARK VINA RESULT:      -6.3      2.181      3.823
REMARK  9 active torsions:
REMARK  status: ('A' for Active; 'I' for Inactive)
REMARK    1  A    between atoms: C_3  and  N_31 
REMARK    2  A    between atoms: N_7  and  C_10 
REMARK    3  A    between atoms: C_12  and  O_30 
REMARK    4  A    between atoms: C_14  and  O_29 
REMARK    5  A    between atoms: C_16  and  C_19 
REMARK    6  A    between atoms: C_19  and  O_20 
REMARK    7  A    between atoms: O_20  and  P_21 
REMARK    8  A    between atoms: P_21  and  O_24 
REMARK    9  A    between atoms: O_24  and  S_25 
ROOT
ATOM      1  C   LIG d   1      10.668   8.344  -1.097  0.00  0.00     0.167 C 
ATOM      2  H   LIG d   1      11.487   8.478  -0.390  0.00  0.00     0.087 H 
ATOM      3  C   LIG d   1       9.336   8.814  -0.472  0.00  0.00     0.129 C 
ATOM      4  H   LIG d   1       9.392   8.782   0.617  0.00  0.00     0.067 H 
ATOM      5  C   LIG d   1       9.185  10.272  -0.964  0.00  0.00     0.114 C 
ATOM      6  H   LIG d   1       9.168  10.960  -0.118  0.00  0.00     0.065 H 
ATOM      7  C   LIG d   1      10.444  10.509  -1.826  0.00  0.00     0.113 C 
ATOM      8  H   LIG d   1      11.229  10.977  -1.234  0.00  0.00     0.065 H 
ATOM      9  O   LIG d   1      10.856   9.191  -2.251  0.00  0.00    -0.346 OA
ENDROOT
BRANCH   1  10
ATOM     10  N   LIG d   1      10.572   6.940  -1.504  0.00  0.00    -0.285 N 
ATOM     11  C   LIG d   1      10.073   6.471  -2.693  0.00  0.00     0.167 A 
ATOM     12  C   LIG d   1      10.186   5.072  -2.636  0.00  0.00     0.147 A 
ATOM     13  N   LIG d   1       9.555   7.033  -3.781  0.00  0.00    -0.216 NA
ATOM     14  C   LIG d   1       9.742   4.324  -3.739  0.00  0.00     0.147 A 
ATOM     15  N   LIG d   1      10.738   4.764  -1.437  0.00  0.00    -0.231 NA
ATOM     16  N   LIG d   1       9.238   4.975  -4.783  0.00  0.00    -0.219 NA
ATOM     17  C   LIG d   1       9.152   6.293  -4.791  0.00  0.00     0.120 A 
ATOM     18  H   LIG d   1       8.741   6.781  -5.662  0.00  0.00     0.105 H 
ATOM     19  C   LIG d   1      10.965   5.860  -0.771  0.00  0.00     0.100 A 
ATOM     20  H   LIG d   1      11.401   5.905   0.215  0.00  0.00     0.103 H 
BRANCH  14  21
ATOM     21  N   LIG d   1       9.827   2.944  -3.740  0.00  0.00    -0.341 N 
ATOM     22  H   LIG d   1      10.691   2.511  -3.662  0.00  0.00     0.144 HD
ATOM     23  H   LIG d   1       9.022   2.408  -3.820  0.00  0.00     0.144 HD
ENDBRANCH  14  21
ENDBRANCH   1  10
BRANCH   3  24
ATOM     24  O   LIG d   1       8.251   8.010  -0.939  0.00  0.00    -0.385 OA
ATOM     25  H   LIG d   1       7.597   7.799  -0.260  0.00  0.00     0.210 HD
ENDBRANCH   3  24
BRANCH   7  26
ATOM     26  C   LIG d   1      10.103  11.379  -3.038  0.00  0.00     0.084 C 
ATOM     27  H   LIG d   1       9.392  12.151  -2.744  0.00  0.00     0.059 H 
ATOM     28  H   LIG d   1      11.012  11.848  -3.415  0.00  0.00     0.059 H 
BRANCH  26  29
ATOM     29  O   LIG d   1       9.529  10.566  -4.063  0.00  0.00    -0.324 OA
BRANCH  29  30
ATOM     30  P   LIG d   1       9.930  10.698  -5.616  0.00  0.00     0.238 P 
ATOM     31  O   LIG d   1      11.469  10.713  -5.752  0.00  0.00    -0.516 OA
ATOM     32  O   LIG d   1       9.355   9.497  -6.400  0.00  0.00    -0.436 OA
BRANCH  30  33
ATOM     33  O   LIG d   1       9.326  12.066  -6.212  0.00  0.00    -0.195 OA
BRANCH  33  34
ATOM     34  S   LIG d   1      10.021  12.550  -7.477  0.00  0.00     0.005 S 
ATOM     35  O   LIG d   1       9.058  13.363  -8.203  0.00  0.00    -0.345 OA
ATOM     36  O   LIG d   1      11.177  13.326  -7.053  0.00  0.00    -0.345 OA
ATOM     37  O   LIG d   1      10.407  11.366  -8.227  0.00  0.00    -0.268 OA
ENDBRANCH  33  34
ENDBRANCH  30  33
ENDBRANCH  29  30
ENDBRANCH  26  29
ENDBRANCH   7  26
BRANCH   5  38
ATOM     38  O   LIG d   1       8.001  10.415  -1.750  0.00  0.00    -0.386 OA
ATOM     39  H   LIG d   1       7.562   9.578  -1.954  0.00  0.00     0.210 HD
ENDBRANCH   5  38
TORSDOF 9
ENDMDL
MODEL 6
REMARK VINA RESULT:      -6.3      1.006      1.875
REMARK  9 active torsions:
REMARK  status: ('A' for Active; 'I' for Inactive)
REMARK    1  A    between atoms: C_3  and  N_31 
REMARK    2  A    between atoms: N_7  and  C_10 
REMARK    3  A    between atoms: C_12  and  O_30 
REMARK    4  A    between atoms: C_14  and  O_29 
REMARK    5  A    between atoms: C_16  and  C_19 
REMARK    6  A    between atoms: C_19  and  O_20 
REMARK    7  A    between atoms: O_20  and  P_21 
REMARK    8  A    between atoms: P_21  and  O_24 
REMARK    9  A    between atoms: O_24  and  S_25 
ROOT
ATOM      1  C   LIG d   1      10.659  10.110  -1.991  0.00  0.00     0.167 C 
ATOM      2  H   LIG d   1      11.573  10.625  -1.694  0.00  0.00     0.087 H 
ATOM      3  C   LIG d   1       9.420  10.938  -1.584  0.00  0.00     0.129 C 
ATOM      4  H   LIG d   1       9.662  11.608  -0.758  0.00  0.00     0.067 H 
ATOM      5  C   LIG d   1       9.076  11.748  -2.855  0.00  0.00     0.114 C 
ATOM      6  H   LIG d   1       9.149  12.818  -2.657  0.00  0.00     0.065 H 
ATOM      7  C   LIG d   1      10.148  11.314  -3.878  0.00  0.00     0.113 C 
ATOM      8  H   LIG d   1      10.984  12.013  -3.873  0.00  0.00     0.065 H 
ATOM      9  O   LIG d   1      10.583  10.011  -3.429  0.00  0.00    -0.346 OA
ENDROOT
BRANCH   1  10
ATOM     10  N   LIG d   1      10.605   8.778  -1.383  0.00  0.00    -0.285 N 
ATOM     11  C   LIG d   1      10.940   8.461  -0.091  0.00  0.00     0.167 A 
ATOM     12  C   LIG d   1      10.729   7.078   0.035  0.00  0.00     0.147 A 
ATOM     13  N   LIG d   1      11.382   9.145   0.959  0.00  0.00    -0.216 NA
ATOM     14  C   LIG d   1      10.998   6.476   1.276  0.00  0.00     0.147 A 
ATOM     15  N   LIG d   1      10.284   6.631  -1.164  0.00  0.00    -0.231 NA
ATOM     16  N   LIG d   1      11.437   7.242   2.269  0.00  0.00    -0.219 NA
ATOM     17  C   LIG d   1      11.621   8.540   2.103  0.00  0.00     0.120 A 
ATOM     18  H   LIG d   1      11.974   9.125   2.938  0.00  0.00     0.105 H 
ATOM     19  C   LIG d   1      10.211   7.627  -1.998  0.00  0.00     0.100 A 
ATOM     20  H   LIG d   1       9.885   7.553  -3.025  0.00  0.00     0.103 H 
BRANCH  14  21
ATOM     21  N   LIG d   1      10.809   5.118   1.460  0.00  0.00    -0.341 N 
ATOM     22  H   LIG d   1      10.054   4.799   1.978  0.00  0.00     0.144 HD
ATOM     23  H   LIG d   1      11.433   4.484   1.072  0.00  0.00     0.144 HD
ENDBRANCH  14  21
ENDBRANCH   1  10
BRANCH   3  24
ATOM     24  O   LIG d   1       8.337  10.077  -1.227  0.00  0.00    -0.385 OA
ATOM     25  H   LIG d   1       7.917   9.640  -1.980  0.00  0.00     0.210 HD
ENDBRANCH   3  24
BRANCH   7  26
ATOM     26  C   LIG d   1       9.541  11.221  -5.279  0.00  0.00     0.084 C 
ATOM     27  H   LIG d   1      10.133  10.538  -5.888  0.00  0.00     0.059 H 
ATOM     28  H   LIG d   1       8.519  10.850  -5.207  0.00  0.00     0.059 H 
BRANCH  26  29
ATOM     29  O   LIG d   1       9.535  12.516  -5.883  0.00  0.00    -0.324 OA
BRANCH  29  30
ATOM     30  P   LIG d   1      10.074  12.791  -7.375  0.00  0.00     0.238 P 
ATOM     31  O   LIG d   1      10.632  11.479  -7.971  0.00  0.00    -0.516 OA
ATOM     32  O   LIG d   1       8.913  13.304  -8.255  0.00  0.00    -0.436 OA
BRANCH  30  33
ATOM     33  O   LIG d   1      11.242  13.898  -7.329  0.00  0.00    -0.195 OA
BRANCH  33  34
ATOM     34  S   LIG d   1      12.322  13.615  -6.295  0.00  0.00     0.005 S 
ATOM     35  O   LIG d   1      13.492  14.389  -6.683  0.00  0.00    -0.345 OA
ATOM     36  O   LIG d   1      11.795  14.038  -5.006  0.00  0.00    -0.345 OA
ATOM     37  O   LIG d   1      12.581  12.185  -6.333  0.00  0.00    -0.268 OA
ENDBRANCH  33  34
ENDBRANCH  30  33
ENDBRANCH  29  30
ENDBRANCH  26  29
ENDBRANCH   7  26
BRANCH   5  38
ATOM     38  O   LIG d   1       7.769  11.413  -3.323  0.00  0.00    -0.386 OA
ATOM     39  H   LIG d   1       7.504  10.502  -3.133  0.00  0.00     0.210 HD
ENDBRANCH   5  38
TORSDOF 9
ENDMDL
MODEL 7
REMARK VINA RESULT:      -6.2     14.097     16.288
REMARK  9 active torsions:
REMARK  status: ('A' for Active; 'I' for Inactive)
REMARK    1  A    between atoms: C_3  and  N_31 
REMARK    2  A    between atoms: N_7  and  C_10 
REMARK    3  A    between atoms: C_12  and  O_30 
REMARK    4  A    between atoms: C_14  and  O_29 
REMARK    5  A    between atoms: C_16  and  C_19 
REMARK    6  A    between atoms: C_19  and  O_20 
REMARK    7  A    between atoms: O_20  and  P_21 
REMARK    8  A    between atoms: P_21  and  O_24 
REMARK    9  A    between atoms: O_24  and  S_25 
ROOT
ATOM      1  C   LIG d   1       4.691  -3.146  -7.970  0.00  0.00     0.167 C 
ATOM      2  H   LIG d   1       5.631  -3.078  -8.520  0.00  0.00     0.087 H 
ATOM      3  C   LIG d   1       4.326  -4.623  -7.710  0.00  0.00     0.129 C 
ATOM      4  H   LIG d   1       4.807  -5.271  -8.443  0.00  0.00     0.067 H 
ATOM      5  C   LIG d   1       4.880  -4.902  -6.294  0.00  0.00     0.114 C 
ATOM      6  H   LIG d   1       5.636  -5.688  -6.328  0.00  0.00     0.065 H 
ATOM      7  C   LIG d   1       5.515  -3.561  -5.868  0.00  0.00     0.113 C 
ATOM      8  H   LIG d   1       6.581  -3.556  -6.092  0.00  0.00     0.065 H 
ATOM      9  O   LIG d   1       4.833  -2.560  -6.658  0.00  0.00    -0.346 OA
ENDROOT
BRANCH   1  10
ATOM     10  N   LIG d   1       3.619  -2.478  -8.714  0.00  0.00    -0.285 N 
ATOM     11  C   LIG d   1       3.095  -2.877  -9.917  0.00  0.00     0.167 A 
ATOM     12  C   LIG d   1       2.099  -1.940 -10.236  0.00  0.00     0.147 A 
ATOM     13  N   LIG d   1       3.327  -3.883 -10.755  0.00  0.00    -0.216 NA
ATOM     14  C   LIG d   1       1.388  -2.109 -11.436  0.00  0.00     0.147 A 
ATOM     15  N   LIG d   1       2.067  -1.034  -9.230  0.00  0.00    -0.231 NA
ATOM     16  N   LIG d   1       1.690  -3.146 -12.211  0.00  0.00    -0.219 NA
ATOM     17  C   LIG d   1       2.636  -4.002 -11.869  0.00  0.00     0.120 A 
ATOM     18  H   LIG d   1       2.847  -4.833 -12.525  0.00  0.00     0.105 H 
ATOM     19  C   LIG d   1       2.958  -1.348  -8.335  0.00  0.00     0.100 A 
ATOM     20  H   LIG d   1       3.147  -0.795  -7.427  0.00  0.00     0.103 H 
BRANCH  14  21
ATOM     21  N   LIG d   1       0.396  -1.217 -11.803  0.00  0.00    -0.341 N 
ATOM     22  H   LIG d   1      -0.407  -1.137 -11.266  0.00  0.00     0.144 HD
ATOM     23  H   LIG d   1       0.503  -0.673 -12.600  0.00  0.00     0.144 HD
ENDBRANCH  14  21
ENDBRANCH   1  10
BRANCH   3  24
ATOM     24  O   LIG d   1       2.909  -4.802  -7.740  0.00  0.00    -0.385 OA
ATOM     25  H   LIG d   1       2.440  -4.140  -8.265  0.00  0.00     0.210 HD
ENDBRANCH   3  24
BRANCH   7  26
ATOM     26  C   LIG d   1       5.284  -3.312  -4.377  0.00  0.00     0.084 C 
ATOM     27  H   LIG d   1       5.239  -4.265  -3.851  0.00  0.00     0.059 H 
ATOM     28  H   LIG d   1       6.106  -2.717  -3.977  0.00  0.00     0.059 H 
BRANCH  26  29
ATOM     29  O   LIG d   1       4.055  -2.607  -4.195  0.00  0.00    -0.324 OA
BRANCH  29  30
ATOM     30  P   LIG d   1       3.908  -1.337  -3.216  0.00  0.00     0.238 P 
ATOM     31  O   LIG d   1       2.458  -0.805  -3.277  0.00  0.00    -0.516 OA
ATOM     32  O   LIG d   1       4.240  -1.762  -1.768  0.00  0.00    -0.436 OA
BRANCH  30  33
ATOM     33  O   LIG d   1       4.924  -0.179  -3.682  0.00  0.00    -0.195 OA
BRANCH  33  34
ATOM     34  S   LIG d   1       4.824   1.099  -2.862  0.00  0.00     0.005 S 
ATOM     35  O   LIG d   1       6.093   1.795  -3.009  0.00  0.00    -0.345 OA
ATOM     36  O   LIG d   1       3.717   1.867  -3.412  0.00  0.00    -0.345 OA
ATOM     37  O   LIG d   1       4.579   0.701  -1.485  0.00  0.00    -0.268 OA
ENDBRANCH  33  34
ENDBRANCH  30  33
ENDBRANCH  29  30
ENDBRANCH  26  29
ENDBRANCH   7  26
BRANCH   5  38
ATOM     38  O   LIG d   1       3.823  -5.264  -5.405  0.00  0.00    -0.386 OA
ATOM     39  H   LIG d   1       3.019  -5.566  -5.852  0.00  0.00     0.210 HD
ENDBRANCH   5  38
TORSDOF 9
ENDMDL
MODEL 8
REMARK VINA RESULT:      -5.9      7.377      9.453
REMARK  9 active torsions:
REMARK  status: ('A' for Active; 'I' for Inactive)
REMARK    1  A    between atoms: C_3  and  N_31 
REMARK    2  A    between atoms: N_7  and  C_10 
REMARK    3  A    between atoms: C_12  and  O_30 
REMARK    4  A    between atoms: C_14  and  O_29 
REMARK    5  A    between atoms: C_16  and  C_19 
REMARK    6  A    between atoms: C_19  and  O_20 
REMARK    7  A    between atoms: O_20  and  P_21 
REMARK    8  A    between atoms: P_21  and  O_24 
REMARK    9  A    between atoms: O_24  and  S_25 
ROOT
ATOM      1  C   LIG d   1      10.273   3.658  -2.742  0.00  0.00     0.167 C 
ATOM      2  H   LIG d   1      10.711   3.095  -1.917  0.00  0.00     0.087 H 
ATOM      3  C   LIG d   1      11.148   3.527  -4.007  0.00  0.00     0.129 C 
ATOM      4  H   LIG d   1      12.176   3.281  -3.738  0.00  0.00     0.067 H 
ATOM      5  C   LIG d   1      10.501   2.363  -4.792  0.00  0.00     0.114 C 
ATOM      6  H   LIG d   1      11.208   1.541  -4.910  0.00  0.00     0.065 H 
ATOM      7  C   LIG d   1       9.312   1.929  -3.907  0.00  0.00     0.113 C 
ATOM      8  H   LIG d   1       9.601   1.100  -3.262  0.00  0.00     0.065 H 
ATOM      9  O   LIG d   1       8.996   3.094  -3.112  0.00  0.00    -0.346 OA
ENDROOT
BRANCH   1  10
ATOM     10  N   LIG d   1      10.120   5.067  -2.371  0.00  0.00    -0.285 N 
ATOM     11  C   LIG d   1      10.576   5.657  -1.219  0.00  0.00     0.167 A 
ATOM     12  C   LIG d   1      10.203   7.009  -1.302  0.00  0.00     0.147 A 
ATOM     13  N   LIG d   1      11.240   5.235  -0.147  0.00  0.00    -0.216 NA
ATOM     14  C   LIG d   1      10.549   7.860  -0.240  0.00  0.00     0.147 A 
ATOM     15  N   LIG d   1       9.550   7.171  -2.478  0.00  0.00    -0.231 NA
ATOM     16  N   LIG d   1      11.213   7.348   0.791  0.00  0.00    -0.219 NA
ATOM     17  C   LIG d   1      11.543   6.069   0.825  0.00  0.00     0.120 A 
ATOM     18  H   LIG d   1      12.087   5.695   1.680  0.00  0.00     0.105 H 
ATOM     19  C   LIG d   1       9.500   6.032  -3.107  0.00  0.00     0.100 A 
ATOM     20  H   LIG d   1       9.036   5.875  -4.069  0.00  0.00     0.103 H 
BRANCH  14  21
ATOM     21  N   LIG d   1      10.208   9.200  -0.265  0.00  0.00    -0.341 N 
ATOM     22  H   LIG d   1      10.762   9.833  -0.749  0.00  0.00     0.144 HD
ATOM     23  H   LIG d   1       9.414   9.508   0.201  0.00  0.00     0.144 HD
ENDBRANCH  14  21
ENDBRANCH   1  10
BRANCH   3  24
ATOM     24  O   LIG d   1      11.108   4.733  -4.771  0.00  0.00    -0.385 OA
ATOM     25  H   LIG d   1      10.768   4.619  -5.669  0.00  0.00     0.210 HD
ENDBRANCH   3  24
BRANCH   7  26
ATOM     26  C   LIG d   1       8.116   1.535  -4.776  0.00  0.00     0.084 C 
ATOM     27  H   LIG d   1       8.143   2.098  -5.709  0.00  0.00     0.059 H 
ATOM     28  H   LIG d   1       8.163   0.468  -4.995  0.00  0.00     0.059 H 
BRANCH  26  29
ATOM     29  O   LIG d   1       6.904   1.824  -4.079  0.00  0.00    -0.324 OA
BRANCH  29  30
ATOM     30  P   LIG d   1       6.008   0.690  -3.369  0.00  0.00     0.238 P 
ATOM     31  O   LIG d   1       6.872  -0.566  -3.116  0.00  0.00    -0.516 OA
ATOM     32  O   LIG d   1       5.472   1.226  -2.022  0.00  0.00    -0.436 OA
BRANCH  30  33
ATOM     33  O   LIG d   1       4.770   0.307  -4.324  0.00  0.00    -0.195 OA
BRANCH  33  34
ATOM     34  S   LIG d   1       3.414   0.731  -3.779  0.00  0.00     0.005 S 
ATOM     35  O   LIG d   1       3.492   2.159  -3.516  0.00  0.00    -0.345 OA
ATOM     36  O   LIG d   1       2.431   0.422  -4.807  0.00  0.00    -0.345 OA
ATOM     37  O   LIG d   1       3.188  -0.035  -2.564  0.00  0.00    -0.268 OA
ENDBRANCH  33  34
ENDBRANCH  30  33
ENDBRANCH  29  30
ENDBRANCH  26  29
ENDBRANCH   7  26
BRANCH   5  38
ATOM     38  O   LIG d   1      10.041   2.813  -6.067  0.00  0.00    -0.386 OA
ATOM     39  H   LIG d   1      10.696   3.324  -6.563  0.00  0.00     0.210 HD
ENDBRANCH   5  38
TORSDOF 9
ENDMDL
MODEL 9
REMARK VINA RESULT:      -5.8     16.613     18.532
REMARK  9 active torsions:
REMARK  status: ('A' for Active; 'I' for Inactive)
REMARK    1  A    between atoms: C_3  and  N_31 
REMARK    2  A    between atoms: N_7  and  C_10 
REMARK    3  A    between atoms: C_12  and  O_30 
REMARK    4  A    between atoms: C_14  and  O_29 
REMARK    5  A    between atoms: C_16  and  C_19 
REMARK    6  A    between atoms: C_19  and  O_20 
REMARK    7  A    between atoms: O_20  and  P_21 
REMARK    8  A    between atoms: P_21  and  O_24 
REMARK    9  A    between atoms: O_24  and  S_25 
ROOT
ATOM      1  C   LIG d   1       5.548  -4.162  -6.568  0.00  0.00     0.167 C 
ATOM      2  H   LIG d   1       6.230  -3.828  -7.351  0.00  0.00     0.087 H 
ATOM      3  C   LIG d   1       4.418  -5.024  -7.172  0.00  0.00     0.129 C 
ATOM      4  H   LIG d   1       4.280  -4.789  -8.228  0.00  0.00     0.067 H 
ATOM      5  C   LIG d   1       4.921  -6.475  -7.002  0.00  0.00     0.114 C 
ATOM      6  H   LIG d   1       5.033  -6.957  -7.974  0.00  0.00     0.065 H 
ATOM      7  C   LIG d   1       6.296  -6.318  -6.317  0.00  0.00     0.113 C 
ATOM      8  H   LIG d   1       7.093  -6.316  -7.059  0.00  0.00     0.065 H 
ATOM      9  O   LIG d   1       6.233  -5.039  -5.647  0.00  0.00    -0.346 OA
ENDROOT
BRANCH   1  10
ATOM     10  N   LIG d   1       4.987  -3.011  -5.857  0.00  0.00    -0.285 N 
ATOM     11  C   LIG d   1       4.451  -1.885  -6.428  0.00  0.00     0.167 A 
ATOM     12  C   LIG d   1       4.044  -1.065  -5.363  0.00  0.00     0.147 A 
ATOM     13  N   LIG d   1       4.261  -1.465  -7.675  0.00  0.00    -0.216 NA
ATOM     14  C   LIG d   1       3.451   0.172  -5.665  0.00  0.00     0.147 A 
ATOM     15  N   LIG d   1       4.348  -1.721  -4.216  0.00  0.00    -0.231 NA
ATOM     16  N   LIG d   1       3.303   0.507  -6.943  0.00  0.00    -0.219 NA
ATOM     17  C   LIG d   1       3.701  -0.298  -7.912  0.00  0.00     0.120 A 
ATOM     18  H   LIG d   1       3.557   0.012  -8.936  0.00  0.00     0.105 H 
ATOM     19  C   LIG d   1       4.902  -2.863  -4.504  0.00  0.00     0.100 A 
ATOM     20  H   LIG d   1       5.242  -3.586  -3.779  0.00  0.00     0.103 H 
BRANCH  14  21
ATOM     21  N   LIG d   1       3.031   1.022  -4.658  0.00  0.00    -0.341 N 
ATOM     22  H   LIG d   1       3.246   1.967  -4.700  0.00  0.00     0.144 HD
ATOM     23  H   LIG d   1       2.522   0.673  -3.909  0.00  0.00     0.144 HD
ENDBRANCH  14  21
ENDBRANCH   1  10
BRANCH   3  24
ATOM     24  O   LIG d   1       3.199  -4.826  -6.454  0.00  0.00    -0.385 OA
ATOM     25  H   LIG d   1       3.284  -4.932  -5.497  0.00  0.00     0.210 HD
ENDBRANCH   3  24
BRANCH   7  26
ATOM     26  C   LIG d   1       6.518  -7.441  -5.302  0.00  0.00     0.084 C 
ATOM     27  H   LIG d   1       7.542  -7.402  -4.933  0.00  0.00     0.059 H 
ATOM     28  H   LIG d   1       5.826  -7.318  -4.469  0.00  0.00     0.059 H 
BRANCH  26  29
ATOM     29  O   LIG d   1       6.285  -8.703  -5.930  0.00  0.00    -0.324 OA
BRANCH  29  30
ATOM     30  P   LIG d   1       5.588  -9.944  -5.176  0.00  0.00     0.238 P 
ATOM     31  O   LIG d   1       5.397 -11.110  -6.171  0.00  0.00    -0.516 OA
ATOM     32  O   LIG d   1       6.487 -10.405  -4.007  0.00  0.00    -0.436 OA
BRANCH  30  33
ATOM     33  O   LIG d   1       4.155  -9.487  -4.603  0.00  0.00    -0.195 OA
BRANCH  33  34
ATOM     34  S   LIG d   1       3.448 -10.556  -3.782  0.00  0.00     0.005 S 
ATOM     35  O   LIG d   1       2.460  -9.872  -2.961  0.00  0.00    -0.345 OA
ATOM     36  O   LIG d   1       2.827 -11.473  -4.726  0.00  0.00    -0.345 OA
ATOM     37  O   LIG d   1       4.464 -11.212  -2.975  0.00  0.00    -0.268 OA
ENDBRANCH  33  34
ENDBRANCH  30  33
ENDBRANCH  29  30
ENDBRANCH  26  29
ENDBRANCH   7  26
BRANCH   5  38
ATOM     38  O   LIG d   1       4.028  -7.221  -6.174  0.00  0.00    -0.386 OA
ATOM     39  H   LIG d   1       4.454  -7.639  -5.413  0.00  0.00     0.210 HD
ENDBRANCH   5  38
TORSDOF 9
ENDMDL
MODEL 10
REMARK VINA RESULT:      -5.8      5.854      8.513
REMARK  9 active torsions:
REMARK  status: ('A' for Active; 'I' for Inactive)
REMARK    1  A    between atoms: C_3  and  N_31 
REMARK    2  A    between atoms: N_7  and  C_10 
REMARK    3  A    between atoms: C_12  and  O_30 
REMARK    4  A    between atoms: C_14  and  O_29 
REMARK    5  A    between atoms: C_16  and  C_19 
REMARK    6  A    between atoms: C_19  and  O_20 
REMARK    7  A    between atoms: O_20  and  P_21 
REMARK    8  A    between atoms: P_21  and  O_24 
REMARK    9  A    between atoms: O_24  and  S_25 
ROOT
ATOM      1  C   LIG d   1      11.331   5.422  -4.811  0.00  0.00     0.167 C 
ATOM      2  H   LIG d   1      12.275   5.264  -5.334  0.00  0.00     0.087 H 
ATOM      3  C   LIG d   1      10.543   4.098  -4.712  0.00  0.00     0.129 C 
ATOM      4  H   LIG d   1      10.850   3.409  -5.500  0.00  0.00     0.067 H 
ATOM      5  C   LIG d   1      10.926   3.537  -3.323  0.00  0.00     0.114 C 
ATOM      6  H   LIG d   1      11.423   2.572  -3.425  0.00  0.00     0.065 H 
ATOM      7  C   LIG d   1      11.900   4.588  -2.749  0.00  0.00     0.113 C 
ATOM      8  H   LIG d   1      12.931   4.303  -2.953  0.00  0.00     0.065 H 
ATOM      9  O   LIG d   1      11.574   5.814  -3.443  0.00  0.00    -0.346 OA
ENDROOT
BRANCH   1  10
ATOM     10  N   LIG d   1      10.533   6.440  -5.500  0.00  0.00    -0.285 N 
ATOM     11  C   LIG d   1      10.391   6.580  -6.857  0.00  0.00     0.167 A 
ATOM     12  C   LIG d   1       9.540   7.681  -7.047  0.00  0.00     0.147 A 
ATOM     13  N   LIG d   1      10.859   5.934  -7.921  0.00  0.00    -0.216 NA
ATOM     14  C   LIG d   1       9.220   8.054  -8.363  0.00  0.00     0.147 A 
ATOM     15  N   LIG d   1       9.212   8.148  -5.818  0.00  0.00    -0.231 NA
ATOM     16  N   LIG d   1       9.735   7.348  -9.364  0.00  0.00    -0.219 NA
ATOM     17  C   LIG d   1      10.532   6.319  -9.137  0.00  0.00     0.120 A 
ATOM     18  H   LIG d   1      10.925   5.770  -9.979  0.00  0.00     0.105 H 
ATOM     19  C   LIG d   1       9.794   7.421  -4.908  0.00  0.00     0.100 A 
ATOM     20  H   LIG d   1       9.705   7.573  -3.843  0.00  0.00     0.103 H 
BRANCH  14  21
ATOM     21  N   LIG d   1       8.387   9.130  -8.612  0.00  0.00    -0.341 N 
ATOM     22  H   LIG d   1       7.526   8.989  -9.036  0.00  0.00     0.144 HD
ATOM     23  H   LIG d   1       8.664  10.026  -8.362  0.00  0.00     0.144 HD
ENDBRANCH  14  21
ENDBRANCH   1  10
BRANCH   3  24
ATOM     24  O   LIG d   1       9.137   4.344  -4.785  0.00  0.00    -0.385 OA
ATOM     25  H   LIG d   1       8.732   4.064  -5.617  0.00  0.00     0.210 HD
ENDBRANCH   3  24
BRANCH   7  26
ATOM     26  C   LIG d   1      11.681   4.752  -1.244  0.00  0.00     0.084 C 
ATOM     27  H   LIG d   1      11.093   3.915  -0.868  0.00  0.00     0.059 H 
ATOM     28  H   LIG d   1      12.647   4.773  -0.738  0.00  0.00     0.059 H 
BRANCH  26  29
ATOM     29  O   LIG d   1      10.986   5.974  -0.993  0.00  0.00    -0.324 OA
BRANCH  29  30
ATOM     30  P   LIG d   1      11.110   6.786   0.392  0.00  0.00     0.238 P 
ATOM     31  O   LIG d   1      10.784   5.844   1.573  0.00  0.00    -0.516 OA
ATOM     32  O   LIG d   1      12.550   7.324   0.545  0.00  0.00    -0.436 OA
BRANCH  30  33
ATOM     33  O   LIG d   1      10.075   8.019   0.386  0.00  0.00    -0.195 OA
BRANCH  33  34
ATOM     34  S   LIG d   1       9.542   8.374  -0.994  0.00  0.00     0.005 S 
ATOM     35  O   LIG d   1       8.662   9.520  -0.826  0.00  0.00    -0.345 OA
ATOM     36  O   LIG d   1      10.695   8.692  -1.823  0.00  0.00    -0.345 OA
ATOM     37  O   LIG d   1       8.826   7.207  -1.485  0.00  0.00    -0.268 OA
ENDBRANCH  33  34
ENDBRANCH  30  33
ENDBRANCH  29  30
ENDBRANCH  26  29
ENDBRANCH   7  26
BRANCH   5  38
ATOM     38  O   LIG d   1       9.768   3.417  -2.495  0.00  0.00    -0.386 OA
ATOM     39  H   LIG d   1       9.771   2.636  -1.925  0.00  0.00     0.210 HD
ENDBRANCH   5  38
TORSDOF 9
ENDMDL
