MODEL 1
REMARK VINA RESULT:      -6.0      0.000      0.000
REMARK  5 active torsions:
REMARK  status: ('A' for Active; 'I' for Inactive)
REMARK    1  A    between atoms: C_1  and  C_2 
REMARK    2  A    between atoms: C_9  and  C_20 
REMARK    3  A    between atoms: C_10  and  C_17 
REMARK    4  A    between atoms: C_15  and  C_16 
REMARK    5  A    between atoms: C_17  and  C_18 
ROOT
ATOM      1  C   LIG d   1       4.044  -0.082  -2.760  0.00  0.00    -0.005 A 
ATOM      2  C   LIG d   1       4.524  -1.143  -2.101  0.00  0.00     0.096 A 
ATOM      3  O   LIG d   1       4.774  -2.150  -2.958  0.00  0.00    -0.462 OA
ATOM      4  C   LIG d   1       4.468  -1.794  -4.223  0.00  0.00     0.141 A 
ATOM      5  C   LIG d   1       3.989  -0.470  -4.177  0.00  0.00     0.024 A 
ATOM      6  C   LIG d   1       3.592   0.176  -5.340  0.00  0.00    -0.040 A 
ATOM      7  C   LIG d   1       3.669  -0.502  -6.557  0.00  0.00     0.022 A 
ATOM      8  C   LIG d   1       3.264   0.151  -7.806  0.00  0.00    -0.029 A 
ATOM      9  C   LIG d   1       3.358  -0.557  -8.960  0.00  0.00     0.046 A 
ATOM     10  C   LIG d   1       3.846  -1.881  -8.933  0.00  0.00     0.341 A 
ATOM     11  O   LIG d   1       3.930  -2.502  -9.977  0.00  0.00    -0.245 OA
ATOM     12  O   LIG d   1       4.221  -2.472  -7.789  0.00  0.00    -0.422 OA
ATOM     13  C   LIG d   1       4.149  -1.828  -6.602  0.00  0.00     0.146 A 
ATOM     14  C   LIG d   1       4.543  -2.461  -5.437  0.00  0.00     0.035 A 
ATOM     15  H   LIG d   1       4.688  -1.185  -1.035  0.00  0.00     0.103 H 
ATOM     16  H   LIG d   1       3.225   1.191  -5.303  0.00  0.00     0.063 H 
ENDROOT
BRANCH   9  17
ATOM     17  C   LIG d   1       2.948   0.071 -10.267  0.00  0.00     0.019 C 
ATOM     18  H   LIG d   1       2.271   0.904 -10.074  0.00  0.00     0.037 H 
ATOM     19  H   LIG d   1       2.444  -0.672 -10.884  0.00  0.00     0.037 H 
BRANCH  17  20
ATOM     20  C   LIG d   1       4.172   0.576 -10.988  0.00  0.00     0.046 C 
ATOM     21  O   LIG d   1       4.433   0.168 -12.094  0.00  0.00    -0.549 OA
ATOM     22  O   LIG d   1       4.967   1.485 -10.403  0.00  0.00    -0.549 OA
ENDBRANCH  17  20
ENDBRANCH   9  17
BRANCH   8  23
ATOM     23  C   LIG d   1       2.752   1.569  -7.807  0.00  0.00    -0.038 C 
ATOM     24  H   LIG d   1       3.300   2.153  -7.068  0.00  0.00     0.028 H 
ATOM     25  H   LIG d   1       2.896   2.006  -8.795  0.00  0.00     0.028 H 
ATOM     26  H   LIG d   1       1.691   1.572  -7.560  0.00  0.00     0.028 H 
ENDBRANCH   8  23
BRANCH  14  27
ATOM     27  C   LIG d   1       5.054  -3.878  -5.487  0.00  0.00    -0.033 C 
ATOM     28  H   LIG d   1       6.017  -3.898  -5.999  0.00  0.00     0.028 H 
ATOM     29  H   LIG d   1       5.174  -4.256  -4.473  0.00  0.00     0.028 H 
ATOM     30  H   LIG d   1       4.342  -4.502  -6.026  0.00  0.00     0.028 H 
ENDBRANCH  14  27
BRANCH   1  31
ATOM     31  C   LIG d   1       3.641   1.245  -2.170  0.00  0.00    -0.036 C 
ATOM     32  H   LIG d   1       3.165   1.083  -1.203  0.00  0.00     0.028 H 
ATOM     33  H   LIG d   1       4.526   1.867  -2.038  0.00  0.00     0.028 H 
ATOM     34  H   LIG d   1       2.941   1.744  -2.839  0.00  0.00     0.028 H 
ENDBRANCH   1  31
TORSDOF 5
ENDMDL
MODEL 2
REMARK VINA RESULT:      -5.9      4.690      6.503
REMARK  5 active torsions:
REMARK  status: ('A' for Active; 'I' for Inactive)
REMARK    1  A    between atoms: C_1  and  C_2 
REMARK    2  A    between atoms: C_9  and  C_20 
REMARK    3  A    between atoms: C_10  and  C_17 
REMARK    4  A    between atoms: C_15  and  C_16 
REMARK    5  A    between atoms: C_17  and  C_18 
ROOT
ATOM      1  C   LIG d   1       7.977  -5.365  -5.523  0.00  0.00    -0.005 A 
ATOM      2  C   LIG d   1       9.173  -5.259  -6.113  0.00  0.00     0.096 A 
ATOM      3  O   LIG d   1       9.613  -3.988  -6.052  0.00  0.00    -0.462 OA
ATOM      4  C   LIG d   1       8.722  -3.200  -5.416  0.00  0.00     0.141 A 
ATOM      5  C   LIG d   1       7.636  -4.017  -5.043  0.00  0.00     0.024 A 
ATOM      6  C   LIG d   1       6.552  -3.480  -4.364  0.00  0.00    -0.040 A 
ATOM      7  C   LIG d   1       6.546  -2.119  -4.055  0.00  0.00     0.022 A 
ATOM      8  C   LIG d   1       5.420  -1.520  -3.333  0.00  0.00    -0.029 A 
ATOM      9  C   LIG d   1       5.467  -0.191  -3.061  0.00  0.00     0.046 A 
ATOM     10  C   LIG d   1       6.585   0.569  -3.464  0.00  0.00     0.341 A 
ATOM     11  O   LIG d   1       6.616   1.759  -3.209  0.00  0.00    -0.245 OA
ATOM     12  O   LIG d   1       7.616   0.015  -4.119  0.00  0.00    -0.422 OA
ATOM     13  C   LIG d   1       7.633  -1.302  -4.428  0.00  0.00     0.146 A 
ATOM     14  C   LIG d   1       8.709  -1.848  -5.104  0.00  0.00     0.035 A 
ATOM     15  H   LIG d   1       9.710  -6.075  -6.573  0.00  0.00     0.103 H 
ATOM     16  H   LIG d   1       5.721  -4.108  -4.079  0.00  0.00     0.063 H 
ENDROOT
BRANCH   9  17
ATOM     17  C   LIG d   1       4.329   0.471  -2.325  0.00  0.00     0.019 C 
ATOM     18  H   LIG d   1       4.726   1.222  -1.642  0.00  0.00     0.037 H 
ATOM     19  H   LIG d   1       3.779  -0.280  -1.759  0.00  0.00     0.037 H 
BRANCH  17  20
ATOM     20  C   LIG d   1       3.406   1.130  -3.316  0.00  0.00     0.046 C 
ATOM     21  O   LIG d   1       3.407   2.333  -3.436  0.00  0.00    -0.549 OA
ATOM     22  O   LIG d   1       2.587   0.381  -4.071  0.00  0.00    -0.549 OA
ENDBRANCH  17  20
ENDBRANCH   9  17
BRANCH   8  23
ATOM     23  C   LIG d   1       4.239  -2.355  -2.908  0.00  0.00    -0.038 C 
ATOM     24  H   LIG d   1       3.319  -1.793  -3.072  0.00  0.00     0.028 H 
ATOM     25  H   LIG d   1       4.214  -3.273  -3.494  0.00  0.00     0.028 H 
ATOM     26  H   LIG d   1       4.331  -2.602  -1.851  0.00  0.00     0.028 H 
ENDBRANCH   8  23
BRANCH  14  27
ATOM     27  C   LIG d   1       9.870  -0.973  -5.502  0.00  0.00    -0.033 C 
ATOM     28  H   LIG d   1      10.665  -1.592  -5.918  0.00  0.00     0.028 H 
ATOM     29  H   LIG d   1       9.541  -0.252  -6.251  0.00  0.00     0.028 H 
ATOM     30  H   LIG d   1      10.242  -0.442  -4.626  0.00  0.00     0.028 H 
ENDBRANCH  14  27
BRANCH   1  31
ATOM     31  C   LIG d   1       7.146  -6.613  -5.378  0.00  0.00    -0.036 C 
ATOM     32  H   LIG d   1       7.608  -7.425  -5.939  0.00  0.00     0.028 H 
ATOM     33  H   LIG d   1       7.086  -6.889  -4.325  0.00  0.00     0.028 H 
ATOM     34  H   LIG d   1       6.143  -6.430  -5.763  0.00  0.00     0.028 H 
ENDBRANCH   1  31
TORSDOF 5
ENDMDL
MODEL 3
REMARK VINA RESULT:      -5.8      2.417      5.966
REMARK  5 active torsions:
REMARK  status: ('A' for Active; 'I' for Inactive)
REMARK    1  A    between atoms: C_1  and  C_2 
REMARK    2  A    between atoms: C_9  and  C_20 
REMARK    3  A    between atoms: C_10  and  C_17 
REMARK    4  A    between atoms: C_15  and  C_16 
REMARK    5  A    between atoms: C_17  and  C_18 
ROOT
ATOM      1  C   LIG d   1       6.125  -5.639  -6.529  0.00  0.00    -0.005 A 
ATOM      2  C   LIG d   1       6.248  -5.711  -7.860  0.00  0.00     0.096 A 
ATOM      3  O   LIG d   1       5.754  -4.600  -8.435  0.00  0.00    -0.462 OA
ATOM      4  C   LIG d   1       5.282  -3.744  -7.505  0.00  0.00     0.141 A 
ATOM      5  C   LIG d   1       5.487  -4.345  -6.246  0.00  0.00     0.024 A 
ATOM      6  C   LIG d   1       5.098  -3.694  -5.084  0.00  0.00    -0.040 A 
ATOM      7  C   LIG d   1       4.500  -2.437  -5.173  0.00  0.00     0.022 A 
ATOM      8  C   LIG d   1       4.083  -1.718  -3.966  0.00  0.00    -0.029 A 
ATOM      9  C   LIG d   1       3.505  -0.499  -4.112  0.00  0.00     0.046 A 
ATOM     10  C   LIG d   1       3.330   0.044  -5.403  0.00  0.00     0.341 A 
ATOM     11  O   LIG d   1       2.814   1.141  -5.520  0.00  0.00    -0.245 OA
ATOM     12  O   LIG d   1       3.718  -0.615  -6.505  0.00  0.00    -0.422 OA
ATOM     13  C   LIG d   1       4.296  -1.835  -6.433  0.00  0.00     0.146 A 
ATOM     14  C   LIG d   1       4.688  -2.493  -7.585  0.00  0.00     0.035 A 
ATOM     15  H   LIG d   1       6.682  -6.542  -8.396  0.00  0.00     0.103 H 
ATOM     16  H   LIG d   1       5.256  -4.156  -4.121  0.00  0.00     0.063 H 
ENDROOT
BRANCH   9  17
ATOM     17  C   LIG d   1       3.055   0.276  -2.899  0.00  0.00     0.019 C 
ATOM     18  H   LIG d   1       2.778  -0.420  -2.107  0.00  0.00     0.037 H 
ATOM     19  H   LIG d   1       2.195   0.891  -3.161  0.00  0.00     0.037 H 
BRANCH  17  20
ATOM     20  C   LIG d   1       4.179   1.159  -2.422  0.00  0.00     0.046 C 
ATOM     21  O   LIG d   1       4.555   2.082  -3.106  0.00  0.00    -0.549 OA
ATOM     22  O   LIG d   1       4.759   0.924  -1.234  0.00  0.00    -0.549 OA
ENDBRANCH  17  20
ENDBRANCH   9  17
BRANCH   8  23
ATOM     23  C   LIG d   1       4.287  -2.317  -2.598  0.00  0.00    -0.038 C 
ATOM     24  H   LIG d   1       5.345  -2.271  -2.336  0.00  0.00     0.028 H 
ATOM     25  H   LIG d   1       3.707  -1.757  -1.865  0.00  0.00     0.028 H 
ATOM     26  H   LIG d   1       3.959  -3.356  -2.604  0.00  0.00     0.028 H 
ENDBRANCH   8  23
BRANCH  14  27
ATOM     27  C   LIG d   1       4.469  -1.849  -8.930  0.00  0.00    -0.033 C 
ATOM     28  H   LIG d   1       3.501  -1.348  -8.939  0.00  0.00     0.028 H 
ATOM     29  H   LIG d   1       5.258  -1.120  -9.116  0.00  0.00     0.028 H 
ATOM     30  H   LIG d   1       4.490  -2.613  -9.706  0.00  0.00     0.028 H 
ENDBRANCH  14  27
BRANCH   1  31
ATOM     31  C   LIG d   1       6.555  -6.674  -5.523  0.00  0.00    -0.036 C 
ATOM     32  H   LIG d   1       6.374  -6.299  -4.515  0.00  0.00     0.028 H 
ATOM     33  H   LIG d   1       5.982  -7.590  -5.676  0.00  0.00     0.028 H 
ATOM     34  H   LIG d   1       7.617  -6.885  -5.647  0.00  0.00     0.028 H 
ENDBRANCH   1  31
TORSDOF 5
ENDMDL
MODEL 4
REMARK VINA RESULT:      -5.6      1.986      6.520
REMARK  5 active torsions:
REMARK  status: ('A' for Active; 'I' for Inactive)
REMARK    1  A    between atoms: C_1  and  C_2 
REMARK    2  A    between atoms: C_9  and  C_20 
REMARK    3  A    between atoms: C_10  and  C_17 
REMARK    4  A    between atoms: C_15  and  C_16 
REMARK    5  A    between atoms: C_17  and  C_18 
ROOT
ATOM      1  C   LIG d   1       4.617  -2.787  -9.911  0.00  0.00    -0.005 A 
ATOM      2  C   LIG d   1       4.240  -2.058 -10.968  0.00  0.00     0.096 A 
ATOM      3  O   LIG d   1       3.710  -0.889 -10.564  0.00  0.00    -0.462 OA
ATOM      4  C   LIG d   1       3.716  -0.797  -9.219  0.00  0.00     0.141 A 
ATOM      5  C   LIG d   1       4.287  -1.986  -8.723  0.00  0.00     0.024 A 
ATOM      6  C   LIG d   1       4.428  -2.183  -7.357  0.00  0.00    -0.040 A 
ATOM      7  C   LIG d   1       3.996  -1.191  -6.476  0.00  0.00     0.022 A 
ATOM      8  C   LIG d   1       4.135  -1.362  -5.027  0.00  0.00    -0.029 A 
ATOM      9  C   LIG d   1       3.696  -0.365  -4.218  0.00  0.00     0.046 A 
ATOM     10  C   LIG d   1       3.133   0.799  -4.781  0.00  0.00     0.341 A 
ATOM     11  O   LIG d   1       2.748   1.688  -4.043  0.00  0.00    -0.245 OA
ATOM     12  O   LIG d   1       3.013   0.954  -6.108  0.00  0.00    -0.422 OA
ATOM     13  C   LIG d   1       3.425  -0.000  -6.972  0.00  0.00     0.146 A 
ATOM     14  C   LIG d   1       3.290   0.186  -8.337  0.00  0.00     0.035 A 
ATOM     15  H   LIG d   1       4.346  -2.364 -11.999  0.00  0.00     0.103 H 
ATOM     16  H   LIG d   1       4.866  -3.095  -6.979  0.00  0.00     0.063 H 
ENDROOT
BRANCH   9  17
ATOM     17  C   LIG d   1       3.814  -0.500  -2.720  0.00  0.00     0.019 C 
ATOM     18  H   LIG d   1       3.998  -1.543  -2.463  0.00  0.00     0.037 H 
ATOM     19  H   LIG d   1       2.888  -0.168  -2.253  0.00  0.00     0.037 H 
BRANCH  17  20
ATOM     20  C   LIG d   1       4.959   0.348  -2.228  0.00  0.00     0.046 C 
ATOM     21  O   LIG d   1       4.793   1.108  -1.304  0.00  0.00    -0.549 OA
ATOM     22  O   LIG d   1       6.163   0.254  -2.813  0.00  0.00    -0.549 OA
ENDBRANCH  17  20
ENDBRANCH   9  17
BRANCH   8  23
ATOM     23  C   LIG d   1       4.746  -2.614  -4.450  0.00  0.00    -0.038 C 
ATOM     24  H   LIG d   1       3.969  -3.206  -3.964  0.00  0.00     0.028 H 
ATOM     25  H   LIG d   1       5.200  -3.199  -5.251  0.00  0.00     0.028 H 
ATOM     26  H   LIG d   1       5.508  -2.344  -3.721  0.00  0.00     0.028 H 
ENDBRANCH   8  23
BRANCH  14  27
ATOM     27  C   LIG d   1       2.679   1.458  -8.865  0.00  0.00    -0.033 C 
ATOM     28  H   LIG d   1       2.761   2.241  -8.111  0.00  0.00     0.028 H 
ATOM     29  H   LIG d   1       3.206   1.766  -9.768  0.00  0.00     0.028 H 
ATOM     30  H   LIG d   1       1.628   1.286  -9.099  0.00  0.00     0.028 H 
ENDBRANCH  14  27
BRANCH   1  31
ATOM     31  C   LIG d   1       5.252  -4.153  -9.933  0.00  0.00    -0.036 C 
ATOM     32  H   LIG d   1       4.768  -4.790  -9.192  0.00  0.00     0.028 H 
ATOM     33  H   LIG d   1       5.132  -4.594 -10.923  0.00  0.00     0.028 H 
ATOM     34  H   LIG d   1       6.313  -4.065  -9.699  0.00  0.00     0.028 H 
ENDBRANCH   1  31
TORSDOF 5
ENDMDL
MODEL 5
REMARK VINA RESULT:      -5.6      2.334      6.030
REMARK  5 active torsions:
REMARK  status: ('A' for Active; 'I' for Inactive)
REMARK    1  A    between atoms: C_1  and  C_2 
REMARK    2  A    between atoms: C_9  and  C_20 
REMARK    3  A    between atoms: C_10  and  C_17 
REMARK    4  A    between atoms: C_15  and  C_16 
REMARK    5  A    between atoms: C_17  and  C_18 
ROOT
ATOM      1  C   LIG d   1       3.633   1.234  -9.544  0.00  0.00    -0.005 A 
ATOM      2  C   LIG d   1       2.940   2.278  -9.073  0.00  0.00     0.096 A 
ATOM      3  O   LIG d   1       2.668   2.105  -7.767  0.00  0.00    -0.462 OA
ATOM      4  C   LIG d   1       3.171   0.937  -7.319  0.00  0.00     0.141 A 
ATOM      5  C   LIG d   1       3.810   0.315  -8.410  0.00  0.00     0.024 A 
ATOM      6  C   LIG d   1       4.430  -0.917  -8.254  0.00  0.00    -0.040 A 
ATOM      7  C   LIG d   1       4.411  -1.537  -7.004  0.00  0.00     0.022 A 
ATOM      8  C   LIG d   1       5.061  -2.835  -6.801  0.00  0.00    -0.029 A 
ATOM      9  C   LIG d   1       5.010  -3.392  -5.565  0.00  0.00     0.046 A 
ATOM     10  C   LIG d   1       4.351  -2.715  -4.517  0.00  0.00     0.341 A 
ATOM     11  O   LIG d   1       4.317  -3.224  -3.411  0.00  0.00    -0.245 OA
ATOM     12  O   LIG d   1       3.763  -1.524  -4.705  0.00  0.00    -0.422 OA
ATOM     13  C   LIG d   1       3.771  -0.914  -5.912  0.00  0.00     0.146 A 
ATOM     14  C   LIG d   1       3.158   0.315  -6.079  0.00  0.00     0.035 A 
ATOM     15  H   LIG d   1       2.643   3.136  -9.658  0.00  0.00     0.103 H 
ATOM     16  H   LIG d   1       4.920  -1.392  -9.091  0.00  0.00     0.063 H 
ENDROOT
BRANCH   9  17
ATOM     17  C   LIG d   1       5.659  -4.729  -5.310  0.00  0.00     0.019 C 
ATOM     18  H   LIG d   1       5.987  -4.781  -4.272  0.00  0.00     0.037 H 
ATOM     19  H   LIG d   1       6.519  -4.845  -5.969  0.00  0.00     0.037 H 
BRANCH  17  20
ATOM     20  C   LIG d   1       4.666  -5.829  -5.579  0.00  0.00     0.046 C 
ATOM     21  O   LIG d   1       4.945  -6.974  -5.312  0.00  0.00    -0.549 OA
ATOM     22  O   LIG d   1       3.468  -5.537  -6.110  0.00  0.00    -0.549 OA
ENDBRANCH  17  20
ENDBRANCH   9  17
BRANCH   8  23
ATOM     23  C   LIG d   1       5.763  -3.535  -7.936  0.00  0.00    -0.038 C 
ATOM     24  H   LIG d   1       5.146  -4.362  -8.290  0.00  0.00     0.028 H 
ATOM     25  H   LIG d   1       5.927  -2.831  -8.751  0.00  0.00     0.028 H 
ATOM     26  H   LIG d   1       6.722  -3.919  -7.589  0.00  0.00     0.028 H 
ENDBRANCH   8  23
BRANCH  14  27
ATOM     27  C   LIG d   1       2.474   0.979  -4.911  0.00  0.00    -0.033 C 
ATOM     28  H   LIG d   1       1.466   0.578  -4.806  0.00  0.00     0.028 H 
ATOM     29  H   LIG d   1       3.040   0.784  -4.001  0.00  0.00     0.028 H 
ATOM     30  H   LIG d   1       2.422   2.053  -5.084  0.00  0.00     0.028 H 
ENDBRANCH  14  27
BRANCH   1  31
ATOM     31  C   LIG d   1       4.133   1.039 -10.952  0.00  0.00    -0.036 C 
ATOM     32  H   LIG d   1       3.549   0.260 -11.440  0.00  0.00     0.028 H 
ATOM     33  H   LIG d   1       4.027   1.972 -11.507  0.00  0.00     0.028 H 
ATOM     34  H   LIG d   1       5.182   0.746 -10.929  0.00  0.00     0.028 H 
ENDBRANCH   1  31
TORSDOF 5
ENDMDL
MODEL 6
REMARK VINA RESULT:      -5.6      4.425      6.377
REMARK  5 active torsions:
REMARK  status: ('A' for Active; 'I' for Inactive)
REMARK    1  A    between atoms: C_1  and  C_2 
REMARK    2  A    between atoms: C_9  and  C_20 
REMARK    3  A    between atoms: C_10  and  C_17 
REMARK    4  A    between atoms: C_15  and  C_16 
REMARK    5  A    between atoms: C_17  and  C_18 
ROOT
ATOM      1  C   LIG d   1       8.872  -4.129  -7.071  0.00  0.00    -0.005 A 
ATOM      2  C   LIG d   1       8.459  -5.298  -7.575  0.00  0.00     0.096 A 
ATOM      3  O   LIG d   1       7.259  -5.628  -7.065  0.00  0.00    -0.462 OA
ATOM      4  C   LIG d   1       6.827  -4.688  -6.200  0.00  0.00     0.141 A 
ATOM      5  C   LIG d   1       7.816  -3.685  -6.150  0.00  0.00     0.024 A 
ATOM      6  C   LIG d   1       7.650  -2.573  -5.336  0.00  0.00    -0.040 A 
ATOM      7  C   LIG d   1       6.493  -2.459  -4.564  0.00  0.00     0.022 A 
ATOM      8  C   LIG d   1       6.282  -1.296  -3.697  0.00  0.00    -0.029 A 
ATOM      9  C   LIG d   1       5.139  -1.238  -2.968  0.00  0.00     0.046 A 
ATOM     10  C   LIG d   1       4.191  -2.278  -3.065  0.00  0.00     0.341 A 
ATOM     11  O   LIG d   1       3.168  -2.211  -2.408  0.00  0.00    -0.245 OA
ATOM     12  O   LIG d   1       4.386  -3.338  -3.864  0.00  0.00    -0.422 OA
ATOM     13  C   LIG d   1       5.503  -3.463  -4.615  0.00  0.00     0.146 A 
ATOM     14  C   LIG d   1       5.679  -4.566  -5.431  0.00  0.00     0.035 A 
ATOM     15  H   LIG d   1       9.010  -5.891  -8.289  0.00  0.00     0.103 H 
ATOM     16  H   LIG d   1       8.408  -1.806  -5.299  0.00  0.00     0.063 H 
ENDROOT
BRANCH   9  17
ATOM     17  C   LIG d   1       4.881  -0.063  -2.058  0.00  0.00     0.019 C 
ATOM     18  H   LIG d   1       5.823   0.442  -1.842  0.00  0.00     0.037 H 
ATOM     19  H   LIG d   1       4.436  -0.415  -1.129  0.00  0.00     0.037 H 
BRANCH  17  20
ATOM     20  C   LIG d   1       3.939   0.899  -2.735  0.00  0.00     0.046 C 
ATOM     21  O   LIG d   1       3.176   1.562  -2.075  0.00  0.00    -0.549 OA
ATOM     22  O   LIG d   1       3.953   1.022  -4.072  0.00  0.00    -0.549 OA
ENDBRANCH  17  20
ENDBRANCH   9  17
BRANCH   8  23
ATOM     23  C   LIG d   1       7.308  -0.194  -3.615  0.00  0.00    -0.038 C 
ATOM     24  H   LIG d   1       7.020   0.620  -4.281  0.00  0.00     0.028 H 
ATOM     25  H   LIG d   1       7.363   0.176  -2.592  0.00  0.00     0.028 H 
ATOM     26  H   LIG d   1       8.281  -0.582  -3.914  0.00  0.00     0.028 H 
ENDBRANCH   8  23
BRANCH  14  27
ATOM     27  C   LIG d   1       4.621  -5.638  -5.484  0.00  0.00    -0.033 C 
ATOM     28  H   LIG d   1       4.635  -6.208  -4.555  0.00  0.00     0.028 H 
ATOM     29  H   LIG d   1       3.642  -5.176  -5.612  0.00  0.00     0.028 H 
ATOM     30  H   LIG d   1       4.820  -6.304  -6.322  0.00  0.00     0.028 H 
ENDBRANCH  14  27
BRANCH   1  31
ATOM     31  C   LIG d   1      10.159  -3.411  -7.384  0.00  0.00    -0.036 C 
ATOM     32  H   LIG d   1      10.817  -3.450  -6.517  0.00  0.00     0.028 H 
ATOM     33  H   LIG d   1      10.647  -3.894  -8.231  0.00  0.00     0.028 H 
ATOM     34  H   LIG d   1       9.945  -2.372  -7.632  0.00  0.00     0.028 H 
ENDBRANCH   1  31
TORSDOF 5
ENDMDL
MODEL 7
REMARK VINA RESULT:      -5.5      4.760      7.288
REMARK  5 active torsions:
REMARK  status: ('A' for Active; 'I' for Inactive)
REMARK    1  A    between atoms: C_1  and  C_2 
REMARK    2  A    between atoms: C_9  and  C_20 
REMARK    3  A    between atoms: C_10  and  C_17 
REMARK    4  A    between atoms: C_15  and  C_16 
REMARK    5  A    between atoms: C_17  and  C_18 
ROOT
ATOM      1  C   LIG d   1      10.941  -0.408  -6.511  0.00  0.00    -0.005 A 
ATOM      2  C   LIG d   1      11.478   0.782  -6.804  0.00  0.00     0.096 A 
ATOM      3  O   LIG d   1      10.764   1.769  -6.231  0.00  0.00    -0.462 OA
ATOM      4  C   LIG d   1       9.724   1.269  -5.534  0.00  0.00     0.141 A 
ATOM      5  C   LIG d   1       9.770  -0.133  -5.666  0.00  0.00     0.024 A 
ATOM      6  C   LIG d   1       8.816  -0.930  -5.050  0.00  0.00    -0.040 A 
ATOM      7  C   LIG d   1       7.806  -0.328  -4.298  0.00  0.00     0.022 A 
ATOM      8  C   LIG d   1       6.786  -1.140  -3.628  0.00  0.00    -0.029 A 
ATOM      9  C   LIG d   1       5.827  -0.501  -2.911  0.00  0.00     0.046 A 
ATOM     10  C   LIG d   1       5.839   0.907  -2.821  0.00  0.00     0.341 A 
ATOM     11  O   LIG d   1       4.975   1.467  -2.171  0.00  0.00    -0.245 OA
ATOM     12  O   LIG d   1       6.779   1.645  -3.431  0.00  0.00    -0.422 OA
ATOM     13  C   LIG d   1       7.761   1.075  -4.165  0.00  0.00     0.146 A 
ATOM     14  C   LIG d   1       8.718   1.860  -4.783  0.00  0.00     0.035 A 
ATOM     15  H   LIG d   1      12.357   0.930  -7.413  0.00  0.00     0.103 H 
ATOM     16  H   LIG d   1       8.853  -2.004  -5.152  0.00  0.00     0.063 H 
ENDROOT
BRANCH   9  17
ATOM     17  C   LIG d   1       4.753  -1.293  -2.210  0.00  0.00     0.019 C 
ATOM     18  H   LIG d   1       4.469  -0.784  -1.288  0.00  0.00     0.037 H 
ATOM     19  H   LIG d   1       5.132  -2.287  -1.974  0.00  0.00     0.037 H 
BRANCH  17  20
ATOM     20  C   LIG d   1       3.549  -1.414  -3.108  0.00  0.00     0.046 C 
ATOM     21  O   LIG d   1       3.527  -2.250  -3.979  0.00  0.00    -0.549 OA
ATOM     22  O   LIG d   1       2.499  -0.596  -2.935  0.00  0.00    -0.549 OA
ENDBRANCH  17  20
ENDBRANCH   9  17
BRANCH   8  23
ATOM     23  C   LIG d   1       6.798  -2.643  -3.736  0.00  0.00    -0.038 C 
ATOM     24  H   LIG d   1       6.872  -2.931  -4.785  0.00  0.00     0.028 H 
ATOM     25  H   LIG d   1       7.654  -3.039  -3.189  0.00  0.00     0.028 H 
ATOM     26  H   LIG d   1       5.879  -3.046  -3.312  0.00  0.00     0.028 H 
ENDBRANCH   8  23
BRANCH  14  27
ATOM     27  C   LIG d   1       8.667   3.360  -4.641  0.00  0.00    -0.033 C 
ATOM     28  H   LIG d   1       8.057   3.780  -5.440  0.00  0.00     0.028 H 
ATOM     29  H   LIG d   1       8.229   3.618  -3.676  0.00  0.00     0.028 H 
ATOM     30  H   LIG d   1       9.677   3.765  -4.701  0.00  0.00     0.028 H 
ENDBRANCH  14  27
BRANCH   1  31
ATOM     31  C   LIG d   1      11.437  -1.759  -6.956  0.00  0.00    -0.036 C 
ATOM     32  H   LIG d   1      12.347  -2.010  -6.412  0.00  0.00     0.028 H 
ATOM     33  H   LIG d   1      10.675  -2.511  -6.752  0.00  0.00     0.028 H 
ATOM     34  H   LIG d   1      11.649  -1.736  -8.025  0.00  0.00     0.028 H 
ENDBRANCH   1  31
TORSDOF 5
ENDMDL
MODEL 8
REMARK VINA RESULT:      -5.5      1.755      6.700
REMARK  5 active torsions:
REMARK  status: ('A' for Active; 'I' for Inactive)
REMARK    1  A    between atoms: C_1  and  C_2 
REMARK    2  A    between atoms: C_9  and  C_20 
REMARK    3  A    between atoms: C_10  and  C_17 
REMARK    4  A    between atoms: C_15  and  C_16 
REMARK    5  A    between atoms: C_17  and  C_18 
ROOT
ATOM      1  C   LIG d   1       2.883  -2.538 -10.696  0.00  0.00    -0.005 A 
ATOM      2  C   LIG d   1       2.390  -1.516 -11.406  0.00  0.00     0.096 A 
ATOM      3  O   LIG d   1       2.437  -0.382 -10.684  0.00  0.00    -0.462 OA
ATOM      4  C   LIG d   1       2.965  -0.607  -9.464  0.00  0.00     0.141 A 
ATOM      5  C   LIG d   1       3.279  -1.979  -9.395  0.00  0.00     0.024 A 
ATOM      6  C   LIG d   1       3.845  -2.515  -8.246  0.00  0.00    -0.040 A 
ATOM      7  C   LIG d   1       4.097  -1.681  -7.157  0.00  0.00     0.022 A 
ATOM      8  C   LIG d   1       4.699  -2.211  -5.930  0.00  0.00    -0.029 A 
ATOM      9  C   LIG d   1       4.921  -1.354  -4.902  0.00  0.00     0.046 A 
ATOM     10  C   LIG d   1       4.581   0.009  -5.038  0.00  0.00     0.341 A 
ATOM     11  O   LIG d   1       4.790   0.768  -4.109  0.00  0.00    -0.245 OA
ATOM     12  O   LIG d   1       4.036   0.491  -6.165  0.00  0.00    -0.422 OA
ATOM     13  C   LIG d   1       3.783  -0.307  -7.226  0.00  0.00     0.146 A 
ATOM     14  C   LIG d   1       3.220   0.216  -8.377  0.00  0.00     0.035 A 
ATOM     15  H   LIG d   1       2.009  -1.591 -12.413  0.00  0.00     0.103 H 
ATOM     16  H   LIG d   1       4.085  -3.566  -8.195  0.00  0.00     0.063 H 
ENDROOT
BRANCH   9  17
ATOM     17  C   LIG d   1       5.533  -1.855  -3.618  0.00  0.00     0.019 C 
ATOM     18  H   LIG d   1       6.305  -1.159  -3.288  0.00  0.00     0.037 H 
ATOM     19  H   LIG d   1       5.976  -2.836  -3.787  0.00  0.00     0.037 H 
BRANCH  17  20
ATOM     20  C   LIG d   1       4.466  -1.961  -2.560  0.00  0.00     0.046 C 
ATOM     21  O   LIG d   1       3.634  -2.836  -2.626  0.00  0.00    -0.549 OA
ATOM     22  O   LIG d   1       4.442  -1.088  -1.541  0.00  0.00    -0.549 OA
ENDBRANCH  17  20
ENDBRANCH   9  17
BRANCH   8  23
ATOM     23  C   LIG d   1       5.059  -3.670  -5.812  0.00  0.00    -0.038 C 
ATOM     24  H   LIG d   1       5.612  -3.834  -4.887  0.00  0.00     0.028 H 
ATOM     25  H   LIG d   1       4.148  -4.269  -5.800  0.00  0.00     0.028 H 
ATOM     26  H   LIG d   1       5.675  -3.962  -6.661  0.00  0.00     0.028 H 
ENDBRANCH   8  23
BRANCH  14  27
ATOM     27  C   LIG d   1       2.884   1.684  -8.449  0.00  0.00    -0.033 C 
ATOM     28  H   LIG d   1       3.369   2.208  -7.626  0.00  0.00     0.028 H 
ATOM     29  H   LIG d   1       3.237   2.090  -9.397  0.00  0.00     0.028 H 
ATOM     30  H   LIG d   1       1.805   1.813  -8.378  0.00  0.00     0.028 H 
ENDBRANCH  14  27
BRANCH   1  31
ATOM     31  C   LIG d   1       3.009  -3.972 -11.140  0.00  0.00    -0.036 C 
ATOM     32  H   LIG d   1       2.035  -4.458 -11.082  0.00  0.00     0.028 H 
ATOM     33  H   LIG d   1       3.369  -4.004 -12.169  0.00  0.00     0.028 H 
ATOM     34  H   LIG d   1       3.714  -4.494 -10.492  0.00  0.00     0.028 H 
ENDBRANCH   1  31
TORSDOF 5
ENDMDL
MODEL 9
REMARK VINA RESULT:      -5.2      4.752      6.620
REMARK  5 active torsions:
REMARK  status: ('A' for Active; 'I' for Inactive)
REMARK    1  A    between atoms: C_1  and  C_2 
REMARK    2  A    between atoms: C_9  and  C_20 
REMARK    3  A    between atoms: C_10  and  C_17 
REMARK    4  A    between atoms: C_15  and  C_16 
REMARK    5  A    between atoms: C_17  and  C_18 
ROOT
ATOM      1  C   LIG d   1       9.777   3.806  -4.804  0.00  0.00    -0.005 A 
ATOM      2  C   LIG d   1      10.866   3.551  -5.538  0.00  0.00     0.096 A 
ATOM      3  O   LIG d   1      10.938   2.238  -5.824  0.00  0.00    -0.462 OA
ATOM      4  C   LIG d   1       9.897   1.570  -5.289  0.00  0.00     0.141 A 
ATOM      5  C   LIG d   1       9.100   2.515  -4.613  0.00  0.00     0.024 A 
ATOM      6  C   LIG d   1       7.943   2.120  -3.955  0.00  0.00    -0.040 A 
ATOM      7  C   LIG d   1       7.577   0.773  -3.968  0.00  0.00     0.022 A 
ATOM      8  C   LIG d   1       6.359   0.321  -3.290  0.00  0.00    -0.029 A 
ATOM      9  C   LIG d   1       6.053  -1.000  -3.334  0.00  0.00     0.046 A 
ATOM     10  C   LIG d   1       6.896  -1.893  -4.029  0.00  0.00     0.341 A 
ATOM     11  O   LIG d   1       6.607  -3.076  -4.064  0.00  0.00    -0.245 OA
ATOM     12  O   LIG d   1       8.007  -1.474  -4.653  0.00  0.00    -0.422 OA
ATOM     13  C   LIG d   1       8.375  -0.173  -4.646  0.00  0.00     0.146 A 
ATOM     14  C   LIG d   1       9.525   0.233  -5.298  0.00  0.00     0.035 A 
ATOM     15  H   LIG d   1      11.584   4.292  -5.857  0.00  0.00     0.103 H 
ATOM     16  H   LIG d   1       7.334   2.846  -3.438  0.00  0.00     0.063 H 
ENDROOT
BRANCH   9  17
ATOM     17  C   LIG d   1       4.813  -1.513  -2.646  0.00  0.00     0.019 C 
ATOM     18  H   LIG d   1       4.704  -1.020  -1.679  0.00  0.00     0.037 H 
ATOM     19  H   LIG d   1       4.898  -2.589  -2.499  0.00  0.00     0.037 H 
BRANCH  17  20
ATOM     20  C   LIG d   1       3.606  -1.216  -3.499  0.00  0.00     0.046 C 
ATOM     21  O   LIG d   1       2.538  -0.999  -2.979  0.00  0.00    -0.549 OA
ATOM     22  O   LIG d   1       3.721  -1.186  -4.836  0.00  0.00    -0.549 OA
ENDBRANCH  17  20
ENDBRANCH   9  17
BRANCH   8  23
ATOM     23  C   LIG d   1       5.472   1.297  -2.559  0.00  0.00    -0.038 C 
ATOM     24  H   LIG d   1       4.469   0.877  -2.468  0.00  0.00     0.028 H 
ATOM     25  H   LIG d   1       5.879   1.484  -1.566  0.00  0.00     0.028 H 
ATOM     26  H   LIG d   1       5.425   2.232  -3.115  0.00  0.00     0.028 H 
ENDBRANCH   8  23
BRANCH  14  27
ATOM     27  C   LIG d   1      10.376  -0.779  -6.021  0.00  0.00    -0.033 C 
ATOM     28  H   LIG d   1      10.950  -0.280  -6.801  0.00  0.00     0.028 H 
ATOM     29  H   LIG d   1      11.058  -1.251  -5.314  0.00  0.00     0.028 H 
ATOM     30  H   LIG d   1       9.736  -1.538  -6.469  0.00  0.00     0.028 H 
ENDBRANCH  14  27
BRANCH   1  31
ATOM     31  C   LIG d   1       9.332   5.146  -4.278  0.00  0.00    -0.036 C 
ATOM     32  H   LIG d   1       8.246   5.219  -4.340  0.00  0.00     0.028 H 
ATOM     33  H   LIG d   1       9.644   5.250  -3.239  0.00  0.00     0.028 H 
ATOM     34  H   LIG d   1       9.783   5.940  -4.874  0.00  0.00     0.028 H 
ENDBRANCH   1  31
TORSDOF 5
ENDMDL
MODEL 10
REMARK VINA RESULT:      -5.2     10.268     12.189
REMARK  5 active torsions:
REMARK  status: ('A' for Active; 'I' for Inactive)
REMARK    1  A    between atoms: C_1  and  C_2 
REMARK    2  A    between atoms: C_9  and  C_20 
REMARK    3  A    between atoms: C_10  and  C_17 
REMARK    4  A    between atoms: C_15  and  C_16 
REMARK    5  A    between atoms: C_17  and  C_18 
ROOT
ATOM      1  C   LIG d   1      11.859  10.300   1.436  0.00  0.00    -0.005 A 
ATOM      2  C   LIG d   1      12.084   9.758   2.638  0.00  0.00     0.096 A 
ATOM      3  O   LIG d   1      11.821   8.438   2.611  0.00  0.00    -0.462 OA
ATOM      4  C   LIG d   1      11.411   8.054   1.385  0.00  0.00     0.141 A 
ATOM      5  C   LIG d   1      11.409   9.202   0.568  0.00  0.00     0.024 A 
ATOM      6  C   LIG d   1      11.028   9.118  -0.764  0.00  0.00    -0.040 A 
ATOM      7  C   LIG d   1      10.644   7.883  -1.287  0.00  0.00     0.022 A 
ATOM      8  C   LIG d   1      10.242   7.756  -2.691  0.00  0.00    -0.029 A 
ATOM      9  C   LIG d   1       9.877   6.531  -3.146  0.00  0.00     0.046 A 
ATOM     10  C   LIG d   1       9.901   5.422  -2.273  0.00  0.00     0.341 A 
ATOM     11  O   LIG d   1       9.575   4.328  -2.695  0.00  0.00    -0.245 OA
ATOM     12  O   LIG d   1      10.275   5.542  -0.990  0.00  0.00    -0.422 OA
ATOM     13  C   LIG d   1      10.647   6.733  -0.470  0.00  0.00     0.146 A 
ATOM     14  C   LIG d   1      11.029   6.829   0.857  0.00  0.00     0.035 A 
ATOM     15  H   LIG d   1      12.427  10.300   3.506  0.00  0.00     0.103 H 
ATOM     16  H   LIG d   1      11.028   9.999  -1.388  0.00  0.00     0.063 H 
ENDROOT
BRANCH   9  17
ATOM     17  C   LIG d   1       9.451   6.353  -4.581  0.00  0.00     0.019 C 
ATOM     18  H   LIG d   1       9.210   7.325  -5.012  0.00  0.00     0.037 H 
ATOM     19  H   LIG d   1       8.572   5.710  -4.621  0.00  0.00     0.037 H 
BRANCH  17  20
ATOM     20  C   LIG d   1      10.573   5.721  -5.364  0.00  0.00     0.046 C 
ATOM     21  O   LIG d   1      10.389   4.681  -5.951  0.00  0.00    -0.549 OA
ATOM     22  O   LIG d   1      11.774   6.317  -5.414  0.00  0.00    -0.549 OA
ENDBRANCH  17  20
ENDBRANCH   9  17
BRANCH   8  23
ATOM     23  C   LIG d   1      10.231   8.955  -3.605  0.00  0.00    -0.038 C 
ATOM     24  H   LIG d   1      11.183   9.481  -3.524  0.00  0.00     0.028 H 
ATOM     25  H   LIG d   1      10.084   8.626  -4.633  0.00  0.00     0.028 H 
ATOM     26  H   LIG d   1       9.421   9.624  -3.317  0.00  0.00     0.028 H 
ENDBRANCH   8  23
BRANCH  14  27
ATOM     27  C   LIG d   1      11.030   5.600   1.729  0.00  0.00    -0.033 C 
ATOM     28  H   LIG d   1      10.513   5.817   2.663  0.00  0.00     0.028 H 
ATOM     29  H   LIG d   1      10.520   4.787   1.212  0.00  0.00     0.028 H 
ATOM     30  H   LIG d   1      12.058   5.306   1.942  0.00  0.00     0.028 H 
ENDBRANCH  14  27
BRANCH   1  31
ATOM     31  C   LIG d   1      12.033  11.746   1.048  0.00  0.00    -0.036 C 
ATOM     32  H   LIG d   1      12.153  11.820  -0.033  0.00  0.00     0.028 H 
ATOM     33  H   LIG d   1      11.153  12.312   1.354  0.00  0.00     0.028 H 
ATOM     34  H   LIG d   1      12.916  12.152   1.540  0.00  0.00     0.028 H 
ENDBRANCH   1  31
TORSDOF 5
ENDMDL
