MODEL 1
REMARK VINA RESULT:      -6.2      0.000      0.000
REMARK  7 active torsions:
REMARK  status: ('A' for Active; 'I' for Inactive)
REMARK    1  A    between atoms: C_1  and  C_2 
REMARK    2  A    between atoms: C_2  and  C_3 
REMARK    3  A    between atoms: C_3  and  C_4 
REMARK    4  A    between atoms: C_5  and  C_14 
REMARK    5  A    between atoms: C_11  and  C_13 
REMARK    6  A    between atoms: C_14  and  N_15 
REMARK    7  A    between atoms: C_19  and  C_20 
ROOT
ATOM      1  C   LIG d   1       4.996  -1.174  -7.198  0.00  0.00     0.020 A 
ATOM      2  C   LIG d   1       6.097  -0.397  -7.000  0.00  0.00     0.069 A 
ATOM      3  N   LIG d   1       6.281   0.711  -7.723  0.00  0.00    -0.238 NA
ATOM      4  C   LIG d   1       5.420   1.096  -8.627  0.00  0.00     0.120 A 
ATOM      5  N   LIG d   1       4.299   0.376  -8.875  0.00  0.00    -0.202 N 
ATOM      6  C   LIG d   1       4.058  -0.773  -8.170  0.00  0.00     0.163 A 
ATOM      7  N   LIG d   1       2.912  -1.274  -8.604  0.00  0.00    -0.211 NA
ATOM      8  C   LIG d   1       2.415  -0.492  -9.554  0.00  0.00     0.149 A 
ATOM      9  N   LIG d   1       3.220   0.525  -9.755  0.00  0.00    -0.149 NA
ATOM     10  H   LIG d   1       5.605   2.001  -9.186  0.00  0.00     0.105 H 
ENDROOT
BRANCH   2  11
ATOM     11  C   LIG d   1       7.117  -0.793  -5.965  0.00  0.00     0.067 C 
ATOM     12  H   LIG d   1       6.754  -1.672  -5.410  0.00  0.00     0.056 H 
ATOM     13  H   LIG d   1       8.067  -1.041  -6.461  0.00  0.00     0.056 H 
BRANCH  11  14
ATOM     14  N   LIG d   1       7.326   0.319  -5.035  0.00  0.00    -0.323 N 
ATOM     15  C   LIG d   1       6.513   0.675  -4.000  0.00  0.00     0.162 A 
ATOM     16  N   LIG d   1       7.041   1.719  -3.399  0.00  0.00    -0.234 NA
ATOM     17  C   LIG d   1       8.174   2.058  -4.022  0.00  0.00     0.046 A 
ATOM     18  C   LIG d   1       8.372   1.200  -5.043  0.00  0.00     0.025 A 
ATOM     19  H   LIG d   1       8.821   2.880  -3.752  0.00  0.00     0.085 H 
ATOM     20  H   LIG d   1       9.200   1.208  -5.738  0.00  0.00     0.083 H 
BRANCH  15  21
ATOM     21  C   LIG d   1       5.254   0.001  -3.616  0.00  0.00     0.141 A 
ATOM     22  N   LIG d   1       4.088   0.562  -3.917  0.00  0.00    -0.249 NA
ATOM     23  C   LIG d   1       2.945  -0.005  -3.593  0.00  0.00     0.029 A 
ATOM     24  C   LIG d   1       2.915  -1.215  -2.923  0.00  0.00    -0.041 A 
ATOM     25  H   LIG d   1       2.016   0.480  -3.855  0.00  0.00     0.083 H 
ATOM     26  C   LIG d   1       4.108  -1.838  -2.587  0.00  0.00    -0.023 A 
ATOM     27  H   LIG d   1       1.971  -1.671  -2.663  0.00  0.00     0.063 H 
ATOM     28  C   LIG d   1       5.298  -1.223  -2.944  0.00  0.00     0.152 A 
ATOM     29  H   LIG d   1       4.111  -2.782  -2.064  0.00  0.00     0.065 H 
ATOM     30  F   LIG d   1       6.484  -1.797  -2.642  0.00  0.00    -0.203 F 
ENDBRANCH  15  21
ENDBRANCH  11  14
ENDBRANCH   2  11
BRANCH   1  31
ATOM     31  C   LIG d   1       4.784  -2.429  -6.392  0.00  0.00    -0.023 C 
ATOM     32  H   LIG d   1       3.732  -2.489  -6.077  0.00  0.00     0.032 H 
ATOM     33  H   LIG d   1       5.431  -2.408  -5.502  0.00  0.00     0.032 H 
BRANCH  31  34
ATOM     34  C   LIG d   1       5.131  -3.650  -7.246  0.00  0.00    -0.052 C 
ATOM     35  H   LIG d   1       5.977  -4.186  -6.792  0.00  0.00     0.027 H 
ATOM     36  H   LIG d   1       5.407  -3.321  -8.260  0.00  0.00     0.027 H 
BRANCH  34  37
ATOM     37  C   LIG d   1       3.920  -4.580  -7.324  0.00  0.00    -0.065 C 
ATOM     38  H   LIG d   1       3.742  -5.034  -6.338  0.00  0.00     0.023 H 
ATOM     39  H   LIG d   1       4.113  -5.372  -8.063  0.00  0.00     0.023 H 
ATOM     40  H   LIG d   1       3.033  -4.004  -7.628  0.00  0.00     0.023 H 
ENDBRANCH  34  37
ENDBRANCH  31  34
ENDBRANCH   1  31
BRANCH   8  41
ATOM     41  C   LIG d   1       1.122  -0.734 -10.288  0.00  0.00    -0.003 C 
ATOM     42  H   LIG d   1       1.295  -1.443 -11.111  0.00  0.00     0.031 H 
ATOM     43  H   LIG d   1       0.748   0.217 -10.696  0.00  0.00     0.031 H 
ATOM     44  H   LIG d   1       0.378  -1.152  -9.593  0.00  0.00     0.031 H 
ENDBRANCH   8  41
TORSDOF 7
ENDMDL
MODEL 2
REMARK VINA RESULT:      -6.1      2.310      4.081
REMARK  7 active torsions:
REMARK  status: ('A' for Active; 'I' for Inactive)
REMARK    1  A    between atoms: C_1  and  C_2 
REMARK    2  A    between atoms: C_2  and  C_3 
REMARK    3  A    between atoms: C_3  and  C_4 
REMARK    4  A    between atoms: C_5  and  C_14 
REMARK    5  A    between atoms: C_11  and  C_13 
REMARK    6  A    between atoms: C_14  and  N_15 
REMARK    7  A    between atoms: C_19  and  C_20 
ROOT
ATOM      1  C   LIG d   1       3.085  -0.221  -8.285  0.00  0.00     0.020 A 
ATOM      2  C   LIG d   1       3.911  -0.919  -7.457  0.00  0.00     0.069 A 
ATOM      3  N   LIG d   1       4.107  -2.227  -7.644  0.00  0.00    -0.238 NA
ATOM      4  C   LIG d   1       3.534  -2.878  -8.621  0.00  0.00     0.120 A 
ATOM      5  N   LIG d   1       2.704  -2.248  -9.487  0.00  0.00    -0.202 N 
ATOM      6  C   LIG d   1       2.458  -0.909  -9.343  0.00  0.00     0.163 A 
ATOM      7  N   LIG d   1       1.625  -0.550 -10.307  0.00  0.00    -0.211 NA
ATOM      8  C   LIG d   1       1.331  -1.605 -11.057  0.00  0.00     0.149 A 
ATOM      9  N   LIG d   1       1.961  -2.661 -10.600  0.00  0.00    -0.149 NA
ATOM     10  H   LIG d   1       3.724  -3.934  -8.739  0.00  0.00     0.105 H 
ENDROOT
BRANCH   2  11
ATOM     11  C   LIG d   1       4.601  -0.214  -6.319  0.00  0.00     0.067 C 
ATOM     12  H   LIG d   1       5.657  -0.523  -6.283  0.00  0.00     0.056 H 
ATOM     13  H   LIG d   1       4.543   0.873  -6.472  0.00  0.00     0.056 H 
BRANCH  11  14
ATOM     14  N   LIG d   1       3.946  -0.566  -5.057  0.00  0.00    -0.323 N 
ATOM     15  C   LIG d   1       4.371  -1.497  -4.154  0.00  0.00     0.162 A 
ATOM     16  N   LIG d   1       3.519  -1.520  -3.152  0.00  0.00    -0.234 NA
ATOM     17  C   LIG d   1       2.545  -0.634  -3.383  0.00  0.00     0.046 A 
ATOM     18  C   LIG d   1       2.790  -0.028  -4.563  0.00  0.00     0.025 A 
ATOM     19  H   LIG d   1       1.705  -0.437  -2.733  0.00  0.00     0.085 H 
ATOM     20  H   LIG d   1       2.187   0.737  -5.030  0.00  0.00     0.083 H 
BRANCH  15  21
ATOM     21  C   LIG d   1       5.583  -2.334  -4.279  0.00  0.00     0.141 A 
ATOM     22  N   LIG d   1       5.535  -3.465  -4.974  0.00  0.00    -0.249 NA
ATOM     23  C   LIG d   1       6.591  -4.239  -5.109  0.00  0.00     0.029 A 
ATOM     24  C   LIG d   1       7.800  -3.901  -4.528  0.00  0.00    -0.041 A 
ATOM     25  H   LIG d   1       6.514  -5.151  -5.682  0.00  0.00     0.083 H 
ATOM     26  C   LIG d   1       7.898  -2.729  -3.792  0.00  0.00    -0.023 A 
ATOM     27  H   LIG d   1       8.660  -4.543  -4.646  0.00  0.00     0.063 H 
ATOM     28  C   LIG d   1       6.773  -1.929  -3.669  0.00  0.00     0.152 A 
ATOM     29  H   LIG d   1       8.831  -2.444  -3.329  0.00  0.00     0.065 H 
ATOM     30  F   LIG d   1       6.825  -0.776  -2.966  0.00  0.00    -0.203 F 
ENDBRANCH  15  21
ENDBRANCH  11  14
ENDBRANCH   2  11
BRANCH   1  31
ATOM     31  C   LIG d   1       2.853   1.253  -8.077  0.00  0.00    -0.023 C 
ATOM     32  H   LIG d   1       3.408   1.590  -7.190  0.00  0.00     0.032 H 
ATOM     33  H   LIG d   1       1.778   1.437  -7.929  0.00  0.00     0.032 H 
BRANCH  31  34
ATOM     34  C   LIG d   1       3.337   2.025  -9.306  0.00  0.00    -0.052 C 
ATOM     35  H   LIG d   1       2.815   2.991  -9.362  0.00  0.00     0.027 H 
ATOM     36  H   LIG d   1       3.124   1.440 -10.213  0.00  0.00     0.027 H 
BRANCH  34  37
ATOM     37  C   LIG d   1       4.844   2.265  -9.196  0.00  0.00    -0.065 C 
ATOM     38  H   LIG d   1       5.231   1.762  -8.299  0.00  0.00     0.023 H 
ATOM     39  H   LIG d   1       5.038   3.346  -9.124  0.00  0.00     0.023 H 
ATOM     40  H   LIG d   1       5.346   1.862 -10.089  0.00  0.00     0.023 H 
ENDBRANCH  34  37
ENDBRANCH  31  34
ENDBRANCH   1  31
BRANCH   8  41
ATOM     41  C   LIG d   1       0.413  -1.590 -12.252  0.00  0.00    -0.003 C 
ATOM     42  H   LIG d   1       0.205  -0.550 -12.541  0.00  0.00     0.031 H 
ATOM     43  H   LIG d   1      -0.530  -2.095 -11.996  0.00  0.00     0.031 H 
ATOM     44  H   LIG d   1       0.894  -2.115 -13.091  0.00  0.00     0.031 H 
ENDBRANCH   8  41
TORSDOF 7
ENDMDL
MODEL 3
REMARK VINA RESULT:      -6.1      1.872      3.569
REMARK  7 active torsions:
REMARK  status: ('A' for Active; 'I' for Inactive)
REMARK    1  A    between atoms: C_1  and  C_2 
REMARK    2  A    between atoms: C_2  and  C_3 
REMARK    3  A    between atoms: C_3  and  C_4 
REMARK    4  A    between atoms: C_5  and  C_14 
REMARK    5  A    between atoms: C_11  and  C_13 
REMARK    6  A    between atoms: C_14  and  N_15 
REMARK    7  A    between atoms: C_19  and  C_20 
ROOT
ATOM      1  C   LIG d   1       2.806  -0.459  -9.124  0.00  0.00     0.020 A 
ATOM      2  C   LIG d   1       3.432  -1.053  -8.070  0.00  0.00     0.069 A 
ATOM      3  N   LIG d   1       3.641  -2.372  -8.064  0.00  0.00    -0.238 NA
ATOM      4  C   LIG d   1       3.270  -3.134  -9.058  0.00  0.00     0.120 A 
ATOM      5  N   LIG d   1       2.647  -2.613 -10.142  0.00  0.00    -0.202 N 
ATOM      6  C   LIG d   1       2.399  -1.267 -10.204  0.00  0.00     0.163 A 
ATOM      7  N   LIG d   1       1.788  -1.027 -11.354  0.00  0.00    -0.211 NA
ATOM      8  C   LIG d   1       1.637  -2.163 -12.024  0.00  0.00     0.149 A 
ATOM      9  N   LIG d   1       2.143  -3.155 -11.331  0.00  0.00    -0.149 NA
ATOM     10  H   LIG d   1       3.463  -4.195  -9.015  0.00  0.00     0.105 H 
ENDROOT
BRANCH   2  11
ATOM     11  C   LIG d   1       3.885  -0.218  -6.901  0.00  0.00     0.067 C 
ATOM     12  H   LIG d   1       3.597   0.831  -7.067  0.00  0.00     0.056 H 
ATOM     13  H   LIG d   1       3.411  -0.587  -5.981  0.00  0.00     0.056 H 
BRANCH  11  14
ATOM     14  N   LIG d   1       5.341  -0.309  -6.772  0.00  0.00    -0.323 N 
ATOM     15  C   LIG d   1       6.054  -0.314  -5.609  0.00  0.00     0.162 A 
ATOM     16  N   LIG d   1       7.332  -0.412  -5.907  0.00  0.00    -0.234 NA
ATOM     17  C   LIG d   1       7.471  -0.462  -7.236  0.00  0.00     0.046 A 
ATOM     18  C   LIG d   1       6.245  -0.400  -7.795  0.00  0.00     0.025 A 
ATOM     19  H   LIG d   1       8.406  -0.540  -7.771  0.00  0.00     0.085 H 
ATOM     20  H   LIG d   1       6.019  -0.417  -8.852  0.00  0.00     0.083 H 
BRANCH  15  21
ATOM     21  C   LIG d   1       5.489  -0.228  -4.246  0.00  0.00     0.141 A 
ATOM     22  N   LIG d   1       5.362   0.957  -3.659  0.00  0.00    -0.249 NA
ATOM     23  C   LIG d   1       4.863   1.077  -2.447  0.00  0.00     0.029 A 
ATOM     24  C   LIG d   1       4.449  -0.034  -1.733  0.00  0.00    -0.041 A 
ATOM     25  H   LIG d   1       4.774   2.057  -2.002  0.00  0.00     0.083 H 
ATOM     26  C   LIG d   1       4.563  -1.293  -2.306  0.00  0.00    -0.023 A 
ATOM     27  H   LIG d   1       4.041   0.077  -0.740  0.00  0.00     0.063 H 
ATOM     28  C   LIG d   1       5.087  -1.392  -3.586  0.00  0.00     0.152 A 
ATOM     29  H   LIG d   1       4.248  -2.175  -1.769  0.00  0.00     0.065 H 
ATOM     30  F   LIG d   1       5.211  -2.597  -4.184  0.00  0.00    -0.203 F 
ENDBRANCH  15  21
ENDBRANCH  11  14
ENDBRANCH   2  11
BRANCH   1  31
ATOM     31  C   LIG d   1       2.560   1.027  -9.137  0.00  0.00    -0.023 C 
ATOM     32  H   LIG d   1       2.630   1.418  -8.112  0.00  0.00     0.032 H 
ATOM     33  H   LIG d   1       1.556   1.229  -9.538  0.00  0.00     0.032 H 
BRANCH  31  34
ATOM     34  C   LIG d   1       3.607   1.711 -10.017  0.00  0.00    -0.052 C 
ATOM     35  H   LIG d   1       3.115   2.163 -10.891  0.00  0.00     0.027 H 
ATOM     36  H   LIG d   1       4.343   0.966 -10.356  0.00  0.00     0.027 H 
BRANCH  34  37
ATOM     37  C   LIG d   1       4.318   2.801  -9.213  0.00  0.00    -0.065 C 
ATOM     38  H   LIG d   1       4.895   3.443  -9.894  0.00  0.00     0.023 H 
ATOM     39  H   LIG d   1       4.998   2.334  -8.484  0.00  0.00     0.023 H 
ATOM     40  H   LIG d   1       3.571   3.409  -8.680  0.00  0.00     0.023 H 
ENDBRANCH  34  37
ENDBRANCH  31  34
ENDBRANCH   1  31
BRANCH   8  41
ATOM     41  C   LIG d   1       0.985  -2.291 -13.377  0.00  0.00    -0.003 C 
ATOM     42  H   LIG d   1       1.579  -2.969 -14.006  0.00  0.00     0.031 H 
ATOM     43  H   LIG d   1       0.932  -1.300 -13.854  0.00  0.00     0.031 H 
ATOM     44  H   LIG d   1      -0.031  -2.694 -13.258  0.00  0.00     0.031 H 
ENDBRANCH   8  41
TORSDOF 7
ENDMDL
MODEL 4
REMARK VINA RESULT:      -5.9      2.166      3.725
REMARK  7 active torsions:
REMARK  status: ('A' for Active; 'I' for Inactive)
REMARK    1  A    between atoms: C_1  and  C_2 
REMARK    2  A    between atoms: C_2  and  C_3 
REMARK    3  A    between atoms: C_3  and  C_4 
REMARK    4  A    between atoms: C_5  and  C_14 
REMARK    5  A    between atoms: C_11  and  C_13 
REMARK    6  A    between atoms: C_14  and  N_15 
REMARK    7  A    between atoms: C_19  and  C_20 
ROOT
ATOM      1  C   LIG d   1       3.906  -2.526  -8.299  0.00  0.00     0.020 A 
ATOM      2  C   LIG d   1       4.494  -2.352  -7.083  0.00  0.00     0.069 A 
ATOM      3  N   LIG d   1       4.632  -3.382  -6.245  0.00  0.00    -0.238 NA
ATOM      4  C   LIG d   1       4.227  -4.584  -6.557  0.00  0.00     0.120 A 
ATOM      5  N   LIG d   1       3.637  -4.834  -7.751  0.00  0.00    -0.202 N 
ATOM      6  C   LIG d   1       3.462  -3.816  -8.650  0.00  0.00     0.163 A 
ATOM      7  N   LIG d   1       2.871  -4.326  -9.719  0.00  0.00    -0.211 NA
ATOM      8  C   LIG d   1       2.663  -5.624  -9.537  0.00  0.00     0.149 A 
ATOM      9  N   LIG d   1       3.111  -5.982  -8.356  0.00  0.00    -0.149 NA
ATOM     10  H   LIG d   1       4.362  -5.390  -5.851  0.00  0.00     0.105 H 
ENDROOT
BRANCH   2  11
ATOM     11  C   LIG d   1       4.985  -0.986  -6.678  0.00  0.00     0.067 C 
ATOM     12  H   LIG d   1       4.973  -0.318  -7.552  0.00  0.00     0.056 H 
ATOM     13  H   LIG d   1       4.330  -0.578  -5.895  0.00  0.00     0.056 H 
BRANCH  11  14
ATOM     14  N   LIG d   1       6.353  -1.092  -6.165  0.00  0.00    -0.323 N 
ATOM     15  C   LIG d   1       6.769  -0.810  -4.896  0.00  0.00     0.162 A 
ATOM     16  N   LIG d   1       8.063  -1.031  -4.826  0.00  0.00    -0.234 NA
ATOM     17  C   LIG d   1       8.504  -1.443  -6.019  0.00  0.00     0.046 A 
ATOM     18  C   LIG d   1       7.457  -1.489  -6.868  0.00  0.00     0.025 A 
ATOM     19  H   LIG d   1       9.526  -1.697  -6.261  0.00  0.00     0.085 H 
ATOM     20  H   LIG d   1       7.485  -1.783  -7.907  0.00  0.00     0.083 H 
BRANCH  15  21
ATOM     21  C   LIG d   1       5.910  -0.338  -3.789  0.00  0.00     0.141 A 
ATOM     22  N   LIG d   1       5.774   0.965  -3.569  0.00  0.00    -0.249 NA
ATOM     23  C   LIG d   1       5.020   1.426  -2.594  0.00  0.00     0.029 A 
ATOM     24  C   LIG d   1       4.335   0.565  -1.755  0.00  0.00    -0.041 A 
ATOM     25  H   LIG d   1       4.933   2.492  -2.447  0.00  0.00     0.083 H 
ATOM     26  C   LIG d   1       4.448  -0.805  -1.946  0.00  0.00    -0.023 A 
ATOM     27  H   LIG d   1       3.719   0.954  -0.959  0.00  0.00     0.063 H 
ATOM     28  C   LIG d   1       5.244  -1.265  -2.983  0.00  0.00     0.152 A 
ATOM     29  H   LIG d   1       3.923  -1.497  -1.304  0.00  0.00     0.065 H 
ATOM     30  F   LIG d   1       5.378  -2.591  -3.209  0.00  0.00    -0.203 F 
ENDBRANCH  15  21
ENDBRANCH  11  14
ENDBRANCH   2  11
BRANCH   1  31
ATOM     31  C   LIG d   1       3.740  -1.368  -9.248  0.00  0.00    -0.023 C 
ATOM     32  H   LIG d   1       3.850  -1.724 -10.283  0.00  0.00     0.032 H 
ATOM     33  H   LIG d   1       4.508  -0.609  -9.038  0.00  0.00     0.032 H 
BRANCH  31  34
ATOM     34  C   LIG d   1       2.352  -0.753  -9.065  0.00  0.00    -0.052 C 
ATOM     35  H   LIG d   1       1.944  -1.051  -8.087  0.00  0.00     0.027 H 
ATOM     36  H   LIG d   1       1.685  -1.109  -9.864  0.00  0.00     0.027 H 
BRANCH  34  37
ATOM     37  C   LIG d   1       2.456   0.772  -9.129  0.00  0.00    -0.065 C 
ATOM     38  H   LIG d   1       2.669   1.168  -8.126  0.00  0.00     0.023 H 
ATOM     39  H   LIG d   1       1.506   1.189  -9.495  0.00  0.00     0.023 H 
ATOM     40  H   LIG d   1       3.269   1.055  -9.815  0.00  0.00     0.023 H 
ENDBRANCH  34  37
ENDBRANCH  31  34
ENDBRANCH   1  31
BRANCH   8  41
ATOM     41  C   LIG d   1       2.012  -6.547 -10.535  0.00  0.00    -0.003 C 
ATOM     42  H   LIG d   1       0.925  -6.559 -10.367  0.00  0.00     0.031 H 
ATOM     43  H   LIG d   1       2.413  -7.564 -10.411  0.00  0.00     0.031 H 
ATOM     44  H   LIG d   1       2.223  -6.192 -11.554  0.00  0.00     0.031 H 
ENDBRANCH   8  41
TORSDOF 7
ENDMDL
MODEL 5
REMARK VINA RESULT:      -5.8      2.324      6.440
REMARK  7 active torsions:
REMARK  status: ('A' for Active; 'I' for Inactive)
REMARK    1  A    between atoms: C_1  and  C_2 
REMARK    2  A    between atoms: C_2  and  C_3 
REMARK    3  A    between atoms: C_3  and  C_4 
REMARK    4  A    between atoms: C_5  and  C_14 
REMARK    5  A    between atoms: C_11  and  C_13 
REMARK    6  A    between atoms: C_14  and  N_15 
REMARK    7  A    between atoms: C_19  and  C_20 
ROOT
ATOM      1  C   LIG d   1       5.392  -0.858  -6.254  0.00  0.00     0.020 A 
ATOM      2  C   LIG d   1       5.200  -2.098  -6.785  0.00  0.00     0.069 A 
ATOM      3  N   LIG d   1       4.758  -3.099  -6.019  0.00  0.00    -0.238 NA
ATOM      4  C   LIG d   1       4.485  -2.930  -4.753  0.00  0.00     0.120 A 
ATOM      5  N   LIG d   1       4.647  -1.724  -4.158  0.00  0.00    -0.202 N 
ATOM      6  C   LIG d   1       5.103  -0.660  -4.890  0.00  0.00     0.163 A 
ATOM      7  N   LIG d   1       5.170   0.383  -4.077  0.00  0.00    -0.211 NA
ATOM      8  C   LIG d   1       4.775   0.027  -2.861  0.00  0.00     0.149 A 
ATOM      9  N   LIG d   1       4.447  -1.243  -2.858  0.00  0.00    -0.149 NA
ATOM     10  H   LIG d   1       4.125  -3.766  -4.172  0.00  0.00     0.105 H 
ENDROOT
BRANCH   2  11
ATOM     11  C   LIG d   1       5.495  -2.343  -8.241  0.00  0.00     0.067 C 
ATOM     12  H   LIG d   1       5.858  -1.412  -8.704  0.00  0.00     0.056 H 
ATOM     13  H   LIG d   1       6.265  -3.122  -8.334  0.00  0.00     0.056 H 
BRANCH  11  14
ATOM     14  N   LIG d   1       4.272  -2.779  -8.919  0.00  0.00    -0.323 N 
ATOM     15  C   LIG d   1       3.341  -1.977  -9.512  0.00  0.00     0.162 A 
ATOM     16  N   LIG d   1       2.395  -2.741 -10.012  0.00  0.00    -0.234 NA
ATOM     17  C   LIG d   1       2.680  -4.021  -9.754  0.00  0.00     0.046 A 
ATOM     18  C   LIG d   1       3.845  -4.070  -9.075  0.00  0.00     0.025 A 
ATOM     19  H   LIG d   1       2.080  -4.872 -10.041  0.00  0.00     0.085 H 
ATOM     20  H   LIG d   1       4.345  -4.959  -8.719  0.00  0.00     0.083 H 
BRANCH  15  21
ATOM     21  C   LIG d   1       3.389  -0.501  -9.583  0.00  0.00     0.141 A 
ATOM     22  N   LIG d   1       4.034   0.090 -10.582  0.00  0.00    -0.249 NA
ATOM     23  C   LIG d   1       4.100   1.401 -10.682  0.00  0.00     0.029 A 
ATOM     24  C   LIG d   1       3.496   2.218  -9.742  0.00  0.00    -0.041 A 
ATOM     25  H   LIG d   1       4.633   1.847 -11.508  0.00  0.00     0.083 H 
ATOM     26  C   LIG d   1       2.811   1.645  -8.681  0.00  0.00    -0.023 A 
ATOM     27  H   LIG d   1       3.556   3.293  -9.834  0.00  0.00     0.063 H 
ATOM     28  C   LIG d   1       2.752   0.262  -8.602  0.00  0.00     0.152 A 
ATOM     29  H   LIG d   1       2.332   2.261  -7.935  0.00  0.00     0.065 H 
ATOM     30  F   LIG d   1       2.091  -0.339  -7.587  0.00  0.00    -0.203 F 
ENDBRANCH  15  21
ENDBRANCH  11  14
ENDBRANCH   2  11
BRANCH   1  31
ATOM     31  C   LIG d   1       5.898   0.276  -7.108  0.00  0.00    -0.023 C 
ATOM     32  H   LIG d   1       5.361   1.199  -6.846  0.00  0.00     0.032 H 
ATOM     33  H   LIG d   1       5.725   0.041  -8.170  0.00  0.00     0.032 H 
BRANCH  31  34
ATOM     34  C   LIG d   1       7.395   0.470  -6.866  0.00  0.00    -0.052 C 
ATOM     35  H   LIG d   1       7.945  -0.405  -7.244  0.00  0.00     0.027 H 
ATOM     36  H   LIG d   1       7.581   0.581  -5.787  0.00  0.00     0.027 H 
BRANCH  34  37
ATOM     37  C   LIG d   1       7.872   1.726  -7.598  0.00  0.00    -0.065 C 
ATOM     38  H   LIG d   1       8.942   1.628  -7.836  0.00  0.00     0.023 H 
ATOM     39  H   LIG d   1       7.718   2.605  -6.956  0.00  0.00     0.023 H 
ATOM     40  H   LIG d   1       7.299   1.847  -8.530  0.00  0.00     0.023 H 
ENDBRANCH  34  37
ENDBRANCH  31  34
ENDBRANCH   1  31
BRANCH   8  41
ATOM     41  C   LIG d   1       4.713   0.943  -1.667  0.00  0.00    -0.003 C 
ATOM     42  H   LIG d   1       5.631   1.546  -1.619  0.00  0.00     0.031 H 
ATOM     43  H   LIG d   1       4.620   0.344  -0.749  0.00  0.00     0.031 H 
ATOM     44  H   LIG d   1       3.841   1.608  -1.759  0.00  0.00     0.031 H 
ENDBRANCH   8  41
TORSDOF 7
ENDMDL
MODEL 6
REMARK VINA RESULT:      -5.8      2.416      4.633
REMARK  7 active torsions:
REMARK  status: ('A' for Active; 'I' for Inactive)
REMARK    1  A    between atoms: C_1  and  C_2 
REMARK    2  A    between atoms: C_2  and  C_3 
REMARK    3  A    between atoms: C_3  and  C_4 
REMARK    4  A    between atoms: C_5  and  C_14 
REMARK    5  A    between atoms: C_11  and  C_13 
REMARK    6  A    between atoms: C_14  and  N_15 
REMARK    7  A    between atoms: C_19  and  C_20 
ROOT
ATOM      1  C   LIG d   1       6.418   1.267  -8.327  0.00  0.00     0.020 A 
ATOM      2  C   LIG d   1       6.416   0.467  -7.225  0.00  0.00     0.069 A 
ATOM      3  N   LIG d   1       7.414   0.533  -6.340  0.00  0.00    -0.238 NA
ATOM      4  C   LIG d   1       8.411   1.364  -6.485  0.00  0.00     0.120 A 
ATOM      5  N   LIG d   1       8.478   2.194  -7.554  0.00  0.00    -0.202 N 
ATOM      6  C   LIG d   1       7.488   2.168  -8.499  0.00  0.00     0.163 A 
ATOM      7  N   LIG d   1       7.795   3.066  -9.423  0.00  0.00    -0.211 NA
ATOM      8  C   LIG d   1       8.938   3.660  -9.104  0.00  0.00     0.149 A 
ATOM      9  N   LIG d   1       9.393   3.166  -7.977  0.00  0.00    -0.149 NA
ATOM     10  H   LIG d   1       9.194   1.389  -5.743  0.00  0.00     0.105 H 
ENDROOT
BRANCH   2  11
ATOM     11  C   LIG d   1       5.285  -0.504  -7.008  0.00  0.00     0.067 C 
ATOM     12  H   LIG d   1       4.466   0.001  -6.473  0.00  0.00     0.056 H 
ATOM     13  H   LIG d   1       4.920  -0.866  -7.980  0.00  0.00     0.056 H 
BRANCH  11  14
ATOM     14  N   LIG d   1       5.761  -1.638  -6.212  0.00  0.00    -0.323 N 
ATOM     15  C   LIG d   1       5.621  -1.800  -4.865  0.00  0.00     0.162 A 
ATOM     16  N   LIG d   1       6.176  -2.943  -4.525  0.00  0.00    -0.234 NA
ATOM     17  C   LIG d   1       6.682  -3.527  -5.616  0.00  0.00     0.046 A 
ATOM     18  C   LIG d   1       6.436  -2.733  -6.678  0.00  0.00     0.025 A 
ATOM     19  H   LIG d   1       7.200  -4.475  -5.642  0.00  0.00     0.085 H 
ATOM     20  H   LIG d   1       6.718  -2.924  -7.703  0.00  0.00     0.083 H 
BRANCH  15  21
ATOM     21  C   LIG d   1       4.956  -0.854  -3.943  0.00  0.00     0.141 A 
ATOM     22  N   LIG d   1       3.630  -0.816  -3.882  0.00  0.00    -0.249 NA
ATOM     23  C   LIG d   1       2.999   0.011  -3.075  0.00  0.00     0.029 A 
ATOM     24  C   LIG d   1       3.699   0.878  -2.254  0.00  0.00    -0.041 A 
ATOM     25  H   LIG d   1       1.919   0.014  -3.051  0.00  0.00     0.083 H 
ATOM     26  C   LIG d   1       5.086   0.874  -2.285  0.00  0.00    -0.023 A 
ATOM     27  H   LIG d   1       3.171   1.552  -1.596  0.00  0.00     0.063 H 
ATOM     28  C   LIG d   1       5.726  -0.010  -3.139  0.00  0.00     0.152 A 
ATOM     29  H   LIG d   1       5.655   1.541  -1.654  0.00  0.00     0.065 H 
ATOM     30  F   LIG d   1       7.076  -0.052  -3.197  0.00  0.00    -0.203 F 
ENDBRANCH  15  21
ENDBRANCH  11  14
ENDBRANCH   2  11
BRANCH   1  31
ATOM     31  C   LIG d   1       5.301   1.194  -9.335  0.00  0.00    -0.023 C 
ATOM     32  H   LIG d   1       4.691   0.301  -9.141  0.00  0.00     0.032 H 
ATOM     33  H   LIG d   1       5.725   1.134 -10.349  0.00  0.00     0.032 H 
BRANCH  31  34
ATOM     34  C   LIG d   1       4.427   2.445  -9.221  0.00  0.00    -0.052 C 
ATOM     35  H   LIG d   1       4.321   2.910 -10.212  0.00  0.00     0.027 H 
ATOM     36  H   LIG d   1       4.899   3.159  -8.529  0.00  0.00     0.027 H 
BRANCH  34  37
ATOM     37  C   LIG d   1       3.047   2.056  -8.689  0.00  0.00    -0.065 C 
ATOM     38  H   LIG d   1       2.863   0.990  -8.889  0.00  0.00     0.023 H 
ATOM     39  H   LIG d   1       2.277   2.660  -9.191  0.00  0.00     0.023 H 
ATOM     40  H   LIG d   1       3.006   2.238  -7.605  0.00  0.00     0.023 H 
ENDBRANCH  34  37
ENDBRANCH  31  34
ENDBRANCH   1  31
BRANCH   8  41
ATOM     41  C   LIG d   1       9.609   4.739  -9.913  0.00  0.00    -0.003 C 
ATOM     42  H   LIG d   1       8.845   5.343 -10.424  0.00  0.00     0.031 H 
ATOM     43  H   LIG d   1      10.273   4.278 -10.661  0.00  0.00     0.031 H 
ATOM     44  H   LIG d   1      10.201   5.384  -9.247  0.00  0.00     0.031 H 
ENDBRANCH   8  41
TORSDOF 7
ENDMDL
MODEL 7
REMARK VINA RESULT:      -5.8      2.195      3.512
REMARK  7 active torsions:
REMARK  status: ('A' for Active; 'I' for Inactive)
REMARK    1  A    between atoms: C_1  and  C_2 
REMARK    2  A    between atoms: C_2  and  C_3 
REMARK    3  A    between atoms: C_3  and  C_4 
REMARK    4  A    between atoms: C_5  and  C_14 
REMARK    5  A    between atoms: C_11  and  C_13 
REMARK    6  A    between atoms: C_14  and  N_15 
REMARK    7  A    between atoms: C_19  and  C_20 
ROOT
ATOM      1  C   LIG d   1       4.353  -1.584  -7.317  0.00  0.00     0.020 A 
ATOM      2  C   LIG d   1       4.421  -2.838  -6.789  0.00  0.00     0.069 A 
ATOM      3  N   LIG d   1       4.438  -3.907  -7.588  0.00  0.00    -0.238 NA
ATOM      4  C   LIG d   1       4.405  -3.797  -8.889  0.00  0.00     0.120 A 
ATOM      5  N   LIG d   1       4.342  -2.582  -9.486  0.00  0.00    -0.202 N 
ATOM      6  C   LIG d   1       4.314  -1.448  -8.719  0.00  0.00     0.163 A 
ATOM      7  N   LIG d   1       4.253  -0.412  -9.541  0.00  0.00    -0.211 NA
ATOM      8  C   LIG d   1       4.241  -0.840 -10.797  0.00  0.00     0.149 A 
ATOM      9  N   LIG d   1       4.293  -2.151 -10.817  0.00  0.00    -0.149 NA
ATOM     10  H   LIG d   1       4.426  -4.688  -9.499  0.00  0.00     0.105 H 
ENDROOT
BRANCH   2  11
ATOM     11  C   LIG d   1       4.468  -3.019  -5.294  0.00  0.00     0.067 C 
ATOM     12  H   LIG d   1       3.972  -2.167  -4.806  0.00  0.00     0.056 H 
ATOM     13  H   LIG d   1       3.951  -3.950  -5.021  0.00  0.00     0.056 H 
BRANCH  11  14
ATOM     14  N   LIG d   1       5.864  -3.088  -4.856  0.00  0.00    -0.323 N 
ATOM     15  C   LIG d   1       6.470  -2.273  -3.944  0.00  0.00     0.162 A 
ATOM     16  N   LIG d   1       7.723  -2.653  -3.818  0.00  0.00    -0.234 NA
ATOM     17  C   LIG d   1       7.952  -3.690  -4.630  0.00  0.00     0.046 A 
ATOM     18  C   LIG d   1       6.809  -3.978  -5.286  0.00  0.00     0.025 A 
ATOM     19  H   LIG d   1       8.893  -4.209  -4.742  0.00  0.00     0.085 H 
ATOM     20  H   LIG d   1       6.667  -4.763  -6.015  0.00  0.00     0.083 H 
BRANCH  15  21
ATOM     21  C   LIG d   1       5.828  -1.156  -3.219  0.00  0.00     0.141 A 
ATOM     22  N   LIG d   1       4.905  -1.412  -2.299  0.00  0.00    -0.249 NA
ATOM     23  C   LIG d   1       4.310  -0.446  -1.631  0.00  0.00     0.029 A 
ATOM     24  C   LIG d   1       4.625   0.881  -1.865  0.00  0.00    -0.041 A 
ATOM     25  H   LIG d   1       3.565  -0.692  -0.889  0.00  0.00     0.083 H 
ATOM     26  C   LIG d   1       5.582   1.196  -2.818  0.00  0.00    -0.023 A 
ATOM     27  H   LIG d   1       4.130   1.665  -1.311  0.00  0.00     0.063 H 
ATOM     28  C   LIG d   1       6.198   0.160  -3.504  0.00  0.00     0.152 A 
ATOM     29  H   LIG d   1       5.845   2.224  -3.019  0.00  0.00     0.065 H 
ATOM     30  F   LIG d   1       7.140   0.421  -4.437  0.00  0.00    -0.203 F 
ENDBRANCH  15  21
ENDBRANCH  11  14
ENDBRANCH   2  11
BRANCH   1  31
ATOM     31  C   LIG d   1       4.325  -0.372  -6.423  0.00  0.00    -0.023 C 
ATOM     32  H   LIG d   1       4.983   0.405  -6.839  0.00  0.00     0.032 H 
ATOM     33  H   LIG d   1       4.676  -0.649  -5.418  0.00  0.00     0.032 H 
BRANCH  31  34
ATOM     34  C   LIG d   1       2.895   0.164  -6.333  0.00  0.00    -0.052 C 
ATOM     35  H   LIG d   1       2.207  -0.543  -6.819  0.00  0.00     0.027 H 
ATOM     36  H   LIG d   1       2.837   1.139  -6.840  0.00  0.00     0.027 H 
BRANCH  34  37
ATOM     37  C   LIG d   1       2.503   0.329  -4.864  0.00  0.00    -0.065 C 
ATOM     38  H   LIG d   1       1.548  -0.184  -4.679  0.00  0.00     0.023 H 
ATOM     39  H   LIG d   1       2.395   1.398  -4.631  0.00  0.00     0.023 H 
ATOM     40  H   LIG d   1       3.284  -0.109  -4.224  0.00  0.00     0.023 H 
ENDBRANCH  34  37
ENDBRANCH  31  34
ENDBRANCH   1  31
BRANCH   8  41
ATOM     41  C   LIG d   1       4.177   0.046 -12.014  0.00  0.00    -0.003 C 
ATOM     42  H   LIG d   1       4.516  -0.518 -12.896  0.00  0.00     0.031 H 
ATOM     43  H   LIG d   1       4.828   0.920 -11.866  0.00  0.00     0.031 H 
ATOM     44  H   LIG d   1       3.141   0.382 -12.170  0.00  0.00     0.031 H 
ENDBRANCH   8  41
TORSDOF 7
ENDMDL
MODEL 8
REMARK VINA RESULT:      -5.7      3.307      5.350
REMARK  7 active torsions:
REMARK  status: ('A' for Active; 'I' for Inactive)
REMARK    1  A    between atoms: C_1  and  C_2 
REMARK    2  A    between atoms: C_2  and  C_3 
REMARK    3  A    between atoms: C_3  and  C_4 
REMARK    4  A    between atoms: C_5  and  C_14 
REMARK    5  A    between atoms: C_11  and  C_13 
REMARK    6  A    between atoms: C_14  and  N_15 
REMARK    7  A    between atoms: C_19  and  C_20 
ROOT
ATOM      1  C   LIG d   1       6.420  -4.096  -5.761  0.00  0.00     0.020 A 
ATOM      2  C   LIG d   1       5.467  -3.234  -6.211  0.00  0.00     0.069 A 
ATOM      3  N   LIG d   1       4.256  -3.684  -6.551  0.00  0.00    -0.238 NA
ATOM      4  C   LIG d   1       3.938  -4.947  -6.457  0.00  0.00     0.120 A 
ATOM      5  N   LIG d   1       4.833  -5.862  -6.013  0.00  0.00    -0.202 N 
ATOM      6  C   LIG d   1       6.093  -5.462  -5.654  0.00  0.00     0.163 A 
ATOM      7  N   LIG d   1       6.756  -6.540  -5.263  0.00  0.00    -0.211 NA
ATOM      8  C   LIG d   1       5.971  -7.605  -5.357  0.00  0.00     0.149 A 
ATOM      9  N   LIG d   1       4.792  -7.246  -5.808  0.00  0.00    -0.149 NA
ATOM     10  H   LIG d   1       2.946  -5.267  -6.738  0.00  0.00     0.105 H 
ENDROOT
BRANCH   2  11
ATOM     11  C   LIG d   1       5.781  -1.766  -6.332  0.00  0.00     0.067 C 
ATOM     12  H   LIG d   1       6.226  -1.408  -5.391  0.00  0.00     0.056 H 
ATOM     13  H   LIG d   1       6.492  -1.610  -7.156  0.00  0.00     0.056 H 
BRANCH  11  14
ATOM     14  N   LIG d   1       4.548  -1.023  -6.602  0.00  0.00    -0.323 N 
ATOM     15  C   LIG d   1       3.820  -0.303  -5.701  0.00  0.00     0.162 A 
ATOM     16  N   LIG d   1       2.787   0.218  -6.326  0.00  0.00    -0.234 NA
ATOM     17  C   LIG d   1       2.818  -0.151  -7.610  0.00  0.00     0.046 A 
ATOM     18  C   LIG d   1       3.906  -0.924  -7.806  0.00  0.00     0.025 A 
ATOM     19  H   LIG d   1       2.095   0.124  -8.364  0.00  0.00     0.085 H 
ATOM     20  H   LIG d   1       4.212  -1.380  -8.737  0.00  0.00     0.083 H 
BRANCH  15  21
ATOM     21  C   LIG d   1       4.139  -0.134  -4.267  0.00  0.00     0.141 A 
ATOM     22  N   LIG d   1       4.619   1.024  -3.831  0.00  0.00    -0.249 NA
ATOM     23  C   LIG d   1       4.915   1.216  -2.562  0.00  0.00     0.029 A 
ATOM     24  C   LIG d   1       4.736   0.210  -1.630  0.00  0.00    -0.041 A 
ATOM     25  H   LIG d   1       5.303   2.172  -2.244  0.00  0.00     0.083 H 
ATOM     26  C   LIG d   1       4.238  -1.018  -2.040  0.00  0.00    -0.023 A 
ATOM     27  H   LIG d   1       4.982   0.378  -0.592  0.00  0.00     0.063 H 
ATOM     28  C   LIG d   1       3.929  -1.193  -3.380  0.00  0.00     0.152 A 
ATOM     29  H   LIG d   1       4.089  -1.819  -1.331  0.00  0.00     0.065 H 
ATOM     30  F   LIG d   1       3.435  -2.371  -3.822  0.00  0.00    -0.203 F 
ENDBRANCH  15  21
ENDBRANCH  11  14
ENDBRANCH   2  11
BRANCH   1  31
ATOM     31  C   LIG d   1       7.791  -3.599  -5.381  0.00  0.00    -0.023 C 
ATOM     32  H   LIG d   1       8.001  -2.662  -5.915  0.00  0.00     0.032 H 
ATOM     33  H   LIG d   1       8.544  -4.354  -5.656  0.00  0.00     0.032 H 
BRANCH  31  34
ATOM     34  C   LIG d   1       7.845  -3.351  -3.873  0.00  0.00    -0.052 C 
ATOM     35  H   LIG d   1       6.988  -3.843  -3.389  0.00  0.00     0.027 H 
ATOM     36  H   LIG d   1       7.804  -2.269  -3.678  0.00  0.00     0.027 H 
BRANCH  34  37
ATOM     37  C   LIG d   1       9.147  -3.922  -3.307  0.00  0.00    -0.065 C 
ATOM     38  H   LIG d   1       9.954  -3.794  -4.044  0.00  0.00     0.023 H 
ATOM     39  H   LIG d   1       9.014  -4.992  -3.090  0.00  0.00     0.023 H 
ATOM     40  H   LIG d   1       9.409  -3.389  -2.381  0.00  0.00     0.023 H 
ENDBRANCH  34  37
ENDBRANCH  31  34
ENDBRANCH   1  31
BRANCH   8  41
ATOM     41  C   LIG d   1       6.373  -9.013  -5.000  0.00  0.00    -0.003 C 
ATOM     42  H   LIG d   1       5.486  -9.663  -5.018  0.00  0.00     0.031 H 
ATOM     43  H   LIG d   1       6.814  -9.023  -3.992  0.00  0.00     0.031 H 
ATOM     44  H   LIG d   1       7.112  -9.379  -5.727  0.00  0.00     0.031 H 
ENDBRANCH   8  41
TORSDOF 7
ENDMDL
MODEL 9
REMARK VINA RESULT:      -5.7      3.189      5.849
REMARK  7 active torsions:
REMARK  status: ('A' for Active; 'I' for Inactive)
REMARK    1  A    between atoms: C_1  and  C_2 
REMARK    2  A    between atoms: C_2  and  C_3 
REMARK    3  A    between atoms: C_3  and  C_4 
REMARK    4  A    between atoms: C_5  and  C_14 
REMARK    5  A    between atoms: C_11  and  C_13 
REMARK    6  A    between atoms: C_14  and  N_15 
REMARK    7  A    between atoms: C_19  and  C_20 
ROOT
ATOM      1  C   LIG d   1       5.529  -3.806  -5.789  0.00  0.00     0.020 A 
ATOM      2  C   LIG d   1       5.027  -2.865  -6.636  0.00  0.00     0.069 A 
ATOM      3  N   LIG d   1       4.186  -3.215  -7.613  0.00  0.00    -0.238 NA
ATOM      4  C   LIG d   1       3.805  -4.452  -7.785  0.00  0.00     0.120 A 
ATOM      5  N   LIG d   1       4.259  -5.441  -6.977  0.00  0.00    -0.202 N 
ATOM      6  C   LIG d   1       5.129  -5.146  -5.962  0.00  0.00     0.163 A 
ATOM      7  N   LIG d   1       5.409  -6.278  -5.336  0.00  0.00    -0.211 NA
ATOM      8  C   LIG d   1       4.755  -7.279  -5.910  0.00  0.00     0.149 A 
ATOM      9  N   LIG d   1       4.041  -6.823  -6.912  0.00  0.00    -0.149 NA
ATOM     10  H   LIG d   1       3.120  -4.691  -8.584  0.00  0.00     0.105 H 
ENDROOT
BRANCH   2  11
ATOM     11  C   LIG d   1       5.430  -1.423  -6.476  0.00  0.00     0.067 C 
ATOM     12  H   LIG d   1       6.295  -1.356  -5.799  0.00  0.00     0.056 H 
ATOM     13  H   LIG d   1       5.700  -1.006  -7.457  0.00  0.00     0.056 H 
BRANCH  11  14
ATOM     14  N   LIG d   1       4.311  -0.663  -5.913  0.00  0.00    -0.323 N 
ATOM     15  C   LIG d   1       3.523   0.232  -6.575  0.00  0.00     0.162 A 
ATOM     16  N   LIG d   1       2.629   0.699  -5.731  0.00  0.00    -0.234 NA
ATOM     17  C   LIG d   1       2.819   0.138  -4.534  0.00  0.00     0.046 A 
ATOM     18  C   LIG d   1       3.860  -0.715  -4.623  0.00  0.00     0.025 A 
ATOM     19  H   LIG d   1       2.236   0.333  -3.645  0.00  0.00     0.085 H 
ATOM     20  H   LIG d   1       4.264  -1.323  -3.825  0.00  0.00     0.083 H 
BRANCH  15  21
ATOM     21  C   LIG d   1       3.650   0.611  -7.999  0.00  0.00     0.141 A 
ATOM     22  N   LIG d   1       4.492   1.575  -8.351  0.00  0.00    -0.249 NA
ATOM     23  C   LIG d   1       4.636   1.942  -9.607  0.00  0.00     0.029 A 
ATOM     24  C   LIG d   1       3.909   1.333 -10.615  0.00  0.00    -0.041 A 
ATOM     25  H   LIG d   1       5.331   2.730  -9.856  0.00  0.00     0.083 H 
ATOM     26  C   LIG d   1       3.016   0.321 -10.293  0.00  0.00    -0.023 A 
ATOM     27  H   LIG d   1       4.034   1.642 -11.642  0.00  0.00     0.063 H 
ATOM     28  C   LIG d   1       2.887  -0.051  -8.964  0.00  0.00     0.152 A 
ATOM     29  H   LIG d   1       2.437  -0.170 -11.062  0.00  0.00     0.065 H 
ATOM     30  F   LIG d   1       2.034  -1.036  -8.607  0.00  0.00    -0.203 F 
ENDBRANCH  15  21
ENDBRANCH  11  14
ENDBRANCH   2  11
BRANCH   1  31
ATOM     31  C   LIG d   1       6.484  -3.422  -4.689  0.00  0.00    -0.023 C 
ATOM     32  H   LIG d   1       6.180  -3.912  -3.752  0.00  0.00     0.032 H 
ATOM     33  H   LIG d   1       6.467  -2.330  -4.553  0.00  0.00     0.032 H 
BRANCH  31  34
ATOM     34  C   LIG d   1       7.899  -3.867  -5.062  0.00  0.00    -0.052 C 
ATOM     35  H   LIG d   1       8.195  -3.393  -6.010  0.00  0.00     0.027 H 
ATOM     36  H   LIG d   1       7.920  -4.961  -5.178  0.00  0.00     0.027 H 
BRANCH  34  37
ATOM     37  C   LIG d   1       8.873  -3.451  -3.959  0.00  0.00    -0.065 C 
ATOM     38  H   LIG d   1       8.529  -2.513  -3.500  0.00  0.00     0.023 H 
ATOM     39  H   LIG d   1       9.874  -3.302  -4.390  0.00  0.00     0.023 H 
ATOM     40  H   LIG d   1       8.918  -4.240  -3.193  0.00  0.00     0.023 H 
ENDBRANCH  34  37
ENDBRANCH  31  34
ENDBRANCH   1  31
BRANCH   8  41
ATOM     41  C   LIG d   1       4.821  -8.721  -5.476  0.00  0.00    -0.003 C 
ATOM     42  H   LIG d   1       4.990  -8.769  -4.390  0.00  0.00     0.031 H 
ATOM     43  H   LIG d   1       5.648  -9.224  -5.998  0.00  0.00     0.031 H 
ATOM     44  H   LIG d   1       3.873  -9.222  -5.722  0.00  0.00     0.031 H 
ENDBRANCH   8  41
TORSDOF 7
ENDMDL
MODEL 10
REMARK VINA RESULT:      -5.6      1.565      3.155
REMARK  7 active torsions:
REMARK  status: ('A' for Active; 'I' for Inactive)
REMARK    1  A    between atoms: C_1  and  C_2 
REMARK    2  A    between atoms: C_2  and  C_3 
REMARK    3  A    between atoms: C_3  and  C_4 
REMARK    4  A    between atoms: C_5  and  C_14 
REMARK    5  A    between atoms: C_11  and  C_13 
REMARK    6  A    between atoms: C_14  and  N_15 
REMARK    7  A    between atoms: C_19  and  C_20 
ROOT
ATOM      1  C   LIG d   1       4.320  -1.110  -6.937  0.00  0.00     0.020 A 
ATOM      2  C   LIG d   1       3.734  -0.579  -5.827  0.00  0.00     0.069 A 
ATOM      3  N   LIG d   1       2.976   0.516  -5.922  0.00  0.00    -0.238 NA
ATOM      4  C   LIG d   1       2.759   1.108  -7.066  0.00  0.00     0.120 A 
ATOM      5  N   LIG d   1       3.306   0.635  -8.212  0.00  0.00    -0.202 N 
ATOM      6  C   LIG d   1       4.098  -0.482  -8.178  0.00  0.00     0.163 A 
ATOM      7  N   LIG d   1       4.497  -0.725  -9.417  0.00  0.00    -0.211 NA
ATOM      8  C   LIG d   1       3.992   0.190 -10.235  0.00  0.00     0.149 A 
ATOM      9  N   LIG d   1       3.261   1.039  -9.552  0.00  0.00    -0.149 NA
ATOM     10  H   LIG d   1       2.136   1.989  -7.099  0.00  0.00     0.105 H 
ENDROOT
BRANCH   2  11
ATOM     11  C   LIG d   1       3.947  -1.229  -4.485  0.00  0.00     0.067 C 
ATOM     12  H   LIG d   1       3.004  -1.683  -4.144  0.00  0.00     0.056 H 
ATOM     13  H   LIG d   1       4.718  -2.008  -4.573  0.00  0.00     0.056 H 
BRANCH  11  14
ATOM     14  N   LIG d   1       4.380  -0.218  -3.518  0.00  0.00    -0.323 N 
ATOM     15  C   LIG d   1       5.603   0.384  -3.465  0.00  0.00     0.162 A 
ATOM     16  N   LIG d   1       5.604   1.233  -2.460  0.00  0.00    -0.234 NA
ATOM     17  C   LIG d   1       4.414   1.194  -1.851  0.00  0.00     0.046 A 
ATOM     18  C   LIG d   1       3.636   0.298  -2.492  0.00  0.00     0.025 A 
ATOM     19  H   LIG d   1       4.126   1.781  -0.992  0.00  0.00     0.085 H 
ATOM     20  H   LIG d   1       2.618   0.036  -2.242  0.00  0.00     0.083 H 
BRANCH  15  21
ATOM     21  C   LIG d   1       6.734   0.128  -4.382  0.00  0.00     0.141 A 
ATOM     22  N   LIG d   1       6.994   0.985  -5.363  0.00  0.00    -0.249 NA
ATOM     23  C   LIG d   1       7.992   0.795  -6.201  0.00  0.00     0.029 A 
ATOM     24  C   LIG d   1       8.813  -0.313  -6.090  0.00  0.00    -0.041 A 
ATOM     25  H   LIG d   1       8.173   1.514  -6.986  0.00  0.00     0.083 H 
ATOM     26  C   LIG d   1       8.579  -1.236  -5.080  0.00  0.00    -0.023 A 
ATOM     27  H   LIG d   1       9.628  -0.459  -6.782  0.00  0.00     0.063 H 
ATOM     28  C   LIG d   1       7.526  -1.009  -4.208  0.00  0.00     0.152 A 
ATOM     29  H   LIG d   1       9.206  -2.108  -4.973  0.00  0.00     0.065 H 
ATOM     30  F   LIG d   1       7.265  -1.879  -3.207  0.00  0.00    -0.203 F 
ENDBRANCH  15  21
ENDBRANCH  11  14
ENDBRANCH   2  11
BRANCH   1  31
ATOM     31  C   LIG d   1       5.182  -2.341  -6.838  0.00  0.00    -0.023 C 
ATOM     32  H   LIG d   1       5.512  -2.475  -5.798  0.00  0.00     0.032 H 
ATOM     33  H   LIG d   1       6.062  -2.226  -7.489  0.00  0.00     0.032 H 
BRANCH  31  34
ATOM     34  C   LIG d   1       4.378  -3.565  -7.281  0.00  0.00    -0.052 C 
ATOM     35  H   LIG d   1       4.814  -3.977  -8.202  0.00  0.00     0.027 H 
ATOM     36  H   LIG d   1       3.335  -3.268  -7.470  0.00  0.00     0.027 H 
BRANCH  34  37
ATOM     37  C   LIG d   1       4.416  -4.626  -6.179  0.00  0.00    -0.065 C 
ATOM     38  H   LIG d   1       3.398  -5.002  -5.997  0.00  0.00     0.023 H 
ATOM     39  H   LIG d   1       4.813  -4.181  -5.255  0.00  0.00     0.023 H 
ATOM     40  H   LIG d   1       5.063  -5.458  -6.493  0.00  0.00     0.023 H 
ENDBRANCH  34  37
ENDBRANCH  31  34
ENDBRANCH   1  31
BRANCH   8  41
ATOM     41  C   LIG d   1       4.224   0.244 -11.723  0.00  0.00    -0.003 C 
ATOM     42  H   LIG d   1       4.344  -0.778 -12.112  0.00  0.00     0.031 H 
ATOM     43  H   LIG d   1       5.135   0.825 -11.932  0.00  0.00     0.031 H 
ATOM     44  H   LIG d   1       3.364   0.724 -12.212  0.00  0.00     0.031 H 
ENDBRANCH   8  41
TORSDOF 7
ENDMDL
