MODEL 1
REMARK VINA RESULT:      -6.0      0.000      0.000
REMARK  4 active torsions:
REMARK  status: ('A' for Active; 'I' for Inactive)
REMARK    1  A    between atoms: C_1  and  C_2 
REMARK    2  A    between atoms: C_5  and  O_27 
REMARK    3  A    between atoms: C_18  and  C_26 
REMARK    4  A    between atoms: C_23  and  O_25 
ROOT
ATOM      1  C   LIG d   1       5.000  -1.818  -4.000  0.00  0.00    -0.026 C 
ATOM      2  C   LIG d   1       3.675  -1.970  -3.251  0.00  0.00    -0.045 C 
ATOM      3  C   LIG d   1       3.082  -0.585  -2.979  0.00  0.00    -0.026 C 
ATOM      4  C   LIG d   1       4.059   0.228  -2.126  0.00  0.00     0.056 C 
ATOM      5  H   LIG d   1       4.231  -0.286  -1.181  0.00  0.00     0.059 H 
ATOM      6  C   LIG d   1       5.385   0.380  -2.874  0.00  0.00    -0.024 C 
ATOM      7  C   LIG d   1       5.977  -1.004  -3.148  0.00  0.00    -0.033 C 
ATOM      8  H   LIG d   1       6.150  -1.519  -2.202  0.00  0.00     0.031 H 
ATOM      9  C   LIG d   1       7.304  -0.851  -3.895  0.00  0.00    -0.049 C 
ATOM     10  C   LIG d   1       7.894  -2.234  -4.180  0.00  0.00    -0.049 C 
ATOM     11  C   LIG d   1       6.917  -3.037  -5.039  0.00  0.00    -0.034 C 
ATOM     12  H   LIG d   1       6.734  -2.528  -5.986  0.00  0.00     0.031 H 
ATOM     13  C   LIG d   1       5.593  -3.201  -4.275  0.00  0.00    -0.032 C 
ATOM     14  H   LIG d   1       5.794  -3.684  -3.319  0.00  0.00     0.031 H 
ATOM     15  C   LIG d   1       4.595  -4.049  -5.057  0.00  0.00    -0.049 C 
ATOM     16  C   LIG d   1       5.189  -5.394  -5.447  0.00  0.00    -0.045 C 
ATOM     17  C   LIG d   1       6.453  -5.140  -6.245  0.00  0.00    -0.003 C 
ATOM     18  C   LIG d   1       7.461  -4.428  -5.302  0.00  0.00    -0.030 C 
ATOM     19  H   LIG d   1       7.562  -4.978  -4.366  0.00  0.00     0.031 H 
ATOM     20  C   LIG d   1       8.757  -4.513  -6.115  0.00  0.00    -0.047 C 
ATOM     21  C   LIG d   1       8.714  -5.956  -6.692  0.00  0.00    -0.026 C 
ATOM     22  C   LIG d   1       7.221  -6.369  -6.716  0.00  0.00     0.061 C 
ATOM     23  H   LIG d   1       7.050  -7.205  -6.038  0.00  0.00     0.060 H 
ATOM     24  H   LIG d   1       2.979  -2.549  -3.858  0.00  0.00     0.027 H 
ATOM     25  H   LIG d   1       3.847  -2.483  -2.306  0.00  0.00     0.027 H 
ATOM     26  H   LIG d   1       2.910  -0.071  -3.925  0.00  0.00     0.029 H 
ATOM     27  H   LIG d   1       2.137  -0.692  -2.446  0.00  0.00     0.029 H 
ATOM     28  H   LIG d   1       5.212   0.894  -3.819  0.00  0.00     0.029 H 
ATOM     29  H   LIG d   1       6.080   0.959  -2.267  0.00  0.00     0.029 H 
ATOM     30  H   LIG d   1       7.132  -0.329  -4.836  0.00  0.00     0.027 H 
ATOM     31  H   LIG d   1       8.001  -0.278  -3.284  0.00  0.00     0.027 H 
ATOM     32  H   LIG d   1       8.065  -2.757  -3.238  0.00  0.00     0.027 H 
ATOM     33  H   LIG d   1       8.839  -2.123  -4.711  0.00  0.00     0.027 H 
ATOM     34  H   LIG d   1       3.709  -4.210  -4.444  0.00  0.00     0.027 H 
ATOM     35  H   LIG d   1       4.309  -3.517  -5.964  0.00  0.00     0.027 H 
ATOM     36  H   LIG d   1       4.477  -5.955  -6.050  0.00  0.00     0.027 H 
ATOM     37  H   LIG d   1       5.429  -5.951  -4.541  0.00  0.00     0.027 H 
ATOM     38  H   LIG d   1       8.758  -3.776  -6.918  0.00  0.00     0.027 H 
ATOM     39  H   LIG d   1       9.626  -4.377  -5.470  0.00  0.00     0.027 H 
ATOM     40  H   LIG d   1       9.280  -6.633  -6.053  0.00  0.00     0.029 H 
ATOM     41  H   LIG d   1       9.122  -5.967  -7.703  0.00  0.00     0.029 H 
ENDROOT
BRANCH   1  42
ATOM     42  C   LIG d   1       4.758  -1.094  -5.326  0.00  0.00    -0.059 C 
ATOM     43  H   LIG d   1       5.673  -1.109  -5.920  0.00  0.00     0.024 H 
ATOM     44  H   LIG d   1       3.961  -1.596  -5.874  0.00  0.00     0.024 H 
ATOM     45  H   LIG d   1       4.469  -0.062  -5.130  0.00  0.00     0.024 H 
ENDBRANCH   1  42
BRANCH   4  46
ATOM     46  O   LIG d   1       3.505   1.521  -1.871  0.00  0.00    -0.392 OA
ATOM     47  H   LIG d   1       3.158   1.963  -2.658  0.00  0.00     0.210 HD
ENDBRANCH   4  46
BRANCH  17  48
ATOM     48  C   LIG d   1       6.137  -4.237  -7.439  0.00  0.00    -0.057 C 
ATOM     49  H   LIG d   1       5.653  -3.325  -7.087  0.00  0.00     0.024 H 
ATOM     50  H   LIG d   1       7.062  -3.981  -7.956  0.00  0.00     0.024 H 
ATOM     51  H   LIG d   1       5.470  -4.760  -8.124  0.00  0.00     0.024 H 
ENDBRANCH  17  48
BRANCH  22  52
ATOM     52  O   LIG d   1       6.826  -6.721  -8.044  0.00  0.00    -0.391 OA
ATOM     53  H   LIG d   1       7.339  -7.444  -8.428  0.00  0.00     0.210 HD
ENDBRANCH  22  52
TORSDOF 4
ENDMDL
MODEL 2
REMARK VINA RESULT:      -6.0      3.831      6.815
REMARK  4 active torsions:
REMARK  status: ('A' for Active; 'I' for Inactive)
REMARK    1  A    between atoms: C_1  and  C_2 
REMARK    2  A    between atoms: C_5  and  O_27 
REMARK    3  A    between atoms: C_18  and  C_26 
REMARK    4  A    between atoms: C_23  and  O_25 
ROOT
ATOM      1  C   LIG d   1       4.449  -0.602  -8.944  0.00  0.00    -0.026 C 
ATOM      2  C   LIG d   1       4.715  -1.790  -9.869  0.00  0.00    -0.045 C 
ATOM      3  C   LIG d   1       5.219  -1.279 -11.221  0.00  0.00    -0.026 C 
ATOM      4  C   LIG d   1       4.159  -0.371 -11.849  0.00  0.00     0.056 C 
ATOM      5  H   LIG d   1       3.238  -0.935 -11.994  0.00  0.00     0.059 H 
ATOM      6  C   LIG d   1       3.891   0.817 -10.924  0.00  0.00    -0.024 C 
ATOM      7  C   LIG d   1       3.389   0.307  -9.571  0.00  0.00    -0.033 C 
ATOM      8  H   LIG d   1       2.467  -0.257  -9.715  0.00  0.00     0.031 H 
ATOM      9  C   LIG d   1       3.120   1.495  -8.646  0.00  0.00    -0.049 C 
ATOM     10  C   LIG d   1       2.628   0.988  -7.289  0.00  0.00    -0.049 C 
ATOM     11  C   LIG d   1       3.695   0.089  -6.665  0.00  0.00    -0.034 C 
ATOM     12  H   LIG d   1       4.623   0.644  -6.519  0.00  0.00     0.031 H 
ATOM     13  C   LIG d   1       3.948  -1.111  -7.591  0.00  0.00    -0.032 C 
ATOM     14  H   LIG d   1       3.006  -1.637  -7.750  0.00  0.00     0.031 H 
ATOM     15  C   LIG d   1       4.961  -2.080  -6.991  0.00  0.00    -0.049 C 
ATOM     16  C   LIG d   1       4.551  -2.524  -5.594  0.00  0.00    -0.045 C 
ATOM     17  C   LIG d   1       4.384  -1.286  -4.735  0.00  0.00    -0.003 C 
ATOM     18  C   LIG d   1       3.214  -0.459  -5.335  0.00  0.00    -0.030 C 
ATOM     19  H   LIG d   1       2.337  -1.090  -5.480  0.00  0.00     0.031 H 
ATOM     20  C   LIG d   1       2.958   0.565  -4.225  0.00  0.00    -0.047 C 
ATOM     21  C   LIG d   1       3.072  -0.288  -2.929  0.00  0.00    -0.026 C 
ATOM     22  C   LIG d   1       3.949  -1.511  -3.291  0.00  0.00     0.061 C 
ATOM     23  H   LIG d   1       3.368  -2.430  -3.211  0.00  0.00     0.060 H 
ATOM     24  H   LIG d   1       5.470  -2.437  -9.422  0.00  0.00     0.027 H 
ATOM     25  H   LIG d   1       3.794  -2.353 -10.014  0.00  0.00     0.027 H 
ATOM     26  H   LIG d   1       6.141  -0.715 -11.076  0.00  0.00     0.029 H 
ATOM     27  H   LIG d   1       5.410  -2.125 -11.882  0.00  0.00     0.029 H 
ATOM     28  H   LIG d   1       4.813   1.380 -10.779  0.00  0.00     0.029 H 
ATOM     29  H   LIG d   1       3.137   1.463 -11.371  0.00  0.00     0.029 H 
ATOM     30  H   LIG d   1       4.040   2.064  -8.509  0.00  0.00     0.027 H 
ATOM     31  H   LIG d   1       2.360   2.137  -9.091  0.00  0.00     0.027 H 
ATOM     32  H   LIG d   1       1.708   0.419  -7.426  0.00  0.00     0.027 H 
ATOM     33  H   LIG d   1       2.436   1.837  -6.632  0.00  0.00     0.027 H 
ATOM     34  H   LIG d   1       5.044  -2.953  -7.637  0.00  0.00     0.027 H 
ATOM     35  H   LIG d   1       5.932  -1.588  -6.931  0.00  0.00     0.027 H 
ATOM     36  H   LIG d   1       5.318  -3.169  -5.169  0.00  0.00     0.027 H 
ATOM     37  H   LIG d   1       3.605  -3.062  -5.657  0.00  0.00     0.027 H 
ATOM     38  H   LIG d   1       3.716   1.347  -4.239  0.00  0.00     0.027 H 
ATOM     39  H   LIG d   1       1.961   0.996  -4.320  0.00  0.00     0.027 H 
ATOM     40  H   LIG d   1       2.083  -0.618  -2.609  0.00  0.00     0.029 H 
ATOM     41  H   LIG d   1       3.546   0.293  -2.138  0.00  0.00     0.029 H 
ENDROOT
BRANCH   1  42
ATOM     42  C   LIG d   1       5.742   0.190  -8.743  0.00  0.00    -0.059 C 
ATOM     43  H   LIG d   1       6.302   0.213  -9.679  0.00  0.00     0.024 H 
ATOM     44  H   LIG d   1       5.501   1.209  -8.439  0.00  0.00     0.024 H 
ATOM     45  H   LIG d   1       6.345  -0.286  -7.970  0.00  0.00     0.024 H 
ENDBRANCH   1  42
BRANCH   4  46
ATOM     46  O   LIG d   1       4.629   0.106 -13.112  0.00  0.00    -0.392 OA
ATOM     47  H   LIG d   1       4.869  -0.595 -13.733  0.00  0.00     0.210 HD
ENDBRANCH   4  46
BRANCH  17  48
ATOM     48  C   LIG d   1       5.670  -0.458  -4.765  0.00  0.00    -0.057 C 
ATOM     49  H   LIG d   1       5.735   0.077  -5.713  0.00  0.00     0.024 H 
ATOM     50  H   LIG d   1       5.661   0.259  -3.944  0.00  0.00     0.024 H 
ATOM     51  H   LIG d   1       6.531  -1.119  -4.662  0.00  0.00     0.024 H 
ENDBRANCH  17  48
BRANCH  22  52
ATOM     52  O   LIG d   1       5.091  -1.573  -2.434  0.00  0.00    -0.391 OA
ATOM     53  H   LIG d   1       5.892  -1.896  -2.868  0.00  0.00     0.210 HD
ENDBRANCH  22  52
TORSDOF 4
ENDMDL
MODEL 3
REMARK VINA RESULT:      -5.5     10.186     12.185
REMARK  4 active torsions:
REMARK  status: ('A' for Active; 'I' for Inactive)
REMARK    1  A    between atoms: C_1  and  C_2 
REMARK    2  A    between atoms: C_5  and  O_27 
REMARK    3  A    between atoms: C_18  and  C_26 
REMARK    4  A    between atoms: C_23  and  O_25 
ROOT
ATOM      1  C   LIG d   1      10.665   7.480  -2.293  0.00  0.00    -0.026 C 
ATOM      2  C   LIG d   1      10.349   8.425  -1.133  0.00  0.00    -0.045 C 
ATOM      3  C   LIG d   1      11.130   7.987   0.108  0.00  0.00    -0.026 C 
ATOM      4  C   LIG d   1      10.724   6.562   0.489  0.00  0.00     0.056 C 
ATOM      5  H   LIG d   1       9.656   6.533   0.702  0.00  0.00     0.059 H 
ATOM      6  C   LIG d   1      11.039   5.616  -0.671  0.00  0.00    -0.024 C 
ATOM      7  C   LIG d   1      10.259   6.053  -1.913  0.00  0.00    -0.033 C 
ATOM      8  H   LIG d   1       9.191   6.024  -1.701  0.00  0.00     0.031 H 
ATOM      9  C   LIG d   1      10.574   5.106  -3.073  0.00  0.00    -0.049 C 
ATOM     10  C   LIG d   1       9.805   5.547  -4.319  0.00  0.00    -0.049 C 
ATOM     11  C   LIG d   1      10.222   6.969  -4.697  0.00  0.00    -0.034 C 
ATOM     12  H   LIG d   1      11.291   7.009  -4.909  0.00  0.00     0.031 H 
ATOM     13  C   LIG d   1       9.888   7.917  -3.535  0.00  0.00    -0.032 C 
ATOM     14  H   LIG d   1       8.822   7.845  -3.316  0.00  0.00     0.031 H 
ATOM     15  C   LIG d   1      10.224   9.365  -3.877  0.00  0.00    -0.049 C 
ATOM     16  C   LIG d   1       9.555   9.804  -5.172  0.00  0.00    -0.045 C 
ATOM     17  C   LIG d   1       9.986   8.854  -6.272  0.00  0.00    -0.003 C 
ATOM     18  C   LIG d   1       9.443   7.446  -5.908  0.00  0.00    -0.030 C 
ATOM     19  H   LIG d   1       8.378   7.495  -5.678  0.00  0.00     0.031 H 
ATOM     20  C   LIG d   1       9.672   6.678  -7.215  0.00  0.00    -0.047 C 
ATOM     21  C   LIG d   1       9.251   7.707  -8.302  0.00  0.00    -0.026 C 
ATOM     22  C   LIG d   1       9.405   9.107  -7.658  0.00  0.00     0.061 C 
ATOM     23  H   LIG d   1       8.433   9.594  -7.577  0.00  0.00     0.060 H 
ATOM     24  H   LIG d   1      10.638   9.441  -1.403  0.00  0.00     0.027 H 
ATOM     25  H   LIG d   1       9.281   8.396  -0.920  0.00  0.00     0.027 H 
ATOM     26  H   LIG d   1      12.198   8.016  -0.105  0.00  0.00     0.029 H 
ATOM     27  H   LIG d   1      10.906   8.662   0.936  0.00  0.00     0.029 H 
ATOM     28  H   LIG d   1      12.107   5.645  -0.885  0.00  0.00     0.029 H 
ATOM     29  H   LIG d   1      10.750   4.600  -0.400  0.00  0.00     0.029 H 
ATOM     30  H   LIG d   1      11.645   5.128  -3.279  0.00  0.00     0.027 H 
ATOM     31  H   LIG d   1      10.278   4.092  -2.803  0.00  0.00     0.027 H 
ATOM     32  H   LIG d   1       8.734   5.525  -4.112  0.00  0.00     0.027 H 
ATOM     33  H   LIG d   1      10.030   4.870  -5.144  0.00  0.00     0.027 H 
ATOM     34  H   LIG d   1       9.893  10.009  -3.064  0.00  0.00     0.027 H 
ATOM     35  H   LIG d   1      11.304   9.462  -3.991  0.00  0.00     0.027 H 
ATOM     36  H   LIG d   1       9.857  10.821  -5.421  0.00  0.00     0.027 H 
ATOM     37  H   LIG d   1       8.473   9.757  -5.045  0.00  0.00     0.027 H 
ATOM     38  H   LIG d   1      10.723   6.410  -7.325  0.00  0.00     0.027 H 
ATOM     39  H   LIG d   1       9.043   5.789  -7.255  0.00  0.00     0.027 H 
ATOM     40  H   LIG d   1       8.214   7.541  -8.594  0.00  0.00     0.029 H 
ATOM     41  H   LIG d   1       9.903   7.621  -9.172  0.00  0.00     0.029 H 
ENDROOT
BRANCH   1  42
ATOM     42  C   LIG d   1      12.165   7.519  -2.590  0.00  0.00    -0.059 C 
ATOM     43  H   LIG d   1      12.689   7.982  -1.753  0.00  0.00     0.024 H 
ATOM     44  H   LIG d   1      12.534   6.503  -2.732  0.00  0.00     0.024 H 
ATOM     45  H   LIG d   1      12.342   8.099  -3.495  0.00  0.00     0.024 H 
ENDBRANCH   1  42
BRANCH   4  46
ATOM     46  O   LIG d   1      11.452   6.153   1.648  0.00  0.00    -0.392 OA
ATOM     47  H   LIG d   1      12.302   6.600   1.757  0.00  0.00     0.210 HD
ENDBRANCH   4  46
BRANCH  17  48
ATOM     48  C   LIG d   1      11.514   8.814  -6.351  0.00  0.00    -0.057 C 
ATOM     49  H   LIG d   1      11.927   9.686  -5.844  0.00  0.00     0.024 H 
ATOM     50  H   LIG d   1      11.879   7.907  -5.869  0.00  0.00     0.024 H 
ATOM     51  H   LIG d   1      11.824   8.820  -7.396  0.00  0.00     0.024 H 
ENDBRANCH  17  48
BRANCH  22  52
ATOM     52  O   LIG d   1      10.297   9.912  -8.431  0.00  0.00    -0.391 OA
ATOM     53  H   LIG d   1      10.865   9.408  -9.029  0.00  0.00     0.210 HD
ENDBRANCH  22  52
TORSDOF 4
ENDMDL
MODEL 4
REMARK VINA RESULT:      -5.5     10.784     12.838
REMARK  4 active torsions:
REMARK  status: ('A' for Active; 'I' for Inactive)
REMARK    1  A    between atoms: C_1  and  C_2 
REMARK    2  A    between atoms: C_5  and  O_27 
REMARK    3  A    between atoms: C_18  and  C_26 
REMARK    4  A    between atoms: C_23  and  O_25 
ROOT
ATOM      1  C   LIG d   1      10.094   7.863  -5.257  0.00  0.00    -0.026 C 
ATOM      2  C   LIG d   1       9.424   6.784  -6.108  0.00  0.00    -0.045 C 
ATOM      3  C   LIG d   1       9.649   7.091  -7.590  0.00  0.00    -0.026 C 
ATOM      4  C   LIG d   1       9.040   8.454  -7.925  0.00  0.00     0.056 C 
ATOM      5  H   LIG d   1       7.970   8.436  -7.715  0.00  0.00     0.059 H 
ATOM      6  C   LIG d   1       9.709   9.535  -7.074  0.00  0.00    -0.024 C 
ATOM      7  C   LIG d   1       9.486   9.228  -5.592  0.00  0.00    -0.033 C 
ATOM      8  H   LIG d   1       8.417   9.210  -5.381  0.00  0.00     0.031 H 
ATOM      9  C   LIG d   1      10.155  10.309  -4.741  0.00  0.00    -0.049 C 
ATOM     10  C   LIG d   1       9.944   9.999  -3.258  0.00  0.00    -0.049 C 
ATOM     11  C   LIG d   1      10.562   8.640  -2.929  0.00  0.00    -0.034 C 
ATOM     12  H   LIG d   1      11.632   8.647  -3.140  0.00  0.00     0.031 H 
ATOM     13  C   LIG d   1       9.874   7.557  -3.775  0.00  0.00    -0.032 C 
ATOM     14  H   LIG d   1       8.802   7.581  -3.576  0.00  0.00     0.031 H 
ATOM     15  C   LIG d   1      10.406   6.166  -3.446  0.00  0.00    -0.049 C 
ATOM     16  C   LIG d   1      10.305   5.866  -1.957  0.00  0.00    -0.045 C 
ATOM     17  C   LIG d   1      11.059   6.945  -1.206  0.00  0.00    -0.003 C 
ATOM     18  C   LIG d   1      10.330   8.291  -1.472  0.00  0.00    -0.030 C 
ATOM     19  H   LIG d   1       9.263   8.193  -1.271  0.00  0.00     0.031 H 
ATOM     20  C   LIG d   1      10.987   9.209  -0.436  0.00  0.00    -0.047 C 
ATOM     21  C   LIG d   1      11.074   8.304   0.827  0.00  0.00    -0.026 C 
ATOM     22  C   LIG d   1      11.061   6.843   0.315  0.00  0.00     0.061 C 
ATOM     23  H   LIG d   1      10.164   6.329   0.661  0.00  0.00     0.060 H 
ATOM     24  H   LIG d   1       9.857   5.812  -5.869  0.00  0.00     0.027 H 
ATOM     25  H   LIG d   1       8.356   6.766  -5.898  0.00  0.00     0.027 H 
ATOM     26  H   LIG d   1      10.718   7.109  -7.800  0.00  0.00     0.029 H 
ATOM     27  H   LIG d   1       9.172   6.321  -8.198  0.00  0.00     0.029 H 
ATOM     28  H   LIG d   1      10.778   9.553  -7.284  0.00  0.00     0.029 H 
ATOM     29  H   LIG d   1       9.275  10.506  -7.313  0.00  0.00     0.029 H 
ATOM     30  H   LIG d   1      11.223  10.333  -4.959  0.00  0.00     0.027 H 
ATOM     31  H   LIG d   1       9.716  11.279  -4.976  0.00  0.00     0.027 H 
ATOM     32  H   LIG d   1       8.875   9.975  -3.041  0.00  0.00     0.027 H 
ATOM     33  H   LIG d   1      10.420  10.772  -2.654  0.00  0.00     0.027 H 
ATOM     34  H   LIG d   1       9.833   5.425  -4.003  0.00  0.00     0.027 H 
ATOM     35  H   LIG d   1      11.452   6.105  -3.745  0.00  0.00     0.027 H 
ATOM     36  H   LIG d   1      10.742   4.891  -1.743  0.00  0.00     0.027 H 
ATOM     37  H   LIG d   1       9.255   5.875  -1.665  0.00  0.00     0.027 H 
ATOM     38  H   LIG d   1      11.982   9.510  -0.763  0.00  0.00     0.027 H 
ATOM     39  H   LIG d   1      10.365  10.084  -0.245  0.00  0.00     0.027 H 
ATOM     40  H   LIG d   1      10.216   8.482   1.475  0.00  0.00     0.029 H 
ATOM     41  H   LIG d   1      11.999   8.504   1.368  0.00  0.00     0.029 H 
ENDROOT
BRANCH   1  42
ATOM     42  C   LIG d   1      11.595   7.890  -5.554  0.00  0.00    -0.059 C 
ATOM     43  H   LIG d   1      11.905   8.915  -5.764  0.00  0.00     0.024 H 
ATOM     44  H   LIG d   1      12.143   7.515  -4.690  0.00  0.00     0.024 H 
ATOM     45  H   LIG d   1      11.807   7.261  -6.418  0.00  0.00     0.024 H 
ENDBRANCH   1  42
BRANCH   4  46
ATOM     46  O   LIG d   1       9.248   8.741  -9.310  0.00  0.00    -0.392 OA
ATOM     47  H   LIG d   1       9.412   9.676  -9.497  0.00  0.00     0.210 HD
ENDBRANCH   4  46
BRANCH  17  48
ATOM     48  C   LIG d   1      12.497   7.026  -1.722  0.00  0.00    -0.057 C 
ATOM     49  H   LIG d   1      12.950   6.035  -1.691  0.00  0.00     0.024 H 
ATOM     50  H   LIG d   1      12.495   7.393  -2.748  0.00  0.00     0.024 H 
ATOM     51  H   LIG d   1      13.071   7.708  -1.093  0.00  0.00     0.024 H 
ENDBRANCH  17  48
BRANCH  22  52
ATOM     52  O   LIG d   1      12.229   6.151   0.763  0.00  0.00    -0.391 OA
ATOM     53  H   LIG d   1      12.955   6.733   1.024  0.00  0.00     0.210 HD
ENDBRANCH  22  52
TORSDOF 4
ENDMDL
MODEL 5
REMARK VINA RESULT:      -5.4      9.003     11.457
REMARK  4 active torsions:
REMARK  status: ('A' for Active; 'I' for Inactive)
REMARK    1  A    between atoms: C_1  and  C_2 
REMARK    2  A    between atoms: C_5  and  O_27 
REMARK    3  A    between atoms: C_18  and  C_26 
REMARK    4  A    between atoms: C_23  and  O_25 
ROOT
ATOM      1  C   LIG d   1      10.473   8.504  -1.391  0.00  0.00    -0.026 C 
ATOM      2  C   LIG d   1       9.652   9.764  -1.670  0.00  0.00    -0.045 C 
ATOM      3  C   LIG d   1      10.287  10.955  -0.949  0.00  0.00    -0.026 C 
ATOM      4  C   LIG d   1      10.311  10.686   0.557  0.00  0.00     0.056 C 
ATOM      5  H   LIG d   1       9.292  10.544   0.917  0.00  0.00     0.059 H 
ATOM      6  C   LIG d   1      11.131   9.425   0.837  0.00  0.00    -0.024 C 
ATOM      7  C   LIG d   1      10.497   8.234   0.116  0.00  0.00    -0.033 C 
ATOM      8  H   LIG d   1       9.479   8.091   0.476  0.00  0.00     0.031 H 
ATOM      9  C   LIG d   1      11.319   6.973   0.396  0.00  0.00    -0.049 C 
ATOM     10  C   LIG d   1      10.694   5.782  -0.332  0.00  0.00    -0.049 C 
ATOM     11  C   LIG d   1      10.681   6.055  -1.836  0.00  0.00    -0.034 C 
ATOM     12  H   LIG d   1      11.697   6.203  -2.206  0.00  0.00     0.031 H 
ATOM     13  C   LIG d   1       9.842   7.313  -2.113  0.00  0.00    -0.032 C 
ATOM     14  H   LIG d   1       8.839   7.162  -1.712  0.00  0.00     0.031 H 
ATOM     15  C   LIG d   1       9.739   7.602  -3.606  0.00  0.00    -0.049 C 
ATOM     16  C   LIG d   1       9.218   6.397  -4.376  0.00  0.00    -0.045 C 
ATOM     17  C   LIG d   1      10.135   5.224  -4.095  0.00  0.00    -0.003 C 
ATOM     18  C   LIG d   1      10.030   4.904  -2.579  0.00  0.00    -0.030 C 
ATOM     19  H   LIG d   1       8.985   4.805  -2.282  0.00  0.00     0.031 H 
ATOM     20  C   LIG d   1      10.739   3.549  -2.498  0.00  0.00    -0.047 C 
ATOM     21  C   LIG d   1      10.213   2.804  -3.758  0.00  0.00    -0.026 C 
ATOM     22  C   LIG d   1       9.773   3.900  -4.759  0.00  0.00     0.061 C 
ATOM     23  H   LIG d   1       8.698   3.846  -4.930  0.00  0.00     0.060 H 
ATOM     24  H   LIG d   1       9.635   9.956  -2.742  0.00  0.00     0.027 H 
ATOM     25  H   LIG d   1       8.634   9.622  -1.310  0.00  0.00     0.027 H 
ATOM     26  H   LIG d   1      11.306  11.097  -1.309  0.00  0.00     0.029 H 
ATOM     27  H   LIG d   1       9.703  11.854  -1.148  0.00  0.00     0.029 H 
ATOM     28  H   LIG d   1      12.150   9.567   0.477  0.00  0.00     0.029 H 
ATOM     29  H   LIG d   1      11.148   9.234   1.909  0.00  0.00     0.029 H 
ATOM     30  H   LIG d   1      12.340   7.120   0.044  0.00  0.00     0.027 H 
ATOM     31  H   LIG d   1      11.329   6.779   1.469  0.00  0.00     0.027 H 
ATOM     32  H   LIG d   1       9.672   5.636   0.019  0.00  0.00     0.027 H 
ATOM     33  H   LIG d   1      11.279   4.885  -0.130  0.00  0.00     0.027 H 
ATOM     34  H   LIG d   1       9.068   8.446  -3.759  0.00  0.00     0.027 H 
ATOM     35  H   LIG d   1      10.728   7.859  -3.988  0.00  0.00     0.027 H 
ATOM     36  H   LIG d   1       9.208   6.613  -5.443  0.00  0.00     0.027 H 
ATOM     37  H   LIG d   1       8.208   6.168  -4.033  0.00  0.00     0.027 H 
ATOM     38  H   LIG d   1      11.820   3.675  -2.549  0.00  0.00     0.027 H 
ATOM     39  H   LIG d   1      10.458   3.020  -1.587  0.00  0.00     0.027 H 
ATOM     40  H   LIG d   1       9.363   2.174  -3.494  0.00  0.00     0.029 H 
ATOM     41  H   LIG d   1      11.007   2.196  -4.193  0.00  0.00     0.029 H 
ENDROOT
BRANCH   1  42
ATOM     42  C   LIG d   1      11.904   8.705  -1.894  0.00  0.00    -0.059 C 
ATOM     43  H   LIG d   1      12.046   8.141  -2.817  0.00  0.00     0.024 H 
ATOM     44  H   LIG d   1      12.077   9.764  -2.086  0.00  0.00     0.024 H 
ATOM     45  H   LIG d   1      12.608   8.353  -1.141  0.00  0.00     0.024 H 
ENDBRANCH   1  42
BRANCH   4  46
ATOM     46  O   LIG d   1      10.903  11.799   1.230  0.00  0.00    -0.392 OA
ATOM     47  H   LIG d   1      11.738  11.592   1.673  0.00  0.00     0.210 HD
ENDBRANCH   4  46
BRANCH  17  48
ATOM     48  C   LIG d   1      11.577   5.600  -4.444  0.00  0.00    -0.057 C 
ATOM     49  H   LIG d   1      12.261   4.891  -3.975  0.00  0.00     0.024 H 
ATOM     50  H   LIG d   1      11.710   5.570  -5.525  0.00  0.00     0.024 H 
ATOM     51  H   LIG d   1      11.789   6.605  -4.079  0.00  0.00     0.024 H 
ENDBRANCH  17  48
BRANCH  22  52
ATOM     52  O   LIG d   1      10.477   3.756  -5.993  0.00  0.00    -0.391 OA
ATOM     53  H   LIG d   1      10.484   2.853  -6.339  0.00  0.00     0.210 HD
ENDBRANCH  22  52
TORSDOF 4
ENDMDL
MODEL 6
REMARK VINA RESULT:      -5.3      8.285     11.963
REMARK  4 active torsions:
REMARK  status: ('A' for Active; 'I' for Inactive)
REMARK    1  A    between atoms: C_1  and  C_2 
REMARK    2  A    between atoms: C_5  and  O_27 
REMARK    3  A    between atoms: C_18  and  C_26 
REMARK    4  A    between atoms: C_23  and  O_25 
ROOT
ATOM      1  C   LIG d   1      10.695   4.460  -3.015  0.00  0.00    -0.026 C 
ATOM      2  C   LIG d   1      10.707   2.975  -2.652  0.00  0.00    -0.045 C 
ATOM      3  C   LIG d   1      10.917   2.143  -3.920  0.00  0.00    -0.026 C 
ATOM      4  C   LIG d   1       9.776   2.417  -4.902  0.00  0.00     0.056 C 
ATOM      5  H   LIG d   1       8.827   2.147  -4.442  0.00  0.00     0.059 H 
ATOM      6  C   LIG d   1       9.763   3.904  -5.265  0.00  0.00    -0.024 C 
ATOM      7  C   LIG d   1       9.555   4.736  -3.998  0.00  0.00    -0.033 C 
ATOM      8  H   LIG d   1       8.605   4.466  -3.538  0.00  0.00     0.031 H 
ATOM      9  C   LIG d   1       9.541   6.222  -4.362  0.00  0.00    -0.049 C 
ATOM     10  C   LIG d   1       9.345   7.058  -3.096  0.00  0.00    -0.049 C 
ATOM     11  C   LIG d   1      10.491   6.785  -2.123  0.00  0.00    -0.034 C 
ATOM     12  H   LIG d   1      11.447   7.049  -2.576  0.00  0.00     0.031 H 
ATOM     13  C   LIG d   1      10.489   5.294  -1.749  0.00  0.00    -0.032 C 
ATOM     14  H   LIG d   1       9.518   5.038  -1.324  0.00  0.00     0.031 H 
ATOM     15  C   LIG d   1      11.575   4.969  -0.729  0.00  0.00    -0.049 C 
ATOM     16  C   LIG d   1      11.471   5.858   0.502  0.00  0.00    -0.045 C 
ATOM     17  C   LIG d   1      11.542   7.303   0.049  0.00  0.00    -0.003 C 
ATOM     18  C   LIG d   1      10.298   7.572  -0.841  0.00  0.00    -0.030 C 
ATOM     19  H   LIG d   1       9.389   7.251  -0.332  0.00  0.00     0.031 H 
ATOM     20  C   LIG d   1      10.331   9.099  -0.965  0.00  0.00    -0.047 C 
ATOM     21  C   LIG d   1      10.699   9.558   0.475  0.00  0.00    -0.026 C 
ATOM     22  C   LIG d   1      11.431   8.365   1.137  0.00  0.00     0.061 C 
ATOM     23  H   LIG d   1      10.851   7.986   1.978  0.00  0.00     0.060 H 
ATOM     24  H   LIG d   1      11.519   2.778  -1.952  0.00  0.00     0.027 H 
ATOM     25  H   LIG d   1       9.758   2.704  -2.192  0.00  0.00     0.027 H 
ATOM     26  H   LIG d   1      11.867   2.414  -4.380  0.00  0.00     0.029 H 
ATOM     27  H   LIG d   1      10.926   1.083  -3.662  0.00  0.00     0.029 H 
ATOM     28  H   LIG d   1      10.712   4.174  -5.725  0.00  0.00     0.029 H 
ATOM     29  H   LIG d   1       8.951   4.099  -5.965  0.00  0.00     0.029 H 
ATOM     30  H   LIG d   1      10.488   6.490  -4.831  0.00  0.00     0.027 H 
ATOM     31  H   LIG d   1       8.724   6.418  -5.057  0.00  0.00     0.027 H 
ATOM     32  H   LIG d   1       8.397   6.790  -2.626  0.00  0.00     0.027 H 
ATOM     33  H   LIG d   1       9.333   8.117  -3.357  0.00  0.00     0.027 H 
ATOM     34  H   LIG d   1      11.482   3.926  -0.430  0.00  0.00     0.027 H 
ATOM     35  H   LIG d   1      12.552   5.122  -1.188  0.00  0.00     0.027 H 
ATOM     36  H   LIG d   1      12.290   5.643   1.187  0.00  0.00     0.027 H 
ATOM     37  H   LIG d   1      10.516   5.671   0.994  0.00  0.00     0.027 H 
ATOM     38  H   LIG d   1      11.095   9.412  -1.676  0.00  0.00     0.027 H 
ATOM     39  H   LIG d   1       9.353   9.484  -1.258  0.00  0.00     0.027 H 
ATOM     40  H   LIG d   1       9.795   9.800   1.034  0.00  0.00     0.029 H 
ATOM     41  H   LIG d   1      11.358  10.426   0.434  0.00  0.00     0.029 H 
ENDROOT
BRANCH   1  42
ATOM     42  C   LIG d   1      12.028   4.839  -3.663  0.00  0.00    -0.059 C 
ATOM     43  H   LIG d   1      12.417   5.743  -3.192  0.00  0.00     0.024 H 
ATOM     44  H   LIG d   1      12.741   4.026  -3.531  0.00  0.00     0.024 H 
ATOM     45  H   LIG d   1      11.877   5.020  -4.727  0.00  0.00     0.024 H 
ENDBRANCH   1  42
BRANCH   4  46
ATOM     46  O   LIG d   1       9.970   1.640  -6.086  0.00  0.00    -0.392 OA
ATOM     47  H   LIG d   1       9.278   1.757  -6.751  0.00  0.00     0.210 HD
ENDBRANCH   4  46
BRANCH  17  48
ATOM     48  C   LIG d   1      12.818   7.527  -0.765  0.00  0.00    -0.057 C 
ATOM     49  H   LIG d   1      12.573   7.537  -1.828  0.00  0.00     0.024 H 
ATOM     50  H   LIG d   1      13.264   8.482  -0.487  0.00  0.00     0.024 H 
ATOM     51  H   LIG d   1      13.525   6.723  -0.563  0.00  0.00     0.024 H 
ENDBRANCH  17  48
BRANCH  22  52
ATOM     52  O   LIG d   1      12.732   8.763   1.575  0.00  0.00    -0.391 OA
ATOM     53  H   LIG d   1      13.115   9.487   1.063  0.00  0.00     0.210 HD
ENDBRANCH  22  52
TORSDOF 4
ENDMDL
MODEL 7
REMARK VINA RESULT:      -5.3      2.672      6.279
REMARK  4 active torsions:
REMARK  status: ('A' for Active; 'I' for Inactive)
REMARK    1  A    between atoms: C_1  and  C_2 
REMARK    2  A    between atoms: C_5  and  O_27 
REMARK    3  A    between atoms: C_18  and  C_26 
REMARK    4  A    between atoms: C_23  and  O_25 
ROOT
ATOM      1  C   LIG d   1       8.709  -0.789  -5.484  0.00  0.00    -0.026 C 
ATOM      2  C   LIG d   1       9.778   0.294  -5.327  0.00  0.00    -0.045 C 
ATOM      3  C   LIG d   1      10.731   0.247  -6.524  0.00  0.00    -0.026 C 
ATOM      4  C   LIG d   1      11.403  -1.127  -6.585  0.00  0.00     0.056 C 
ATOM      5  H   LIG d   1      11.963  -1.299  -5.667  0.00  0.00     0.059 H 
ATOM      6  C   LIG d   1      10.334  -2.210  -6.742  0.00  0.00    -0.024 C 
ATOM      7  C   LIG d   1       9.380  -2.163  -5.547  0.00  0.00    -0.033 C 
ATOM      8  H   LIG d   1       9.940  -2.336  -4.628  0.00  0.00     0.031 H 
ATOM      9  C   LIG d   1       8.313  -3.248  -5.704  0.00  0.00    -0.049 C 
ATOM     10  C   LIG d   1       7.350  -3.196  -4.516  0.00  0.00    -0.049 C 
ATOM     11  C   LIG d   1       6.677  -1.824  -4.465  0.00  0.00    -0.034 C 
ATOM     12  H   LIG d   1       6.116  -1.641  -5.383  0.00  0.00     0.031 H 
ATOM     13  C   LIG d   1       7.754  -0.741  -4.291  0.00  0.00    -0.032 C 
ATOM     14  H   LIG d   1       8.325  -0.954  -3.387  0.00  0.00     0.031 H 
ATOM     15  C   LIG d   1       7.138   0.648  -4.171  0.00  0.00    -0.049 C 
ATOM     16  C   LIG d   1       6.098   0.706  -3.062  0.00  0.00    -0.045 C 
ATOM     17  C   LIG d   1       5.047  -0.349  -3.345  0.00  0.00    -0.003 C 
ATOM     18  C   LIG d   1       5.747  -1.733  -3.271  0.00  0.00    -0.030 C 
ATOM     19  H   LIG d   1       6.312  -1.826  -2.343  0.00  0.00     0.031 H 
ATOM     20  C   LIG d   1       4.548  -2.687  -3.263  0.00  0.00    -0.047 C 
ATOM     21  C   LIG d   1       3.543  -1.977  -2.312  0.00  0.00    -0.026 C 
ATOM     22  C   LIG d   1       3.915  -0.474  -2.331  0.00  0.00     0.061 C 
ATOM     23  H   LIG d   1       4.255  -0.157  -1.345  0.00  0.00     0.060 H 
ATOM     24  H   LIG d   1       9.300   1.273  -5.282  0.00  0.00     0.027 H 
ATOM     25  H   LIG d   1      10.338   0.121  -4.409  0.00  0.00     0.027 H 
ATOM     26  H   LIG d   1      10.170   0.419  -7.442  0.00  0.00     0.029 H 
ATOM     27  H   LIG d   1      11.493   1.019  -6.412  0.00  0.00     0.029 H 
ATOM     28  H   LIG d   1       9.774  -2.038  -7.660  0.00  0.00     0.029 H 
ATOM     29  H   LIG d   1      10.813  -3.189  -6.786  0.00  0.00     0.029 H 
ATOM     30  H   LIG d   1       7.758  -3.080  -6.628  0.00  0.00     0.027 H 
ATOM     31  H   LIG d   1       8.792  -4.226  -5.741  0.00  0.00     0.027 H 
ATOM     32  H   LIG d   1       7.905  -3.363  -3.591  0.00  0.00     0.027 H 
ATOM     33  H   LIG d   1       6.591  -3.970  -4.629  0.00  0.00     0.027 H 
ATOM     34  H   LIG d   1       7.927   1.370  -3.963  0.00  0.00     0.027 H 
ATOM     35  H   LIG d   1       6.658   0.908  -5.115  0.00  0.00     0.027 H 
ATOM     36  H   LIG d   1       5.636   1.692  -3.036  0.00  0.00     0.027 H 
ATOM     37  H   LIG d   1       6.585   0.498  -2.109  0.00  0.00     0.027 H 
ATOM     38  H   LIG d   1       4.127  -2.785  -4.264  0.00  0.00     0.027 H 
ATOM     39  H   LIG d   1       4.833  -3.663  -2.870  0.00  0.00     0.027 H 
ATOM     40  H   LIG d   1       3.639  -2.374  -1.301  0.00  0.00     0.029 H 
ATOM     41  H   LIG d   1       2.524  -2.115  -2.673  0.00  0.00     0.029 H 
ENDROOT
BRANCH   1  42
ATOM     42  C   LIG d   1       7.924  -0.548  -6.775  0.00  0.00    -0.059 C 
ATOM     43  H   LIG d   1       7.033  -1.178  -6.781  0.00  0.00     0.024 H 
ATOM     44  H   LIG d   1       7.628   0.500  -6.831  0.00  0.00     0.024 H 
ATOM     45  H   LIG d   1       8.549  -0.794  -7.633  0.00  0.00     0.024 H 
ENDBRANCH   1  42
BRANCH   4  46
ATOM     46  O   LIG d   1      12.293  -1.171  -7.702  0.00  0.00    -0.392 OA
ATOM     47  H   LIG d   1      13.215  -0.983  -7.478  0.00  0.00     0.210 HD
ENDBRANCH   4  46
BRANCH  17  48
ATOM     48  C   LIG d   1       4.466  -0.138  -4.745  0.00  0.00    -0.057 C 
ATOM     49  H   LIG d   1       3.763   0.695  -4.725  0.00  0.00     0.024 H 
ATOM     50  H   LIG d   1       5.273   0.085  -5.443  0.00  0.00     0.024 H 
ATOM     51  H   LIG d   1       3.949  -1.043  -5.064  0.00  0.00     0.024 H 
ENDBRANCH  17  48
BRANCH  22  52
ATOM     52  O   LIG d   1       2.793   0.309  -2.742  0.00  0.00    -0.391 OA
ATOM     53  H   LIG d   1       2.817   1.224  -2.432  0.00  0.00     0.210 HD
ENDBRANCH  22  52
TORSDOF 4
ENDMDL
MODEL 8
REMARK VINA RESULT:      -5.3     11.209     13.902
REMARK  4 active torsions:
REMARK  status: ('A' for Active; 'I' for Inactive)
REMARK    1  A    between atoms: C_1  and  C_2 
REMARK    2  A    between atoms: C_5  and  O_27 
REMARK    3  A    between atoms: C_18  and  C_26 
REMARK    4  A    between atoms: C_23  and  O_25 
ROOT
ATOM      1  C   LIG d   1      10.194  10.637  -2.914  0.00  0.00    -0.026 C 
ATOM      2  C   LIG d   1       9.297  10.713  -4.150  0.00  0.00    -0.045 C 
ATOM      3  C   LIG d   1       9.628  11.980  -4.942  0.00  0.00    -0.026 C 
ATOM      4  C   LIG d   1       9.387  13.209  -4.061  0.00  0.00     0.056 C 
ATOM      5  H   LIG d   1       8.342  13.235  -3.752  0.00  0.00     0.059 H 
ATOM      6  C   LIG d   1      10.284  13.132  -2.824  0.00  0.00    -0.024 C 
ATOM      7  C   LIG d   1       9.954  11.865  -2.033  0.00  0.00    -0.033 C 
ATOM      8  H   LIG d   1       8.910  11.891  -1.723  0.00  0.00     0.031 H 
ATOM      9  C   LIG d   1      10.852  11.790  -0.795  0.00  0.00    -0.049 C 
ATOM     10  C   LIG d   1      10.533  10.518  -0.007  0.00  0.00    -0.049 C 
ATOM     11  C   LIG d   1      10.783   9.296  -0.891  0.00  0.00    -0.034 C 
ATOM     12  H   LIG d   1      11.826   9.263  -1.209  0.00  0.00     0.031 H 
ATOM     13  C   LIG d   1       9.867   9.370  -2.123  0.00  0.00    -0.032 C 
ATOM     14  H   LIG d   1       8.831   9.432  -1.789  0.00  0.00     0.031 H 
ATOM     15  C   LIG d   1      10.027   8.143  -3.015  0.00  0.00    -0.049 C 
ATOM     16  C   LIG d   1       9.818   6.853  -2.234  0.00  0.00    -0.045 C 
ATOM     17  C   LIG d   1      10.798   6.835  -1.079  0.00  0.00    -0.003 C 
ATOM     18  C   LIG d   1      10.436   8.022  -0.145  0.00  0.00    -0.030 C 
ATOM     19  H   LIG d   1       9.373   8.004   0.100  0.00  0.00     0.031 H 
ATOM     20  C   LIG d   1      11.275   7.706   1.098  0.00  0.00    -0.047 C 
ATOM     21  C   LIG d   1      11.102   6.168   1.254  0.00  0.00    -0.026 C 
ATOM     22  C   LIG d   1      10.738   5.628  -0.150  0.00  0.00     0.061 C 
ATOM     23  H   LIG d   1       9.732   5.207  -0.144  0.00  0.00     0.060 H 
ATOM     24  H   LIG d   1       9.468   9.839  -4.778  0.00  0.00     0.027 H 
ATOM     25  H   LIG d   1       8.253  10.740  -3.841  0.00  0.00     0.027 H 
ATOM     26  H   LIG d   1      10.673  11.954  -5.251  0.00  0.00     0.029 H 
ATOM     27  H   LIG d   1       8.989  12.036  -5.824  0.00  0.00     0.029 H 
ATOM     28  H   LIG d   1      11.328  13.106  -3.133  0.00  0.00     0.029 H 
ATOM     29  H   LIG d   1      10.112  14.007  -2.197  0.00  0.00     0.029 H 
ATOM     30  H   LIG d   1      11.897  11.773  -1.105  0.00  0.00     0.027 H 
ATOM     31  H   LIG d   1      10.674  12.662  -0.165  0.00  0.00     0.027 H 
ATOM     32  H   LIG d   1       9.487  10.535   0.302  0.00  0.00     0.027 H 
ATOM     33  H   LIG d   1      11.172  10.467   0.875  0.00  0.00     0.027 H 
ATOM     34  H   LIG d   1       9.301   8.196  -3.825  0.00  0.00     0.027 H 
ATOM     35  H   LIG d   1      11.032   8.137  -3.436  0.00  0.00     0.027 H 
ATOM     36  H   LIG d   1       9.992   5.994  -2.881  0.00  0.00     0.027 H 
ATOM     37  H   LIG d   1       8.796   6.831  -1.854  0.00  0.00     0.027 H 
ATOM     38  H   LIG d   1      12.322   7.961   0.931  0.00  0.00     0.027 H 
ATOM     39  H   LIG d   1      10.887   8.232   1.970  0.00  0.00     0.027 H 
ATOM     40  H   LIG d   1      10.300   5.951   1.959  0.00  0.00     0.029 H 
ATOM     41  H   LIG d   1      12.034   5.719   1.598  0.00  0.00     0.029 H 
ENDROOT
BRANCH   1  42
ATOM     42  C   LIG d   1      11.661  10.602  -3.349  0.00  0.00    -0.059 C 
ATOM     43  H   LIG d   1      11.773   9.918  -4.191  0.00  0.00     0.024 H 
ATOM     44  H   LIG d   1      11.975  11.602  -3.649  0.00  0.00     0.024 H 
ATOM     45  H   LIG d   1      12.279  10.261  -2.519  0.00  0.00     0.024 H 
ENDBRANCH   1  42
BRANCH   4  46
ATOM     46  O   LIG d   1       9.695  14.392  -4.800  0.00  0.00    -0.392 OA
ATOM     47  H   LIG d   1       9.234  15.183  -4.487  0.00  0.00     0.210 HD
ENDBRANCH   4  46
BRANCH  17  48
ATOM     48  C   LIG d   1      12.223   7.011  -1.607  0.00  0.00    -0.057 C 
ATOM     49  H   LIG d   1      12.273   7.908  -2.225  0.00  0.00     0.024 H 
ATOM     50  H   LIG d   1      12.913   7.110  -0.768  0.00  0.00     0.024 H 
ATOM     51  H   LIG d   1      12.500   6.142  -2.204  0.00  0.00     0.024 H 
ENDBRANCH  17  48
BRANCH  22  52
ATOM     52  O   LIG d   1      11.684   4.639  -0.562  0.00  0.00    -0.391 OA
ATOM     53  H   LIG d   1      12.064   4.797  -1.436  0.00  0.00     0.210 HD
ENDBRANCH  22  52
TORSDOF 4
ENDMDL
MODEL 9
REMARK VINA RESULT:      -5.3      8.945     11.364
REMARK  4 active torsions:
REMARK  status: ('A' for Active; 'I' for Inactive)
REMARK    1  A    between atoms: C_1  and  C_2 
REMARK    2  A    between atoms: C_5  and  O_27 
REMARK    3  A    between atoms: C_18  and  C_26 
REMARK    4  A    between atoms: C_23  and  O_25 
ROOT
ATOM      1  C   LIG d   1       9.932   6.199  -7.329  0.00  0.00    -0.026 C 
ATOM      2  C   LIG d   1       9.459   5.091  -8.272  0.00  0.00    -0.045 C 
ATOM      3  C   LIG d   1       9.831   5.455  -9.711  0.00  0.00    -0.026 C 
ATOM      4  C   LIG d   1       9.155   6.773 -10.095  0.00  0.00     0.056 C 
ATOM      5  H   LIG d   1       8.074   6.663 -10.015  0.00  0.00     0.059 H 
ATOM      6  C   LIG d   1       9.627   7.881  -9.152  0.00  0.00    -0.024 C 
ATOM      7  C   LIG d   1       9.256   7.518  -7.712  0.00  0.00    -0.033 C 
ATOM      8  H   LIG d   1       8.175   7.409  -7.632  0.00  0.00     0.031 H 
ATOM      9  C   LIG d   1       9.728   8.628  -6.770  0.00  0.00    -0.049 C 
ATOM     10  C   LIG d   1       9.370   8.263  -5.328  0.00  0.00    -0.049 C 
ATOM     11  C   LIG d   1      10.055   6.950  -4.950  0.00  0.00    -0.034 C 
ATOM     12  H   LIG d   1      11.138   7.048  -5.031  0.00  0.00     0.031 H 
ATOM     13  C   LIG d   1       9.564   5.837  -5.890  0.00  0.00    -0.032 C 
ATOM     14  H   LIG d   1       8.478   5.770  -5.820  0.00  0.00     0.031 H 
ATOM     15  C   LIG d   1      10.167   4.485  -5.522  0.00  0.00    -0.049 C 
ATOM     16  C   LIG d   1       9.916   4.139  -4.061  0.00  0.00    -0.045 C 
ATOM     17  C   LIG d   1      10.483   5.256  -3.207  0.00  0.00    -0.003 C 
ATOM     18  C   LIG d   1       9.682   6.545  -3.536  0.00  0.00    -0.030 C 
ATOM     19  H   LIG d   1       8.611   6.356  -3.467  0.00  0.00     0.031 H 
ATOM     20  C   LIG d   1      10.133   7.485  -2.414  0.00  0.00    -0.047 C 
ATOM     21  C   LIG d   1      10.145   6.558  -1.165  0.00  0.00    -0.026 C 
ATOM     22  C   LIG d   1      10.315   5.114  -1.699  0.00  0.00     0.061 C 
ATOM     23  H   LIG d   1       9.428   4.521  -1.472  0.00  0.00     0.060 H 
ATOM     24  H   LIG d   1       9.940   4.152  -7.999  0.00  0.00     0.027 H 
ATOM     25  H   LIG d   1       8.378   4.983  -8.192  0.00  0.00     0.027 H 
ATOM     26  H   LIG d   1      10.913   5.564  -9.791  0.00  0.00     0.029 H 
ATOM     27  H   LIG d   1       9.495   4.665 -10.384  0.00  0.00     0.029 H 
ATOM     28  H   LIG d   1      10.708   7.990  -9.232  0.00  0.00     0.029 H 
ATOM     29  H   LIG d   1       9.145   8.820  -9.425  0.00  0.00     0.029 H 
ATOM     30  H   LIG d   1      10.809   8.743  -6.857  0.00  0.00     0.027 H 
ATOM     31  H   LIG d   1       9.241   9.564  -7.039  0.00  0.00     0.027 H 
ATOM     32  H   LIG d   1       8.288   8.147  -5.241  0.00  0.00     0.027 H 
ATOM     33  H   LIG d   1       9.705   9.055  -4.658  0.00  0.00     0.027 H 
ATOM     34  H   LIG d   1       9.727   3.716  -6.156  0.00  0.00     0.027 H 
ATOM     35  H   LIG d   1      11.243   4.516  -5.694  0.00  0.00     0.027 H 
ATOM     36  H   LIG d   1      10.404   3.198  -3.813  0.00  0.00     0.027 H 
ATOM     37  H   LIG d   1       8.841   4.056  -3.897  0.00  0.00     0.027 H 
ATOM     38  H   LIG d   1      11.132   7.874  -2.614  0.00  0.00     0.027 H 
ATOM     39  H   LIG d   1       9.423   8.302  -2.286  0.00  0.00     0.027 H 
ATOM     40  H   LIG d   1       9.205   6.649  -0.622  0.00  0.00     0.029 H 
ATOM     41  H   LIG d   1      10.980   6.817  -0.514  0.00  0.00     0.029 H 
ENDROOT
BRANCH   1  42
ATOM     42  C   LIG d   1      11.450   6.354  -7.443  0.00  0.00    -0.059 C 
ATOM     43  H   LIG d   1      11.746   7.327  -7.049  0.00  0.00     0.024 H 
ATOM     44  H   LIG d   1      11.940   5.566  -6.871  0.00  0.00     0.024 H 
ATOM     45  H   LIG d   1      11.746   6.280  -8.489  0.00  0.00     0.024 H 
ENDBRANCH   1  42
BRANCH   4  46
ATOM     46  O   LIG d   1       9.501   7.112 -11.439  0.00  0.00    -0.392 OA
ATOM     47  H   LIG d   1       9.951   6.404 -11.921  0.00  0.00     0.210 HD
ENDBRANCH   4  46
BRANCH  17  48
ATOM     48  C   LIG d   1      11.961   5.466  -3.545  0.00  0.00    -0.057 C 
ATOM     49  H   LIG d   1      12.497   5.782  -2.649  0.00  0.00     0.024 H 
ATOM     50  H   LIG d   1      12.386   4.532  -3.912  0.00  0.00     0.024 H 
ATOM     51  H   LIG d   1      12.053   6.234  -4.313  0.00  0.00     0.024 H 
ENDBRANCH  17  48
BRANCH  22  52
ATOM     52  O   LIG d   1      11.474   4.507  -1.126  0.00  0.00    -0.391 OA
ATOM     53  H   LIG d   1      11.857   3.802  -1.665  0.00  0.00     0.210 HD
ENDBRANCH  22  52
TORSDOF 4
ENDMDL
MODEL 10
REMARK VINA RESULT:      -5.1      8.456     12.038
REMARK  4 active torsions:
REMARK  status: ('A' for Active; 'I' for Inactive)
REMARK    1  A    between atoms: C_1  and  C_2 
REMARK    2  A    between atoms: C_5  and  O_27 
REMARK    3  A    between atoms: C_18  and  C_26 
REMARK    4  A    between atoms: C_23  and  O_25 
ROOT
ATOM      1  C   LIG d   1      10.286   5.963  -4.669  0.00  0.00    -0.026 C 
ATOM      2  C   LIG d   1      10.875   6.539  -5.957  0.00  0.00    -0.045 C 
ATOM      3  C   LIG d   1      10.096   5.999  -7.159  0.00  0.00    -0.026 C 
ATOM      4  C   LIG d   1      10.200   4.473  -7.189  0.00  0.00     0.056 C 
ATOM      5  H   LIG d   1      11.246   4.181  -7.274  0.00  0.00     0.059 H 
ATOM      6  C   LIG d   1       9.612   3.896  -5.900  0.00  0.00    -0.024 C 
ATOM      7  C   LIG d   1      10.389   4.436  -4.698  0.00  0.00    -0.033 C 
ATOM      8  H   LIG d   1      11.436   4.144  -4.781  0.00  0.00     0.031 H 
ATOM      9  C   LIG d   1       9.800   3.859  -3.409  0.00  0.00    -0.049 C 
ATOM     10  C   LIG d   1      10.568   4.406  -2.205  0.00  0.00    -0.049 C 
ATOM     11  C   LIG d   1      10.453   5.930  -2.177  0.00  0.00    -0.034 C 
ATOM     12  H   LIG d   1       9.408   6.232  -2.097  0.00  0.00     0.031 H 
ATOM     13  C   LIG d   1      11.061   6.504  -3.466  0.00  0.00    -0.032 C 
ATOM     14  H   LIG d   1      12.096   6.170  -3.548  0.00  0.00     0.031 H 
ATOM     15  C   LIG d   1      11.032   8.028  -3.470  0.00  0.00    -0.049 C 
ATOM     16  C   LIG d   1      11.699   8.604  -2.229  0.00  0.00    -0.045 C 
ATOM     17  C   LIG d   1      11.001   8.034  -1.010  0.00  0.00    -0.003 C 
ATOM     18  C   LIG d   1      11.241   6.500  -1.013  0.00  0.00    -0.030 C 
ATOM     19  H   LIG d   1      12.302   6.280  -1.130  0.00  0.00     0.031 H 
ATOM     20  C   LIG d   1      10.766   6.110   0.391  0.00  0.00    -0.047 C 
ATOM     21  C   LIG d   1      11.336   7.251   1.281  0.00  0.00    -0.026 C 
ATOM     22  C   LIG d   1      11.536   8.470   0.349  0.00  0.00     0.061 C 
ATOM     23  H   LIG d   1      12.595   8.720   0.275  0.00  0.00     0.060 H 
ATOM     24  H   LIG d   1      10.802   7.626  -5.937  0.00  0.00     0.027 H 
ATOM     25  H   LIG d   1      11.921   6.247  -6.042  0.00  0.00     0.027 H 
ATOM     26  H   LIG d   1       9.049   6.291  -7.075  0.00  0.00     0.029 H 
ATOM     27  H   LIG d   1      10.515   6.410  -8.078  0.00  0.00     0.029 H 
ATOM     28  H   LIG d   1       8.565   4.188  -5.816  0.00  0.00     0.029 H 
ATOM     29  H   LIG d   1       9.685   2.809  -5.922  0.00  0.00     0.029 H 
ATOM     30  H   LIG d   1       8.751   4.143  -3.330  0.00  0.00     0.027 H 
ATOM     31  H   LIG d   1       9.881   2.772  -3.429  0.00  0.00     0.027 H 
ATOM     32  H   LIG d   1      11.619   4.121  -2.284  0.00  0.00     0.027 H 
ATOM     33  H   LIG d   1      10.149   3.992  -1.287  0.00  0.00     0.027 H 
ATOM     34  H   LIG d   1      11.548   8.391  -4.358  0.00  0.00     0.027 H 
ATOM     35  H   LIG d   1       9.996   8.365  -3.498  0.00  0.00     0.027 H 
ATOM     36  H   LIG d   1      11.615   9.690  -2.231  0.00  0.00     0.027 H 
ATOM     37  H   LIG d   1      12.750   8.312  -2.224  0.00  0.00     0.027 H 
ATOM     38  H   LIG d   1       9.678   6.091   0.439  0.00  0.00     0.027 H 
ATOM     39  H   LIG d   1      11.180   5.144   0.684  0.00  0.00     0.027 H 
ATOM     40  H   LIG d   1      12.290   6.948   1.713  0.00  0.00     0.029 H 
ATOM     41  H   LIG d   1      10.628   7.497   2.073  0.00  0.00     0.029 H 
ENDROOT
BRANCH   1  42
ATOM     42  C   LIG d   1       8.816   6.371  -4.552  0.00  0.00    -0.059 C 
ATOM     43  H   LIG d   1       8.271   6.019  -5.430  0.00  0.00     0.024 H 
ATOM     44  H   LIG d   1       8.385   5.926  -3.655  0.00  0.00     0.024 H 
ATOM     45  H   LIG d   1       8.743   7.456  -4.490  0.00  0.00     0.024 H 
ENDBRANCH   1  42
BRANCH   4  46
ATOM     46  O   LIG d   1       9.473   3.968  -8.312  0.00  0.00    -0.392 OA
ATOM     47  H   LIG d   1       8.551   3.750  -8.118  0.00  0.00     0.210 HD
ENDBRANCH   4  46
BRANCH  17  48
ATOM     48  C   LIG d   1       9.501   8.322  -1.092  0.00  0.00    -0.057 C 
ATOM     49  H   LIG d   1       9.336   9.232  -1.671  0.00  0.00     0.024 H 
ATOM     50  H   LIG d   1       8.996   7.487  -1.578  0.00  0.00     0.024 H 
ATOM     51  H   LIG d   1       9.100   8.454  -0.087  0.00  0.00     0.024 H 
ENDBRANCH  17  48
BRANCH  22  52
ATOM     52  O   LIG d   1      10.797   9.593   0.835  0.00  0.00    -0.391 OA
ATOM     53  H   LIG d   1       9.840   9.459   0.846  0.00  0.00     0.210 HD
ENDBRANCH  22  52
TORSDOF 4
ENDMDL
