MODEL 1
REMARK VINA RESULT:      -4.7      0.000      0.000
REMARK  9 active torsions:
REMARK  status: ('A' for Active; 'I' for Inactive)
REMARK    1  A    between atoms: C_1  and  C_2 
REMARK    2  A    between atoms: C_2  and  C_3 
REMARK    3  A    between atoms: C_2  and  C_4 
REMARK    4  A    between atoms: C_4  and  S_5 
REMARK    5  A    between atoms: S_5  and  C_6 
REMARK    6  A    between atoms: C_6  and  C_7 
REMARK    7  A    between atoms: C_7  and  C_9 
REMARK    8  A    between atoms: C_7  and  N_11 
REMARK       I    between atoms: N_11  and  C_12 
REMARK    9  A    between atoms: C_12  and  C_14 
ROOT
ATOM      1  C   UNK d   1       4.893  -0.450  -5.706  0.00  0.00     0.017 C 
ATOM      2  H   UNK d   1       5.520  -0.630  -6.579  0.00  0.00     0.040 H 
ATOM      3  H   UNK d   1       5.302   0.381  -5.131  0.00  0.00     0.040 H 
ENDROOT
BRANCH   1   4
ATOM      4  S   UNK d   1       4.855  -1.940  -4.671  0.00  0.00    -0.158 SA
BRANCH   4   5
ATOM      5  C   UNK d   1       5.794  -1.471  -3.192  0.00  0.00    -0.004 C 
ATOM      6  H   UNK d   1       6.547  -2.232  -2.984  0.00  0.00     0.038 H 
ATOM      7  H   UNK d   1       6.284  -0.512  -3.360  0.00  0.00     0.038 H 
BRANCH   5   8
ATOM      8  C   UNK d   1       4.843  -1.356  -1.999  0.00  0.00    -0.038 C 
ATOM      9  H   UNK d   1       5.320  -1.771  -1.111  0.00  0.00     0.030 H 
BRANCH   8  10
ATOM     10  C   UNK d   1       4.505   0.117  -1.756  0.00  0.00    -0.062 C 
ATOM     11  H   UNK d   1       4.392   0.626  -2.713  0.00  0.00     0.023 H 
ATOM     12  H   UNK d   1       3.573   0.187  -1.195  0.00  0.00     0.023 H 
ATOM     13  H   UNK d   1       5.308   0.584  -1.187  0.00  0.00     0.023 H 
ENDBRANCH   8  10
BRANCH   8  14
ATOM     14  C   UNK d   1       3.557  -2.132  -2.296  0.00  0.00    -0.062 C 
ATOM     15  H   UNK d   1       3.302  -2.024  -3.350  0.00  0.00     0.023 H 
ATOM     16  H   UNK d   1       3.709  -3.186  -2.065  0.00  0.00     0.023 H 
ATOM     17  H   UNK d   1       2.746  -1.738  -1.684  0.00  0.00     0.023 H 
ENDBRANCH   8  14
ENDBRANCH   5   8
ENDBRANCH   4   5
ENDBRANCH   1   4
BRANCH   1  18
ATOM     18  C   UNK d   1       3.473  -0.105  -6.158  0.00  0.00     0.071 C 
ATOM     19  H   UNK d   1       2.977  -1.006  -6.518  0.00  0.00     0.057 H 
BRANCH  18  20
ATOM     20  C   UNK d   1       2.700   0.464  -4.997  0.00  0.00     0.063 C 
ATOM     21  O   UNK d   1       3.018   1.529  -4.523  0.00  0.00    -0.548 OA
ATOM     22  O   UNK d   1       1.653  -0.208  -4.493  0.00  0.00    -0.548 OA
ENDBRANCH  18  20
BRANCH  18  23
ATOM     23  N   UNK d   1       3.532   0.883  -7.238  0.00  0.00    -0.307 N 
ATOM     24  C   UNK d   0       2.836   0.682  -8.375  0.00  0.00     0.210 C 
ATOM     25  O   UNK d   0       2.161  -0.318  -8.504  0.00  0.00    -0.276 OA
ATOM     26  H   UNK d   1       4.071   1.683  -7.135  0.00  0.00     0.149 HD
BRANCH  24  27
ATOM     27  C   UNK d   0       2.896   1.699  -9.485  0.00  0.00     0.012 C 
ATOM     28  H   UNK d   0       2.073   1.528 -10.179  0.00  0.00     0.032 H 
ATOM     29  H   UNK d   0       2.815   2.701  -9.064  0.00  0.00     0.032 H 
ATOM     30  H   UNK d   0       3.845   1.603 -10.015  0.00  0.00     0.032 H 
ENDBRANCH  24  27
ENDBRANCH  18  23
ENDBRANCH   1  18
TORSDOF 9
ENDMDL
MODEL 2
REMARK VINA RESULT:      -4.2      1.461      2.918
REMARK  9 active torsions:
REMARK  status: ('A' for Active; 'I' for Inactive)
REMARK    1  A    between atoms: C_1  and  C_2 
REMARK    2  A    between atoms: C_2  and  C_3 
REMARK    3  A    between atoms: C_2  and  C_4 
REMARK    4  A    between atoms: C_4  and  S_5 
REMARK    5  A    between atoms: S_5  and  C_6 
REMARK    6  A    between atoms: C_6  and  C_7 
REMARK    7  A    between atoms: C_7  and  C_9 
REMARK    8  A    between atoms: C_7  and  N_11 
REMARK       I    between atoms: N_11  and  C_12 
REMARK    9  A    between atoms: C_12  and  C_14 
ROOT
ATOM      1  C   UNK d   1       5.658  -1.624  -6.081  0.00  0.00     0.017 C 
ATOM      2  H   UNK d   1       5.399  -2.335  -6.865  0.00  0.00     0.040 H 
ATOM      3  H   UNK d   1       6.698  -1.318  -6.197  0.00  0.00     0.040 H 
ENDROOT
BRANCH   1   4
ATOM      4  S   UNK d   1       5.437  -2.406  -4.459  0.00  0.00    -0.158 SA
BRANCH   4   5
ATOM      5  C   UNK d   1       5.900  -1.109  -3.279  0.00  0.00    -0.004 C 
ATOM      6  H   UNK d   1       6.932  -1.261  -2.959  0.00  0.00     0.038 H 
ATOM      7  H   UNK d   1       5.808  -0.134  -3.756  0.00  0.00     0.038 H 
BRANCH   5   8
ATOM      8  C   UNK d   1       4.975  -1.173  -2.062  0.00  0.00    -0.038 C 
ATOM      9  H   UNK d   1       5.525  -1.568  -1.207  0.00  0.00     0.030 H 
BRANCH   8  10
ATOM     10  C   UNK d   1       4.464   0.232  -1.735  0.00  0.00    -0.062 C 
ATOM     11  H   UNK d   1       3.507   0.395  -2.231  0.00  0.00     0.023 H 
ATOM     12  H   UNK d   1       4.337   0.330  -0.657  0.00  0.00     0.023 H 
ATOM     13  H   UNK d   1       5.185   0.971  -2.084  0.00  0.00     0.023 H 
ENDBRANCH   8  10
BRANCH   8  14
ATOM     14  C   UNK d   1       3.788  -2.088  -2.372  0.00  0.00    -0.062 C 
ATOM     15  H   UNK d   1       2.859  -1.576  -2.120  0.00  0.00     0.023 H 
ATOM     16  H   UNK d   1       3.789  -2.337  -3.433  0.00  0.00     0.023 H 
ATOM     17  H   UNK d   1       3.870  -3.001  -1.783  0.00  0.00     0.023 H 
ENDBRANCH   8  14
ENDBRANCH   5   8
ENDBRANCH   4   5
ENDBRANCH   1   4
BRANCH   1  18
ATOM     18  C   UNK d   1       4.752  -0.397  -6.184  0.00  0.00     0.071 C 
ATOM     19  H   UNK d   1       5.156   0.407  -5.570  0.00  0.00     0.057 H 
BRANCH  18  20
ATOM     20  C   UNK d   1       4.680   0.056  -7.620  0.00  0.00     0.063 C 
ATOM     21  O   UNK d   1       5.246   1.066  -7.964  0.00  0.00    -0.548 OA
ATOM     22  O   UNK d   1       3.992  -0.668  -8.517  0.00  0.00    -0.548 OA
ENDBRANCH  18  20
BRANCH  18  23
ATOM     23  N   UNK d   1       3.408  -0.742  -5.713  0.00  0.00    -0.307 N 
ATOM     24  C   UNK d   0       2.687   0.158  -5.014  0.00  0.00     0.210 C 
ATOM     25  O   UNK d   0       3.150   1.253  -4.776  0.00  0.00    -0.276 OA
ATOM     26  H   UNK d   1       3.037  -1.617  -5.903  0.00  0.00     0.149 HD
BRANCH  24  27
ATOM     27  C   UNK d   0       1.304  -0.196  -4.530  0.00  0.00     0.012 C 
ATOM     28  H   UNK d   0       1.222   0.034  -3.467  0.00  0.00     0.032 H 
ATOM     29  H   UNK d   0       0.566   0.381  -5.086  0.00  0.00     0.032 H 
ATOM     30  H   UNK d   0       1.127  -1.261  -4.686  0.00  0.00     0.032 H 
ENDBRANCH  24  27
ENDBRANCH  18  23
ENDBRANCH   1  18
TORSDOF 9
ENDMDL
MODEL 3
REMARK VINA RESULT:      -4.2      2.196      3.054
REMARK  9 active torsions:
REMARK  status: ('A' for Active; 'I' for Inactive)
REMARK    1  A    between atoms: C_1  and  C_2 
REMARK    2  A    between atoms: C_2  and  C_3 
REMARK    3  A    between atoms: C_2  and  C_4 
REMARK    4  A    between atoms: C_4  and  S_5 
REMARK    5  A    between atoms: S_5  and  C_6 
REMARK    6  A    between atoms: C_6  and  C_7 
REMARK    7  A    between atoms: C_7  and  C_9 
REMARK    8  A    between atoms: C_7  and  N_11 
REMARK       I    between atoms: N_11  and  C_12 
REMARK    9  A    between atoms: C_12  and  C_14 
ROOT
ATOM      1  C   UNK d   1       4.355  -1.377  -6.283  0.00  0.00     0.017 C 
ATOM      2  H   UNK d   1       3.311  -1.660  -6.146  0.00  0.00     0.040 H 
ATOM      3  H   UNK d   1       4.955  -2.272  -6.450  0.00  0.00     0.040 H 
ENDROOT
BRANCH   1   4
ATOM      4  S   UNK d   1       4.948  -0.521  -4.797  0.00  0.00    -0.158 SA
BRANCH   4   5
ATOM      5  C   UNK d   1       3.430   0.023  -3.968  0.00  0.00    -0.004 C 
ATOM      6  H   UNK d   1       3.322   1.103  -4.079  0.00  0.00     0.038 H 
ATOM      7  H   UNK d   1       2.571  -0.475  -4.418  0.00  0.00     0.038 H 
BRANCH   5   8
ATOM      8  C   UNK d   1       3.505  -0.331  -2.482  0.00  0.00    -0.038 C 
ATOM      9  H   UNK d   1       2.525  -0.194  -2.025  0.00  0.00     0.030 H 
BRANCH   8  10
ATOM     10  C   UNK d   1       3.941  -1.790  -2.326  0.00  0.00    -0.062 C 
ATOM     11  H   UNK d   1       4.306  -2.163  -3.283  0.00  0.00     0.023 H 
ATOM     12  H   UNK d   1       4.735  -1.853  -1.582  0.00  0.00     0.023 H 
ATOM     13  H   UNK d   1       3.091  -2.390  -2.002  0.00  0.00     0.023 H 
ENDBRANCH   8  10
BRANCH   8  14
ATOM     14  C   UNK d   1       4.521   0.581  -1.791  0.00  0.00    -0.062 C 
ATOM     15  H   UNK d   1       5.200  -0.022  -1.187  0.00  0.00     0.023 H 
ATOM     16  H   UNK d   1       5.092   1.124  -2.544  0.00  0.00     0.023 H 
ATOM     17  H   UNK d   1       3.997   1.290  -1.151  0.00  0.00     0.023 H 
ENDBRANCH   8  14
ENDBRANCH   5   8
ENDBRANCH   4   5
ENDBRANCH   1   4
BRANCH   1  18
ATOM     18  C   UNK d   1       4.480  -0.449  -7.491  0.00  0.00     0.071 C 
ATOM     19  H   UNK d   1       4.721  -1.035  -8.377  0.00  0.00     0.057 H 
BRANCH  18  20
ATOM     20  C   UNK d   1       3.175   0.274  -7.707  0.00  0.00     0.063 C 
ATOM     21  O   UNK d   1       2.213  -0.326  -8.122  0.00  0.00    -0.548 OA
ATOM     22  O   UNK d   1       3.081   1.584  -7.430  0.00  0.00    -0.548 OA
ENDBRANCH  18  20
BRANCH  18  23
ATOM     23  N   UNK d   1       5.545   0.528  -7.249  0.00  0.00    -0.307 N 
ATOM     24  C   UNK d   0       6.495   0.735  -8.182  0.00  0.00     0.210 C 
ATOM     25  O   UNK d   0       6.468   0.113  -9.223  0.00  0.00    -0.276 OA
ATOM     26  H   UNK d   1       5.567   1.025  -6.416  0.00  0.00     0.149 HD
BRANCH  24  27
ATOM     27  C   UNK d   0       7.591   1.740  -7.933  0.00  0.00     0.012 C 
ATOM     28  H   UNK d   0       8.357   1.292  -7.300  0.00  0.00     0.032 H 
ATOM     29  H   UNK d   0       8.033   2.038  -8.884  0.00  0.00     0.032 H 
ATOM     30  H   UNK d   0       7.173   2.615  -7.435  0.00  0.00     0.032 H 
ENDBRANCH  24  27
ENDBRANCH  18  23
ENDBRANCH   1  18
TORSDOF 9
ENDMDL
MODEL 4
REMARK VINA RESULT:      -4.1      2.481      5.430
REMARK  9 active torsions:
REMARK  status: ('A' for Active; 'I' for Inactive)
REMARK    1  A    between atoms: C_1  and  C_2 
REMARK    2  A    between atoms: C_2  and  C_3 
REMARK    3  A    between atoms: C_2  and  C_4 
REMARK    4  A    between atoms: C_4  and  S_5 
REMARK    5  A    between atoms: S_5  and  C_6 
REMARK    6  A    between atoms: C_6  and  C_7 
REMARK    7  A    between atoms: C_7  and  C_9 
REMARK    8  A    between atoms: C_7  and  N_11 
REMARK       I    between atoms: N_11  and  C_12 
REMARK    9  A    between atoms: C_12  and  C_14 
ROOT
ATOM      1  C   UNK d   1       5.008  -0.833  -6.507  0.00  0.00     0.017 C 
ATOM      2  H   UNK d   1       5.488   0.145  -6.452  0.00  0.00     0.040 H 
ATOM      3  H   UNK d   1       5.757  -1.592  -6.734  0.00  0.00     0.040 H 
ENDROOT
BRANCH   1   4
ATOM      4  S   UNK d   1       3.750  -0.816  -7.813  0.00  0.00    -0.158 SA
BRANCH   4   5
ATOM      5  C   UNK d   1       2.972   0.815  -7.653  0.00  0.00    -0.004 C 
ATOM      6  H   UNK d   1       2.011   0.711  -7.150  0.00  0.00     0.038 H 
ATOM      7  H   UNK d   1       3.619   1.470  -7.070  0.00  0.00     0.038 H 
BRANCH   5   8
ATOM      8  C   UNK d   1       2.758   1.416  -9.044  0.00  0.00    -0.038 C 
ATOM      9  H   UNK d   1       1.749   1.824  -9.112  0.00  0.00     0.030 H 
BRANCH   8  10
ATOM     10  C   UNK d   1       3.777   2.532  -9.281  0.00  0.00    -0.062 C 
ATOM     11  H   UNK d   1       4.784   2.117  -9.249  0.00  0.00     0.023 H 
ATOM     12  H   UNK d   1       3.600   2.983 -10.257  0.00  0.00     0.023 H 
ATOM     13  H   UNK d   1       3.671   3.291  -8.505  0.00  0.00     0.023 H 
ENDBRANCH   8  10
BRANCH   8  14
ATOM     14  C   UNK d   1       2.939   0.326 -10.103  0.00  0.00    -0.062 C 
ATOM     15  H   UNK d   1       1.972   0.081 -10.543  0.00  0.00     0.023 H 
ATOM     16  H   UNK d   1       3.611   0.686 -10.883  0.00  0.00     0.023 H 
ATOM     17  H   UNK d   1       3.364  -0.564  -9.640  0.00  0.00     0.023 H 
ENDBRANCH   8  14
ENDBRANCH   5   8
ENDBRANCH   4   5
ENDBRANCH   1   4
BRANCH   1  18
ATOM     18  C   UNK d   1       4.348  -1.154  -5.165  0.00  0.00     0.071 C 
ATOM     19  H   UNK d   1       3.293  -1.374  -5.322  0.00  0.00     0.057 H 
BRANCH  18  20
ATOM     20  C   UNK d   1       5.024  -2.350  -4.545  0.00  0.00     0.063 C 
ATOM     21  O   UNK d   1       6.218  -2.341  -4.361  0.00  0.00    -0.548 OA
ATOM     22  O   UNK d   1       4.299  -3.423  -4.192  0.00  0.00    -0.548 OA
ENDBRANCH  18  20
BRANCH  18  23
ATOM     23  N   UNK d   1       4.478  -0.002  -4.270  0.00  0.00    -0.307 N 
ATOM     24  C   UNK d   0       3.539   0.232  -3.331  0.00  0.00     0.210 C 
ATOM     25  O   UNK d   0       2.586  -0.513  -3.227  0.00  0.00    -0.276 OA
ATOM     26  H   UNK d   1       5.239   0.594  -4.352  0.00  0.00     0.149 HD
BRANCH  24  27
ATOM     27  C   UNK d   0       3.672   1.417  -2.409  0.00  0.00     0.012 C 
ATOM     28  H   UNK d   0       3.433   2.330  -2.955  0.00  0.00     0.032 H 
ATOM     29  H   UNK d   0       2.985   1.303  -1.571  0.00  0.00     0.032 H 
ATOM     30  H   UNK d   0       4.695   1.473  -2.037  0.00  0.00     0.032 H 
ENDBRANCH  24  27
ENDBRANCH  18  23
ENDBRANCH   1  18
TORSDOF 9
ENDMDL
MODEL 5
REMARK VINA RESULT:      -4.1      2.541      5.483
REMARK  9 active torsions:
REMARK  status: ('A' for Active; 'I' for Inactive)
REMARK    1  A    between atoms: C_1  and  C_2 
REMARK    2  A    between atoms: C_2  and  C_3 
REMARK    3  A    between atoms: C_2  and  C_4 
REMARK    4  A    between atoms: C_4  and  S_5 
REMARK    5  A    between atoms: S_5  and  C_6 
REMARK    6  A    between atoms: C_6  and  C_7 
REMARK    7  A    between atoms: C_7  and  C_9 
REMARK    8  A    between atoms: C_7  and  N_11 
REMARK       I    between atoms: N_11  and  C_12 
REMARK    9  A    between atoms: C_12  and  C_14 
ROOT
ATOM      1  C   UNK d   1       3.214  -0.206  -5.120  0.00  0.00     0.017 C 
ATOM      2  H   UNK d   1       2.588  -1.098  -5.110  0.00  0.00     0.040 H 
ATOM      3  H   UNK d   1       2.581   0.681  -5.160  0.00  0.00     0.040 H 
ENDROOT
BRANCH   1   4
ATOM      4  S   UNK d   1       4.295  -0.243  -6.576  0.00  0.00    -0.158 SA
BRANCH   4   5
ATOM      5  C   UNK d   1       3.253  -0.951  -7.880  0.00  0.00    -0.004 C 
ATOM      6  H   UNK d   1       3.725  -1.851  -8.274  0.00  0.00     0.038 H 
ATOM      7  H   UNK d   1       2.277  -1.205  -7.467  0.00  0.00     0.038 H 
BRANCH   5   8
ATOM      8  C   UNK d   1       3.080   0.070  -9.006  0.00  0.00    -0.038 C 
ATOM      9  H   UNK d   1       3.960   0.053  -9.650  0.00  0.00     0.030 H 
BRANCH   8  10
ATOM     10  C   UNK d   1       1.839  -0.282  -9.829  0.00  0.00    -0.062 C 
ATOM     11  H   UNK d   1       1.644   0.512 -10.550  0.00  0.00     0.023 H 
ATOM     12  H   UNK d   1       2.008  -1.220 -10.357  0.00  0.00     0.023 H 
ATOM     13  H   UNK d   1       0.982  -0.389  -9.165  0.00  0.00     0.023 H 
ENDBRANCH   8  10
BRANCH   8  14
ATOM     14  C   UNK d   1       2.915   1.468  -8.406  0.00  0.00    -0.062 C 
ATOM     15  H   UNK d   1       3.845   1.767  -7.921  0.00  0.00     0.023 H 
ATOM     16  H   UNK d   1       2.676   2.177  -9.198  0.00  0.00     0.023 H 
ATOM     17  H   UNK d   1       2.110   1.456  -7.672  0.00  0.00     0.023 H 
ENDBRANCH   8  14
ENDBRANCH   5   8
ENDBRANCH   4   5
ENDBRANCH   1   4
BRANCH   1  18
ATOM     18  C   UNK d   1       4.067  -0.165  -3.851  0.00  0.00     0.071 C 
ATOM     19  H   UNK d   1       3.653   0.567  -3.158  0.00  0.00     0.057 H 
BRANCH  18  20
ATOM     20  C   UNK d   1       4.071  -1.526  -3.203  0.00  0.00     0.063 C 
ATOM     21  O   UNK d   1       3.893  -2.514  -3.874  0.00  0.00    -0.548 OA
ATOM     22  O   UNK d   1       4.279  -1.639  -1.882  0.00  0.00    -0.548 OA
ENDBRANCH  18  20
BRANCH  18  23
ATOM     23  N   UNK d   1       5.439   0.215  -4.198  0.00  0.00    -0.307 N 
ATOM     24  C   UNK d   0       6.137   1.037  -3.389  0.00  0.00     0.210 C 
ATOM     25  O   UNK d   0       5.628   1.463  -2.373  0.00  0.00    -0.276 OA
ATOM     26  H   UNK d   1       5.846  -0.125  -5.010  0.00  0.00     0.149 HD
BRANCH  24  27
ATOM     27  C   UNK d   0       7.548   1.427  -3.745  0.00  0.00     0.012 C 
ATOM     28  H   UNK d   0       7.776   1.082  -4.754  0.00  0.00     0.032 H 
ATOM     29  H   UNK d   0       7.647   2.512  -3.700  0.00  0.00     0.032 H 
ATOM     30  H   UNK d   0       8.241   0.969  -3.038  0.00  0.00     0.032 H 
ENDBRANCH  24  27
ENDBRANCH  18  23
ENDBRANCH   1  18
TORSDOF 9
ENDMDL
MODEL 6
REMARK VINA RESULT:      -4.1      2.320      2.936
REMARK  9 active torsions:
REMARK  status: ('A' for Active; 'I' for Inactive)
REMARK    1  A    between atoms: C_1  and  C_2 
REMARK    2  A    between atoms: C_2  and  C_3 
REMARK    3  A    between atoms: C_2  and  C_4 
REMARK    4  A    between atoms: C_4  and  S_5 
REMARK    5  A    between atoms: S_5  and  C_6 
REMARK    6  A    between atoms: C_6  and  C_7 
REMARK    7  A    between atoms: C_7  and  C_9 
REMARK    8  A    between atoms: C_7  and  N_11 
REMARK       I    between atoms: N_11  and  C_12 
REMARK    9  A    between atoms: C_12  and  C_14 
ROOT
ATOM      1  C   UNK d   1       5.212  -1.923  -6.396  0.00  0.00     0.017 C 
ATOM      2  H   UNK d   1       4.545  -2.472  -7.061  0.00  0.00     0.040 H 
ATOM      3  H   UNK d   1       6.232  -2.289  -6.523  0.00  0.00     0.040 H 
ENDROOT
BRANCH   1   4
ATOM      4  S   UNK d   1       4.691  -2.173  -4.676  0.00  0.00    -0.158 SA
BRANCH   4   5
ATOM      5  C   UNK d   1       4.170  -0.523  -4.131  0.00  0.00    -0.004 C 
ATOM      6  H   UNK d   1       5.015   0.163  -4.193  0.00  0.00     0.038 H 
ATOM      7  H   UNK d   1       3.365  -0.166  -4.773  0.00  0.00     0.038 H 
BRANCH   5   8
ATOM      8  C   UNK d   1       3.676  -0.596  -2.685  0.00  0.00    -0.038 C 
ATOM      9  H   UNK d   1       2.617  -0.339  -2.649  0.00  0.00     0.030 H 
BRANCH   8  10
ATOM     10  C   UNK d   1       3.876  -2.015  -2.148  0.00  0.00    -0.062 C 
ATOM     11  H   UNK d   1       2.925  -2.402  -1.782  0.00  0.00     0.023 H 
ATOM     12  H   UNK d   1       4.246  -2.656  -2.948  0.00  0.00     0.023 H 
ATOM     13  H   UNK d   1       4.599  -1.997  -1.333  0.00  0.00     0.023 H 
ENDBRANCH   8  10
BRANCH   8  14
ATOM     14  C   UNK d   1       4.470   0.390  -1.825  0.00  0.00    -0.062 C 
ATOM     15  H   UNK d   1       3.862   1.275  -1.631  0.00  0.00     0.023 H 
ATOM     16  H   UNK d   1       4.733  -0.083  -0.879  0.00  0.00     0.023 H 
ATOM     17  H   UNK d   1       5.378   0.682  -2.352  0.00  0.00     0.023 H 
ENDBRANCH   8  14
ENDBRANCH   5   8
ENDBRANCH   4   5
ENDBRANCH   1   4
BRANCH   1  18
ATOM     18  C   UNK d   1       5.161  -0.433  -6.735  0.00  0.00     0.071 C 
ATOM     19  H   UNK d   1       4.700   0.111  -5.911  0.00  0.00     0.057 H 
BRANCH  18  20
ATOM     20  C   UNK d   1       6.559   0.081  -6.958  0.00  0.00     0.063 C 
ATOM     21  O   UNK d   1       7.500  -0.674  -6.881  0.00  0.00    -0.548 OA
ATOM     22  O   UNK d   1       6.760   1.376  -7.248  0.00  0.00    -0.548 OA
ENDBRANCH  18  20
BRANCH  18  23
ATOM     23  N   UNK d   1       4.368  -0.237  -7.952  0.00  0.00    -0.307 N 
ATOM     24  C   UNK d   0       3.348   0.645  -7.957  0.00  0.00     0.210 C 
ATOM     25  O   UNK d   0       3.086   1.276  -6.955  0.00  0.00    -0.276 OA
ATOM     26  H   UNK d   1       4.577  -0.741  -8.753  0.00  0.00     0.149 HD
BRANCH  24  27
ATOM     27  C   UNK d   0       2.534   0.847  -9.209  0.00  0.00     0.012 C 
ATOM     28  H   UNK d   0       1.498   0.568  -9.017  0.00  0.00     0.032 H 
ATOM     29  H   UNK d   0       2.580   1.894  -9.507  0.00  0.00     0.032 H 
ATOM     30  H   UNK d   0       2.936   0.223 -10.009  0.00  0.00     0.032 H 
ENDBRANCH  24  27
ENDBRANCH  18  23
ENDBRANCH   1  18
TORSDOF 9
ENDMDL
MODEL 7
REMARK VINA RESULT:      -4.1      2.044      2.690
REMARK  9 active torsions:
REMARK  status: ('A' for Active; 'I' for Inactive)
REMARK    1  A    between atoms: C_1  and  C_2 
REMARK    2  A    between atoms: C_2  and  C_3 
REMARK    3  A    between atoms: C_2  and  C_4 
REMARK    4  A    between atoms: C_4  and  S_5 
REMARK    5  A    between atoms: S_5  and  C_6 
REMARK    6  A    between atoms: C_6  and  C_7 
REMARK    7  A    between atoms: C_7  and  C_9 
REMARK    8  A    between atoms: C_7  and  N_11 
REMARK       I    between atoms: N_11  and  C_12 
REMARK    9  A    between atoms: C_12  and  C_14 
ROOT
ATOM      1  C   UNK d   1       3.052   0.197  -5.700  0.00  0.00     0.017 C 
ATOM      2  H   UNK d   1       3.468   1.193  -5.542  0.00  0.00     0.040 H 
ATOM      3  H   UNK d   1       2.094   0.119  -5.186  0.00  0.00     0.040 H 
ENDROOT
BRANCH   1   4
ATOM      4  S   UNK d   1       4.195  -1.046  -5.039  0.00  0.00    -0.158 SA
BRANCH   4   5
ATOM      5  C   UNK d   1       5.275  -0.104  -3.927  0.00  0.00    -0.004 C 
ATOM      6  H   UNK d   1       6.313  -0.393  -4.096  0.00  0.00     0.038 H 
ATOM      7  H   UNK d   1       5.159   0.962  -4.124  0.00  0.00     0.038 H 
BRANCH   5   8
ATOM      8  C   UNK d   1       4.894  -0.399  -2.475  0.00  0.00    -0.038 C 
ATOM      9  H   UNK d   1       5.783  -0.697  -1.919  0.00  0.00     0.030 H 
BRANCH   8  10
ATOM     10  C   UNK d   1       4.293   0.857  -1.840  0.00  0.00    -0.062 C 
ATOM     11  H   UNK d   1       4.139   0.687  -0.774  0.00  0.00     0.023 H 
ATOM     12  H   UNK d   1       4.974   1.696  -1.980  0.00  0.00     0.023 H 
ATOM     13  H   UNK d   1       3.337   1.081  -2.314  0.00  0.00     0.023 H 
ENDBRANCH   8  10
BRANCH   8  14
ATOM     14  C   UNK d   1       3.866  -1.531  -2.438  0.00  0.00    -0.062 C 
ATOM     15  H   UNK d   1       4.366  -2.483  -2.619  0.00  0.00     0.023 H 
ATOM     16  H   UNK d   1       3.386  -1.555  -1.459  0.00  0.00     0.023 H 
ATOM     17  H   UNK d   1       3.113  -1.364  -3.208  0.00  0.00     0.023 H 
ENDBRANCH   8  14
ENDBRANCH   5   8
ENDBRANCH   4   5
ENDBRANCH   1   4
BRANCH   1  18
ATOM     18  C   UNK d   1       2.848  -0.040  -7.197  0.00  0.00     0.071 C 
ATOM     19  H   UNK d   1       1.783  -0.136  -7.407  0.00  0.00     0.057 H 
BRANCH  18  20
ATOM     20  C   UNK d   1       3.412   1.122  -7.972  0.00  0.00     0.063 C 
ATOM     21  O   UNK d   1       2.668   1.926  -8.482  0.00  0.00    -0.548 OA
ATOM     22  O   UNK d   1       4.741   1.268  -8.091  0.00  0.00    -0.548 OA
ENDBRANCH  18  20
BRANCH  18  23
ATOM     23  N   UNK d   1       3.536  -1.272  -7.593  0.00  0.00    -0.307 N 
ATOM     24  C   UNK d   0       3.121  -1.958  -8.677  0.00  0.00     0.210 C 
ATOM     25  O   UNK d   0       2.177  -1.555  -9.324  0.00  0.00    -0.276 OA
ATOM     26  H   UNK d   1       4.290  -1.594  -7.075  0.00  0.00     0.149 HD
BRANCH  24  27
ATOM     27  C   UNK d   0       3.829  -3.224  -9.085  0.00  0.00     0.012 C 
ATOM     28  H   UNK d   0       3.822  -3.928  -8.252  0.00  0.00     0.032 H 
ATOM     29  H   UNK d   0       3.318  -3.666  -9.940  0.00  0.00     0.032 H 
ATOM     30  H   UNK d   0       4.859  -2.992  -9.356  0.00  0.00     0.032 H 
ENDBRANCH  24  27
ENDBRANCH  18  23
ENDBRANCH   1  18
TORSDOF 9
ENDMDL
MODEL 8
REMARK VINA RESULT:      -4.0      2.907      5.321
REMARK  9 active torsions:
REMARK  status: ('A' for Active; 'I' for Inactive)
REMARK    1  A    between atoms: C_1  and  C_2 
REMARK    2  A    between atoms: C_2  and  C_3 
REMARK    3  A    between atoms: C_2  and  C_4 
REMARK    4  A    between atoms: C_4  and  S_5 
REMARK    5  A    between atoms: S_5  and  C_6 
REMARK    6  A    between atoms: C_6  and  C_7 
REMARK    7  A    between atoms: C_7  and  C_9 
REMARK    8  A    between atoms: C_7  and  N_11 
REMARK       I    between atoms: N_11  and  C_12 
REMARK    9  A    between atoms: C_12  and  C_14 
ROOT
ATOM      1  C   UNK d   1       3.676  -0.427  -5.351  0.00  0.00     0.017 C 
ATOM      2  H   UNK d   1       2.641  -0.683  -5.580  0.00  0.00     0.040 H 
ATOM      3  H   UNK d   1       3.713   0.564  -4.896  0.00  0.00     0.040 H 
ENDROOT
BRANCH   1   4
ATOM      4  S   UNK d   1       4.652  -0.425  -6.880  0.00  0.00    -0.158 SA
BRANCH   4   5
ATOM      5  C   UNK d   1       3.536  -1.150  -8.113  0.00  0.00    -0.004 C 
ATOM      6  H   UNK d   1       4.086  -1.335  -9.037  0.00  0.00     0.038 H 
ATOM      7  H   UNK d   1       3.138  -2.091  -7.735  0.00  0.00     0.038 H 
BRANCH   5   8
ATOM      8  C   UNK d   1       2.384  -0.183  -8.390  0.00  0.00    -0.038 C 
ATOM      9  H   UNK d   1       1.692  -0.191  -7.548  0.00  0.00     0.030 H 
BRANCH   8  10
ATOM     10  C   UNK d   1       2.939   1.230  -8.580  0.00  0.00    -0.062 C 
ATOM     11  H   UNK d   1       2.265   1.950  -8.116  0.00  0.00     0.023 H 
ATOM     12  H   UNK d   1       3.922   1.300  -8.115  0.00  0.00     0.023 H 
ATOM     13  H   UNK d   1       3.025   1.447  -9.645  0.00  0.00     0.023 H 
ENDBRANCH   8  10
BRANCH   8  14
ATOM     14  C   UNK d   1       1.648  -0.617  -9.660  0.00  0.00    -0.062 C 
ATOM     15  H   UNK d   1       0.579  -0.679  -9.457  0.00  0.00     0.023 H 
ATOM     16  H   UNK d   1       1.825   0.114 -10.450  0.00  0.00     0.023 H 
ATOM     17  H   UNK d   1       2.016  -1.592  -9.978  0.00  0.00     0.023 H 
ENDBRANCH   8  14
ENDBRANCH   5   8
ENDBRANCH   4   5
ENDBRANCH   1   4
BRANCH   1  18
ATOM     18  C   UNK d   1       4.254  -1.455  -4.377  0.00  0.00     0.071 C 
ATOM     19  H   UNK d   1       5.324  -1.286  -4.262  0.00  0.00     0.057 H 
BRANCH  18  20
ATOM     20  C   UNK d   1       3.575  -1.317  -3.039  0.00  0.00     0.063 C 
ATOM     21  O   UNK d   1       2.488  -0.796  -2.964  0.00  0.00    -0.548 OA
ATOM     22  O   UNK d   1       4.176  -1.779  -1.931  0.00  0.00    -0.548 OA
ENDBRANCH  18  20
BRANCH  18  23
ATOM     23  N   UNK d   1       4.027  -2.804  -4.903  0.00  0.00    -0.307 N 
ATOM     24  C   UNK d   0       5.034  -3.701  -4.913  0.00  0.00     0.210 C 
ATOM     25  O   UNK d   0       6.127  -3.392  -4.488  0.00  0.00    -0.276 OA
ATOM     26  H   UNK d   1       3.153  -3.053  -5.243  0.00  0.00     0.149 HD
BRANCH  24  27
ATOM     27  C   UNK d   0       4.801  -5.089  -5.453  0.00  0.00     0.012 C 
ATOM     28  H   UNK d   0       4.834  -5.065  -6.543  0.00  0.00     0.032 H 
ATOM     29  H   UNK d   0       5.576  -5.758  -5.080  0.00  0.00     0.032 H 
ATOM     30  H   UNK d   0       3.823  -5.446  -5.126  0.00  0.00     0.032 H 
ENDBRANCH  24  27
ENDBRANCH  18  23
ENDBRANCH   1  18
TORSDOF 9
ENDMDL
MODEL 9
REMARK VINA RESULT:      -4.0      2.564      5.515
REMARK  9 active torsions:
REMARK  status: ('A' for Active; 'I' for Inactive)
REMARK    1  A    between atoms: C_1  and  C_2 
REMARK    2  A    between atoms: C_2  and  C_3 
REMARK    3  A    between atoms: C_2  and  C_4 
REMARK    4  A    between atoms: C_4  and  S_5 
REMARK    5  A    between atoms: S_5  and  C_6 
REMARK    6  A    between atoms: C_6  and  C_7 
REMARK    7  A    between atoms: C_7  and  C_9 
REMARK    8  A    between atoms: C_7  and  N_11 
REMARK       I    between atoms: N_11  and  C_12 
REMARK    9  A    between atoms: C_12  and  C_14 
ROOT
ATOM      1  C   UNK d   1       2.791   0.303  -6.104  0.00  0.00     0.017 C 
ATOM      2  H   UNK d   1       1.783   0.006  -5.814  0.00  0.00     0.040 H 
ATOM      3  H   UNK d   1       2.826   1.385  -6.236  0.00  0.00     0.040 H 
ENDROOT
BRANCH   1   4
ATOM      4  S   UNK d   1       3.235  -0.510  -7.663  0.00  0.00    -0.158 SA
BRANCH   4   5
ATOM      5  C   UNK d   1       2.718   0.671  -8.939  0.00  0.00    -0.004 C 
ATOM      6  H   UNK d   1       2.147   0.149  -9.707  0.00  0.00     0.038 H 
ATOM      7  H   UNK d   1       2.096   1.444  -8.487  0.00  0.00     0.038 H 
BRANCH   5   8
ATOM      8  C   UNK d   1       3.954   1.314  -9.570  0.00  0.00    -0.038 C 
ATOM      9  H   UNK d   1       4.853   0.865  -9.148  0.00  0.00     0.030 H 
BRANCH   8  10
ATOM     10  C   UNK d   1       3.931   1.086 -11.083  0.00  0.00    -0.062 C 
ATOM     11  H   UNK d   1       4.574   0.242 -11.332  0.00  0.00     0.023 H 
ATOM     12  H   UNK d   1       2.911   0.875 -11.403  0.00  0.00     0.023 H 
ATOM     13  H   UNK d   1       4.293   1.981 -11.590  0.00  0.00     0.023 H 
ENDBRANCH   8  10
BRANCH   8  14
ATOM     14  C   UNK d   1       3.951   2.817  -9.280  0.00  0.00    -0.062 C 
ATOM     15  H   UNK d   1       4.055   3.367 -10.216  0.00  0.00     0.023 H 
ATOM     16  H   UNK d   1       3.012   3.092  -8.801  0.00  0.00     0.023 H 
ATOM     17  H   UNK d   1       4.782   3.061  -8.619  0.00  0.00     0.023 H 
ENDBRANCH   8  14
ENDBRANCH   5   8
ENDBRANCH   4   5
ENDBRANCH   1   4
BRANCH   1  18
ATOM     18  C   UNK d   1       3.780  -0.108  -5.013  0.00  0.00     0.071 C 
ATOM     19  H   UNK d   1       4.777   0.243  -5.274  0.00  0.00     0.057 H 
BRANCH  18  20
ATOM     20  C   UNK d   1       3.361   0.499  -3.699  0.00  0.00     0.063 C 
ATOM     21  O   UNK d   1       3.535   1.677  -3.495  0.00  0.00    -0.548 OA
ATOM     22  O   UNK d   1       2.788  -0.267  -2.757  0.00  0.00    -0.548 OA
ENDBRANCH  18  20
BRANCH  18  23
ATOM     23  N   UNK d   1       3.793  -1.569  -4.893  0.00  0.00    -0.307 N 
ATOM     24  C   UNK d   0       4.967  -2.228  -4.816  0.00  0.00     0.210 C 
ATOM     25  O   UNK d   0       6.012  -1.613  -4.846  0.00  0.00    -0.276 OA
ATOM     26  H   UNK d   1       2.958  -2.062  -4.869  0.00  0.00     0.149 HD
BRANCH  24  27
ATOM     27  C   UNK d   0       4.981  -3.730  -4.693  0.00  0.00     0.012 C 
ATOM     28  H   UNK d   0       5.384  -4.011  -3.720  0.00  0.00     0.032 H 
ATOM     29  H   UNK d   0       3.964  -4.112  -4.790  0.00  0.00     0.032 H 
ATOM     30  H   UNK d   0       5.605  -4.153  -5.481  0.00  0.00     0.032 H 
ENDBRANCH  24  27
ENDBRANCH  18  23
ENDBRANCH   1  18
TORSDOF 9
ENDMDL
MODEL 10
REMARK VINA RESULT:      -3.9      2.232      2.886
REMARK  9 active torsions:
REMARK  status: ('A' for Active; 'I' for Inactive)
REMARK    1  A    between atoms: C_1  and  C_2 
REMARK    2  A    between atoms: C_2  and  C_3 
REMARK    3  A    between atoms: C_2  and  C_4 
REMARK    4  A    between atoms: C_4  and  S_5 
REMARK    5  A    between atoms: S_5  and  C_6 
REMARK    6  A    between atoms: C_6  and  C_7 
REMARK    7  A    between atoms: C_7  and  C_9 
REMARK    8  A    between atoms: C_7  and  N_11 
REMARK       I    between atoms: N_11  and  C_12 
REMARK    9  A    between atoms: C_12  and  C_14 
ROOT
ATOM      1  C   UNK d   1       4.498  -1.074  -5.672  0.00  0.00     0.017 C 
ATOM      2  H   UNK d   1       3.677  -0.445  -5.326  0.00  0.00     0.040 H 
ATOM      3  H   UNK d   1       4.368  -2.085  -5.287  0.00  0.00     0.040 H 
ENDROOT
BRANCH   1   4
ATOM      4  S   UNK d   1       6.071  -0.397  -5.074  0.00  0.00    -0.158 SA
BRANCH   4   5
ATOM      5  C   UNK d   1       6.020  -0.684  -3.284  0.00  0.00    -0.004 C 
ATOM      6  H   UNK d   1       6.351  -1.701  -3.070  0.00  0.00     0.038 H 
ATOM      7  H   UNK d   1       6.680   0.024  -2.783  0.00  0.00     0.038 H 
BRANCH   5   8
ATOM      8  C   UNK d   1       4.589  -0.495  -2.777  0.00  0.00    -0.038 C 
ATOM      9  H   UNK d   1       3.936  -0.253  -3.616  0.00  0.00     0.030 H 
BRANCH   8  10
ATOM     10  C   UNK d   1       4.108  -1.786  -2.112  0.00  0.00    -0.062 C 
ATOM     11  H   UNK d   1       3.750  -2.477  -2.876  0.00  0.00     0.023 H 
ATOM     12  H   UNK d   1       4.935  -2.243  -1.568  0.00  0.00     0.023 H 
ATOM     13  H   UNK d   1       3.299  -1.558  -1.419  0.00  0.00     0.023 H 
ENDBRANCH   8  10
BRANCH   8  14
ATOM     14  C   UNK d   1       4.556   0.647  -1.759  0.00  0.00    -0.062 C 
ATOM     15  H   UNK d   1       4.111   1.530  -2.218  0.00  0.00     0.023 H 
ATOM     16  H   UNK d   1       3.959   0.347  -0.897  0.00  0.00     0.023 H 
ATOM     17  H   UNK d   1       5.571   0.876  -1.437  0.00  0.00     0.023 H 
ENDBRANCH   8  14
ENDBRANCH   5   8
ENDBRANCH   4   5
ENDBRANCH   1   4
BRANCH   1  18
ATOM     18  C   UNK d   1       4.504  -1.108  -7.201  0.00  0.00     0.071 C 
ATOM     19  H   UNK d   1       5.483  -0.801  -7.567  0.00  0.00     0.057 H 
BRANCH  18  20
ATOM     20  C   UNK d   1       4.207  -2.508  -7.674  0.00  0.00     0.063 C 
ATOM     21  O   UNK d   1       4.658  -3.456  -7.077  0.00  0.00    -0.548 OA
ATOM     22  O   UNK d   1       3.435  -2.700  -8.755  0.00  0.00    -0.548 OA
ENDBRANCH  18  20
BRANCH  18  23
ATOM     23  N   UNK d   1       3.483  -0.191  -7.714  0.00  0.00    -0.307 N 
ATOM     24  C   UNK d   0       3.844   1.003  -8.225  0.00  0.00     0.210 C 
ATOM     25  O   UNK d   0       5.014   1.319  -8.261  0.00  0.00    -0.276 OA
ATOM     26  H   UNK d   1       2.546  -0.443  -7.686  0.00  0.00     0.149 HD
BRANCH  24  27
ATOM     27  C   UNK d   0       2.793   1.945  -8.753  0.00  0.00     0.012 C 
ATOM     28  H   UNK d   0       1.819   1.665  -8.351  0.00  0.00     0.032 H 
ATOM     29  H   UNK d   0       3.033   2.964  -8.448  0.00  0.00     0.032 H 
ATOM     30  H   UNK d   0       2.768   1.888  -9.842  0.00  0.00     0.032 H 
ENDBRANCH  24  27
ENDBRANCH  18  23
ENDBRANCH   1  18
TORSDOF 9
ENDMDL
