MODEL 1
REMARK VINA RESULT:      -5.5      0.000      0.000
REMARK  2 active torsions:
REMARK  status: ('A' for Active; 'I' for Inactive)
REMARK    1  A    between atoms: C_11  and  C_12 
REMARK    2  A    between atoms: C_12  and  C_14 
ROOT
ATOM      1  C   LIG d   1       2.588   0.341  -6.623  0.00  0.00    -0.047 A 
ATOM      2  C   LIG d   1       3.054   0.176  -5.336  0.00  0.00    -0.051 A 
ATOM      3  C   LIG d   1       4.066  -0.744  -5.082  0.00  0.00     0.011 A 
ATOM      4  C   LIG d   1       4.611  -1.501  -6.132  0.00  0.00     0.048 A 
ATOM      5  C   LIG d   1       4.128  -1.320  -7.424  0.00  0.00    -0.024 A 
ATOM      6  C   LIG d   1       3.125  -0.405  -7.662  0.00  0.00     0.020 A 
ATOM      7 BR   LIG d   1       2.474  -0.166  -9.421  0.00  0.00    -0.050 Br
ATOM      8  N   LIG d   1       5.584  -2.322  -5.596  0.00  0.00    -0.360 N 
ATOM      9  H   LIG d   1       6.118  -2.950  -6.107  0.00  0.00     0.165 HD
ATOM     10  C   LIG d   1       5.690  -2.131  -4.268  0.00  0.00     0.014 A 
ATOM     11  C   LIG d   1       4.785  -1.168  -3.865  0.00  0.00     0.048 A 
ATOM     12  H   LIG d   1       1.802   1.056  -6.823  0.00  0.00     0.063 H 
ATOM     13  H   LIG d   1       2.635   0.759  -4.528  0.00  0.00     0.062 H 
ATOM     14  H   LIG d   1       4.540  -1.896  -8.239  0.00  0.00     0.065 H 
ATOM     15  H   LIG d   1       6.378  -2.651  -3.618  0.00  0.00     0.081 H 
ENDROOT
BRANCH  11  16
ATOM     16  C   LIG d   1       4.575  -0.674  -2.505  0.00  0.00     0.210 C 
ATOM     17  O   LIG d   1       4.374  -1.457  -1.597  0.00  0.00    -0.285 OA
BRANCH  16  18
ATOM     18  C   LIG d   1       4.605   0.792  -2.231  0.00  0.00     0.112 C 
ATOM     19  O   LIG d   1       5.651   1.402  -2.311  0.00  0.00    -0.541 OA
ATOM     20  O   LIG d   1       3.473   1.438  -1.897  0.00  0.00    -0.541 OA
ENDBRANCH  16  18
ENDBRANCH  11  16
TORSDOF 2
ENDMDL
MODEL 2
REMARK VINA RESULT:      -5.4      3.127      4.094
REMARK  2 active torsions:
REMARK  status: ('A' for Active; 'I' for Inactive)
REMARK    1  A    between atoms: C_11  and  C_12 
REMARK    2  A    between atoms: C_12  and  C_14 
ROOT
ATOM      1  C   LIG d   1       8.056  -2.999  -3.889  0.00  0.00    -0.047 A 
ATOM      2  C   LIG d   1       7.231  -2.031  -3.360  0.00  0.00    -0.051 A 
ATOM      3  C   LIG d   1       5.875  -2.033  -3.675  0.00  0.00     0.011 A 
ATOM      4  C   LIG d   1       5.351  -3.018  -4.528  0.00  0.00     0.048 A 
ATOM      5  C   LIG d   1       6.199  -3.987  -5.052  0.00  0.00    -0.024 A 
ATOM      6  C   LIG d   1       7.541  -3.974  -4.732  0.00  0.00     0.020 A 
ATOM      7 BR   LIG d   1       8.687  -5.295  -5.449  0.00  0.00    -0.050 Br
ATOM      8  N   LIG d   1       3.997  -2.778  -4.663  0.00  0.00    -0.360 N 
ATOM      9  H   LIG d   1       3.394  -3.314  -5.201  0.00  0.00     0.165 HD
ATOM     10  C   LIG d   1       3.630  -1.700  -3.946  0.00  0.00     0.014 A 
ATOM     11  C   LIG d   1       4.734  -1.175  -3.301  0.00  0.00     0.048 A 
ATOM     12  H   LIG d   1       9.110  -3.001  -3.646  0.00  0.00     0.063 H 
ATOM     13  H   LIG d   1       7.634  -1.273  -2.704  0.00  0.00     0.062 H 
ATOM     14  H   LIG d   1       5.807  -4.750  -5.708  0.00  0.00     0.065 H 
ATOM     15  H   LIG d   1       2.627  -1.306  -3.885  0.00  0.00     0.081 H 
ENDROOT
BRANCH  11  16
ATOM     16  C   LIG d   1       4.767  -0.002  -2.429  0.00  0.00     0.210 C 
ATOM     17  O   LIG d   1       4.525  -0.118  -1.244  0.00  0.00    -0.285 OA
BRANCH  16  18
ATOM     18  C   LIG d   1       5.097   1.338  -2.995  0.00  0.00     0.112 C 
ATOM     19  O   LIG d   1       4.210   2.131  -3.232  0.00  0.00    -0.541 OA
ATOM     20  O   LIG d   1       6.379   1.667  -3.242  0.00  0.00    -0.541 OA
ENDBRANCH  16  18
ENDBRANCH  11  16
TORSDOF 2
ENDMDL
MODEL 3
REMARK VINA RESULT:      -5.3      4.387      5.381
REMARK  2 active torsions:
REMARK  status: ('A' for Active; 'I' for Inactive)
REMARK    1  A    between atoms: C_11  and  C_12 
REMARK    2  A    between atoms: C_12  and  C_14 
ROOT
ATOM      1  C   LIG d   1       3.641  -1.225  -3.023  0.00  0.00    -0.047 A 
ATOM      2  C   LIG d   1       3.691  -2.367  -3.793  0.00  0.00    -0.051 A 
ATOM      3  C   LIG d   1       4.921  -2.850  -4.228  0.00  0.00     0.011 A 
ATOM      4  C   LIG d   1       6.105  -2.179  -3.885  0.00  0.00     0.048 A 
ATOM      5  C   LIG d   1       6.034  -1.028  -3.108  0.00  0.00    -0.024 A 
ATOM      6  C   LIG d   1       4.809  -0.558  -2.682  0.00  0.00     0.020 A 
ATOM      7 BR   LIG d   1       4.722   1.007  -1.626  0.00  0.00    -0.050 Br
ATOM      8  N   LIG d   1       7.159  -2.873  -4.447  0.00  0.00    -0.360 N 
ATOM      9  H   LIG d   1       8.092  -2.621  -4.362  0.00  0.00     0.165 HD
ATOM     10  C   LIG d   1       6.715  -3.946  -5.125  0.00  0.00     0.014 A 
ATOM     11  C   LIG d   1       5.337  -4.010  -5.042  0.00  0.00     0.048 A 
ATOM     12  H   LIG d   1       2.687  -0.846  -2.682  0.00  0.00     0.063 H 
ATOM     13  H   LIG d   1       2.780  -2.885  -4.056  0.00  0.00     0.062 H 
ATOM     14  H   LIG d   1       6.938  -0.503  -2.837  0.00  0.00     0.065 H 
ATOM     15  H   LIG d   1       7.340  -4.651  -5.653  0.00  0.00     0.081 H 
ENDROOT
BRANCH  11  16
ATOM     16  C   LIG d   1       4.465  -5.017  -5.645  0.00  0.00     0.210 C 
ATOM     17  O   LIG d   1       4.177  -6.022  -5.025  0.00  0.00    -0.285 OA
BRANCH  16  18
ATOM     18  C   LIG d   1       3.930  -4.811  -7.021  0.00  0.00     0.112 C 
ATOM     19  O   LIG d   1       3.359  -5.716  -7.592  0.00  0.00    -0.541 OA
ATOM     20  O   LIG d   1       4.080  -3.620  -7.631  0.00  0.00    -0.541 OA
ENDBRANCH  16  18
ENDBRANCH  11  16
TORSDOF 2
ENDMDL
MODEL 4
REMARK VINA RESULT:      -5.2      4.078      5.246
REMARK  2 active torsions:
REMARK  status: ('A' for Active; 'I' for Inactive)
REMARK    1  A    between atoms: C_11  and  C_12 
REMARK    2  A    between atoms: C_12  and  C_14 
ROOT
ATOM      1  C   LIG d   1       3.043   0.007  -4.270  0.00  0.00    -0.047 A 
ATOM      2  C   LIG d   1       2.822   0.260  -5.607  0.00  0.00    -0.051 A 
ATOM      3  C   LIG d   1       3.528  -0.456  -6.569  0.00  0.00     0.011 A 
ATOM      4  C   LIG d   1       4.460  -1.432  -6.180  0.00  0.00     0.048 A 
ATOM      5  C   LIG d   1       4.669  -1.672  -4.826  0.00  0.00    -0.024 A 
ATOM      6  C   LIG d   1       3.963  -0.956  -3.882  0.00  0.00     0.020 A 
ATOM      7 BR   LIG d   1       4.253  -1.289  -2.044  0.00  0.00    -0.050 Br
ATOM      8  N   LIG d   1       5.003  -1.974  -7.329  0.00  0.00    -0.360 N 
ATOM      9  H   LIG d   1       5.676  -2.673  -7.342  0.00  0.00     0.165 HD
ATOM     10  C   LIG d   1       4.471  -1.403  -8.423  0.00  0.00     0.014 A 
ATOM     11  C   LIG d   1       3.545  -0.449  -8.045  0.00  0.00     0.048 A 
ATOM     12  H   LIG d   1       2.496   0.561  -3.520  0.00  0.00     0.063 H 
ATOM     13  H   LIG d   1       2.105   1.010  -5.907  0.00  0.00     0.062 H 
ATOM     14  H   LIG d   1       5.383  -2.420  -4.515  0.00  0.00     0.065 H 
ATOM     15  H   LIG d   1       4.727  -1.652  -9.443  0.00  0.00     0.081 H 
ENDROOT
BRANCH  11  16
ATOM     16  C   LIG d   1       2.749   0.403  -8.927  0.00  0.00     0.210 C 
ATOM     17  O   LIG d   1       1.819  -0.069  -9.552  0.00  0.00    -0.285 OA
BRANCH  16  18
ATOM     18  C   LIG d   1       3.078   1.851  -9.062  0.00  0.00     0.112 C 
ATOM     19  O   LIG d   1       2.875   2.608  -8.137  0.00  0.00    -0.541 OA
ATOM     20  O   LIG d   1       3.603   2.318 -10.211  0.00  0.00    -0.541 OA
ENDBRANCH  16  18
ENDBRANCH  11  16
TORSDOF 2
ENDMDL
MODEL 5
REMARK VINA RESULT:      -5.2      3.958      5.272
REMARK  2 active torsions:
REMARK  status: ('A' for Active; 'I' for Inactive)
REMARK    1  A    between atoms: C_11  and  C_12 
REMARK    2  A    between atoms: C_12  and  C_14 
ROOT
ATOM      1  C   LIG d   1       4.346  -1.499  -2.537  0.00  0.00    -0.047 A 
ATOM      2  C   LIG d   1       4.542  -2.672  -3.232  0.00  0.00    -0.051 A 
ATOM      3  C   LIG d   1       4.521  -2.660  -4.624  0.00  0.00     0.011 A 
ATOM      4  C   LIG d   1       4.301  -1.458  -5.316  0.00  0.00     0.048 A 
ATOM      5  C   LIG d   1       4.105  -0.284  -4.596  0.00  0.00    -0.024 A 
ATOM      6  C   LIG d   1       4.129  -0.309  -3.217  0.00  0.00     0.020 A 
ATOM      7 BR   LIG d   1       3.861   1.291  -2.247  0.00  0.00    -0.050 Br
ATOM      8  N   LIG d   1       4.331  -1.741  -6.668  0.00  0.00    -0.360 N 
ATOM      9  H   LIG d   1       4.206  -1.085  -7.370  0.00  0.00     0.165 HD
ATOM     10  C   LIG d   1       4.558  -3.051  -6.875  0.00  0.00     0.014 A 
ATOM     11  C   LIG d   1       4.689  -3.697  -5.661  0.00  0.00     0.048 A 
ATOM     12  H   LIG d   1       4.363  -1.504  -1.456  0.00  0.00     0.063 H 
ATOM     13  H   LIG d   1       4.712  -3.597  -2.700  0.00  0.00     0.062 H 
ATOM     14  H   LIG d   1       3.935   0.646  -5.117  0.00  0.00     0.065 H 
ATOM     15  H   LIG d   1       4.628  -3.524  -7.844  0.00  0.00     0.081 H 
ENDROOT
BRANCH  11  16
ATOM     16  C   LIG d   1       4.936  -5.122  -5.445  0.00  0.00     0.210 C 
ATOM     17  O   LIG d   1       4.031  -5.848  -5.084  0.00  0.00    -0.285 OA
BRANCH  16  18
ATOM     18  C   LIG d   1       6.299  -5.684  -5.668  0.00  0.00     0.112 C 
ATOM     19  O   LIG d   1       7.278  -5.058  -5.317  0.00  0.00    -0.541 OA
ATOM     20  O   LIG d   1       6.444  -6.886  -6.257  0.00  0.00    -0.541 OA
ENDBRANCH  16  18
ENDBRANCH  11  16
TORSDOF 2
ENDMDL
MODEL 6
REMARK VINA RESULT:      -5.2      1.701      2.344
REMARK  2 active torsions:
REMARK  status: ('A' for Active; 'I' for Inactive)
REMARK    1  A    between atoms: C_11  and  C_12 
REMARK    2  A    between atoms: C_12  and  C_14 
ROOT
ATOM      1  C   LIG d   1       5.046  -0.310  -8.136  0.00  0.00    -0.047 A 
ATOM      2  C   LIG d   1       5.234  -0.339  -6.770  0.00  0.00    -0.051 A 
ATOM      3  C   LIG d   1       4.140  -0.203  -5.921  0.00  0.00     0.011 A 
ATOM      4  C   LIG d   1       2.851  -0.038  -6.452  0.00  0.00     0.048 A 
ATOM      5  C   LIG d   1       2.681  -0.011  -7.832  0.00  0.00    -0.024 A 
ATOM      6  C   LIG d   1       3.773  -0.147  -8.664  0.00  0.00     0.020 A 
ATOM      7 BR   LIG d   1       3.534  -0.109 -10.538  0.00  0.00    -0.050 Br
ATOM      8  N   LIG d   1       1.971   0.070  -5.393  0.00  0.00    -0.360 N 
ATOM      9  H   LIG d   1       1.013   0.193  -5.482  0.00  0.00     0.165 HD
ATOM     10  C   LIG d   1       2.625  -0.017  -4.220  0.00  0.00     0.014 A 
ATOM     11  C   LIG d   1       3.976  -0.188  -4.454  0.00  0.00     0.048 A 
ATOM     12  H   LIG d   1       5.894  -0.416  -8.798  0.00  0.00     0.063 H 
ATOM     13  H   LIG d   1       6.226  -0.467  -6.361  0.00  0.00     0.062 H 
ATOM     14  H   LIG d   1       1.695   0.115  -8.253  0.00  0.00     0.065 H 
ATOM     15  H   LIG d   1       2.164   0.037  -3.245  0.00  0.00     0.081 H 
ENDROOT
BRANCH  11  16
ATOM     16  C   LIG d   1       5.032  -0.320  -3.452  0.00  0.00     0.210 C 
ATOM     17  O   LIG d   1       5.536  -1.405  -3.238  0.00  0.00    -0.285 OA
BRANCH  16  18
ATOM     18  C   LIG d   1       5.490   0.878  -2.691  0.00  0.00     0.112 C 
ATOM     19  O   LIG d   1       5.036   1.107  -1.590  0.00  0.00    -0.541 OA
ATOM     20  O   LIG d   1       6.409   1.704  -3.225  0.00  0.00    -0.541 OA
ENDBRANCH  16  18
ENDBRANCH  11  16
TORSDOF 2
ENDMDL
MODEL 7
REMARK VINA RESULT:      -5.1      3.151      3.999
REMARK  2 active torsions:
REMARK  status: ('A' for Active; 'I' for Inactive)
REMARK    1  A    between atoms: C_11  and  C_12 
REMARK    2  A    between atoms: C_12  and  C_14 
ROOT
ATOM      1  C   LIG d   1       5.561  -4.226  -5.151  0.00  0.00    -0.047 A 
ATOM      2  C   LIG d   1       4.831  -3.160  -4.672  0.00  0.00    -0.051 A 
ATOM      3  C   LIG d   1       5.485  -2.101  -4.051  0.00  0.00     0.011 A 
ATOM      4  C   LIG d   1       6.882  -2.116  -3.915  0.00  0.00     0.048 A 
ATOM      5  C   LIG d   1       7.602  -3.200  -4.405  0.00  0.00    -0.024 A 
ATOM      6  C   LIG d   1       6.943  -4.245  -5.018  0.00  0.00     0.020 A 
ATOM      7 BR   LIG d   1       7.928  -5.715  -5.682  0.00  0.00    -0.050 Br
ATOM      8  N   LIG d   1       7.254  -0.953  -3.269  0.00  0.00    -0.360 N 
ATOM      9  H   LIG d   1       8.167  -0.713  -3.048  0.00  0.00     0.165 HD
ATOM     10  C   LIG d   1       6.176  -0.199  -2.988  0.00  0.00     0.014 A 
ATOM     11  C   LIG d   1       5.034  -0.835  -3.439  0.00  0.00     0.048 A 
ATOM     12  H   LIG d   1       5.056  -5.051  -5.635  0.00  0.00     0.063 H 
ATOM     13  H   LIG d   1       3.756  -3.147  -4.777  0.00  0.00     0.062 H 
ATOM     14  H   LIG d   1       8.677  -3.224  -4.306  0.00  0.00     0.065 H 
ATOM     15  H   LIG d   1       6.198   0.758  -2.487  0.00  0.00     0.081 H 
ENDROOT
BRANCH  11  16
ATOM     16  C   LIG d   1       3.658  -0.356  -3.326  0.00  0.00     0.210 C 
ATOM     17  O   LIG d   1       2.813  -1.054  -2.800  0.00  0.00    -0.285 OA
BRANCH  16  18
ATOM     18  C   LIG d   1       3.290   0.988  -3.856  0.00  0.00     0.112 C 
ATOM     19  O   LIG d   1       3.550   1.985  -3.215  0.00  0.00    -0.541 OA
ATOM     20  O   LIG d   1       2.671   1.096  -5.046  0.00  0.00    -0.541 OA
ENDBRANCH  16  18
ENDBRANCH  11  16
TORSDOF 2
ENDMDL
MODEL 8
REMARK VINA RESULT:      -4.8      3.406      4.524
REMARK  2 active torsions:
REMARK  status: ('A' for Active; 'I' for Inactive)
REMARK    1  A    between atoms: C_11  and  C_12 
REMARK    2  A    between atoms: C_12  and  C_14 
ROOT
ATOM      1  C   LIG d   1       5.760  -4.943  -5.597  0.00  0.00    -0.047 A 
ATOM      2  C   LIG d   1       5.216  -3.758  -5.151  0.00  0.00    -0.051 A 
ATOM      3  C   LIG d   1       6.017  -2.843  -4.474  0.00  0.00     0.011 A 
ATOM      4  C   LIG d   1       7.374  -3.125  -4.249  0.00  0.00     0.048 A 
ATOM      5  C   LIG d   1       7.905  -4.326  -4.707  0.00  0.00    -0.024 A 
ATOM      6  C   LIG d   1       7.101  -5.225  -5.376  0.00  0.00     0.020 A 
ATOM      7 BR   LIG d   1       7.831  -6.854  -5.995  0.00  0.00    -0.050 Br
ATOM      8  N   LIG d   1       7.916  -2.054  -3.564  0.00  0.00    -0.360 N 
ATOM      9  H   LIG d   1       8.842  -1.993  -3.283  0.00  0.00     0.165 HD
ATOM     10  C   LIG d   1       6.985  -1.110  -3.343  0.00  0.00     0.014 A 
ATOM     11  C   LIG d   1       5.776  -1.516  -3.875  0.00  0.00     0.048 A 
ATOM     12  H   LIG d   1       5.141  -5.656  -6.123  0.00  0.00     0.063 H 
ATOM     13  H   LIG d   1       4.172  -3.541  -5.325  0.00  0.00     0.062 H 
ATOM     14  H   LIG d   1       8.947  -4.553  -4.540  0.00  0.00     0.065 H 
ATOM     15  H   LIG d   1       7.156  -0.175  -2.828  0.00  0.00     0.081 H 
ENDROOT
BRANCH  11  16
ATOM     16  C   LIG d   1       4.511  -0.784  -3.843  0.00  0.00     0.210 C 
ATOM     17  O   LIG d   1       4.391   0.250  -4.469  0.00  0.00    -0.285 OA
BRANCH  16  18
ATOM     18  C   LIG d   1       3.367  -1.308  -3.042  0.00  0.00     0.112 C 
ATOM     19  O   LIG d   1       2.304  -0.724  -3.050  0.00  0.00    -0.541 OA
ATOM     20  O   LIG d   1       3.514  -2.428  -2.310  0.00  0.00    -0.541 OA
ENDBRANCH  16  18
ENDBRANCH  11  16
TORSDOF 2
ENDMDL
MODEL 9
REMARK VINA RESULT:      -4.7      7.998      9.333
REMARK  2 active torsions:
REMARK  status: ('A' for Active; 'I' for Inactive)
REMARK    1  A    between atoms: C_11  and  C_12 
REMARK    2  A    between atoms: C_12  and  C_14 
ROOT
ATOM      1  C   LIG d   1       9.170   4.712  -4.794  0.00  0.00    -0.047 A 
ATOM      2  C   LIG d   1       9.507   5.776  -3.985  0.00  0.00    -0.051 A 
ATOM      3  C   LIG d   1      10.164   5.546  -2.781  0.00  0.00     0.011 A 
ATOM      4  C   LIG d   1      10.485   4.235  -2.391  0.00  0.00     0.048 A 
ATOM      5  C   LIG d   1      10.137   3.175  -3.220  0.00  0.00    -0.024 A 
ATOM      6  C   LIG d   1       9.486   3.416  -4.412  0.00  0.00     0.020 A 
ATOM      7 BR   LIG d   1       9.017   1.968  -5.533  0.00  0.00    -0.050 Br
ATOM      8  N   LIG d   1      11.125   4.306  -1.169  0.00  0.00    -0.360 N 
ATOM      9  H   LIG d   1      11.453   3.539  -0.674  0.00  0.00     0.165 HD
ATOM     10  C   LIG d   1      11.232   5.583  -0.760  0.00  0.00     0.014 A 
ATOM     11  C   LIG d   1      10.661   6.420  -1.700  0.00  0.00     0.048 A 
ATOM     12  H   LIG d   1       8.660   4.887  -5.730  0.00  0.00     0.063 H 
ATOM     13  H   LIG d   1       9.261   6.785  -4.285  0.00  0.00     0.062 H 
ATOM     14  H   LIG d   1      10.379   2.162  -2.932  0.00  0.00     0.065 H 
ATOM     15  H   LIG d   1      11.692   5.905   0.163  0.00  0.00     0.081 H 
ENDROOT
BRANCH  11  16
ATOM     16  C   LIG d   1      10.563   7.877  -1.635  0.00  0.00     0.210 C 
ATOM     17  O   LIG d   1      11.380   8.569  -2.211  0.00  0.00    -0.285 OA
BRANCH  16  18
ATOM     18  C   LIG d   1       9.459   8.516  -0.861  0.00  0.00     0.112 C 
ATOM     19  O   LIG d   1       8.367   7.991  -0.817  0.00  0.00    -0.541 OA
ATOM     20  O   LIG d   1       9.676   9.674  -0.210  0.00  0.00    -0.541 OA
ENDBRANCH  16  18
ENDBRANCH  11  16
TORSDOF 2
ENDMDL
MODEL 10
REMARK VINA RESULT:      -4.7      2.177      2.999
REMARK  2 active torsions:
REMARK  status: ('A' for Active; 'I' for Inactive)
REMARK    1  A    between atoms: C_11  and  C_12 
REMARK    2  A    between atoms: C_12  and  C_14 
ROOT
ATOM      1  C   LIG d   1       5.494  -4.420  -5.359  0.00  0.00    -0.047 A 
ATOM      2  C   LIG d   1       5.214  -3.429  -4.443  0.00  0.00    -0.051 A 
ATOM      3  C   LIG d   1       4.611  -2.249  -4.867  0.00  0.00     0.011 A 
ATOM      4  C   LIG d   1       4.287  -2.070  -6.222  0.00  0.00     0.048 A 
ATOM      5  C   LIG d   1       4.577  -3.081  -7.131  0.00  0.00    -0.024 A 
ATOM      6  C   LIG d   1       5.176  -4.246  -6.698  0.00  0.00     0.020 A 
ATOM      7 BR   LIG d   1       5.566  -5.616  -7.940  0.00  0.00    -0.050 Br
ATOM      8  N   LIG d   1       3.707  -0.823  -6.353  0.00  0.00    -0.360 N 
ATOM      9  H   LIG d   1       3.390  -0.448  -7.190  0.00  0.00     0.165 HD
ATOM     10  C   LIG d   1       3.641  -0.200  -5.163  0.00  0.00     0.014 A 
ATOM     11  C   LIG d   1       4.180  -1.014  -4.184  0.00  0.00     0.048 A 
ATOM     12  H   LIG d   1       5.962  -5.338  -5.032  0.00  0.00     0.063 H 
ATOM     13  H   LIG d   1       5.462  -3.567  -3.401  0.00  0.00     0.062 H 
ATOM     14  H   LIG d   1       4.333  -2.955  -8.175  0.00  0.00     0.065 H 
ATOM     15  H   LIG d   1       3.230   0.785  -4.997  0.00  0.00     0.081 H 
ENDROOT
BRANCH  11  16
ATOM     16  C   LIG d   1       4.306  -0.710  -2.759  0.00  0.00     0.210 C 
ATOM     17  O   LIG d   1       4.301  -1.610  -1.943  0.00  0.00    -0.285 OA
BRANCH  16  18
ATOM     18  C   LIG d   1       4.440   0.705  -2.308  0.00  0.00     0.112 C 
ATOM     19  O   LIG d   1       5.532   1.232  -2.280  0.00  0.00    -0.541 OA
ATOM     20  O   LIG d   1       3.349   1.398  -1.934  0.00  0.00    -0.541 OA
ENDBRANCH  16  18
ENDBRANCH  11  16
TORSDOF 2
ENDMDL
