MODEL 1
REMARK VINA RESULT:      -6.0      0.000      0.000
REMARK  8 active torsions:
REMARK  status: ('A' for Active; 'I' for Inactive)
REMARK    1  A    between atoms: C_1  and  C_2 
REMARK    2  A    between atoms: C_2  and  C_3 
REMARK    3  A    between atoms: C_2  and  N_4 
REMARK    4  A    between atoms: N_4  and  C_5 
REMARK       I    between atoms: N_4  and  C_20 
REMARK    5  A    between atoms: C_5  and  C_6 
REMARK    6  A    between atoms: C_10  and  O_18 
REMARK    7  A    between atoms: O_18  and  C_19 
REMARK    8  A    between atoms: C_20  and  C_22 
ROOT
ATOM      1  C   LIG d   1       6.061  -3.774  -5.020  0.00  0.00     0.045 C 
ATOM      2  H   LIG d   1       7.123  -3.871  -5.291  0.00  0.00     0.052 H 
ATOM      3  H   LIG d   1       5.800  -4.545  -4.280  0.00  0.00     0.052 H 
ENDROOT
BRANCH   1   4
ATOM      4  N   LIG d   1       5.823  -2.446  -4.448  0.00  0.00    -0.290 N 
ATOM      5  C   LIG d   1       4.692  -2.204  -3.755  0.00  0.00     0.249 C 
ATOM      6  O   LIG d   1       3.925  -3.114  -3.506  0.00  0.00    -0.270 OA
BRANCH   4   7
ATOM      7  C   LIG d   1       6.814  -1.383  -4.628  0.00  0.00     0.021 C 
ATOM      8  H   LIG d   1       6.715  -0.699  -3.771  0.00  0.00     0.050 H 
BRANCH   7   9
ATOM      9  C   LIG d   1       8.215  -1.993  -4.671  0.00  0.00    -0.047 C 
ATOM     10  H   LIG d   1       8.195  -2.989  -4.206  0.00  0.00     0.025 H 
ATOM     11  H   LIG d   1       8.915  -1.345  -4.120  0.00  0.00     0.025 H 
ATOM     12  H   LIG d   1       8.544  -2.082  -5.717  0.00  0.00     0.025 H 
ENDBRANCH   7   9
BRANCH   7  13
ATOM     13  C   LIG d   1       6.538  -0.646  -5.940  0.00  0.00    -0.047 C 
ATOM     14  H   LIG d   1       6.773  -1.306  -6.788  0.00  0.00     0.025 H 
ATOM     15  H   LIG d   1       7.165   0.257  -5.993  0.00  0.00     0.025 H 
ATOM     16  H   LIG d   1       5.477  -0.359  -5.983  0.00  0.00     0.025 H 
ENDBRANCH   7  13
ENDBRANCH   4   7
BRANCH   5  17
ATOM     17  C   LIG d   1       4.385  -0.832  -3.298  0.00  0.00     0.055 A 
ATOM     18  C   LIG d   1       3.647   0.035  -4.105  0.00  0.00     0.040 A 
ATOM     19  N   LIG d   1       3.373   1.257  -3.697  0.00  0.00    -0.263 NA
ATOM     20  H   LIG d   1       3.297  -0.298  -5.070  0.00  0.00     0.084 H 
ATOM     21  C   LIG d   1       3.779   1.709  -2.526  0.00  0.00     0.028 A 
ATOM     22  C   LIG d   1       4.514   0.910  -1.668  0.00  0.00    -0.043 A 
ATOM     23  H   LIG d   1       3.532   2.718  -2.231  0.00  0.00     0.083 H 
ATOM     24  C   LIG d   1       4.834  -0.380  -2.052  0.00  0.00    -0.047 A 
ATOM     25  H   LIG d   1       4.840   1.292  -0.712  0.00  0.00     0.063 H 
ATOM     26  H   LIG d   1       5.411  -1.024  -1.404  0.00  0.00     0.063 H 
ENDBRANCH   5  17
ENDBRANCH   1   4
BRANCH   1  27
ATOM     27  C   LIG d   1       5.211  -3.950  -6.251  0.00  0.00     0.035 A 
ATOM     28  C   LIG d   1       4.222  -4.956  -6.286  0.00  0.00     0.254 A 
ATOM     29  N   LIG d   1       3.439  -5.141  -7.363  0.00  0.00    -0.322 N 
ATOM     30  O   LIG d   1       4.069  -5.673  -5.311  0.00  0.00    -0.268 OA
ATOM     31  C   LIG d   1       3.584  -4.355  -8.489  0.00  0.00     0.049 A 
ATOM     32  H   LIG d   1       2.675  -5.932  -7.340  0.00  0.00     0.169 HD
ATOM     33  C   LIG d   1       4.560  -3.341  -8.506  0.00  0.00     0.002 A 
ATOM     34  C   LIG d   1       2.778  -4.552  -9.605  0.00  0.00    -0.034 A 
ATOM     35  C   LIG d   1       5.402  -3.145  -7.325  0.00  0.00    -0.043 A 
ATOM     36  C   LIG d   1       4.713  -2.540  -9.644  0.00  0.00    -0.011 A 
ATOM     37  H   LIG d   1       6.159  -2.375  -7.310  0.00  0.00     0.063 H 
ATOM     38  C   LIG d   1       3.903  -2.752 -10.740  0.00  0.00     0.121 A 
ATOM     39  H   LIG d   1       5.461  -1.761  -9.663  0.00  0.00     0.066 H 
ATOM     40  C   LIG d   1       2.938  -3.757 -10.718  0.00  0.00    -0.018 A 
ATOM     41  H   LIG d   1       2.309  -3.914 -11.583  0.00  0.00     0.066 H 
ATOM     42  H   LIG d   1       2.027  -5.328  -9.598  0.00  0.00     0.064 H 
BRANCH  38  43
ATOM     43  O   LIG d   1       4.047  -1.977 -11.848  0.00  0.00    -0.495 OA
BRANCH  43  44
ATOM     44  C   LIG d   1       4.379  -0.603 -11.639  0.00  0.00     0.079 C 
ATOM     45  H   LIG d   1       4.611  -0.438 -10.577  0.00  0.00     0.066 H 
ATOM     46  H   LIG d   1       3.525   0.029 -11.929  0.00  0.00     0.066 H 
ATOM     47  H   LIG d   1       5.253  -0.339 -12.251  0.00  0.00     0.066 H 
ENDBRANCH  43  44
ENDBRANCH  38  43
ENDBRANCH   1  27
TORSDOF 8
ENDMDL
MODEL 2
REMARK VINA RESULT:      -5.6      3.231      5.459
REMARK  8 active torsions:
REMARK  status: ('A' for Active; 'I' for Inactive)
REMARK    1  A    between atoms: C_1  and  C_2 
REMARK    2  A    between atoms: C_2  and  C_3 
REMARK    3  A    between atoms: C_2  and  N_4 
REMARK    4  A    between atoms: N_4  and  C_5 
REMARK       I    between atoms: N_4  and  C_20 
REMARK    5  A    between atoms: C_5  and  C_6 
REMARK    6  A    between atoms: C_10  and  O_18 
REMARK    7  A    between atoms: O_18  and  C_19 
REMARK    8  A    between atoms: C_20  and  C_22 
ROOT
ATOM      1  C   LIG d   1       7.449  -3.366  -6.561  0.00  0.00     0.045 C 
ATOM      2  H   LIG d   1       7.096  -3.332  -7.603  0.00  0.00     0.052 H 
ATOM      3  H   LIG d   1       8.482  -2.991  -6.512  0.00  0.00     0.052 H 
ENDROOT
BRANCH   1   4
ATOM      4  N   LIG d   1       6.584  -2.527  -5.727  0.00  0.00    -0.290 N 
ATOM      5  C   LIG d   1       6.864  -2.364  -4.419  0.00  0.00     0.249 C 
ATOM      6  O   LIG d   1       7.894  -2.815  -3.956  0.00  0.00    -0.270 OA
BRANCH   4   7
ATOM      7  C   LIG d   1       5.417  -1.866  -6.315  0.00  0.00     0.021 C 
ATOM      8  H   LIG d   1       4.703  -1.681  -5.497  0.00  0.00     0.050 H 
BRANCH   7   9
ATOM      9  C   LIG d   1       5.847  -0.550  -6.963  0.00  0.00    -0.047 C 
ATOM     10  H   LIG d   1       4.971  -0.058  -7.410  0.00  0.00     0.025 H 
ATOM     11  H   LIG d   1       6.592  -0.754  -7.748  0.00  0.00     0.025 H 
ATOM     12  H   LIG d   1       6.289   0.108  -6.201  0.00  0.00     0.025 H 
ENDBRANCH   7   9
BRANCH   7  13
ATOM     13  C   LIG d   1       4.795  -2.778  -7.375  0.00  0.00    -0.047 C 
ATOM     14  H   LIG d   1       5.183  -2.503  -8.367  0.00  0.00     0.025 H 
ATOM     15  H   LIG d   1       3.701  -2.661  -7.364  0.00  0.00     0.025 H 
ATOM     16  H   LIG d   1       5.056  -3.824  -7.158  0.00  0.00     0.025 H 
ENDBRANCH   7  13
ENDBRANCH   4   7
BRANCH   5  17
ATOM     17  C   LIG d   1       5.919  -1.635  -3.546  0.00  0.00     0.055 A 
ATOM     18  C   LIG d   1       6.161  -0.308  -3.188  0.00  0.00     0.040 A 
ATOM     19  N   LIG d   1       5.319   0.339  -2.411  0.00  0.00    -0.263 NA
ATOM     20  H   LIG d   1       7.047   0.191  -3.553  0.00  0.00     0.084 H 
ATOM     21  C   LIG d   1       4.225  -0.229  -1.941  0.00  0.00     0.028 A 
ATOM     22  C   LIG d   1       3.913  -1.541  -2.250  0.00  0.00    -0.043 A 
ATOM     23  H   LIG d   1       3.562   0.340  -1.306  0.00  0.00     0.083 H 
ATOM     24  C   LIG d   1       4.769  -2.268  -3.059  0.00  0.00    -0.047 A 
ATOM     25  H   LIG d   1       3.014  -1.994  -1.860  0.00  0.00     0.063 H 
ATOM     26  H   LIG d   1       4.552  -3.295  -3.312  0.00  0.00     0.063 H 
ENDBRANCH   5  17
ENDBRANCH   1   4
BRANCH   1  27
ATOM     27  C   LIG d   1       7.404  -4.786  -6.062  0.00  0.00     0.035 A 
ATOM     28  C   LIG d   1       8.604  -5.456  -5.739  0.00  0.00     0.254 A 
ATOM     29  N   LIG d   1       8.606  -6.721  -5.284  0.00  0.00    -0.322 N 
ATOM     30  O   LIG d   1       9.665  -4.870  -5.869  0.00  0.00    -0.268 OA
ATOM     31  C   LIG d   1       7.426  -7.421  -5.128  0.00  0.00     0.049 A 
ATOM     32  H   LIG d   1       9.565  -7.199  -5.036  0.00  0.00     0.169 HD
ATOM     33  C   LIG d   1       6.203  -6.799  -5.443  0.00  0.00     0.002 A 
ATOM     34  C   LIG d   1       7.430  -8.732  -4.665  0.00  0.00    -0.034 A 
ATOM     35  C   LIG d   1       6.213  -5.419  -5.930  0.00  0.00    -0.043 A 
ATOM     36  C   LIG d   1       5.003  -7.503  -5.287  0.00  0.00    -0.011 A 
ATOM     37  H   LIG d   1       5.290  -4.916  -6.179  0.00  0.00     0.063 H 
ATOM     38  C   LIG d   1       5.030  -8.802  -4.826  0.00  0.00     0.121 A 
ATOM     39  H   LIG d   1       4.062  -7.030  -5.528  0.00  0.00     0.066 H 
ATOM     40  C   LIG d   1       6.244  -9.414  -4.516  0.00  0.00    -0.018 A 
ATOM     41  H   LIG d   1       6.252 -10.432  -4.155  0.00  0.00     0.066 H 
ATOM     42  H   LIG d   1       8.366  -9.216  -4.422  0.00  0.00     0.064 H 
BRANCH  38  43
ATOM     43  O   LIG d   1       3.867  -9.490  -4.673  0.00  0.00    -0.495 OA
BRANCH  43  44
ATOM     44  C   LIG d   1       3.663 -10.148  -3.421  0.00  0.00     0.079 C 
ATOM     45  H   LIG d   1       2.584 -10.253  -3.233  0.00  0.00     0.066 H 
ATOM     46  H   LIG d   1       4.118  -9.552  -2.614  0.00  0.00     0.066 H 
ATOM     47  H   LIG d   1       4.130 -11.143  -3.448  0.00  0.00     0.066 H 
ENDBRANCH  43  44
ENDBRANCH  38  43
ENDBRANCH   1  27
TORSDOF 8
ENDMDL
MODEL 3
REMARK VINA RESULT:      -5.6      2.515      3.751
REMARK  8 active torsions:
REMARK  status: ('A' for Active; 'I' for Inactive)
REMARK    1  A    between atoms: C_1  and  C_2 
REMARK    2  A    between atoms: C_2  and  C_3 
REMARK    3  A    between atoms: C_2  and  N_4 
REMARK    4  A    between atoms: N_4  and  C_5 
REMARK       I    between atoms: N_4  and  C_20 
REMARK    5  A    between atoms: C_5  and  C_6 
REMARK    6  A    between atoms: C_10  and  O_18 
REMARK    7  A    between atoms: O_18  and  C_19 
REMARK    8  A    between atoms: C_20  and  C_22 
ROOT
ATOM      1  C   LIG d   1       4.551   0.133  -7.953  0.00  0.00     0.045 C 
ATOM      2  H   LIG d   1       4.114   1.143  -7.960  0.00  0.00     0.052 H 
ATOM      3  H   LIG d   1       5.513   0.146  -8.485  0.00  0.00     0.052 H 
ENDROOT
BRANCH   1   4
ATOM      4  N   LIG d   1       4.765  -0.295  -6.568  0.00  0.00    -0.290 N 
ATOM      5  C   LIG d   1       3.763  -0.204  -5.672  0.00  0.00     0.249 C 
ATOM      6  O   LIG d   1       2.650   0.125  -6.036  0.00  0.00    -0.270 OA
BRANCH   4   7
ATOM      7  C   LIG d   1       6.068  -0.824  -6.157  0.00  0.00     0.021 C 
ATOM      8  H   LIG d   1       6.172  -0.630  -5.079  0.00  0.00     0.050 H 
BRANCH   7   9
ATOM      9  C   LIG d   1       6.123  -2.326  -6.442  0.00  0.00    -0.047 C 
ATOM     10  H   LIG d   1       5.375  -2.843  -5.824  0.00  0.00     0.025 H 
ATOM     11  H   LIG d   1       7.126  -2.709  -6.201  0.00  0.00     0.025 H 
ATOM     12  H   LIG d   1       5.907  -2.505  -7.506  0.00  0.00     0.025 H 
ENDBRANCH   7   9
BRANCH   7  13
ATOM     13  C   LIG d   1       7.176  -0.116  -6.941  0.00  0.00    -0.047 C 
ATOM     14  H   LIG d   1       6.780   0.223  -7.910  0.00  0.00     0.025 H 
ATOM     15  H   LIG d   1       8.009  -0.814  -7.110  0.00  0.00     0.025 H 
ATOM     16  H   LIG d   1       7.533   0.751  -6.368  0.00  0.00     0.025 H 
ENDBRANCH   7  13
ENDBRANCH   4   7
BRANCH   5  17
ATOM     17  C   LIG d   1       4.016  -0.502  -4.246  0.00  0.00     0.055 A 
ATOM     18  C   LIG d   1       4.589   0.459  -3.411  0.00  0.00     0.040 A 
ATOM     19  N   LIG d   1       4.813   0.192  -2.141  0.00  0.00    -0.263 NA
ATOM     20  H   LIG d   1       4.849   1.428  -3.810  0.00  0.00     0.084 H 
ATOM     21  C   LIG d   1       4.513  -0.977  -1.610  0.00  0.00     0.028 A 
ATOM     22  C   LIG d   1       3.941  -1.981  -2.371  0.00  0.00    -0.043 A 
ATOM     23  H   LIG d   1       4.714  -1.153  -0.564  0.00  0.00     0.083 H 
ATOM     24  C   LIG d   1       3.690  -1.754  -3.713  0.00  0.00    -0.047 A 
ATOM     25  H   LIG d   1       3.699  -2.934  -1.924  0.00  0.00     0.063 H 
ATOM     26  H   LIG d   1       3.249  -2.522  -4.331  0.00  0.00     0.063 H 
ENDBRANCH   5  17
ENDBRANCH   1   4
BRANCH   1  27
ATOM     27  C   LIG d   1       3.611  -0.826  -8.635  0.00  0.00     0.035 A 
ATOM     28  C   LIG d   1       2.444  -0.340  -9.262  0.00  0.00     0.254 A 
ATOM     29  N   LIG d   1       1.583  -1.163  -9.886  0.00  0.00    -0.322 N 
ATOM     30  O   LIG d   1       2.214   0.857  -9.243  0.00  0.00    -0.268 OA
ATOM     31  C   LIG d   1       1.804  -2.525  -9.925  0.00  0.00     0.049 A 
ATOM     32  H   LIG d   1       0.692  -0.736 -10.370  0.00  0.00     0.169 HD
ATOM     33  C   LIG d   1       2.950  -3.060  -9.308  0.00  0.00     0.002 A 
ATOM     34  C   LIG d   1       0.908  -3.375 -10.564  0.00  0.00    -0.034 A 
ATOM     35  C   LIG d   1       3.884  -2.154  -8.637  0.00  0.00    -0.043 A 
ATOM     36  C   LIG d   1       3.181  -4.440  -9.343  0.00  0.00    -0.011 A 
ATOM     37  H   LIG d   1       4.773  -2.536  -8.156  0.00  0.00     0.063 H 
ATOM     38  C   LIG d   1       2.280  -5.265  -9.983  0.00  0.00     0.121 A 
ATOM     39  H   LIG d   1       4.059  -4.856  -8.871  0.00  0.00     0.066 H 
ATOM     40  C   LIG d   1       1.146  -4.730 -10.592  0.00  0.00    -0.018 A 
ATOM     41  H   LIG d   1       0.447  -5.387 -11.091  0.00  0.00     0.066 H 
ATOM     42  H   LIG d   1       0.026  -2.971 -11.039  0.00  0.00     0.064 H 
BRANCH  38  43
ATOM     43  O   LIG d   1       2.499  -6.607 -10.020  0.00  0.00    -0.495 OA
BRANCH  43  44
ATOM     44  C   LIG d   1       3.491  -7.127  -9.132  0.00  0.00     0.079 C 
ATOM     45  H   LIG d   1       3.032  -7.344  -8.156  0.00  0.00     0.066 H 
ATOM     46  H   LIG d   1       4.292  -6.383  -9.002  0.00  0.00     0.066 H 
ATOM     47  H   LIG d   1       3.913  -8.050  -9.553  0.00  0.00     0.066 H 
ENDBRANCH  43  44
ENDBRANCH  38  43
ENDBRANCH   1  27
TORSDOF 8
ENDMDL
MODEL 4
REMARK VINA RESULT:      -5.5      2.610      4.759
REMARK  8 active torsions:
REMARK  status: ('A' for Active; 'I' for Inactive)
REMARK    1  A    between atoms: C_1  and  C_2 
REMARK    2  A    between atoms: C_2  and  C_3 
REMARK    3  A    between atoms: C_2  and  N_4 
REMARK    4  A    between atoms: N_4  and  C_5 
REMARK       I    between atoms: N_4  and  C_20 
REMARK    5  A    between atoms: C_5  and  C_6 
REMARK    6  A    between atoms: C_10  and  O_18 
REMARK    7  A    between atoms: O_18  and  C_19 
REMARK    8  A    between atoms: C_20  and  C_22 
ROOT
ATOM      1  C   LIG d   1       4.331  -2.094  -4.693  0.00  0.00     0.045 C 
ATOM      2  H   LIG d   1       4.036  -3.080  -5.083  0.00  0.00     0.052 H 
ATOM      3  H   LIG d   1       3.816  -1.908  -3.739  0.00  0.00     0.052 H 
ENDROOT
BRANCH   1   4
ATOM      4  N   LIG d   1       5.780  -2.068  -4.479  0.00  0.00    -0.290 N 
ATOM      5  C   LIG d   1       6.575  -2.929  -5.145  0.00  0.00     0.249 C 
ATOM      6  O   LIG d   1       6.106  -3.648  -6.006  0.00  0.00    -0.270 OA
BRANCH   4   7
ATOM      7  C   LIG d   1       6.365  -1.105  -3.543  0.00  0.00     0.021 C 
ATOM      8  H   LIG d   1       7.315  -1.533  -3.188  0.00  0.00     0.050 H 
BRANCH   7   9
ATOM      9  C   LIG d   1       6.609   0.223  -4.262  0.00  0.00    -0.047 C 
ATOM     10  H   LIG d   1       6.926   0.982  -3.532  0.00  0.00     0.025 H 
ATOM     11  H   LIG d   1       5.679   0.551  -4.751  0.00  0.00     0.025 H 
ATOM     12  H   LIG d   1       7.395   0.091  -5.020  0.00  0.00     0.025 H 
ENDBRANCH   7   9
BRANCH   7  13
ATOM     13  C   LIG d   1       5.405  -0.882  -2.374  0.00  0.00    -0.047 C 
ATOM     14  H   LIG d   1       5.640  -1.591  -1.565  0.00  0.00     0.025 H 
ATOM     15  H   LIG d   1       4.371  -1.044  -2.712  0.00  0.00     0.025 H 
ATOM     16  H   LIG d   1       5.513   0.147  -2.001  0.00  0.00     0.025 H 
ENDBRANCH   7  13
ENDBRANCH   4   7
BRANCH   5  17
ATOM     17  C   LIG d   1       8.017  -3.000  -4.828  0.00  0.00     0.055 A 
ATOM     18  C   LIG d   1       8.946  -2.287  -5.588  0.00  0.00     0.040 A 
ATOM     19  N   LIG d   1      10.230  -2.350  -5.305  0.00  0.00    -0.263 NA
ATOM     20  H   LIG d   1       8.608  -1.678  -6.413  0.00  0.00     0.084 H 
ATOM     21  C   LIG d   1      10.690  -3.081  -4.308  0.00  0.00     0.028 A 
ATOM     22  C   LIG d   1       9.833  -3.817  -3.508  0.00  0.00    -0.043 A 
ATOM     23  H   LIG d   1      11.752  -3.104  -4.112  0.00  0.00     0.083 H 
ATOM     24  C   LIG d   1       8.475  -3.789  -3.767  0.00  0.00    -0.047 A 
ATOM     25  H   LIG d   1      10.222  -4.410  -2.694  0.00  0.00     0.063 H 
ATOM     26  H   LIG d   1       7.784  -4.357  -3.161  0.00  0.00     0.063 H 
ENDBRANCH   5  17
ENDBRANCH   1   4
BRANCH   1  27
ATOM     27  C   LIG d   1       3.951  -1.027  -5.686  0.00  0.00     0.035 A 
ATOM     28  C   LIG d   1       3.161   0.067  -5.275  0.00  0.00     0.254 A 
ATOM     29  N   LIG d   1       2.805   1.043  -6.129  0.00  0.00    -0.322 N 
ATOM     30  O   LIG d   1       2.796   0.134  -4.113  0.00  0.00    -0.268 OA
ATOM     31  C   LIG d   1       3.193   1.002  -7.454  0.00  0.00     0.049 A 
ATOM     32  H   LIG d   1       2.197   1.881  -5.760  0.00  0.00     0.169 HD
ATOM     33  C   LIG d   1       3.976  -0.073  -7.915  0.00  0.00     0.002 A 
ATOM     34  C   LIG d   1       2.818   2.008  -8.338  0.00  0.00    -0.034 A 
ATOM     35  C   LIG d   1       4.362  -1.125  -6.974  0.00  0.00    -0.043 A 
ATOM     36  C   LIG d   1       4.372  -0.121  -9.257  0.00  0.00    -0.011 A 
ATOM     37  H   LIG d   1       4.964  -1.962  -7.299  0.00  0.00     0.063 H 
ATOM     38  C   LIG d   1       3.990   0.887 -10.116  0.00  0.00     0.121 A 
ATOM     39  H   LIG d   1       4.973  -0.944  -9.616  0.00  0.00     0.066 H 
ATOM     40  C   LIG d   1       3.214   1.949  -9.655  0.00  0.00    -0.018 A 
ATOM     41  H   LIG d   1       2.921   2.734 -10.338  0.00  0.00     0.066 H 
ATOM     42  H   LIG d   1       2.216   2.835  -7.991  0.00  0.00     0.064 H 
BRANCH  38  43
ATOM     43  O   LIG d   1       4.372   0.845 -11.421  0.00  0.00    -0.495 OA
BRANCH  43  44
ATOM     44  C   LIG d   1       4.899  -0.393 -11.903  0.00  0.00     0.079 C 
ATOM     45  H   LIG d   1       4.081  -1.011 -12.300  0.00  0.00     0.066 H 
ATOM     46  H   LIG d   1       5.394  -0.927 -11.077  0.00  0.00     0.066 H 
ATOM     47  H   LIG d   1       5.631  -0.195 -12.700  0.00  0.00     0.066 H 
ENDBRANCH  43  44
ENDBRANCH  38  43
ENDBRANCH   1  27
TORSDOF 8
ENDMDL
MODEL 5
REMARK VINA RESULT:      -5.5      2.878      4.679
REMARK  8 active torsions:
REMARK  status: ('A' for Active; 'I' for Inactive)
REMARK    1  A    between atoms: C_1  and  C_2 
REMARK    2  A    between atoms: C_2  and  C_3 
REMARK    3  A    between atoms: C_2  and  N_4 
REMARK    4  A    between atoms: N_4  and  C_5 
REMARK       I    between atoms: N_4  and  C_20 
REMARK    5  A    between atoms: C_5  and  C_6 
REMARK    6  A    between atoms: C_10  and  O_18 
REMARK    7  A    between atoms: O_18  and  C_19 
REMARK    8  A    between atoms: C_20  and  C_22 
ROOT
ATOM      1  C   LIG d   1       5.263  -0.201  -4.251  0.00  0.00     0.045 C 
ATOM      2  H   LIG d   1       4.538  -0.140  -3.426  0.00  0.00     0.052 H 
ATOM      3  H   LIG d   1       5.974   0.634  -4.177  0.00  0.00     0.052 H 
ENDROOT
BRANCH   1   4
ATOM      4  N   LIG d   1       5.991  -1.471  -4.168  0.00  0.00    -0.290 N 
ATOM      5  C   LIG d   1       7.310  -1.510  -4.437  0.00  0.00     0.249 C 
ATOM      6  O   LIG d   1       7.921  -0.477  -4.636  0.00  0.00    -0.270 OA
BRANCH   4   7
ATOM      7  C   LIG d   1       5.283  -2.697  -3.791  0.00  0.00     0.021 C 
ATOM      8  H   LIG d   1       6.024  -3.372  -3.336  0.00  0.00     0.050 H 
BRANCH   7   9
ATOM      9  C   LIG d   1       4.175  -2.361  -2.792  0.00  0.00    -0.047 C 
ATOM     10  H   LIG d   1       3.804  -1.343  -2.986  0.00  0.00     0.025 H 
ATOM     11  H   LIG d   1       4.575  -2.415  -1.768  0.00  0.00     0.025 H 
ATOM     12  H   LIG d   1       3.351  -3.080  -2.903  0.00  0.00     0.025 H 
ENDBRANCH   7   9
BRANCH   7  13
ATOM     13  C   LIG d   1       4.669  -3.335  -5.038  0.00  0.00    -0.047 C 
ATOM     14  H   LIG d   1       5.029  -4.370  -5.137  0.00  0.00     0.025 H 
ATOM     15  H   LIG d   1       4.963  -2.759  -5.928  0.00  0.00     0.025 H 
ATOM     16  H   LIG d   1       3.573  -3.336  -4.947  0.00  0.00     0.025 H 
ENDBRANCH   7  13
ENDBRANCH   4   7
BRANCH   5  17
ATOM     17  C   LIG d   1       8.016  -2.808  -4.491  0.00  0.00     0.055 A 
ATOM     18  C   LIG d   1       8.181  -3.476  -5.705  0.00  0.00     0.040 A 
ATOM     19  N   LIG d   1       8.810  -4.632  -5.752  0.00  0.00    -0.263 NA
ATOM     20  H   LIG d   1       7.791  -3.041  -6.613  0.00  0.00     0.084 H 
ATOM     21  C   LIG d   1       9.303  -5.202  -4.670  0.00  0.00     0.028 A 
ATOM     22  C   LIG d   1       9.182  -4.603  -3.428  0.00  0.00    -0.043 A 
ATOM     23  H   LIG d   1       9.812  -6.151  -4.754  0.00  0.00     0.083 H 
ATOM     24  C   LIG d   1       8.524  -3.390  -3.324  0.00  0.00    -0.047 A 
ATOM     25  H   LIG d   1       9.591  -5.080  -2.550  0.00  0.00     0.063 H 
ATOM     26  H   LIG d   1       8.411  -2.903  -2.367  0.00  0.00     0.063 H 
ENDBRANCH   5  17
ENDBRANCH   1   4
BRANCH   1  27
ATOM     27  C   LIG d   1       4.534  -0.127  -5.568  0.00  0.00     0.035 A 
ATOM     28  C   LIG d   1       3.128  -0.008  -5.586  0.00  0.00     0.254 A 
ATOM     29  N   LIG d   1       2.441   0.068  -6.739  0.00  0.00    -0.322 N 
ATOM     30  O   LIG d   1       2.521   0.034  -4.530  0.00  0.00    -0.268 OA
ATOM     31  C   LIG d   1       3.090   0.018  -7.957  0.00  0.00     0.049 A 
ATOM     32  H   LIG d   1       1.346   0.170  -6.704  0.00  0.00     0.169 HD
ATOM     33  C   LIG d   1       4.492  -0.106  -7.992  0.00  0.00     0.002 A 
ATOM     34  C   LIG d   1       2.377   0.089  -9.149  0.00  0.00    -0.034 A 
ATOM     35  C   LIG d   1       5.230  -0.181  -6.730  0.00  0.00    -0.043 A 
ATOM     36  C   LIG d   1       5.157  -0.158  -9.222  0.00  0.00    -0.011 A 
ATOM     37  H   LIG d   1       6.306  -0.276  -6.725  0.00  0.00     0.063 H 
ATOM     38  C   LIG d   1       4.430  -0.085 -10.393  0.00  0.00     0.121 A 
ATOM     39  H   LIG d   1       6.232  -0.254  -9.255  0.00  0.00     0.066 H 
ATOM     40  C   LIG d   1       3.043   0.038 -10.353  0.00  0.00    -0.018 A 
ATOM     41  H   LIG d   1       2.484   0.094 -11.276  0.00  0.00     0.066 H 
ATOM     42  H   LIG d   1       1.301   0.184  -9.130  0.00  0.00     0.064 H 
BRANCH  38  43
ATOM     43  O   LIG d   1       5.072  -0.134 -11.591  0.00  0.00    -0.495 OA
BRANCH  43  44
ATOM     44  C   LIG d   1       4.283  -0.467 -12.735  0.00  0.00     0.079 C 
ATOM     45  H   LIG d   1       4.728  -0.014 -13.633  0.00  0.00     0.066 H 
ATOM     46  H   LIG d   1       3.260  -0.083 -12.600  0.00  0.00     0.066 H 
ATOM     47  H   LIG d   1       4.250  -1.560 -12.853  0.00  0.00     0.066 H 
ENDBRANCH  43  44
ENDBRANCH  38  43
ENDBRANCH   1  27
TORSDOF 8
ENDMDL
MODEL 6
REMARK VINA RESULT:      -5.4      2.918      7.259
REMARK  8 active torsions:
REMARK  status: ('A' for Active; 'I' for Inactive)
REMARK    1  A    between atoms: C_1  and  C_2 
REMARK    2  A    between atoms: C_2  and  C_3 
REMARK    3  A    between atoms: C_2  and  N_4 
REMARK    4  A    between atoms: N_4  and  C_5 
REMARK       I    between atoms: N_4  and  C_20 
REMARK    5  A    between atoms: C_5  and  C_6 
REMARK    6  A    between atoms: C_10  and  O_18 
REMARK    7  A    between atoms: O_18  and  C_19 
REMARK    8  A    between atoms: C_20  and  C_22 
ROOT
ATOM      1  C   LIG d   1       2.493  -0.124  -7.600  0.00  0.00     0.045 C 
ATOM      2  H   LIG d   1       1.980   0.833  -7.420  0.00  0.00     0.052 H 
ATOM      3  H   LIG d   1       1.751  -0.935  -7.641  0.00  0.00     0.052 H 
ENDROOT
BRANCH   1   4
ATOM      4  N   LIG d   1       3.216  -0.058  -8.873  0.00  0.00    -0.290 N 
ATOM      5  C   LIG d   1       3.259  -1.137  -9.679  0.00  0.00     0.249 C 
ATOM      6  O   LIG d   1       2.606  -2.126  -9.408  0.00  0.00    -0.270 OA
BRANCH   4   7
ATOM      7  C   LIG d   1       3.890   1.181  -9.269  0.00  0.00     0.021 C 
ATOM      8  H   LIG d   1       3.929   1.191 -10.369  0.00  0.00     0.050 H 
BRANCH   7   9
ATOM      9  C   LIG d   1       3.100   2.382  -8.747  0.00  0.00    -0.047 C 
ATOM     10  H   LIG d   1       3.723   3.286  -8.811  0.00  0.00     0.025 H 
ATOM     11  H   LIG d   1       2.815   2.206  -7.698  0.00  0.00     0.025 H 
ATOM     12  H   LIG d   1       2.193   2.517  -9.355  0.00  0.00     0.025 H 
ENDBRANCH   7   9
BRANCH   7  13
ATOM     13  C   LIG d   1       5.301   1.204  -8.680  0.00  0.00    -0.047 C 
ATOM     14  H   LIG d   1       5.962   1.795  -9.332  0.00  0.00     0.025 H 
ATOM     15  H   LIG d   1       5.685   0.176  -8.605  0.00  0.00     0.025 H 
ATOM     16  H   LIG d   1       5.273   1.660  -7.679  0.00  0.00     0.025 H 
ENDBRANCH   7  13
ENDBRANCH   4   7
BRANCH   5  17
ATOM     17  C   LIG d   1       4.102  -1.118 -10.894  0.00  0.00     0.055 A 
ATOM     18  C   LIG d   1       5.379  -1.680 -10.880  0.00  0.00     0.040 A 
ATOM     19  N   LIG d   1       6.129  -1.664 -11.962  0.00  0.00    -0.263 NA
ATOM     20  H   LIG d   1       5.755  -2.133  -9.975  0.00  0.00     0.084 H 
ATOM     21  C   LIG d   1       5.713  -1.122 -13.091  0.00  0.00     0.028 A 
ATOM     22  C   LIG d   1       4.459  -0.545 -13.186  0.00  0.00    -0.043 A 
ATOM     23  H   LIG d   1       6.361  -1.131 -13.955  0.00  0.00     0.083 H 
ATOM     24  C   LIG d   1       3.634  -0.531 -12.076  0.00  0.00    -0.047 A 
ATOM     25  H   LIG d   1       4.130  -0.106 -14.116  0.00  0.00     0.063 H 
ATOM     26  H   LIG d   1       2.652  -0.083 -12.121  0.00  0.00     0.063 H 
ENDBRANCH   5  17
ENDBRANCH   1   4
BRANCH   1  27
ATOM     27  C   LIG d   1       3.468  -0.389  -6.483  0.00  0.00     0.035 A 
ATOM     28  C   LIG d   1       3.474   0.442  -5.343  0.00  0.00     0.254 A 
ATOM     29  N   LIG d   1       4.324   0.236  -4.322  0.00  0.00    -0.322 N 
ATOM     30  O   LIG d   1       2.683   1.368  -5.278  0.00  0.00    -0.268 OA
ATOM     31  C   LIG d   1       5.239  -0.798  -4.358  0.00  0.00     0.049 A 
ATOM     32  H   LIG d   1       4.284   0.904  -3.449  0.00  0.00     0.169 HD
ATOM     33  C   LIG d   1       5.277  -1.652  -5.477  0.00  0.00     0.002 A 
ATOM     34  C   LIG d   1       6.122  -1.005  -3.305  0.00  0.00    -0.034 A 
ATOM     35  C   LIG d   1       4.342  -1.421  -6.579  0.00  0.00    -0.043 A 
ATOM     36  C   LIG d   1       6.202  -2.701  -5.521  0.00  0.00    -0.011 A 
ATOM     37  H   LIG d   1       4.348  -2.060  -7.450  0.00  0.00     0.063 H 
ATOM     38  C   LIG d   1       7.069  -2.890  -4.465  0.00  0.00     0.121 A 
ATOM     39  H   LIG d   1       6.236  -3.359  -6.377  0.00  0.00     0.066 H 
ATOM     40  C   LIG d   1       7.027  -2.042  -3.360  0.00  0.00    -0.018 A 
ATOM     41  H   LIG d   1       7.712  -2.199  -2.538  0.00  0.00     0.066 H 
ATOM     42  H   LIG d   1       6.099  -0.354  -2.443  0.00  0.00     0.064 H 
BRANCH  38  43
ATOM     43  O   LIG d   1       7.970  -3.908  -4.502  0.00  0.00    -0.495 OA
BRANCH  43  44
ATOM     44  C   LIG d   1       8.987  -3.912  -3.498  0.00  0.00     0.079 C 
ATOM     45  H   LIG d   1       9.807  -3.245  -3.804  0.00  0.00     0.066 H 
ATOM     46  H   LIG d   1       9.375  -4.935  -3.373  0.00  0.00     0.066 H 
ATOM     47  H   LIG d   1       8.564  -3.562  -2.546  0.00  0.00     0.066 H 
ENDBRANCH  43  44
ENDBRANCH  38  43
ENDBRANCH   1  27
TORSDOF 8
ENDMDL
MODEL 7
REMARK VINA RESULT:      -5.3     10.034     12.754
REMARK  8 active torsions:
REMARK  status: ('A' for Active; 'I' for Inactive)
REMARK    1  A    between atoms: C_1  and  C_2 
REMARK    2  A    between atoms: C_2  and  C_3 
REMARK    3  A    between atoms: C_2  and  N_4 
REMARK    4  A    between atoms: N_4  and  C_5 
REMARK       I    between atoms: N_4  and  C_20 
REMARK    5  A    between atoms: C_5  and  C_6 
REMARK    6  A    between atoms: C_10  and  O_18 
REMARK    7  A    between atoms: O_18  and  C_19 
REMARK    8  A    between atoms: C_20  and  C_22 
ROOT
ATOM      1  C   LIG d   1      10.358   8.131   0.100  0.00  0.00     0.045 C 
ATOM      2  H   LIG d   1      11.101   8.171   0.912  0.00  0.00     0.052 H 
ATOM      3  H   LIG d   1       9.347   8.196   0.526  0.00  0.00     0.052 H 
ENDROOT
BRANCH   1   4
ATOM      4  N   LIG d   1      10.577   9.254  -0.816  0.00  0.00    -0.290 N 
ATOM      5  C   LIG d   1       9.524   9.916  -1.333  0.00  0.00     0.249 C 
ATOM      6  O   LIG d   1       8.397   9.659  -0.953  0.00  0.00    -0.270 OA
BRANCH   4   7
ATOM      7  C   LIG d   1      11.941   9.657  -1.168  0.00  0.00     0.021 C 
ATOM      8  H   LIG d   1      11.895  10.709  -1.486  0.00  0.00     0.050 H 
BRANCH   7   9
ATOM      9  C   LIG d   1      12.850   9.502   0.052  0.00  0.00    -0.047 C 
ATOM     10  H   LIG d   1      13.195  10.494   0.380  0.00  0.00     0.025 H 
ATOM     11  H   LIG d   1      13.720   8.882  -0.215  0.00  0.00     0.025 H 
ATOM     12  H   LIG d   1      12.292   9.019   0.867  0.00  0.00     0.025 H 
ENDBRANCH   7   9
BRANCH   7  13
ATOM     13  C   LIG d   1      12.457   8.772  -2.304  0.00  0.00    -0.047 C 
ATOM     14  H   LIG d   1      13.534   8.592  -2.169  0.00  0.00     0.025 H 
ATOM     15  H   LIG d   1      12.288   9.276  -3.267  0.00  0.00     0.025 H 
ATOM     16  H   LIG d   1      11.921   7.812  -2.293  0.00  0.00     0.025 H 
ENDBRANCH   7  13
ENDBRANCH   4   7
BRANCH   5  17
ATOM     17  C   LIG d   1       9.736  10.955  -2.363  0.00  0.00     0.055 A 
ATOM     18  C   LIG d   1      10.034  12.268  -1.995  0.00  0.00     0.040 A 
ATOM     19  N   LIG d   1      10.224  13.193  -2.913  0.00  0.00    -0.263 NA
ATOM     20  H   LIG d   1      10.110  12.527  -0.950  0.00  0.00     0.084 H 
ATOM     21  C   LIG d   1      10.140  12.924  -4.202  0.00  0.00     0.028 A 
ATOM     22  C   LIG d   1       9.850  11.646  -4.647  0.00  0.00    -0.043 A 
ATOM     23  H   LIG d   1      10.303  13.713  -4.921  0.00  0.00     0.083 H 
ATOM     24  C   LIG d   1       9.636  10.640  -3.723  0.00  0.00    -0.047 A 
ATOM     25  H   LIG d   1       9.785  11.439  -5.705  0.00  0.00     0.063 H 
ATOM     26  H   LIG d   1       9.403   9.635  -4.043  0.00  0.00     0.063 H 
ENDBRANCH   5  17
ENDBRANCH   1   4
BRANCH   1  27
ATOM     27  C   LIG d   1      10.506   6.834  -0.652  0.00  0.00     0.035 A 
ATOM     28  C   LIG d   1      11.263   5.781  -0.095  0.00  0.00     0.254 A 
ATOM     29  N   LIG d   1      11.414   4.607  -0.732  0.00  0.00    -0.322 N 
ATOM     30  O   LIG d   1      11.789   5.938   0.993  0.00  0.00    -0.268 OA
ATOM     31  C   LIG d   1      10.840   4.391  -1.969  0.00  0.00     0.049 A 
ATOM     32  H   LIG d   1      12.005   3.812  -0.254  0.00  0.00     0.169 HD
ATOM     33  C   LIG d   1      10.080   5.413  -2.569  0.00  0.00     0.002 A 
ATOM     34  C   LIG d   1      11.003   3.178  -2.629  0.00  0.00    -0.034 A 
ATOM     35  C   LIG d   1       9.917   6.685  -1.864  0.00  0.00    -0.043 A 
ATOM     36  C   LIG d   1       9.495   5.201  -3.823  0.00  0.00    -0.011 A 
ATOM     37  H   LIG d   1       9.339   7.487  -2.299  0.00  0.00     0.063 H 
ATOM     38  C   LIG d   1       9.669   3.991  -4.461  0.00  0.00     0.121 A 
ATOM     39  H   LIG d   1       8.911   5.982  -4.289  0.00  0.00     0.066 H 
ATOM     40  C   LIG d   1      10.422   2.982  -3.862  0.00  0.00    -0.018 A 
ATOM     41  H   LIG d   1      10.552   2.038  -4.371  0.00  0.00     0.066 H 
ATOM     42  H   LIG d   1      11.585   2.390  -2.175  0.00  0.00     0.064 H 
BRANCH  38  43
ATOM     43  O   LIG d   1       9.103   3.780  -5.679  0.00  0.00    -0.495 OA
BRANCH  43  44
ATOM     44  C   LIG d   1       9.833   4.233  -6.821  0.00  0.00     0.079 C 
ATOM     45  H   LIG d   1      10.871   4.453  -6.529  0.00  0.00     0.066 H 
ATOM     46  H   LIG d   1       9.363   5.145  -7.219  0.00  0.00     0.066 H 
ATOM     47  H   LIG d   1       9.828   3.451  -7.594  0.00  0.00     0.066 H 
ENDBRANCH  43  44
ENDBRANCH  38  43
ENDBRANCH   1  27
TORSDOF 8
ENDMDL
MODEL 8
REMARK VINA RESULT:      -5.2      5.125      7.008
REMARK  8 active torsions:
REMARK  status: ('A' for Active; 'I' for Inactive)
REMARK    1  A    between atoms: C_1  and  C_2 
REMARK    2  A    between atoms: C_2  and  C_3 
REMARK    3  A    between atoms: C_2  and  N_4 
REMARK    4  A    between atoms: N_4  and  C_5 
REMARK       I    between atoms: N_4  and  C_20 
REMARK    5  A    between atoms: C_5  and  C_6 
REMARK    6  A    between atoms: C_10  and  O_18 
REMARK    7  A    between atoms: O_18  and  C_19 
REMARK    8  A    between atoms: C_20  and  C_22 
ROOT
ATOM      1  C   LIG d   1       2.744  -3.624 -12.428  0.00  0.00     0.045 C 
ATOM      2  H   LIG d   1       2.232  -3.226 -13.317  0.00  0.00     0.052 H 
ATOM      3  H   LIG d   1       3.675  -4.122 -12.734  0.00  0.00     0.052 H 
ENDROOT
BRANCH   1   4
ATOM      4  N   LIG d   1       3.056  -2.523 -11.513  0.00  0.00    -0.290 N 
ATOM      5  C   LIG d   1       2.423  -1.340 -11.642  0.00  0.00     0.249 C 
ATOM      6  O   LIG d   1       1.513  -1.221 -12.440  0.00  0.00    -0.270 OA
BRANCH   4   7
ATOM      7  C   LIG d   1       4.056  -2.708 -10.458  0.00  0.00     0.021 C 
ATOM      8  H   LIG d   1       4.419  -1.708 -10.177  0.00  0.00     0.050 H 
BRANCH   7   9
ATOM      9  C   LIG d   1       3.409  -3.403  -9.259  0.00  0.00    -0.047 C 
ATOM     10  H   LIG d   1       3.811  -4.423  -9.167  0.00  0.00     0.025 H 
ATOM     11  H   LIG d   1       2.319  -3.451  -9.406  0.00  0.00     0.025 H 
ATOM     12  H   LIG d   1       3.631  -2.837  -8.343  0.00  0.00     0.025 H 
ENDBRANCH   7   9
BRANCH   7  13
ATOM     13  C   LIG d   1       5.204  -3.569 -10.989  0.00  0.00    -0.047 C 
ATOM     14  H   LIG d   1       5.862  -3.856 -10.156  0.00  0.00     0.025 H 
ATOM     15  H   LIG d   1       5.780  -2.997 -11.731  0.00  0.00     0.025 H 
ATOM     16  H   LIG d   1       4.795  -4.475 -11.460  0.00  0.00     0.025 H 
ENDBRANCH   7  13
ENDBRANCH   4   7
BRANCH   5  17
ATOM     17  C   LIG d   1       2.835  -0.187 -10.813  0.00  0.00     0.055 A 
ATOM     18  C   LIG d   1       3.872   0.649 -11.227  0.00  0.00     0.040 A 
ATOM     19  N   LIG d   1       4.238   1.676 -10.488  0.00  0.00    -0.263 NA
ATOM     20  H   LIG d   1       4.378   0.454 -12.161  0.00  0.00     0.084 H 
ATOM     21  C   LIG d   1       3.651   1.955  -9.341  0.00  0.00     0.028 A 
ATOM     22  C   LIG d   1       2.614   1.174  -8.862  0.00  0.00    -0.043 A 
ATOM     23  H   LIG d   1       3.983   2.808  -8.767  0.00  0.00     0.083 H 
ATOM     24  C   LIG d   1       2.195   0.079  -9.597  0.00  0.00    -0.047 A 
ATOM     25  H   LIG d   1       2.140   1.414  -7.921  0.00  0.00     0.063 H 
ATOM     26  H   LIG d   1       1.391  -0.550  -9.244  0.00  0.00     0.063 H 
ENDBRANCH   5  17
ENDBRANCH   1   4
BRANCH   1  27
ATOM     27  C   LIG d   1       1.848  -4.615 -11.733  0.00  0.00     0.035 A 
ATOM     28  C   LIG d   1       2.276  -5.948 -11.558  0.00  0.00     0.254 A 
ATOM     29  N   LIG d   1       1.508  -6.861 -10.938  0.00  0.00    -0.322 N 
ATOM     30  O   LIG d   1       3.373  -6.280 -11.975  0.00  0.00    -0.268 OA
ATOM     31  C   LIG d   1       0.258  -6.528 -10.457  0.00  0.00     0.049 A 
ATOM     32  H   LIG d   1       1.889  -7.886 -10.816  0.00  0.00     0.169 HD
ATOM     33  C   LIG d   1      -0.218  -5.213 -10.612  0.00  0.00     0.002 A 
ATOM     34  C   LIG d   1      -0.538  -7.475  -9.822  0.00  0.00    -0.034 A 
ATOM     35  C   LIG d   1       0.630  -4.226 -11.283  0.00  0.00    -0.043 A 
ATOM     36  C   LIG d   1      -1.485  -4.867 -10.127  0.00  0.00    -0.011 A 
ATOM     37  H   LIG d   1       0.291  -3.208 -11.417  0.00  0.00     0.063 H 
ATOM     38  C   LIG d   1      -2.257  -5.823  -9.500  0.00  0.00     0.121 A 
ATOM     39  H   LIG d   1      -1.855  -3.859 -10.244  0.00  0.00     0.066 H 
ATOM     40  C   LIG d   1      -1.782  -7.124  -9.349  0.00  0.00    -0.018 A 
ATOM     41  H   LIG d   1      -2.396  -7.864  -8.856  0.00  0.00     0.066 H 
ATOM     42  H   LIG d   1      -0.179  -8.487  -9.700  0.00  0.00     0.064 H 
BRANCH  38  43
ATOM     43  O   LIG d   1      -3.489  -5.493  -9.027  0.00  0.00    -0.495 OA
BRANCH  43  44
ATOM     44  C   LIG d   1      -4.232  -4.526  -9.773  0.00  0.00     0.079 C 
ATOM     45  H   LIG d   1      -5.275  -4.516  -9.424  0.00  0.00     0.066 H 
ATOM     46  H   LIG d   1      -4.206  -4.787 -10.842  0.00  0.00     0.066 H 
ATOM     47  H   LIG d   1      -3.788  -3.531  -9.629  0.00  0.00     0.066 H 
ENDBRANCH  43  44
ENDBRANCH  38  43
ENDBRANCH   1  27
TORSDOF 8
ENDMDL
MODEL 9
REMARK VINA RESULT:      -5.2      4.554      7.675
REMARK  8 active torsions:
REMARK  status: ('A' for Active; 'I' for Inactive)
REMARK    1  A    between atoms: C_1  and  C_2 
REMARK    2  A    between atoms: C_2  and  C_3 
REMARK    3  A    between atoms: C_2  and  N_4 
REMARK    4  A    between atoms: N_4  and  C_5 
REMARK       I    between atoms: N_4  and  C_20 
REMARK    5  A    between atoms: C_5  and  C_6 
REMARK    6  A    between atoms: C_10  and  O_18 
REMARK    7  A    between atoms: O_18  and  C_19 
REMARK    8  A    between atoms: C_20  and  C_22 
ROOT
ATOM      1  C   LIG d   1       8.373  -0.593  -6.663  0.00  0.00     0.045 C 
ATOM      2  H   LIG d   1       9.289  -1.201  -6.716  0.00  0.00     0.052 H 
ATOM      3  H   LIG d   1       7.862  -0.615  -7.636  0.00  0.00     0.052 H 
ENDROOT
BRANCH   1   4
ATOM      4  N   LIG d   1       7.485  -1.137  -5.632  0.00  0.00    -0.290 N 
ATOM      5  C   LIG d   1       6.265  -0.599  -5.441  0.00  0.00     0.249 C 
ATOM      6  O   LIG d   1       5.855   0.261  -6.197  0.00  0.00    -0.270 OA
BRANCH   4   7
ATOM      7  C   LIG d   1       7.924  -2.268  -4.810  0.00  0.00     0.021 C 
ATOM      8  H   LIG d   1       7.486  -2.130  -3.810  0.00  0.00     0.050 H 
BRANCH   7   9
ATOM      9  C   LIG d   1       7.436  -3.575  -5.437  0.00  0.00    -0.047 C 
ATOM     10  H   LIG d   1       6.449  -3.414  -5.897  0.00  0.00     0.025 H 
ATOM     11  H   LIG d   1       7.355  -4.348  -4.658  0.00  0.00     0.025 H 
ATOM     12  H   LIG d   1       8.151  -3.902  -6.206  0.00  0.00     0.025 H 
ENDBRANCH   7   9
BRANCH   7  13
ATOM     13  C   LIG d   1       9.452  -2.279  -4.733  0.00  0.00    -0.047 C 
ATOM     14  H   LIG d   1       9.765  -2.375  -3.682  0.00  0.00     0.025 H 
ATOM     15  H   LIG d   1       9.848  -1.341  -5.149  0.00  0.00     0.025 H 
ATOM     16  H   LIG d   1       9.842  -3.130  -5.309  0.00  0.00     0.025 H 
ENDBRANCH   7  13
ENDBRANCH   4   7
BRANCH   5  17
ATOM     17  C   LIG d   1       5.425  -1.052  -4.313  0.00  0.00     0.055 A 
ATOM     18  C   LIG d   1       4.448  -2.030  -4.504  0.00  0.00     0.040 A 
ATOM     19  N   LIG d   1       3.700  -2.433  -3.498  0.00  0.00    -0.263 NA
ATOM     20  H   LIG d   1       4.305  -2.460  -5.484  0.00  0.00     0.084 H 
ATOM     21  C   LIG d   1       3.837  -1.938  -2.284  0.00  0.00     0.028 A 
ATOM     22  C   LIG d   1       4.783  -0.965  -2.013  0.00  0.00    -0.043 A 
ATOM     23  H   LIG d   1       3.202  -2.298  -1.488  0.00  0.00     0.083 H 
ATOM     24  C   LIG d   1       5.591  -0.502  -3.036  0.00  0.00    -0.047 A 
ATOM     25  H   LIG d   1       4.886  -0.568  -1.014  0.00  0.00     0.063 H 
ATOM     26  H   LIG d   1       6.334   0.259  -2.854  0.00  0.00     0.063 H 
ENDBRANCH   5  17
ENDBRANCH   1   4
BRANCH   1  27
ATOM     27  C   LIG d   1       8.733   0.828  -6.315  0.00  0.00     0.035 A 
ATOM     28  C   LIG d   1       8.777   1.810  -7.328  0.00  0.00     0.254 A 
ATOM     29  N   LIG d   1       9.088   3.090  -7.058  0.00  0.00    -0.322 N 
ATOM     30  O   LIG d   1       8.519   1.492  -8.476  0.00  0.00    -0.268 OA
ATOM     31  C   LIG d   1       9.392   3.490  -5.772  0.00  0.00     0.049 A 
ATOM     32  H   LIG d   1       9.099   3.822  -7.878  0.00  0.00     0.169 HD
ATOM     33  C   LIG d   1       9.368   2.547  -4.727  0.00  0.00     0.002 A 
ATOM     34  C   LIG d   1       9.720   4.813  -5.495  0.00  0.00    -0.034 A 
ATOM     35  C   LIG d   1       9.022   1.158  -5.033  0.00  0.00    -0.043 A 
ATOM     36  C   LIG d   1       9.675   2.945  -3.421  0.00  0.00    -0.011 A 
ATOM     37  H   LIG d   1       8.996   0.412  -4.252  0.00  0.00     0.063 H 
ATOM     38  C   LIG d   1       9.999   4.262  -3.169  0.00  0.00     0.121 A 
ATOM     39  H   LIG d   1       9.660   2.225  -2.616  0.00  0.00     0.066 H 
ATOM     40  C   LIG d   1      10.020   5.192  -4.206  0.00  0.00    -0.018 A 
ATOM     41  H   LIG d   1      10.275   6.222  -3.996  0.00  0.00     0.066 H 
ATOM     42  H   LIG d   1       9.740   5.542  -6.292  0.00  0.00     0.064 H 
BRANCH  38  43
ATOM     43  O   LIG d   1      10.297   4.654  -1.901  0.00  0.00    -0.495 OA
BRANCH  43  44
ATOM     44  C   LIG d   1      10.274   6.058  -1.635  0.00  0.00     0.079 C 
ATOM     45  H   LIG d   1      11.148   6.331  -1.025  0.00  0.00     0.066 H 
ATOM     46  H   LIG d   1       9.352   6.312  -1.088  0.00  0.00     0.066 H 
ATOM     47  H   LIG d   1      10.301   6.613  -2.584  0.00  0.00     0.066 H 
ENDBRANCH  43  44
ENDBRANCH  38  43
ENDBRANCH   1  27
TORSDOF 8
ENDMDL
