MODEL 1
REMARK VINA RESULT:      -8.6      0.000      0.000
REMARK  6 active torsions:
REMARK  status: ('A' for Active; 'I' for Inactive)
REMARK    1  A    between atoms: C_1  and  N_2 
REMARK    2  A    between atoms: C_7  and  O_36 
REMARK    3  A    between atoms: C_10  and  S_11 
REMARK    4  A    between atoms: S_11  and  N_14 
REMARK       I    between atoms: N_17  and  C_20 
REMARK    5  A    between atoms: C_20  and  C_22 
REMARK    6  A    between atoms: O_36  and  C_37 
ROOT
ATOM      1  N   LIG d   1      10.362   4.685  -4.345  0.00  0.00    -0.173 N 
ATOM      2  C   LIG d   1       9.724   4.869  -5.656  0.00  0.00     0.036 C 
ATOM      3  C   LIG d   1       9.739   3.528  -6.400  0.00  0.00     0.029 C 
ATOM      4  N   LIG d   1       9.222   2.487  -5.501  0.00  0.00    -0.296 N 
ATOM      5  C   LIG d   1       9.859   2.302  -4.189  0.00  0.00     0.029 C 
ATOM      6  C   LIG d   1       9.849   3.639  -3.448  0.00  0.00     0.036 C 
ATOM      7  C   LIG d   1       8.181   1.714  -5.872  0.00  0.00     0.260 C 
ATOM      8  O   LIG d   1       7.663   1.876  -6.957  0.00  0.00    -0.271 OA
ATOM      9  H   LIG d   1       8.695   5.200  -5.519  0.00  0.00     0.046 H 
ATOM     10  H   LIG d   1      10.278   5.611  -6.230  0.00  0.00     0.046 H 
ATOM     11  H   LIG d   1       9.105   3.594  -7.285  0.00  0.00     0.048 H 
ATOM     12  H   LIG d   1      10.759   3.283  -6.695  0.00  0.00     0.048 H 
ATOM     13  H   LIG d   1       9.307   1.559  -3.615  0.00  0.00     0.048 H 
ATOM     14  H   LIG d   1      10.889   1.970  -4.328  0.00  0.00     0.048 H 
ATOM     15  H   LIG d   1      10.485   3.571  -2.564  0.00  0.00     0.046 H 
ATOM     16  H   LIG d   1       8.829   3.881  -3.150  0.00  0.00     0.046 H 
ENDROOT
BRANCH   1  17
ATOM     17  S   LIG d   1      11.641   5.633  -3.888  0.00  0.00     0.065 S 
ATOM     18  O   LIG d   1      12.065   6.330  -5.051  0.00  0.00    -0.153 OA
ATOM     19  O   LIG d   1      12.514   4.801  -3.136  0.00  0.00    -0.153 OA
BRANCH  17  20
ATOM     20  C   LIG d   1      11.018   6.846  -2.773  0.00  0.00     0.154 A 
ATOM     21  C   LIG d   1      10.578   8.067  -3.260  0.00  0.00    -0.008 A 
ATOM     22  C   LIG d   1      10.654   8.316  -4.745  0.00  0.00    -0.013 C 
ATOM     23  C   LIG d   1      10.087   9.020  -2.393  0.00  0.00     0.017 A 
ATOM     24  C   LIG d   1       9.764   9.499  -5.124  0.00  0.00     0.003 C 
ATOM     25  H   LIG d   1      10.320   7.427  -5.279  0.00  0.00     0.033 H 
ATOM     26  H   LIG d   1      11.686   8.535  -5.023  0.00  0.00     0.033 H 
ATOM     27  N   LIG d   1      10.081  10.627  -4.232  0.00  0.00    -0.301 N 
ATOM     28  H   LIG d   1       8.717   9.222  -5.005  0.00  0.00     0.043 H 
ATOM     29  H   LIG d   1       9.955   9.786  -6.158  0.00  0.00     0.043 H 
ATOM     30  C   LIG d   1       9.589  10.356  -2.877  0.00  0.00     0.028 C 
ATOM     31  H   LIG d   1       9.942  11.138  -2.204  0.00  0.00     0.048 H 
ATOM     32  H   LIG d   1       8.499  10.352  -2.885  0.00  0.00     0.048 H 
ATOM     33  C   LIG d   1      10.038   8.753  -1.029  0.00  0.00     0.170 A 
ATOM     34  C   LIG d   1      10.479   7.532  -0.536  0.00  0.00     0.210 A 
ATOM     35  O   LIG d   1      10.536   7.031   0.733  0.00  0.00    -0.449 OA
ATOM     36  C   LIG d   1      10.970   6.573  -1.415  0.00  0.00     0.196 A 
ATOM     37  C   LIG d   1      11.445   5.916   0.665  0.00  0.00     0.234 C 
ATOM     38  O   LIG d   1      11.336   5.470  -0.699  0.00  0.00    -0.451 OA
ATOM     39  H   LIG d   1      11.136   5.128   1.352  0.00  0.00     0.117 H 
ATOM     40  H   LIG d   1      12.463   6.238   0.884  0.00  0.00     0.117 H 
BRANCH  27  41
ATOM     41  C   LIG d   1       9.526  11.883  -4.753  0.00  0.00    -0.012 C 
ATOM     42  H   LIG d   1      10.223  12.320  -5.469  0.00  0.00     0.039 H 
ATOM     43  H   LIG d   1       8.575  11.682  -5.247  0.00  0.00     0.039 H 
ATOM     44  H   LIG d   1       9.367  12.579  -3.930  0.00  0.00     0.039 H 
ENDBRANCH  27  41
BRANCH  33  45
ATOM     45  O   LIG d   1       9.557   9.693  -0.171  0.00  0.00    -0.491 OA
BRANCH  45  46
ATOM     46  C   LIG d   1      10.519  10.486   0.527  0.00  0.00     0.079 C 
ATOM     47  H   LIG d   1      10.523  11.496   0.118  0.00  0.00     0.066 H 
ATOM     48  H   LIG d   1      10.259  10.524   1.585  0.00  0.00     0.066 H 
ATOM     49  H   LIG d   1      11.508  10.043   0.413  0.00  0.00     0.066 H 
ENDBRANCH  45  46
ENDBRANCH  33  45
ENDBRANCH  17  20
ENDBRANCH   1  17
BRANCH   7  50
ATOM     50  C   LIG d   1       7.662   0.650  -4.940  0.00  0.00     0.209 C 
ATOM     51  H   LIG d   1       8.478   0.272  -4.324  0.00  0.00     0.087 H 
ATOM     52  O   LIG d   1       6.639   1.199  -4.102  0.00  0.00    -0.472 OA
ATOM     53  C   LIG d   1       5.867   0.312  -3.417  0.00  0.00     0.163 A 
ATOM     54  C   LIG d   1       5.823  -1.027  -3.788  0.00  0.00     0.162 A 
ATOM     55  C   LIG d   1       5.113   0.754  -2.341  0.00  0.00    -0.016 A 
ATOM     56  O   LIG d   1       6.558  -1.484  -4.838  0.00  0.00    -0.484 OA
ATOM     57  C   LIG d   1       5.022  -1.912  -3.083  0.00  0.00    -0.016 A 
ATOM     58  C   LIG d   1       7.053  -0.500  -5.753  0.00  0.00     0.135 C 
ATOM     59  H   LIG d   1       6.234  -0.122  -6.366  0.00  0.00     0.074 H 
ATOM     60  H   LIG d   1       7.817  -0.943  -6.393  0.00  0.00     0.074 H 
ATOM     61  C   LIG d   1       4.273  -1.464  -2.011  0.00  0.00    -0.058 A 
ATOM     62  H   LIG d   1       4.985  -2.952  -3.370  0.00  0.00     0.066 H 
ATOM     63  C   LIG d   1       4.319  -0.134  -1.640  0.00  0.00    -0.058 A 
ATOM     64  H   LIG d   1       3.649  -2.156  -1.463  0.00  0.00     0.062 H 
ATOM     65  H   LIG d   1       3.732   0.214  -0.804  0.00  0.00     0.062 H 
ATOM     66  H   LIG d   1       5.147   1.794  -2.050  0.00  0.00     0.066 H 
ENDBRANCH   7  50
TORSDOF 6
ENDMDL
MODEL 2
REMARK VINA RESULT:      -8.3      8.825     14.072
REMARK  6 active torsions:
REMARK  status: ('A' for Active; 'I' for Inactive)
REMARK    1  A    between atoms: C_1  and  N_2 
REMARK    2  A    between atoms: C_7  and  O_36 
REMARK    3  A    between atoms: C_10  and  S_11 
REMARK    4  A    between atoms: S_11  and  N_14 
REMARK       I    between atoms: N_17  and  C_20 
REMARK    5  A    between atoms: C_20  and  C_22 
REMARK    6  A    between atoms: O_36  and  C_37 
ROOT
ATOM      1  N   LIG d   1       5.855  -6.819  -6.311  0.00  0.00    -0.173 N 
ATOM      2  C   LIG d   1       6.854  -6.113  -7.124  0.00  0.00     0.036 C 
ATOM      3  C   LIG d   1       6.143  -5.027  -7.941  0.00  0.00     0.029 C 
ATOM      4  N   LIG d   1       5.287  -4.246  -7.037  0.00  0.00    -0.296 N 
ATOM      5  C   LIG d   1       4.287  -4.952  -6.222  0.00  0.00     0.029 C 
ATOM      6  C   LIG d   1       4.994  -6.038  -5.411  0.00  0.00     0.036 C 
ATOM      7  C   LIG d   1       5.416  -2.907  -6.955  0.00  0.00     0.260 C 
ATOM      8  O   LIG d   1       6.244  -2.336  -7.631  0.00  0.00    -0.271 OA
ATOM      9  H   LIG d   1       7.598  -5.655  -6.474  0.00  0.00     0.046 H 
ATOM     10  H   LIG d   1       7.339  -6.819  -7.799  0.00  0.00     0.046 H 
ATOM     11  H   LIG d   1       6.883  -4.371  -8.400  0.00  0.00     0.048 H 
ATOM     12  H   LIG d   1       5.531  -5.491  -8.714  0.00  0.00     0.048 H 
ATOM     13  H   LIG d   1       3.800  -4.248  -5.548  0.00  0.00     0.048 H 
ATOM     14  H   LIG d   1       3.543  -5.411  -6.874  0.00  0.00     0.048 H 
ATOM     15  H   LIG d   1       4.252  -6.694  -4.955  0.00  0.00     0.046 H 
ATOM     16  H   LIG d   1       5.602  -5.574  -4.635  0.00  0.00     0.046 H 
ENDROOT
BRANCH   1  17
ATOM     17  S   LIG d   1       5.695  -8.465  -6.411  0.00  0.00     0.065 S 
ATOM     18  O   LIG d   1       6.821  -8.939  -7.136  0.00  0.00    -0.153 OA
ATOM     19  O   LIG d   1       4.360  -8.719  -6.824  0.00  0.00    -0.153 OA
BRANCH  17  20
ATOM     20  C   LIG d   1       5.844  -9.103  -4.775  0.00  0.00     0.154 A 
ATOM     21  C   LIG d   1       7.026  -8.924  -4.072  0.00  0.00    -0.008 A 
ATOM     22  C   LIG d   1       8.155  -8.184  -4.745  0.00  0.00    -0.013 C 
ATOM     23  C   LIG d   1       7.149  -9.418  -2.791  0.00  0.00     0.017 A 
ATOM     24  C   LIG d   1       9.177  -7.730  -3.702  0.00  0.00     0.003 C 
ATOM     25  H   LIG d   1       7.758  -7.313  -5.264  0.00  0.00     0.033 H 
ATOM     26  H   LIG d   1       8.641  -8.842  -5.465  0.00  0.00     0.033 H 
ATOM     27  N   LIG d   1       9.532  -8.886  -2.861  0.00  0.00    -0.301 N 
ATOM     28  H   LIG d   1       8.743  -6.946  -3.082  0.00  0.00     0.043 H 
ATOM     29  H   LIG d   1      10.069  -7.354  -4.202  0.00  0.00     0.043 H 
ATOM     30  C   LIG d   1       8.409  -9.240  -1.987  0.00  0.00     0.028 C 
ATOM     31  H   LIG d   1       8.639 -10.170  -1.465  0.00  0.00     0.048 H 
ATOM     32  H   LIG d   1       8.259  -8.445  -1.255  0.00  0.00     0.048 H 
ATOM     33  C   LIG d   1       6.085 -10.100  -2.209  0.00  0.00     0.170 A 
ATOM     34  C   LIG d   1       4.901 -10.283  -2.911  0.00  0.00     0.210 A 
ATOM     35  O   LIG d   1       3.732 -10.903  -2.573  0.00  0.00    -0.449 OA
ATOM     36  C   LIG d   1       4.781  -9.779  -4.201  0.00  0.00     0.196 A 
ATOM     37  C   LIG d   1       3.044 -11.129  -3.818  0.00  0.00     0.234 C 
ATOM     38  O   LIG d   1       3.537 -10.083  -4.674  0.00  0.00    -0.451 OA
ATOM     39  H   LIG d   1       1.966 -11.037  -3.681  0.00  0.00     0.117 H 
ATOM     40  H   LIG d   1       3.297 -12.109  -4.223  0.00  0.00     0.117 H 
BRANCH  27  41
ATOM     41  C   LIG d   1      10.745  -8.615  -2.079  0.00  0.00    -0.012 C 
ATOM     42  H   LIG d   1      10.477  -8.079  -1.168  0.00  0.00     0.039 H 
ATOM     43  H   LIG d   1      11.227  -9.557  -1.819  0.00  0.00     0.039 H 
ATOM     44  H   LIG d   1      11.430  -8.007  -2.669  0.00  0.00     0.039 H 
ENDBRANCH  27  41
BRANCH  33  45
ATOM     45  O   LIG d   1       6.206 -10.592  -0.947  0.00  0.00    -0.491 OA
BRANCH  45  46
ATOM     46  C   LIG d   1       6.443 -11.995  -0.817  0.00  0.00     0.079 C 
ATOM     47  H   LIG d   1       6.910 -12.197   0.147  0.00  0.00     0.066 H 
ATOM     48  H   LIG d   1       5.496 -12.531  -0.881  0.00  0.00     0.066 H 
ATOM     49  H   LIG d   1       7.103 -12.328  -1.618  0.00  0.00     0.066 H 
ENDBRANCH  45  46
ENDBRANCH  33  45
ENDBRANCH  17  20
ENDBRANCH   1  17
BRANCH   7  50
ATOM     50  C   LIG d   1       4.530  -2.120  -6.024  0.00  0.00     0.209 C 
ATOM     51  H   LIG d   1       3.623  -2.686  -5.814  0.00  0.00     0.087 H 
ATOM     52  O   LIG d   1       5.228  -1.857  -4.801  0.00  0.00    -0.472 OA
ATOM     53  C   LIG d   1       4.689  -0.915  -3.979  0.00  0.00     0.163 A 
ATOM     54  C   LIG d   1       3.749  -0.010  -4.457  0.00  0.00     0.162 A 
ATOM     55  C   LIG d   1       5.091  -0.858  -2.654  0.00  0.00    -0.016 A 
ATOM     56  O   LIG d   1       3.337  -0.050  -5.753  0.00  0.00    -0.484 OA
ATOM     57  C   LIG d   1       3.220   0.949  -3.605  0.00  0.00    -0.016 A 
ATOM     58  C   LIG d   1       4.165  -0.776  -6.668  0.00  0.00     0.135 C 
ATOM     59  H   LIG d   1       5.073  -0.209  -6.873  0.00  0.00     0.074 H 
ATOM     60  H   LIG d   1       3.622  -0.950  -7.597  0.00  0.00     0.074 H 
ATOM     61  C   LIG d   1       3.625   1.000  -2.284  0.00  0.00    -0.058 A 
ATOM     62  H   LIG d   1       2.491   1.655  -3.973  0.00  0.00     0.066 H 
ATOM     63  C   LIG d   1       4.558   0.098  -1.809  0.00  0.00    -0.058 A 
ATOM     64  H   LIG d   1       3.213   1.748  -1.623  0.00  0.00     0.062 H 
ATOM     65  H   LIG d   1       4.874   0.141  -0.778  0.00  0.00     0.062 H 
ATOM     66  H   LIG d   1       5.820  -1.562  -2.281  0.00  0.00     0.066 H 
ENDBRANCH   7  50
TORSDOF 6
ENDMDL
MODEL 3
REMARK VINA RESULT:      -8.2      1.414      3.114
REMARK  6 active torsions:
REMARK  status: ('A' for Active; 'I' for Inactive)
REMARK    1  A    between atoms: C_1  and  N_2 
REMARK    2  A    between atoms: C_7  and  O_36 
REMARK    3  A    between atoms: C_10  and  S_11 
REMARK    4  A    between atoms: S_11  and  N_14 
REMARK       I    between atoms: N_17  and  C_20 
REMARK    5  A    between atoms: C_20  and  C_22 
REMARK    6  A    between atoms: O_36  and  C_37 
ROOT
ATOM      1  N   LIG d   1      10.394   4.801  -4.866  0.00  0.00    -0.173 N 
ATOM      2  C   LIG d   1       9.710   4.882  -6.165  0.00  0.00     0.036 C 
ATOM      3  C   LIG d   1       9.700   3.486  -6.801  0.00  0.00     0.029 C 
ATOM      4  N   LIG d   1       9.217   2.520  -5.805  0.00  0.00    -0.296 N 
ATOM      5  C   LIG d   1       9.901   2.439  -4.506  0.00  0.00     0.029 C 
ATOM      6  C   LIG d   1       9.915   3.831  -3.872  0.00  0.00     0.036 C 
ATOM      7  C   LIG d   1       8.165   1.722  -6.077  0.00  0.00     0.260 C 
ATOM      8  O   LIG d   1       7.609   1.798  -7.152  0.00  0.00    -0.271 OA
ATOM      9  H   LIG d   1       8.687   5.225  -6.018  0.00  0.00     0.046 H 
ATOM     10  H   LIG d   1      10.243   5.576  -6.815  0.00  0.00     0.046 H 
ATOM     11  H   LIG d   1       9.036   3.484  -7.666  0.00  0.00     0.048 H 
ATOM     12  H   LIG d   1      10.710   3.217  -7.111  0.00  0.00     0.048 H 
ATOM     13  H   LIG d   1       9.369   1.745  -3.855  0.00  0.00     0.048 H 
ATOM     14  H   LIG d   1      10.925   2.096  -4.653  0.00  0.00     0.048 H 
ATOM     15  H   LIG d   1      10.581   3.832  -3.009  0.00  0.00     0.046 H 
ATOM     16  H   LIG d   1       8.905   4.097  -3.558  0.00  0.00     0.046 H 
ENDROOT
BRANCH   1  17
ATOM     17  S   LIG d   1      11.687   5.781  -4.531  0.00  0.00     0.065 S 
ATOM     18  O   LIG d   1      12.028   6.433  -5.747  0.00  0.00    -0.153 OA
ATOM     19  O   LIG d   1      12.617   4.991  -3.803  0.00  0.00    -0.153 OA
BRANCH  17  20
ATOM     20  C   LIG d   1      11.120   7.033  -3.429  0.00  0.00     0.154 A 
ATOM     21  C   LIG d   1      11.158   6.813  -2.061  0.00  0.00    -0.008 A 
ATOM     22  C   LIG d   1      11.687   5.493  -1.561  0.00  0.00    -0.013 C 
ATOM     23  C   LIG d   1      10.718   7.790  -1.193  0.00  0.00     0.017 A 
ATOM     24  C   LIG d   1      12.037   5.598  -0.077  0.00  0.00     0.003 C 
ATOM     25  H   LIG d   1      12.579   5.224  -2.125  0.00  0.00     0.033 H 
ATOM     26  H   LIG d   1      10.928   4.723  -1.700  0.00  0.00     0.033 H 
ATOM     27  N   LIG d   1      10.887   6.179   0.635  0.00  0.00    -0.301 N 
ATOM     28  H   LIG d   1      12.908   6.241   0.049  0.00  0.00     0.043 H 
ATOM     29  H   LIG d   1      12.250   4.606   0.320  0.00  0.00     0.043 H 
ATOM     30  C   LIG d   1      10.748   7.600   0.301  0.00  0.00     0.028 C 
ATOM     31  H   LIG d   1       9.823   7.983   0.732  0.00  0.00     0.048 H 
ATOM     32  H   LIG d   1      11.593   8.151   0.715  0.00  0.00     0.048 H 
ATOM     33  C   LIG d   1      10.232   8.993  -1.695  0.00  0.00     0.170 A 
ATOM     34  C   LIG d   1      10.190   9.216  -3.065  0.00  0.00     0.210 A 
ATOM     35  O   LIG d   1       9.769  10.288  -3.799  0.00  0.00    -0.449 OA
ATOM     36  C   LIG d   1      10.639   8.229  -3.936  0.00  0.00     0.196 A 
ATOM     37  C   LIG d   1       9.584   9.788  -5.136  0.00  0.00     0.234 C 
ATOM     38  O   LIG d   1      10.500   8.681  -5.217  0.00  0.00    -0.451 OA
ATOM     39  H   LIG d   1       9.842  10.553  -5.869  0.00  0.00     0.117 H 
ATOM     40  H   LIG d   1       8.558   9.449  -5.280  0.00  0.00     0.117 H 
BRANCH  27  41
ATOM     41  C   LIG d   1      11.014   5.989   2.086  0.00  0.00    -0.012 C 
ATOM     42  H   LIG d   1      10.026   6.020   2.545  0.00  0.00     0.039 H 
ATOM     43  H   LIG d   1      11.478   5.023   2.286  0.00  0.00     0.039 H 
ATOM     44  H   LIG d   1      11.634   6.782   2.503  0.00  0.00     0.039 H 
ENDBRANCH  27  41
BRANCH  33  45
ATOM     45  O   LIG d   1       9.793   9.956  -0.840  0.00  0.00    -0.491 OA
BRANCH  45  46
ATOM     46  C   LIG d   1      10.659  11.070  -0.619  0.00  0.00     0.079 C 
ATOM     47  H   LIG d   1      10.483  11.476   0.377  0.00  0.00     0.066 H 
ATOM     48  H   LIG d   1      11.697  10.745  -0.700  0.00  0.00     0.066 H 
ATOM     49  H   LIG d   1      10.461  11.839  -1.366  0.00  0.00     0.066 H 
ENDBRANCH  45  46
ENDBRANCH  33  45
ENDBRANCH  17  20
ENDBRANCH   1  17
BRANCH   7  50
ATOM     50  C   LIG d   1       7.681   0.736  -5.045  0.00  0.00     0.209 C 
ATOM     51  H   LIG d   1       8.509   0.440  -4.403  0.00  0.00     0.087 H 
ATOM     52  O   LIG d   1       6.647   1.334  -4.254  0.00  0.00    -0.472 OA
ATOM     53  C   LIG d   1       5.904   0.494  -3.483  0.00  0.00     0.163 A 
ATOM     54  C   LIG d   1       5.894  -0.875  -3.728  0.00  0.00     0.162 A 
ATOM     55  C   LIG d   1       5.143   1.014  -2.447  0.00  0.00    -0.016 A 
ATOM     56  O   LIG d   1       6.636  -1.407  -4.737  0.00  0.00    -0.484 OA
ATOM     57  C   LIG d   1       5.122  -1.712  -2.937  0.00  0.00    -0.016 A 
ATOM     58  C   LIG d   1       7.099  -0.500  -5.743  0.00  0.00     0.135 C 
ATOM     59  H   LIG d   1       6.267  -0.203  -6.382  0.00  0.00     0.074 H 
ATOM     60  H   LIG d   1       7.871  -0.980  -6.345  0.00  0.00     0.074 H 
ATOM     61  C   LIG d   1       4.366  -1.186  -1.905  0.00  0.00    -0.058 A 
ATOM     62  H   LIG d   1       5.111  -2.775  -3.126  0.00  0.00     0.066 H 
ATOM     63  C   LIG d   1       4.377   0.174  -1.661  0.00  0.00    -0.058 A 
ATOM     64  H   LIG d   1       3.764  -1.840  -1.291  0.00  0.00     0.062 H 
ATOM     65  H   LIG d   1       3.785   0.582  -0.855  0.00  0.00     0.062 H 
ATOM     66  H   LIG d   1       5.151   2.077  -2.254  0.00  0.00     0.066 H 
ENDBRANCH   7  50
TORSDOF 6
ENDMDL
MODEL 4
REMARK VINA RESULT:      -7.8      1.663      3.429
REMARK  6 active torsions:
REMARK  status: ('A' for Active; 'I' for Inactive)
REMARK    1  A    between atoms: C_1  and  N_2 
REMARK    2  A    between atoms: C_7  and  O_36 
REMARK    3  A    between atoms: C_10  and  S_11 
REMARK    4  A    between atoms: S_11  and  N_14 
REMARK       I    between atoms: N_17  and  C_20 
REMARK    5  A    between atoms: C_20  and  C_22 
REMARK    6  A    between atoms: O_36  and  C_37 
ROOT
ATOM      1  N   LIG d   1      10.359   5.077  -5.130  0.00  0.00    -0.173 N 
ATOM      2  C   LIG d   1       9.838   4.853  -6.485  0.00  0.00     0.036 C 
ATOM      3  C   LIG d   1       9.995   3.366  -6.831  0.00  0.00     0.029 C 
ATOM      4  N   LIG d   1       9.454   2.568  -5.722  0.00  0.00    -0.296 N 
ATOM      5  C   LIG d   1       9.975   2.792  -4.366  0.00  0.00     0.029 C 
ATOM      6  C   LIG d   1       9.822   4.274  -4.022  0.00  0.00     0.036 C 
ATOM      7  C   LIG d   1       8.496   1.645  -5.945  0.00  0.00     0.260 C 
ATOM      8  O   LIG d   1       8.073   1.469  -7.068  0.00  0.00    -0.271 OA
ATOM      9  H   LIG d   1       8.785   5.128  -6.522  0.00  0.00     0.046 H 
ATOM     10  H   LIG d   1      10.402   5.455  -7.198  0.00  0.00     0.046 H 
ATOM     11  H   LIG d   1       9.445   3.143  -7.745  0.00  0.00     0.048 H 
ATOM     12  H   LIG d   1      11.050   3.131  -6.969  0.00  0.00     0.048 H 
ATOM     13  H   LIG d   1       9.412   2.189  -3.653  0.00  0.00     0.048 H 
ATOM     14  H   LIG d   1      11.029   2.516  -4.330  0.00  0.00     0.048 H 
ATOM     15  H   LIG d   1      10.375   4.495  -3.109  0.00  0.00     0.046 H 
ATOM     16  H   LIG d   1       8.767   4.507  -3.879  0.00  0.00     0.046 H 
ENDROOT
BRANCH   1  17
ATOM     17  S   LIG d   1      11.537   6.210  -4.856  0.00  0.00     0.065 S 
ATOM     18  O   LIG d   1      12.400   6.179  -5.984  0.00  0.00    -0.153 OA
ATOM     19  O   LIG d   1      12.004   5.996  -3.531  0.00  0.00    -0.153 OA
BRANCH  17  20
ATOM     20  C   LIG d   1      10.753   7.788  -4.863  0.00  0.00     0.154 A 
ATOM     21  C   LIG d   1      10.530   8.450  -3.665  0.00  0.00    -0.008 A 
ATOM     22  C   LIG d   1      10.969   7.786  -2.386  0.00  0.00    -0.013 C 
ATOM     23  C   LIG d   1       9.919   9.686  -3.665  0.00  0.00     0.017 A 
ATOM     24  C   LIG d   1      11.027   8.814  -1.256  0.00  0.00     0.003 C 
ATOM     25  H   LIG d   1      11.957   7.347  -2.526  0.00  0.00     0.033 H 
ATOM     26  H   LIG d   1      10.260   6.999  -2.124  0.00  0.00     0.033 H 
ATOM     27  N   LIG d   1       9.754   9.553  -1.231  0.00  0.00    -0.301 N 
ATOM     28  H   LIG d   1      11.849   9.506  -1.433  0.00  0.00     0.043 H 
ATOM     29  H   LIG d   1      11.172   8.304  -0.303  0.00  0.00     0.043 H 
ATOM     30  C   LIG d   1       9.664  10.447  -2.390  0.00  0.00     0.028 C 
ATOM     31  H   LIG d   1       8.669  10.890  -2.427  0.00  0.00     0.048 H 
ATOM     32  H   LIG d   1      10.407  11.240  -2.291  0.00  0.00     0.048 H 
ATOM     33  C   LIG d   1       9.523  10.263  -4.867  0.00  0.00     0.170 A 
ATOM     34  C   LIG d   1       9.743   9.601  -6.068  0.00  0.00     0.210 A 
ATOM     35  O   LIG d   1       9.458   9.943  -7.359  0.00  0.00    -0.449 OA
ATOM     36  C   LIG d   1      10.363   8.357  -6.064  0.00  0.00     0.196 A 
ATOM     37  C   LIG d   1       9.539   8.716  -8.108  0.00  0.00     0.234 C 
ATOM     38  O   LIG d   1      10.467   7.916  -7.352  0.00  0.00    -0.451 OA
ATOM     39  H   LIG d   1       9.924   8.904  -9.111  0.00  0.00     0.117 H 
ATOM     40  H   LIG d   1       8.564   8.230  -8.156  0.00  0.00     0.117 H 
BRANCH  27  41
ATOM     41  C   LIG d   1       9.603  10.301   0.024  0.00  0.00    -0.012 C 
ATOM     42  H   LIG d   1       9.283   9.622   0.815  0.00  0.00     0.039 H 
ATOM     43  H   LIG d   1      10.557  10.751   0.295  0.00  0.00     0.039 H 
ATOM     44  H   LIG d   1       8.856  11.084  -0.107  0.00  0.00     0.039 H 
ENDBRANCH  27  41
BRANCH  33  45
ATOM     45  O   LIG d   1       8.917  11.480  -4.868  0.00  0.00    -0.491 OA
BRANCH  45  46
ATOM     46  C   LIG d   1       9.703  12.596  -5.289  0.00  0.00     0.079 C 
ATOM     47  H   LIG d   1       9.382  12.913  -6.282  0.00  0.00     0.066 H 
ATOM     48  H   LIG d   1       9.573  13.419  -4.586  0.00  0.00     0.066 H 
ATOM     49  H   LIG d   1      10.754  12.309  -5.321  0.00  0.00     0.066 H 
ENDBRANCH  45  46
ENDBRANCH  33  45
ENDBRANCH  17  20
ENDBRANCH   1  17
BRANCH   7  50
ATOM     50  C   LIG d   1       7.951   0.833  -4.798  0.00  0.00     0.209 C 
ATOM     51  H   LIG d   1       8.698   0.765  -4.009  0.00  0.00     0.087 H 
ATOM     52  O   LIG d   1       6.765   1.454  -4.288  0.00  0.00    -0.472 OA
ATOM     53  C   LIG d   1       5.991   0.704  -3.458  0.00  0.00     0.163 A 
ATOM     54  C   LIG d   1       6.133  -0.678  -3.408  0.00  0.00     0.162 A 
ATOM     55  C   LIG d   1       5.045   1.329  -2.659  0.00  0.00    -0.016 A 
ATOM     56  O   LIG d   1       7.057  -1.311  -4.180  0.00  0.00    -0.484 OA
ATOM     57  C   LIG d   1       5.327  -1.424  -2.562  0.00  0.00    -0.016 A 
ATOM     58  C   LIG d   1       7.584  -0.574  -5.288  0.00  0.00     0.135 C 
ATOM     59  H   LIG d   1       6.833  -0.505  -6.075  0.00  0.00     0.074 H 
ATOM     60  H   LIG d   1       8.474  -1.072  -5.672  0.00  0.00     0.074 H 
ATOM     61  C   LIG d   1       4.386  -0.795  -1.768  0.00  0.00    -0.058 A 
ATOM     62  H   LIG d   1       5.434  -2.498  -2.523  0.00  0.00     0.066 H 
ATOM     63  C   LIG d   1       4.246   0.579  -1.817  0.00  0.00    -0.058 A 
ATOM     64  H   LIG d   1       3.758  -1.378  -1.111  0.00  0.00     0.062 H 
ATOM     65  H   LIG d   1       3.510   1.068  -1.197  0.00  0.00     0.062 H 
ATOM     66  H   LIG d   1       4.934   2.402  -2.695  0.00  0.00     0.066 H 
ENDBRANCH   7  50
TORSDOF 6
ENDMDL
MODEL 5
REMARK VINA RESULT:      -7.8      1.597      2.294
REMARK  6 active torsions:
REMARK  status: ('A' for Active; 'I' for Inactive)
REMARK    1  A    between atoms: C_1  and  N_2 
REMARK    2  A    between atoms: C_7  and  O_36 
REMARK    3  A    between atoms: C_10  and  S_11 
REMARK    4  A    between atoms: S_11  and  N_14 
REMARK       I    between atoms: N_17  and  C_20 
REMARK    5  A    between atoms: C_20  and  C_22 
REMARK    6  A    between atoms: O_36  and  C_37 
ROOT
ATOM      1  N   LIG d   1      10.421   5.481  -3.660  0.00  0.00    -0.173 N 
ATOM      2  C   LIG d   1       9.927   5.524  -5.043  0.00  0.00     0.036 C 
ATOM      3  C   LIG d   1      10.079   4.128  -5.661  0.00  0.00     0.029 C 
ATOM      4  N   LIG d   1       9.507   3.140  -4.736  0.00  0.00    -0.296 N 
ATOM      5  C   LIG d   1      10.000   3.097  -3.351  0.00  0.00     0.029 C 
ATOM      6  C   LIG d   1       9.853   4.488  -2.735  0.00  0.00     0.036 C 
ATOM      7  C   LIG d   1       8.547   2.289  -5.148  0.00  0.00     0.260 C 
ATOM      8  O   LIG d   1       8.147   2.334  -6.292  0.00  0.00    -0.271 OA
ATOM      9  H   LIG d   1       8.877   5.814  -5.048  0.00  0.00     0.046 H 
ATOM     10  H   LIG d   1      10.511   6.243  -5.617  0.00  0.00     0.046 H 
ATOM     11  H   LIG d   1       9.546   4.090  -6.612  0.00  0.00     0.048 H 
ATOM     12  H   LIG d   1      11.135   3.911  -5.821  0.00  0.00     0.048 H 
ATOM     13  H   LIG d   1       9.417   2.377  -2.777  0.00  0.00     0.048 H 
ATOM     14  H   LIG d   1      11.051   2.806  -3.348  0.00  0.00     0.048 H 
ATOM     15  H   LIG d   1      10.388   4.526  -1.786  0.00  0.00     0.046 H 
ATOM     16  H   LIG d   1       8.797   4.703  -2.572  0.00  0.00     0.046 H 
ENDROOT
BRANCH   1  17
ATOM     17  S   LIG d   1      11.601   6.526  -3.152  0.00  0.00     0.065 S 
ATOM     18  O   LIG d   1      12.672   6.410  -4.078  0.00  0.00    -0.153 OA
ATOM     19  O   LIG d   1      11.769   6.303  -1.759  0.00  0.00    -0.153 OA
BRANCH  17  20
ATOM     20  C   LIG d   1      10.960   8.158  -3.326  0.00  0.00     0.154 A 
ATOM     21  C   LIG d   1      11.316   8.923  -4.426  0.00  0.00    -0.008 A 
ATOM     22  C   LIG d   1      12.252   8.323  -5.444  0.00  0.00    -0.013 C 
ATOM     23  C   LIG d   1      10.816  10.201  -4.569  0.00  0.00     0.017 A 
ATOM     24  C   LIG d   1      12.190   9.122  -6.747  0.00  0.00     0.003 C 
ATOM     25  H   LIG d   1      11.962   7.291  -5.639  0.00  0.00     0.033 H 
ATOM     26  H   LIG d   1      13.271   8.344  -5.056  0.00  0.00     0.033 H 
ATOM     27  N   LIG d   1      12.361  10.549  -6.429  0.00  0.00    -0.301 N 
ATOM     28  H   LIG d   1      11.223   8.967  -7.224  0.00  0.00     0.043 H 
ATOM     29  H   LIG d   1      12.988   8.797  -7.414  0.00  0.00     0.043 H 
ATOM     30  C   LIG d   1      11.167  11.065  -5.752  0.00  0.00     0.028 C 
ATOM     31  H   LIG d   1      11.358  12.082  -5.410  0.00  0.00     0.048 H 
ATOM     32  H   LIG d   1      10.331  11.071  -6.452  0.00  0.00     0.048 H 
ATOM     33  C   LIG d   1       9.959  10.719  -3.604  0.00  0.00     0.170 A 
ATOM     34  C   LIG d   1       9.603   9.957  -2.500  0.00  0.00     0.210 A 
ATOM     35  O   LIG d   1       8.793  10.226  -1.433  0.00  0.00    -0.449 OA
ATOM     36  C   LIG d   1      10.106   8.668  -2.362  0.00  0.00     0.196 A 
ATOM     37  C   LIG d   1       9.132   9.243  -0.437  0.00  0.00     0.234 C 
ATOM     38  O   LIG d   1       9.614   8.128  -1.209  0.00  0.00    -0.451 OA
ATOM     39  H   LIG d   1       8.249   8.959   0.136  0.00  0.00     0.117 H 
ATOM     40  H   LIG d   1       9.913   9.619   0.224  0.00  0.00     0.117 H 
BRANCH  27  41
ATOM     41  C   LIG d   1      12.658  11.326  -7.639  0.00  0.00    -0.012 C 
ATOM     42  H   LIG d   1      13.067  12.297  -7.357  0.00  0.00     0.039 H 
ATOM     43  H   LIG d   1      13.385  10.788  -8.247  0.00  0.00     0.039 H 
ATOM     44  H   LIG d   1      11.741  11.471  -8.211  0.00  0.00     0.039 H 
ENDBRANCH  27  41
BRANCH  33  45
ATOM     45  O   LIG d   1       9.468  11.980  -3.741  0.00  0.00    -0.491 OA
BRANCH  45  46
ATOM     46  C   LIG d   1      10.044  12.993  -2.915  0.00  0.00     0.079 C 
ATOM     47  H   LIG d   1       9.273  13.711  -2.631  0.00  0.00     0.066 H 
ATOM     48  H   LIG d   1      10.463  12.536  -2.019  0.00  0.00     0.066 H 
ATOM     49  H   LIG d   1      10.833  13.506  -3.464  0.00  0.00     0.066 H 
ENDBRANCH  45  46
ENDBRANCH  33  45
ENDBRANCH  17  20
ENDBRANCH   1  17
BRANCH   7  50
ATOM     50  C   LIG d   1       7.970   1.281  -4.187  0.00  0.00     0.209 C 
ATOM     51  H   LIG d   1       8.582   1.240  -3.287  0.00  0.00     0.087 H 
ATOM     52  O   LIG d   1       6.630   1.653  -3.844  0.00  0.00    -0.472 OA
ATOM     53  C   LIG d   1       5.871   0.706  -3.228  0.00  0.00     0.163 A 
ATOM     54  C   LIG d   1       6.236  -0.635  -3.270  0.00  0.00     0.162 A 
ATOM     55  C   LIG d   1       4.718   1.086  -2.560  0.00  0.00    -0.016 A 
ATOM     56  O   LIG d   1       7.365  -1.030  -3.917  0.00  0.00    -0.484 OA
ATOM     57  C   LIG d   1       5.442  -1.585  -2.645  0.00  0.00    -0.016 A 
ATOM     58  C   LIG d   1       7.930  -0.102  -4.850  0.00  0.00     0.135 C 
ATOM     59  H   LIG d   1       7.314  -0.062  -5.748  0.00  0.00     0.074 H 
ATOM     60  H   LIG d   1       8.942  -0.413  -5.112  0.00  0.00     0.074 H 
ATOM     61  C   LIG d   1       4.293  -1.198  -1.980  0.00  0.00    -0.058 A 
ATOM     62  H   LIG d   1       5.722  -2.627  -2.677  0.00  0.00     0.066 H 
ATOM     63  C   LIG d   1       3.932   0.135  -1.937  0.00  0.00    -0.058 A 
ATOM     64  H   LIG d   1       3.676  -1.940  -1.494  0.00  0.00     0.062 H 
ATOM     65  H   LIG d   1       3.034   0.434  -1.417  0.00  0.00     0.062 H 
ATOM     66  H   LIG d   1       4.434   2.128  -2.525  0.00  0.00     0.066 H 
ENDBRANCH   7  50
TORSDOF 6
ENDMDL
MODEL 6
REMARK VINA RESULT:      -7.6      8.417     13.828
REMARK  6 active torsions:
REMARK  status: ('A' for Active; 'I' for Inactive)
REMARK    1  A    between atoms: C_1  and  N_2 
REMARK    2  A    between atoms: C_7  and  O_36 
REMARK    3  A    between atoms: C_10  and  S_11 
REMARK    4  A    between atoms: S_11  and  N_14 
REMARK       I    between atoms: N_17  and  C_20 
REMARK    5  A    between atoms: C_20  and  C_22 
REMARK    6  A    between atoms: O_36  and  C_37 
ROOT
ATOM      1  N   LIG d   1       7.945  -5.464  -5.910  0.00  0.00    -0.173 N 
ATOM      2  C   LIG d   1       8.378  -4.696  -7.085  0.00  0.00     0.036 C 
ATOM      3  C   LIG d   1       7.134  -4.222  -7.846  0.00  0.00     0.029 C 
ATOM      4  N   LIG d   1       6.211  -3.593  -6.891  0.00  0.00    -0.296 N 
ATOM      5  C   LIG d   1       5.777  -4.361  -5.715  0.00  0.00     0.029 C 
ATOM      6  C   LIG d   1       7.016  -4.838  -4.957  0.00  0.00     0.036 C 
ATOM      7  C   LIG d   1       5.769  -2.335  -7.089  0.00  0.00     0.260 C 
ATOM      8  O   LIG d   1       6.134  -1.711  -8.063  0.00  0.00    -0.271 OA
ATOM      9  H   LIG d   1       8.962  -3.834  -6.764  0.00  0.00     0.046 H 
ATOM     10  H   LIG d   1       8.983  -5.331  -7.733  0.00  0.00     0.046 H 
ATOM     11  H   LIG d   1       7.425  -3.495  -8.606  0.00  0.00     0.048 H 
ATOM     12  H   LIG d   1       6.646  -5.074  -8.319  0.00  0.00     0.048 H 
ATOM     13  H   LIG d   1       5.172  -3.728  -5.067  0.00  0.00     0.048 H 
ATOM     14  H   LIG d   1       5.193  -5.223  -6.037  0.00  0.00     0.048 H 
ATOM     15  H   LIG d   1       6.724  -5.566  -4.200  0.00  0.00     0.046 H 
ATOM     16  H   LIG d   1       7.501  -3.986  -4.481  0.00  0.00     0.046 H 
ENDROOT
BRANCH   1  17
ATOM     17  S   LIG d   1       8.486  -7.011  -5.665  0.00  0.00     0.065 S 
ATOM     18  O   LIG d   1       9.219  -6.997  -4.448  0.00  0.00    -0.153 OA
ATOM     19  O   LIG d   1       9.056  -7.439  -6.894  0.00  0.00    -0.153 OA
BRANCH  17  20
ATOM     20  C   LIG d   1       7.069  -8.021  -5.389  0.00  0.00     0.154 A 
ATOM     21  C   LIG d   1       6.978  -8.774  -4.229  0.00  0.00    -0.008 A 
ATOM     22  C   LIG d   1       8.110  -8.702  -3.236  0.00  0.00    -0.013 C 
ATOM     23  C   LIG d   1       5.870  -9.565  -4.005  0.00  0.00     0.017 A 
ATOM     24  C   LIG d   1       7.652  -9.243  -1.881  0.00  0.00     0.003 C 
ATOM     25  H   LIG d   1       8.427  -7.666  -3.123  0.00  0.00     0.033 H 
ATOM     26  H   LIG d   1       8.948  -9.298  -3.599  0.00  0.00     0.033 H 
ATOM     27  N   LIG d   1       7.019 -10.556  -2.092  0.00  0.00    -0.301 N 
ATOM     28  H   LIG d   1       6.932  -8.557  -1.437  0.00  0.00     0.043 H 
ATOM     29  H   LIG d   1       8.513  -9.353  -1.221  0.00  0.00     0.043 H 
ATOM     30  C   LIG d   1       5.722 -10.393  -2.756  0.00  0.00     0.028 C 
ATOM     31  H   LIG d   1       5.327 -11.374  -3.019  0.00  0.00     0.048 H 
ATOM     32  H   LIG d   1       5.030  -9.895  -2.076  0.00  0.00     0.048 H 
ATOM     33  C   LIG d   1       4.850  -9.607  -4.950  0.00  0.00     0.170 A 
ATOM     34  C   LIG d   1       4.939  -8.855  -6.114  0.00  0.00     0.210 A 
ATOM     35  O   LIG d   1       4.091  -8.722  -7.176  0.00  0.00    -0.449 OA
ATOM     36  C   LIG d   1       6.056  -8.056  -6.333  0.00  0.00     0.196 A 
ATOM     37  C   LIG d   1       4.887  -8.152  -8.232  0.00  0.00     0.234 C 
ATOM     38  O   LIG d   1       5.911  -7.422  -7.532  0.00  0.00    -0.451 OA
ATOM     39  H   LIG d   1       4.286  -7.479  -8.844  0.00  0.00     0.117 H 
ATOM     40  H   LIG d   1       5.328  -8.938  -8.847  0.00  0.00     0.117 H 
BRANCH  27  41
ATOM     41  C   LIG d   1       6.873 -11.280  -0.822  0.00  0.00    -0.012 C 
ATOM     42  H   LIG d   1       7.691 -11.010  -0.153  0.00  0.00     0.039 H 
ATOM     43  H   LIG d   1       5.923 -11.014  -0.360  0.00  0.00     0.039 H 
ATOM     44  H   LIG d   1       6.898 -12.353  -1.011  0.00  0.00     0.039 H 
ENDBRANCH  27  41
BRANCH  33  45
ATOM     45  O   LIG d   1       3.758 -10.389  -4.733  0.00  0.00    -0.491 OA
BRANCH  45  46
ATOM     46  C   LIG d   1       3.744 -11.671  -5.363  0.00  0.00     0.079 C 
ATOM     47  H   LIG d   1       3.034 -11.661  -6.191  0.00  0.00     0.066 H 
ATOM     48  H   LIG d   1       4.740 -11.901  -5.741  0.00  0.00     0.066 H 
ATOM     49  H   LIG d   1       3.447 -12.430  -4.639  0.00  0.00     0.066 H 
ENDBRANCH  45  46
ENDBRANCH  33  45
ENDBRANCH  17  20
ENDBRANCH   1  17
BRANCH   7  50
ATOM     50  C   LIG d   1       4.823  -1.704  -6.101  0.00  0.00     0.209 C 
ATOM     51  H   LIG d   1       4.010  -2.395  -5.878  0.00  0.00     0.087 H 
ATOM     52  O   LIG d   1       5.527  -1.383  -4.896  0.00  0.00    -0.472 OA
ATOM     53  C   LIG d   1       4.898  -0.548  -4.024  0.00  0.00     0.163 A 
ATOM     54  C   LIG d   1       3.824   0.233  -4.437  0.00  0.00     0.162 A 
ATOM     55  C   LIG d   1       5.340  -0.474  -2.712  0.00  0.00    -0.016 A 
ATOM     56  O   LIG d   1       3.371   0.174  -5.718  0.00  0.00    -0.484 OA
ATOM     57  C   LIG d   1       3.204   1.085  -3.535  0.00  0.00    -0.016 A 
ATOM     58  C   LIG d   1       4.252  -0.406  -6.686  0.00  0.00     0.135 C 
ATOM     59  H   LIG d   1       5.065   0.287  -6.904  0.00  0.00     0.074 H 
ATOM     60  H   LIG d   1       3.702  -0.625  -7.601  0.00  0.00     0.074 H 
ATOM     61  C   LIG d   1       3.651   1.154  -2.228  0.00  0.00    -0.058 A 
ATOM     62  H   LIG d   1       2.372   1.694  -3.853  0.00  0.00     0.066 H 
ATOM     63  C   LIG d   1       4.717   0.375  -1.818  0.00  0.00    -0.058 A 
ATOM     64  H   LIG d   1       3.167   1.819  -1.528  0.00  0.00     0.062 H 
ATOM     65  H   LIG d   1       5.064   0.432  -0.797  0.00  0.00     0.062 H 
ATOM     66  H   LIG d   1       6.173  -1.081  -2.389  0.00  0.00     0.066 H 
ENDBRANCH   7  50
TORSDOF 6
ENDMDL
MODEL 7
REMARK VINA RESULT:      -7.4      1.914      3.121
REMARK  6 active torsions:
REMARK  status: ('A' for Active; 'I' for Inactive)
REMARK    1  A    between atoms: C_1  and  N_2 
REMARK    2  A    between atoms: C_7  and  O_36 
REMARK    3  A    between atoms: C_10  and  S_11 
REMARK    4  A    between atoms: S_11  and  N_14 
REMARK       I    between atoms: N_17  and  C_20 
REMARK    5  A    between atoms: C_20  and  C_22 
REMARK    6  A    between atoms: O_36  and  C_37 
ROOT
ATOM      1  N   LIG d   1       9.820   5.209  -5.292  0.00  0.00    -0.173 N 
ATOM      2  C   LIG d   1       9.772   4.617  -6.636  0.00  0.00     0.036 C 
ATOM      3  C   LIG d   1      10.296   3.177  -6.555  0.00  0.00     0.029 C 
ATOM      4  N   LIG d   1       9.609   2.489  -5.453  0.00  0.00    -0.296 N 
ATOM      5  C   LIG d   1       9.656   3.082  -4.108  0.00  0.00     0.029 C 
ATOM      6  C   LIG d   1       9.139   4.518  -4.188  0.00  0.00     0.036 C 
ATOM      7  C   LIG d   1       8.947   1.335  -5.670  0.00  0.00     0.260 C 
ATOM      8  O   LIG d   1       8.914   0.856  -6.783  0.00  0.00    -0.271 OA
ATOM      9  H   LIG d   1       8.745   4.613  -6.998  0.00  0.00     0.046 H 
ATOM     10  H   LIG d   1      10.400   5.196  -7.313  0.00  0.00     0.046 H 
ATOM     11  H   LIG d   1      10.091   2.660  -7.493  0.00  0.00     0.048 H 
ATOM     12  H   LIG d   1      11.369   3.187  -6.367  0.00  0.00     0.048 H 
ATOM     13  H   LIG d   1       9.030   2.503  -3.430  0.00  0.00     0.048 H 
ATOM     14  H   LIG d   1      10.685   3.085  -3.747  0.00  0.00     0.048 H 
ATOM     15  H   LIG d   1       9.347   5.034  -3.250  0.00  0.00     0.046 H 
ATOM     16  H   LIG d   1       8.064   4.508  -4.372  0.00  0.00     0.046 H 
ENDROOT
BRANCH   1  17
ATOM     17  S   LIG d   1      10.634   6.627  -5.024  0.00  0.00     0.065 S 
ATOM     18  O   LIG d   1       9.657   7.595  -4.667  0.00  0.00    -0.153 OA
ATOM     19  O   LIG d   1      11.515   6.803  -6.125  0.00  0.00    -0.153 OA
BRANCH  17  20
ATOM     20  C   LIG d   1      11.647   6.385  -3.603  0.00  0.00     0.154 A 
ATOM     21  C   LIG d   1      11.482   7.201  -2.494  0.00  0.00    -0.008 A 
ATOM     22  C   LIG d   1      10.431   8.281  -2.548  0.00  0.00    -0.013 C 
ATOM     23  C   LIG d   1      12.270   7.015  -1.378  0.00  0.00     0.017 A 
ATOM     24  C   LIG d   1      10.118   8.776  -1.136  0.00  0.00     0.003 C 
ATOM     25  H   LIG d   1       9.525   7.881  -3.000  0.00  0.00     0.033 H 
ATOM     26  H   LIG d   1      10.797   9.112  -3.150  0.00  0.00     0.033 H 
ATOM     27  N   LIG d   1      11.386   9.100  -0.462  0.00  0.00    -0.301 N 
ATOM     28  H   LIG d   1       9.597   7.995  -0.582  0.00  0.00     0.043 H 
ATOM     29  H   LIG d   1       9.494   9.668  -1.191  0.00  0.00     0.043 H 
ATOM     30  C   LIG d   1      12.121   7.870  -0.147  0.00  0.00     0.028 C 
ATOM     31  H   LIG d   1      13.109   8.129   0.234  0.00  0.00     0.048 H 
ATOM     32  H   LIG d   1      11.577   7.311   0.615  0.00  0.00     0.048 H 
ATOM     33  C   LIG d   1      13.232   6.011  -1.371  0.00  0.00     0.170 A 
ATOM     34  C   LIG d   1      13.402   5.193  -2.480  0.00  0.00     0.210 A 
ATOM     35  O   LIG d   1      14.256   4.156  -2.722  0.00  0.00    -0.449 OA
ATOM     36  C   LIG d   1      12.602   5.382  -3.602  0.00  0.00     0.196 A 
ATOM     37  C   LIG d   1      14.250   3.979  -4.151  0.00  0.00     0.234 C 
ATOM     38  O   LIG d   1      12.954   4.464  -4.549  0.00  0.00    -0.451 OA
ATOM     39  H   LIG d   1      14.359   2.925  -4.407  0.00  0.00     0.117 H 
ATOM     40  H   LIG d   1      15.040   4.570  -4.614  0.00  0.00     0.117 H 
BRANCH  27  41
ATOM     41  C   LIG d   1      11.150   9.897   0.749  0.00  0.00    -0.012 C 
ATOM     42  H   LIG d   1      10.776   9.250   1.543  0.00  0.00     0.039 H 
ATOM     43  H   LIG d   1      12.084  10.360   1.067  0.00  0.00     0.039 H 
ATOM     44  H   LIG d   1      10.414  10.672   0.536  0.00  0.00     0.039 H 
ENDBRANCH  27  41
BRANCH  33  45
ATOM     45  O   LIG d   1      14.013   5.829  -0.272  0.00  0.00    -0.491 OA
BRANCH  45  46
ATOM     46  C   LIG d   1      15.383   6.219  -0.377  0.00  0.00     0.079 C 
ATOM     47  H   LIG d   1      15.440   7.265  -0.682  0.00  0.00     0.066 H 
ATOM     48  H   LIG d   1      15.872   6.096   0.589  0.00  0.00     0.066 H 
ATOM     49  H   LIG d   1      15.883   5.597  -1.119  0.00  0.00     0.066 H 
ENDBRANCH  45  46
ENDBRANCH  33  45
ENDBRANCH  17  20
ENDBRANCH   1  17
BRANCH   7  50
ATOM     50  C   LIG d   1       8.248   0.641  -4.530  0.00  0.00     0.209 C 
ATOM     51  H   LIG d   1       8.894   0.635  -3.652  0.00  0.00     0.087 H 
ATOM     52  O   LIG d   1       7.027   1.325  -4.225  0.00  0.00    -0.472 OA
ATOM     53  C   LIG d   1       6.139   0.667  -3.430  0.00  0.00     0.163 A 
ATOM     54  C   LIG d   1       6.238  -0.707  -3.239  0.00  0.00     0.162 A 
ATOM     55  C   LIG d   1       5.122   1.377  -2.811  0.00  0.00    -0.016 A 
ATOM     56  O   LIG d   1       7.231  -1.423  -3.833  0.00  0.00    -0.484 OA
ATOM     57  C   LIG d   1       5.317  -1.359  -2.433  0.00  0.00    -0.016 A 
ATOM     58  C   LIG d   1       7.905  -0.799  -4.931  0.00  0.00     0.135 C 
ATOM     59  H   LIG d   1       7.255  -0.792  -5.806  0.00  0.00     0.074 H 
ATOM     60  H   LIG d   1       8.821  -1.345  -5.159  0.00  0.00     0.074 H 
ATOM     61  C   LIG d   1       4.305  -0.644  -1.820  0.00  0.00    -0.058 A 
ATOM     62  H   LIG d   1       5.391  -2.426  -2.285  0.00  0.00     0.066 H 
ATOM     63  C   LIG d   1       4.208   0.722  -2.008  0.00  0.00    -0.058 A 
ATOM     64  H   LIG d   1       3.588  -1.155  -1.193  0.00  0.00     0.062 H 
ATOM     65  H   LIG d   1       3.417   1.277  -1.528  0.00  0.00     0.062 H 
ATOM     66  H   LIG d   1       5.044   2.445  -2.957  0.00  0.00     0.066 H 
ENDBRANCH   7  50
TORSDOF 6
ENDMDL
MODEL 8
REMARK VINA RESULT:      -7.4      1.747      3.476
REMARK  6 active torsions:
REMARK  status: ('A' for Active; 'I' for Inactive)
REMARK    1  A    between atoms: C_1  and  N_2 
REMARK    2  A    between atoms: C_7  and  O_36 
REMARK    3  A    between atoms: C_10  and  S_11 
REMARK    4  A    between atoms: S_11  and  N_14 
REMARK       I    between atoms: N_17  and  C_20 
REMARK    5  A    between atoms: C_20  and  C_22 
REMARK    6  A    between atoms: O_36  and  C_37 
ROOT
ATOM      1  N   LIG d   1      10.550   5.378  -3.621  0.00  0.00    -0.173 N 
ATOM      2  C   LIG d   1      10.014   5.491  -4.985  0.00  0.00     0.036 C 
ATOM      3  C   LIG d   1      10.117   4.120  -5.667  0.00  0.00     0.029 C 
ATOM      4  N   LIG d   1       9.553   3.105  -4.766  0.00  0.00    -0.296 N 
ATOM      5  C   LIG d   1      10.088   2.992  -3.402  0.00  0.00     0.029 C 
ATOM      6  C   LIG d   1       9.990   4.358  -2.722  0.00  0.00     0.036 C 
ATOM      7  C   LIG d   1       8.563   2.292  -5.184  0.00  0.00     0.260 C 
ATOM      8  O   LIG d   1       8.129   2.395  -6.311  0.00  0.00    -0.271 OA
ATOM      9  H   LIG d   1       8.971   5.802  -4.943  0.00  0.00     0.046 H 
ATOM     10  H   LIG d   1      10.596   6.222  -5.546  0.00  0.00     0.046 H 
ATOM     11  H   LIG d   1       9.555   4.134  -6.601  0.00  0.00     0.048 H 
ATOM     12  H   LIG d   1      11.163   3.889  -5.869  0.00  0.00     0.048 H 
ATOM     13  H   LIG d   1       9.508   2.260  -2.840  0.00  0.00     0.048 H 
ATOM     14  H   LIG d   1      11.132   2.680  -3.444  0.00  0.00     0.048 H 
ATOM     15  H   LIG d   1      10.555   4.343  -1.790  0.00  0.00     0.046 H 
ATOM     16  H   LIG d   1       8.944   4.587  -2.516  0.00  0.00     0.046 H 
ENDROOT
BRANCH   1  17
ATOM     17  S   LIG d   1      11.768   6.376  -3.107  0.00  0.00     0.065 S 
ATOM     18  O   LIG d   1      12.982   5.662  -3.288  0.00  0.00    -0.153 OA
ATOM     19  O   LIG d   1      11.365   6.890  -1.845  0.00  0.00    -0.153 OA
BRANCH  17  20
ATOM     20  C   LIG d   1      11.819   7.747  -4.214  0.00  0.00     0.154 A 
ATOM     21  C   LIG d   1      11.046   8.869  -3.955  0.00  0.00    -0.008 A 
ATOM     22  C   LIG d   1      10.177   8.872  -2.723  0.00  0.00    -0.013 C 
ATOM     23  C   LIG d   1      11.083   9.945  -4.816  0.00  0.00     0.017 A 
ATOM     24  C   LIG d   1       9.747  10.301  -2.392  0.00  0.00     0.003 C 
ATOM     25  H   LIG d   1      10.737   8.460  -1.885  0.00  0.00     0.033 H 
ATOM     26  H   LIG d   1       9.293   8.260  -2.902  0.00  0.00     0.033 H 
ATOM     27  N   LIG d   1       9.195  10.918  -3.610  0.00  0.00    -0.301 N 
ATOM     28  H   LIG d   1      10.608  10.873  -2.050  0.00  0.00     0.043 H 
ATOM     29  H   LIG d   1       8.984  10.283  -1.614  0.00  0.00     0.043 H 
ATOM     30  C   LIG d   1      10.269  11.188  -4.572  0.00  0.00     0.028 C 
ATOM     31  H   LIG d   1       9.833  11.524  -5.513  0.00  0.00     0.048 H 
ATOM     32  H   LIG d   1      10.918  11.970  -4.176  0.00  0.00     0.048 H 
ATOM     33  C   LIG d   1      11.895   9.899  -5.945  0.00  0.00     0.170 A 
ATOM     34  C   LIG d   1      12.668   8.776  -6.208  0.00  0.00     0.210 A 
ATOM     35  O   LIG d   1      13.532   8.486  -7.226  0.00  0.00    -0.449 OA
ATOM     36  C   LIG d   1      12.630   7.695  -5.335  0.00  0.00     0.196 A 
ATOM     37  C   LIG d   1      13.708   7.058  -7.184  0.00  0.00     0.234 C 
ATOM     38  O   LIG d   1      13.469   6.725  -5.804  0.00  0.00    -0.451 OA
ATOM     39  H   LIG d   1      14.725   6.789  -7.472  0.00  0.00     0.117 H 
ATOM     40  H   LIG d   1      12.983   6.563  -7.829  0.00  0.00     0.117 H 
BRANCH  27  41
ATOM     41  C   LIG d   1       8.454  12.145  -3.290  0.00  0.00    -0.012 C 
ATOM     42  H   LIG d   1       8.020  12.555  -4.202  0.00  0.00     0.039 H 
ATOM     43  H   LIG d   1       7.659  11.914  -2.581  0.00  0.00     0.039 H 
ATOM     44  H   LIG d   1       9.132  12.875  -2.850  0.00  0.00     0.039 H 
ENDBRANCH  27  41
BRANCH  33  45
ATOM     45  O   LIG d   1      11.930  10.959  -6.797  0.00  0.00    -0.491 OA
BRANCH  45  46
ATOM     46  C   LIG d   1      11.219  10.824  -8.029  0.00  0.00     0.079 C 
ATOM     47  H   LIG d   1      11.486   9.878  -8.501  0.00  0.00     0.066 H 
ATOM     48  H   LIG d   1      10.147  10.842  -7.834  0.00  0.00     0.066 H 
ATOM     49  H   LIG d   1      11.481  11.648  -8.693  0.00  0.00     0.066 H 
ENDBRANCH  45  46
ENDBRANCH  33  45
ENDBRANCH  17  20
ENDBRANCH   1  17
BRANCH   7  50
ATOM     50  C   LIG d   1       7.994   1.255  -4.249  0.00  0.00     0.209 C 
ATOM     51  H   LIG d   1       8.660   1.126  -3.396  0.00  0.00     0.087 H 
ATOM     52  O   LIG d   1       6.702   1.671  -3.795  0.00  0.00    -0.472 OA
ATOM     53  C   LIG d   1       5.933   0.726  -3.188  0.00  0.00     0.163 A 
ATOM     54  C   LIG d   1       6.221  -0.626  -3.335  0.00  0.00     0.162 A 
ATOM     55  C   LIG d   1       4.847   1.120  -2.422  0.00  0.00    -0.016 A 
ATOM     56  O   LIG d   1       7.284  -1.036  -4.079  0.00  0.00    -0.484 OA
ATOM     57  C   LIG d   1       5.418  -1.573  -2.716  0.00  0.00    -0.016 A 
ATOM     58  C   LIG d   1       7.838  -0.080  -4.989  0.00  0.00     0.135 C 
ATOM     59  H   LIG d   1       7.169   0.049  -5.840  0.00  0.00     0.074 H 
ATOM     60  H   LIG d   1       8.812  -0.424  -5.337  0.00  0.00     0.074 H 
ATOM     61  C   LIG d   1       4.337  -1.172  -1.954  0.00  0.00    -0.058 A 
ATOM     62  H   LIG d   1       5.638  -2.624  -2.830  0.00  0.00     0.066 H 
ATOM     63  C   LIG d   1       4.052   0.172  -1.807  0.00  0.00    -0.058 A 
ATOM     64  H   LIG d   1       3.713  -1.912  -1.474  0.00  0.00     0.062 H 
ATOM     65  H   LIG d   1       3.207   0.482  -1.211  0.00  0.00     0.062 H 
ATOM     66  H   LIG d   1       4.622   2.171  -2.306  0.00  0.00     0.066 H 
ENDBRANCH   7  50
TORSDOF 6
ENDMDL
MODEL 9
REMARK VINA RESULT:      -7.3      8.384     13.383
REMARK  6 active torsions:
REMARK  status: ('A' for Active; 'I' for Inactive)
REMARK    1  A    between atoms: C_1  and  N_2 
REMARK    2  A    between atoms: C_7  and  O_36 
REMARK    3  A    between atoms: C_10  and  S_11 
REMARK    4  A    between atoms: S_11  and  N_14 
REMARK       I    between atoms: N_17  and  C_20 
REMARK    5  A    between atoms: C_20  and  C_22 
REMARK    6  A    between atoms: O_36  and  C_37 
ROOT
ATOM      1  N   LIG d   1       7.604  -5.908  -6.342  0.00  0.00    -0.173 N 
ATOM      2  C   LIG d   1       8.435  -4.981  -7.122  0.00  0.00     0.036 C 
ATOM      3  C   LIG d   1       7.514  -4.074  -7.949  0.00  0.00     0.029 C 
ATOM      4  N   LIG d   1       6.479  -3.524  -7.062  0.00  0.00    -0.296 N 
ATOM      5  C   LIG d   1       5.648  -4.452  -6.282  0.00  0.00     0.029 C 
ATOM      6  C   LIG d   1       6.565  -5.358  -5.460  0.00  0.00     0.036 C 
ATOM      7  C   LIG d   1       6.295  -2.192  -6.966  0.00  0.00     0.260 C 
ATOM      8  O   LIG d   1       6.987  -1.436  -7.615  0.00  0.00    -0.271 OA
ATOM      9  H   LIG d   1       9.037  -4.373  -6.448  0.00  0.00     0.046 H 
ATOM     10  H   LIG d   1       9.085  -5.546  -7.790  0.00  0.00     0.046 H 
ATOM     11  H   LIG d   1       8.095  -3.260  -8.382  0.00  0.00     0.048 H 
ATOM     12  H   LIG d   1       7.044  -4.655  -8.743  0.00  0.00     0.048 H 
ATOM     13  H   LIG d   1       4.996  -3.887  -5.615  0.00  0.00     0.048 H 
ATOM     14  H   LIG d   1       5.045  -5.059  -6.957  0.00  0.00     0.048 H 
ATOM     15  H   LIG d   1       5.982  -6.173  -5.030  0.00  0.00     0.046 H 
ATOM     16  H   LIG d   1       7.031  -4.778  -4.664  0.00  0.00     0.046 H 
ENDROOT
BRANCH   1  17
ATOM     17  S   LIG d   1       7.829  -7.546  -6.460  0.00  0.00     0.065 S 
ATOM     18  O   LIG d   1       9.180  -7.742  -6.852  0.00  0.00    -0.153 OA
ATOM     19  O   LIG d   1       6.735  -8.052  -7.213  0.00  0.00    -0.153 OA
BRANCH  17  20
ATOM     20  C   LIG d   1       7.673  -8.211  -4.836  0.00  0.00     0.154 A 
ATOM     21  C   LIG d   1       6.561  -8.972  -4.509  0.00  0.00    -0.008 A 
ATOM     22  C   LIG d   1       5.512  -9.201  -5.567  0.00  0.00    -0.013 C 
ATOM     23  C   LIG d   1       6.434  -9.497  -3.240  0.00  0.00     0.017 A 
ATOM     24  C   LIG d   1       4.612 -10.370  -5.167  0.00  0.00     0.003 C 
ATOM     25  H   LIG d   1       5.999  -9.428  -6.515  0.00  0.00     0.033 H 
ATOM     26  H   LIG d   1       4.908  -8.300  -5.680  0.00  0.00     0.033 H 
ATOM     27  N   LIG d   1       4.144 -10.148  -3.788  0.00  0.00    -0.301 N 
ATOM     28  H   LIG d   1       5.176 -11.300  -5.216  0.00  0.00     0.043 H 
ATOM     29  H   LIG d   1       3.756 -10.421  -5.839  0.00  0.00     0.043 H 
ATOM     30  C   LIG d   1       5.249 -10.336  -2.842  0.00  0.00     0.028 C 
ATOM     31  H   LIG d   1       4.921 -10.046  -1.844  0.00  0.00     0.048 H 
ATOM     32  H   LIG d   1       5.540 -11.387  -2.833  0.00  0.00     0.048 H 
ATOM     33  C   LIG d   1       7.422  -9.256  -2.291  0.00  0.00     0.170 A 
ATOM     34  C   LIG d   1       8.535  -8.493  -2.615  0.00  0.00     0.210 A 
ATOM     35  O   LIG d   1       9.625  -8.120  -1.881  0.00  0.00    -0.449 OA
ATOM     36  C   LIG d   1       8.661  -7.969  -3.896  0.00  0.00     0.196 A 
ATOM     37  C   LIG d   1      10.216  -7.023  -2.603  0.00  0.00     0.234 C 
ATOM     38  O   LIG d   1       9.829  -7.266  -3.968  0.00  0.00    -0.451 OA
ATOM     39  H   LIG d   1      11.301  -7.040  -2.504  0.00  0.00     0.117 H 
ATOM     40  H   LIG d   1       9.814  -6.072  -2.253  0.00  0.00     0.117 H 
BRANCH  27  41
ATOM     41  C   LIG d   1       3.018 -11.034  -3.466  0.00  0.00    -0.012 C 
ATOM     42  H   LIG d   1       2.116 -10.438  -3.324  0.00  0.00     0.039 H 
ATOM     43  H   LIG d   1       2.864 -11.738  -4.283  0.00  0.00     0.039 H 
ATOM     44  H   LIG d   1       3.238 -11.583  -2.550  0.00  0.00     0.039 H 
ENDBRANCH  27  41
BRANCH  33  45
ATOM     45  O   LIG d   1       7.296  -9.771  -1.038  0.00  0.00    -0.491 OA
BRANCH  45  46
ATOM     46  C   LIG d   1       8.081 -10.922  -0.728  0.00  0.00     0.079 C 
ATOM     47  H   LIG d   1       8.758 -11.134  -1.556  0.00  0.00     0.066 H 
ATOM     48  H   LIG d   1       8.662 -10.734   0.176  0.00  0.00     0.066 H 
ATOM     49  H   LIG d   1       7.426 -11.778  -0.566  0.00  0.00     0.066 H 
ENDBRANCH  45  46
ENDBRANCH  33  45
ENDBRANCH  17  20
ENDBRANCH   1  17
BRANCH   7  50
ATOM     50  C   LIG d   1       5.229  -1.642  -6.053  0.00  0.00     0.209 C 
ATOM     51  H   LIG d   1       4.458  -2.396  -5.893  0.00  0.00     0.087 H 
ATOM     52  O   LIG d   1       5.812  -1.275  -4.798  0.00  0.00    -0.472 OA
ATOM     53  C   LIG d   1       5.056  -0.496  -3.976  0.00  0.00     0.163 A 
ATOM     54  C   LIG d   1       3.960   0.202  -4.470  0.00  0.00     0.162 A 
ATOM     55  C   LIG d   1       5.390  -0.396  -2.635  0.00  0.00    -0.016 A 
ATOM     56  O   LIG d   1       3.611   0.115  -5.782  0.00  0.00    -0.484 OA
ATOM     57  C   LIG d   1       3.208   0.997  -3.618  0.00  0.00    -0.016 A 
ATOM     58  C   LIG d   1       4.606  -0.389  -6.680  0.00  0.00     0.135 C 
ATOM     59  H   LIG d   1       5.377   0.366  -6.835  0.00  0.00     0.074 H 
ATOM     60  H   LIG d   1       4.145  -0.645  -7.634  0.00  0.00     0.074 H 
ATOM     61  C   LIG d   1       3.548   1.093  -2.281  0.00  0.00    -0.058 A 
ATOM     62  H   LIG d   1       2.358   1.542  -3.999  0.00  0.00     0.066 H 
ATOM     63  C   LIG d   1       4.637   0.397  -1.790  0.00  0.00    -0.058 A 
ATOM     64  H   LIG d   1       2.962   1.714  -1.619  0.00  0.00     0.062 H 
ATOM     65  H   LIG d   1       4.900   0.474  -0.746  0.00  0.00     0.062 H 
ATOM     66  H   LIG d   1       6.241  -0.939  -2.249  0.00  0.00     0.066 H 
ENDBRANCH   7  50
TORSDOF 6
ENDMDL
MODEL 10
REMARK VINA RESULT:      -7.1      3.326      9.697
REMARK  6 active torsions:
REMARK  status: ('A' for Active; 'I' for Inactive)
REMARK    1  A    between atoms: C_1  and  N_2 
REMARK    2  A    between atoms: C_7  and  O_36 
REMARK    3  A    between atoms: C_10  and  S_11 
REMARK    4  A    between atoms: S_11  and  N_14 
REMARK       I    between atoms: N_17  and  C_20 
REMARK    5  A    between atoms: C_20  and  C_22 
REMARK    6  A    between atoms: O_36  and  C_37 
ROOT
ATOM      1  N   LIG d   1       7.880  -0.627  -4.569  0.00  0.00    -0.173 N 
ATOM      2  C   LIG d   1       9.244  -0.646  -5.116  0.00  0.00     0.036 C 
ATOM      3  C   LIG d   1       9.499   0.680  -5.844  0.00  0.00     0.029 C 
ATOM      4  N   LIG d   1       9.108   1.784  -4.957  0.00  0.00    -0.296 N 
ATOM      5  C   LIG d   1       7.743   1.804  -4.409  0.00  0.00     0.029 C 
ATOM      6  C   LIG d   1       7.486   0.481  -3.687  0.00  0.00     0.036 C 
ATOM      7  C   LIG d   1       9.983   2.762  -4.651  0.00  0.00     0.260 C 
ATOM      8  O   LIG d   1      11.106   2.735  -5.108  0.00  0.00    -0.271 OA
ATOM      9  H   LIG d   1       9.962  -0.763  -4.305  0.00  0.00     0.046 H 
ATOM     10  H   LIG d   1       9.344  -1.474  -5.818  0.00  0.00     0.046 H 
ATOM     11  H   LIG d   1      10.558   0.765  -6.088  0.00  0.00     0.048 H 
ATOM     12  H   LIG d   1       8.906   0.717  -6.757  0.00  0.00     0.048 H 
ATOM     13  H   LIG d   1       7.643   2.632  -3.707  0.00  0.00     0.048 H 
ATOM     14  H   LIG d   1       7.026   1.921  -5.222  0.00  0.00     0.048 H 
ATOM     15  H   LIG d   1       6.427   0.397  -3.445  0.00  0.00     0.046 H 
ATOM     16  H   LIG d   1       8.077   0.447  -2.771  0.00  0.00     0.046 H 
ENDROOT
BRANCH   1  17
ATOM     17  S   LIG d   1       6.803  -1.828  -4.945  0.00  0.00     0.065 S 
ATOM     18  O   LIG d   1       6.143  -2.175  -3.736  0.00  0.00    -0.153 OA
ATOM     19  O   LIG d   1       7.513  -2.779  -5.727  0.00  0.00    -0.153 OA
BRANCH  17  20
ATOM     20  C   LIG d   1       5.583  -1.120  -6.000  0.00  0.00     0.154 A 
ATOM     21  C   LIG d   1       5.794  -1.087  -7.370  0.00  0.00    -0.008 A 
ATOM     22  C   LIG d   1       7.079  -1.661  -7.912  0.00  0.00    -0.013 C 
ATOM     23  C   LIG d   1       4.842  -0.536  -8.202  0.00  0.00     0.017 A 
ATOM     24  C   LIG d   1       6.947  -1.912  -9.414  0.00  0.00     0.003 C 
ATOM     25  H   LIG d   1       7.296  -2.601  -7.406  0.00  0.00     0.033 H 
ATOM     26  H   LIG d   1       7.893  -0.959  -7.732  0.00  0.00     0.033 H 
ATOM     27  N   LIG d   1       6.433  -0.687 -10.049  0.00  0.00    -0.301 N 
ATOM     28  H   LIG d   1       6.252  -2.733  -9.588  0.00  0.00     0.043 H 
ATOM     29  H   LIG d   1       7.923  -2.159  -9.831  0.00  0.00     0.043 H 
ATOM     30  C   LIG d   1       5.024  -0.486  -9.696  0.00  0.00     0.028 C 
ATOM     31  H   LIG d   1       4.695   0.485 -10.067  0.00  0.00     0.048 H 
ATOM     32  H   LIG d   1       4.422  -1.270 -10.157  0.00  0.00     0.048 H 
ATOM     33  C   LIG d   1       3.672  -0.012  -7.661  0.00  0.00     0.170 A 
ATOM     34  C   LIG d   1       3.458  -0.042  -6.290  0.00  0.00     0.210 A 
ATOM     35  O   LIG d   1       2.416   0.396  -5.524  0.00  0.00    -0.449 OA
ATOM     36  C   LIG d   1       4.419  -0.602  -5.456  0.00  0.00     0.196 A 
ATOM     37  C   LIG d   1       2.931   0.468  -4.181  0.00  0.00     0.234 C 
ATOM     38  O   LIG d   1       3.982  -0.515  -4.166  0.00  0.00    -0.451 OA
ATOM     39  H   LIG d   1       2.155   0.211  -3.459  0.00  0.00     0.117 H 
ATOM     40  H   LIG d   1       3.331   1.461  -3.977  0.00  0.00     0.117 H 
BRANCH  27  41
ATOM     41  C   LIG d   1       6.609  -0.736 -11.507  0.00  0.00    -0.012 C 
ATOM     42  H   LIG d   1       6.207   0.174 -11.952  0.00  0.00     0.039 H 
ATOM     43  H   LIG d   1       7.670  -0.819 -11.742  0.00  0.00     0.039 H 
ATOM     44  H   LIG d   1       6.080  -1.601 -11.908  0.00  0.00     0.039 H 
ENDBRANCH  27  41
BRANCH  33  45
ATOM     45  O   LIG d   1       2.734   0.535  -8.480  0.00  0.00    -0.491 OA
BRANCH  45  46
ATOM     46  C   LIG d   1       2.764   1.953  -8.644  0.00  0.00     0.079 C 
ATOM     47  H   LIG d   1       2.437   2.210  -9.653  0.00  0.00     0.066 H 
ATOM     48  H   LIG d   1       2.096   2.417  -7.918  0.00  0.00     0.066 H 
ATOM     49  H   LIG d   1       3.779   2.317  -8.488  0.00  0.00     0.066 H 
ENDBRANCH  45  46
ENDBRANCH  33  45
ENDBRANCH  17  20
ENDBRANCH   1  17
BRANCH   7  50
ATOM     50  C   LIG d   1       9.567   3.889  -3.740  0.00  0.00     0.209 C 
ATOM     51  H   LIG d   1       8.580   3.682  -3.328  0.00  0.00     0.087 H 
ATOM     52  O   LIG d   1      10.515   4.024  -2.675  0.00  0.00    -0.472 OA
ATOM     53  C   LIG d   1      10.452   5.169  -1.942  0.00  0.00     0.163 A 
ATOM     54  C   LIG d   1       9.775   6.284  -2.422  0.00  0.00     0.162 A 
ATOM     55  C   LIG d   1      11.077   5.221  -0.706  0.00  0.00    -0.016 A 
ATOM     56  O   LIG d   1       9.151   6.254  -3.631  0.00  0.00    -0.484 OA
ATOM     57  C   LIG d   1       9.732   7.444  -1.663  0.00  0.00    -0.016 A 
ATOM     58  C   LIG d   1       9.535   5.206  -4.527  0.00  0.00     0.135 C 
ATOM     59  H   LIG d   1      10.524   5.414  -4.935  0.00  0.00     0.074 H 
ATOM     60  H   LIG d   1       8.811   5.131  -5.338  0.00  0.00     0.074 H 
ATOM     61  C   LIG d   1      10.358   7.489  -0.431  0.00  0.00    -0.058 A 
ATOM     62  H   LIG d   1       9.208   8.312  -2.034  0.00  0.00     0.066 H 
ATOM     63  C   LIG d   1      11.029   6.379   0.047  0.00  0.00    -0.058 A 
ATOM     64  H   LIG d   1      10.323   8.394   0.158  0.00  0.00     0.062 H 
ATOM     65  H   LIG d   1      11.517   6.417   1.009  0.00  0.00     0.062 H 
ATOM     66  H   LIG d   1      11.602   4.355  -0.330  0.00  0.00     0.066 H 
ENDBRANCH   7  50
TORSDOF 6
ENDMDL
