MODEL 1
REMARK VINA RESULT:      -6.9      0.000      0.000
REMARK  8 active torsions:
REMARK  status: ('A' for Active; 'I' for Inactive)
REMARK    1  A    between atoms: C_1  and  C_2 
REMARK    2  A    between atoms: C_3  and  C_4 
REMARK    3  A    between atoms: C_3  and  C_5 
REMARK    4  A    between atoms: C_5  and  O_7 
REMARK    5  A    between atoms: O_7  and  C_8 
REMARK    6  A    between atoms: C_22  and  C_26 
REMARK    7  A    between atoms: C_22  and  C_27 
REMARK    8  A    between atoms: C_23  and  O_25 
ROOT
ATOM      1  C   LIG d   1       4.610  -0.611  -6.911  0.00  0.00     0.165 C 
ATOM      2  H   LIG d   1       5.271   0.204  -7.206  0.00  0.00     0.082 H 
ATOM      3  C   LIG d   1       5.017  -1.117  -5.550  0.00  0.00     0.080 A 
ATOM      4  C   LIG d   1       5.740  -2.285  -5.398  0.00  0.00     0.132 A 
ATOM      5  C   LIG d   1       6.107  -2.726  -4.123  0.00  0.00    -0.019 A 
ATOM      6  C   LIG d   1       5.757  -2.016  -3.014  0.00  0.00    -0.048 A 
ATOM      7  C   LIG d   1       5.023  -0.832  -3.150  0.00  0.00     0.018 A 
ATOM      8  C   LIG d   1       4.650  -0.379  -4.428  0.00  0.00     0.149 A 
ATOM      9  O   LIG d   1       3.942   0.760  -4.568  0.00  0.00    -0.422 OA
ATOM     10  C   LIG d   1       3.587   1.477  -3.494  0.00  0.00     0.337 A 
ATOM     11  O   LIG d   1       2.949   2.502  -3.660  0.00  0.00    -0.245 OA
ATOM     12  C   LIG d   1       3.920   1.090  -2.181  0.00  0.00     0.024 A 
ATOM     13  C   LIG d   1       4.631  -0.050  -1.976  0.00  0.00    -0.044 A 
ATOM     14  O   LIG d   1       6.108  -3.038  -6.467  0.00  0.00    -0.483 OA
ATOM     15  C   LIG d   1       6.075  -2.429  -7.758  0.00  0.00     0.135 C 
ATOM     16  C   LIG d   1       4.712  -1.746  -7.933  0.00  0.00     0.135 C 
ATOM     17  H   LIG d   1       4.633  -1.340  -8.942  0.00  0.00     0.067 H 
ATOM     18  H   LIG d   1       6.674  -3.638  -4.016  0.00  0.00     0.065 H 
ATOM     19  H   LIG d   1       6.045  -2.365  -2.034  0.00  0.00     0.063 H 
ATOM     20  H   LIG d   1       3.613   1.697  -1.343  0.00  0.00     0.069 H 
ATOM     21  H   LIG d   1       4.899  -0.367  -0.979  0.00  0.00     0.063 H 
ENDROOT
BRANCH   1  22
ATOM     22  O   LIG d   1       3.263  -0.138  -6.859  0.00  0.00    -0.450 OA
BRANCH  22  23
ATOM     23  C   LIG d   1       2.934   0.865  -7.698  0.00  0.00     0.335 C 
ATOM     24  O   LIG d   1       2.770   1.989  -7.266  0.00  0.00    -0.245 OA
BRANCH  23  25
ATOM     25  C   LIG d   1       2.776   0.599  -9.134  0.00  0.00     0.029 C 
ATOM     26  C   LIG d   1       3.584   1.189 -10.013  0.00  0.00    -0.077 C 
ATOM     27  H   LIG d   1       3.410   1.067 -11.072  0.00  0.00     0.057 H 
BRANCH  26  28
ATOM     28  C   LIG d   1       4.740   2.026  -9.530  0.00  0.00    -0.046 C 
ATOM     29  H   LIG d   1       5.246   1.509  -8.714  0.00  0.00     0.027 H 
ATOM     30  H   LIG d   1       5.440   2.185 -10.350  0.00  0.00     0.027 H 
ATOM     31  H   LIG d   1       4.370   2.988  -9.176  0.00  0.00     0.027 H 
ENDBRANCH  26  28
BRANCH  25  32
ATOM     32  C   LIG d   1       1.699  -0.340  -9.614  0.00  0.00    -0.033 C 
ATOM     33  H   LIG d   1       2.159  -1.218 -10.068  0.00  0.00     0.028 H 
ATOM     34  H   LIG d   1       1.084  -0.648  -8.768  0.00  0.00     0.028 H 
ATOM     35  H   LIG d   1       1.076   0.166 -10.350  0.00  0.00     0.028 H 
ENDBRANCH  25  32
ENDBRANCH  23  25
ENDBRANCH  22  23
ENDBRANCH   1  22
BRANCH  16  36
ATOM     36  O   LIG d   1       3.666  -2.692  -7.710  0.00  0.00    -0.384 OA
ATOM     37  H   LIG d   1       3.968  -3.610  -7.666  0.00  0.00     0.210 HD
ENDBRANCH  16  36
BRANCH  15  38
ATOM     38  C   LIG d   1       7.193  -1.389  -7.867  0.00  0.00    -0.023 C 
ATOM     39  H   LIG d   1       8.157  -1.895  -7.899  0.00  0.00     0.027 H 
ATOM     40  H   LIG d   1       7.058  -0.806  -8.777  0.00  0.00     0.027 H 
ATOM     41  H   LIG d   1       7.157  -0.727  -7.003  0.00  0.00     0.027 H 
ENDBRANCH  15  38
BRANCH  15  42
ATOM     42  C   LIG d   1       6.258  -3.499  -8.837  0.00  0.00    -0.023 C 
ATOM     43  H   LIG d   1       7.173  -3.301  -9.394  0.00  0.00     0.027 H 
ATOM     44  H   LIG d   1       6.321  -4.481  -8.369  0.00  0.00     0.027 H 
ATOM     45  H   LIG d   1       5.407  -3.475  -9.518  0.00  0.00     0.027 H 
ENDBRANCH  15  42
TORSDOF 8
ENDMDL
MODEL 2
REMARK VINA RESULT:      -6.6      1.474      5.110
REMARK  8 active torsions:
REMARK  status: ('A' for Active; 'I' for Inactive)
REMARK    1  A    between atoms: C_1  and  C_2 
REMARK    2  A    between atoms: C_3  and  C_4 
REMARK    3  A    between atoms: C_3  and  C_5 
REMARK    4  A    between atoms: C_5  and  O_7 
REMARK    5  A    between atoms: O_7  and  C_8 
REMARK    6  A    between atoms: C_22  and  C_26 
REMARK    7  A    between atoms: C_22  and  C_27 
REMARK    8  A    between atoms: C_23  and  O_25 
ROOT
ATOM      1  C   LIG d   1       4.532  -1.441  -5.916  0.00  0.00     0.165 C 
ATOM      2  H   LIG d   1       3.521  -1.849  -5.897  0.00  0.00     0.082 H 
ATOM      3  C   LIG d   1       4.971  -1.253  -7.346  0.00  0.00     0.080 A 
ATOM      4  C   LIG d   1       5.832  -2.141  -7.961  0.00  0.00     0.132 A 
ATOM      5  C   LIG d   1       6.216  -1.944  -9.291  0.00  0.00    -0.019 A 
ATOM      6  C   LIG d   1       5.752  -0.875  -9.999  0.00  0.00    -0.048 A 
ATOM      7  C   LIG d   1       4.880   0.035  -9.389  0.00  0.00     0.018 A 
ATOM      8  C   LIG d   1       4.487  -0.156  -8.053  0.00  0.00     0.149 A 
ATOM      9  O   LIG d   1       3.648   0.716  -7.459  0.00  0.00    -0.422 OA
ATOM     10  C   LIG d   1       3.176   1.774  -8.131  0.00  0.00     0.337 A 
ATOM     11  O   LIG d   1       2.418   2.540  -7.562  0.00  0.00    -0.245 OA
ATOM     12  C   LIG d   1       3.524   2.035  -9.471  0.00  0.00     0.024 A 
ATOM     13  C   LIG d   1       4.367   1.193 -10.123  0.00  0.00    -0.044 A 
ATOM     14  O   LIG d   1       6.334  -3.219  -7.303  0.00  0.00    -0.483 OA
ATOM     15  C   LIG d   1       5.677  -3.637  -6.106  0.00  0.00     0.135 C 
ATOM     16  C   LIG d   1       5.485  -2.407  -5.208  0.00  0.00     0.135 C 
ATOM     17  H   LIG d   1       5.056  -2.713  -4.254  0.00  0.00     0.067 H 
ATOM     18  H   LIG d   1       6.888  -2.645  -9.762  0.00  0.00     0.065 H 
ATOM     19  H   LIG d   1       6.055  -0.732 -11.025  0.00  0.00     0.063 H 
ATOM     20  H   LIG d   1       3.122   2.900  -9.977  0.00  0.00     0.069 H 
ATOM     21  H   LIG d   1       4.649   1.372 -11.151  0.00  0.00     0.063 H 
ENDROOT
BRANCH   1  22
ATOM     22  O   LIG d   1       4.549  -0.180  -5.244  0.00  0.00    -0.450 OA
BRANCH  22  23
ATOM     23  C   LIG d   1       3.757  -0.054  -4.160  0.00  0.00     0.335 C 
ATOM     24  O   LIG d   1       2.549  -0.085  -4.283  0.00  0.00    -0.245 OA
BRANCH  23  25
ATOM     25  C   LIG d   1       4.357   0.120  -2.830  0.00  0.00     0.029 C 
ATOM     26  C   LIG d   1       4.293  -0.865  -1.937  0.00  0.00    -0.077 C 
ATOM     27  H   LIG d   1       4.651  -0.705  -0.930  0.00  0.00     0.057 H 
BRANCH  26  28
ATOM     28  C   LIG d   1       3.723  -2.203  -2.331  0.00  0.00    -0.046 C 
ATOM     29  H   LIG d   1       3.244  -2.120  -3.307  0.00  0.00     0.027 H 
ATOM     30  H   LIG d   1       4.525  -2.939  -2.381  0.00  0.00     0.027 H 
ATOM     31  H   LIG d   1       2.987  -2.517  -1.591  0.00  0.00     0.027 H 
ENDBRANCH  26  28
BRANCH  25  32
ATOM     32  C   LIG d   1       5.042   1.415  -2.475  0.00  0.00    -0.033 C 
ATOM     33  H   LIG d   1       6.121   1.264  -2.467  0.00  0.00     0.028 H 
ATOM     34  H   LIG d   1       4.787   2.175  -3.214  0.00  0.00     0.028 H 
ATOM     35  H   LIG d   1       4.714   1.743  -1.489  0.00  0.00     0.028 H 
ENDBRANCH  25  32
ENDBRANCH  23  25
ENDBRANCH  22  23
ENDBRANCH   1  22
BRANCH  16  36
ATOM     36  O   LIG d   1       6.744  -1.769  -4.988  0.00  0.00    -0.384 OA
ATOM     37  H   LIG d   1       7.104  -1.328  -5.770  0.00  0.00     0.210 HD
ENDBRANCH  16  36
BRANCH  15  38
ATOM     38  C   LIG d   1       4.315  -4.244  -6.449  0.00  0.00    -0.023 C 
ATOM     39  H   LIG d   1       4.417  -4.895  -7.317  0.00  0.00     0.027 H 
ATOM     40  H   LIG d   1       3.952  -4.823  -5.601  0.00  0.00     0.027 H 
ATOM     41  H   LIG d   1       3.608  -3.445  -6.673  0.00  0.00     0.027 H 
ENDBRANCH  15  38
BRANCH  15  42
ATOM     42  C   LIG d   1       6.538  -4.674  -5.382  0.00  0.00    -0.023 C 
ATOM     43  H   LIG d   1       6.659  -4.381  -4.339  0.00  0.00     0.027 H 
ATOM     44  H   LIG d   1       6.052  -5.648  -5.432  0.00  0.00     0.027 H 
ATOM     45  H   LIG d   1       7.516  -4.730  -5.859  0.00  0.00     0.027 H 
ENDBRANCH  15  42
TORSDOF 8
ENDMDL
MODEL 3
REMARK VINA RESULT:      -6.4      1.741      2.064
REMARK  8 active torsions:
REMARK  status: ('A' for Active; 'I' for Inactive)
REMARK    1  A    between atoms: C_1  and  C_2 
REMARK    2  A    between atoms: C_3  and  C_4 
REMARK    3  A    between atoms: C_3  and  C_5 
REMARK    4  A    between atoms: C_5  and  O_7 
REMARK    5  A    between atoms: O_7  and  C_8 
REMARK    6  A    between atoms: C_22  and  C_26 
REMARK    7  A    between atoms: C_22  and  C_27 
REMARK    8  A    between atoms: C_23  and  O_25 
ROOT
ATOM      1  C   LIG d   1       5.512   0.069  -6.936  0.00  0.00     0.165 C 
ATOM      2  H   LIG d   1       5.475   1.127  -6.678  0.00  0.00     0.082 H 
ATOM      3  C   LIG d   1       6.058  -0.713  -5.768  0.00  0.00     0.080 A 
ATOM      4  C   LIG d   1       7.364  -1.163  -5.746  0.00  0.00     0.132 A 
ATOM      5  C   LIG d   1       7.843  -1.881  -4.646  0.00  0.00    -0.019 A 
ATOM      6  C   LIG d   1       7.033  -2.149  -3.583  0.00  0.00    -0.048 A 
ATOM      7  C   LIG d   1       5.707  -1.702  -3.591  0.00  0.00     0.018 A 
ATOM      8  C   LIG d   1       5.216  -0.978  -4.692  0.00  0.00     0.149 A 
ATOM      9  O   LIG d   1       3.940  -0.543  -4.707  0.00  0.00    -0.422 OA
ATOM     10  C   LIG d   1       3.123  -0.791  -3.675  0.00  0.00     0.337 A 
ATOM     11  O   LIG d   1       1.976  -0.382  -3.724  0.00  0.00    -0.245 OA
ATOM     12  C   LIG d   1       3.538  -1.511  -2.537  0.00  0.00     0.024 A 
ATOM     13  C   LIG d   1       4.813  -1.976  -2.465  0.00  0.00    -0.044 A 
ATOM     14  O   LIG d   1       8.214  -0.935  -6.780  0.00  0.00    -0.483 OA
ATOM     15  C   LIG d   1       7.871   0.090  -7.714  0.00  0.00     0.135 C 
ATOM     16  C   LIG d   1       6.418  -0.128  -8.155  0.00  0.00     0.135 C 
ATOM     17  H   LIG d   1       6.156   0.595  -8.927  0.00  0.00     0.067 H 
ATOM     18  H   LIG d   1       8.866  -2.227  -4.638  0.00  0.00     0.065 H 
ATOM     19  H   LIG d   1       7.412  -2.705  -2.738  0.00  0.00     0.063 H 
ATOM     20  H   LIG d   1       2.847  -1.691  -1.728  0.00  0.00     0.069 H 
ATOM     21  H   LIG d   1       5.155  -2.530  -1.602  0.00  0.00     0.063 H 
ENDROOT
BRANCH   1  22
ATOM     22  O   LIG d   1       4.195  -0.393  -7.243  0.00  0.00    -0.450 OA
BRANCH  22  23
ATOM     23  C   LIG d   1       3.298   0.535  -7.633  0.00  0.00     0.335 C 
ATOM     24  O   LIG d   1       2.859   1.332  -6.828  0.00  0.00    -0.245 OA
BRANCH  23  25
ATOM     25  C   LIG d   1       2.851   0.582  -9.032  0.00  0.00     0.029 C 
ATOM     26  C   LIG d   1       3.248   1.574  -9.825  0.00  0.00    -0.077 C 
ATOM     27  H   LIG d   1       2.848   1.661 -10.825  0.00  0.00     0.057 H 
BRANCH  26  28
ATOM     28  C   LIG d   1       4.257   2.578  -9.327  0.00  0.00    -0.046 C 
ATOM     29  H   LIG d   1       5.201   2.433  -9.853  0.00  0.00     0.027 H 
ATOM     30  H   LIG d   1       3.888   3.586  -9.513  0.00  0.00     0.027 H 
ATOM     31  H   LIG d   1       4.412   2.438  -8.257  0.00  0.00     0.027 H 
ENDBRANCH  26  28
BRANCH  25  32
ATOM     32  C   LIG d   1       1.942  -0.494  -9.570  0.00  0.00    -0.033 C 
ATOM     33  H   LIG d   1       0.907  -0.160  -9.505  0.00  0.00     0.028 H 
ATOM     34  H   LIG d   1       2.195  -0.694 -10.612  0.00  0.00     0.028 H 
ATOM     35  H   LIG d   1       2.069  -1.404  -8.985  0.00  0.00     0.028 H 
ENDBRANCH  25  32
ENDBRANCH  23  25
ENDBRANCH  22  23
ENDBRANCH   1  22
BRANCH  16  36
ATOM     36  O   LIG d   1       6.261  -1.454  -8.663  0.00  0.00    -0.384 OA
ATOM     37  H   LIG d   1       5.802  -2.055  -8.060  0.00  0.00     0.210 HD
ENDBRANCH  16  36
BRANCH  15  38
ATOM     38  C   LIG d   1       8.009   1.461  -7.049  0.00  0.00    -0.023 C 
ATOM     39  H   LIG d   1       7.072   2.008  -7.147  0.00  0.00     0.027 H 
ATOM     40  H   LIG d   1       8.246   1.331  -5.994  0.00  0.00     0.027 H 
ATOM     41  H   LIG d   1       8.809   2.020  -7.534  0.00  0.00     0.027 H 
ENDBRANCH  15  38
BRANCH  15  42
ATOM     42  C   LIG d   1       8.796   0.009  -8.930  0.00  0.00    -0.023 C 
ATOM     43  H   LIG d   1       8.749   0.945  -9.486  0.00  0.00     0.027 H 
ATOM     44  H   LIG d   1       9.819  -0.166  -8.598  0.00  0.00     0.027 H 
ATOM     45  H   LIG d   1       8.477  -0.811  -9.574  0.00  0.00     0.027 H 
ENDBRANCH  15  42
TORSDOF 8
ENDMDL
MODEL 4
REMARK VINA RESULT:      -6.4      2.037      4.852
REMARK  8 active torsions:
REMARK  status: ('A' for Active; 'I' for Inactive)
REMARK    1  A    between atoms: C_1  and  C_2 
REMARK    2  A    between atoms: C_3  and  C_4 
REMARK    3  A    between atoms: C_3  and  C_5 
REMARK    4  A    between atoms: C_5  and  O_7 
REMARK    5  A    between atoms: O_7  and  C_8 
REMARK    6  A    between atoms: C_22  and  C_26 
REMARK    7  A    between atoms: C_22  and  C_27 
REMARK    8  A    between atoms: C_23  and  O_25 
ROOT
ATOM      1  C   LIG d   1       3.960   0.065  -6.646  0.00  0.00     0.165 C 
ATOM      2  H   LIG d   1       3.649   1.063  -6.339  0.00  0.00     0.082 H 
ATOM      3  C   LIG d   1       5.287   0.150  -7.358  0.00  0.00     0.080 A 
ATOM      4  C   LIG d   1       5.374   0.081  -8.734  0.00  0.00     0.132 A 
ATOM      5  C   LIG d   1       6.619   0.168  -9.366  0.00  0.00    -0.019 A 
ATOM      6  C   LIG d   1       7.760   0.320  -8.638  0.00  0.00    -0.048 A 
ATOM      7  C   LIG d   1       7.689   0.389  -7.242  0.00  0.00     0.018 A 
ATOM      8  C   LIG d   1       6.442   0.304  -6.597  0.00  0.00     0.149 A 
ATOM      9  O   LIG d   1       6.364   0.370  -5.252  0.00  0.00    -0.422 OA
ATOM     10  C   LIG d   1       7.470   0.520  -4.513  0.00  0.00     0.337 A 
ATOM     11  O   LIG d   1       7.361   0.577  -3.300  0.00  0.00    -0.245 OA
ATOM     12  C   LIG d   1       8.755   0.611  -5.082  0.00  0.00     0.024 A 
ATOM     13  C   LIG d   1       8.898   0.550  -6.433  0.00  0.00    -0.044 A 
ATOM     14  O   LIG d   1       4.272  -0.079  -9.512  0.00  0.00    -0.483 OA
ATOM     15  C   LIG d   1       2.998   0.203  -8.932  0.00  0.00     0.135 C 
ATOM     16  C   LIG d   1       2.909  -0.531  -7.587  0.00  0.00     0.135 C 
ATOM     17  H   LIG d   1       1.915  -0.394  -7.160  0.00  0.00     0.067 H 
ATOM     18  H   LIG d   1       6.676   0.115 -10.443  0.00  0.00     0.065 H 
ATOM     19  H   LIG d   1       8.716   0.386  -9.135  0.00  0.00     0.063 H 
ATOM     20  H   LIG d   1       9.622   0.731  -4.450  0.00  0.00     0.069 H 
ATOM     21  H   LIG d   1       9.873   0.618  -6.893  0.00  0.00     0.063 H 
ENDROOT
BRANCH   1  22
ATOM     22  O   LIG d   1       4.092  -0.769  -5.493  0.00  0.00    -0.450 OA
BRANCH  22  23
ATOM     23  C   LIG d   1       3.309  -0.477  -4.434  0.00  0.00     0.335 C 
ATOM     24  O   LIG d   1       2.225   0.044  -4.607  0.00  0.00    -0.245 OA
BRANCH  23  25
ATOM     25  C   LIG d   1       3.767  -0.791  -3.074  0.00  0.00     0.029 C 
ATOM     26  C   LIG d   1       4.116   0.191  -2.246  0.00  0.00    -0.077 C 
ATOM     27  H   LIG d   1       4.539  -0.042  -1.280  0.00  0.00     0.057 H 
BRANCH  26  28
ATOM     28  C   LIG d   1       3.919   1.628  -2.657  0.00  0.00    -0.046 C 
ATOM     29  H   LIG d   1       4.689   1.908  -3.376  0.00  0.00     0.027 H 
ATOM     30  H   LIG d   1       2.936   1.744  -3.112  0.00  0.00     0.027 H 
ATOM     31  H   LIG d   1       3.992   2.270  -1.779  0.00  0.00     0.027 H 
ENDBRANCH  26  28
BRANCH  25  32
ATOM     32  C   LIG d   1       3.843  -2.225  -2.616  0.00  0.00    -0.033 C 
ATOM     33  H   LIG d   1       3.310  -2.860  -3.323  0.00  0.00     0.028 H 
ATOM     34  H   LIG d   1       4.887  -2.534  -2.563  0.00  0.00     0.028 H 
ATOM     35  H   LIG d   1       3.388  -2.316  -1.630  0.00  0.00     0.028 H 
ENDBRANCH  25  32
ENDBRANCH  23  25
ENDBRANCH  22  23
ENDBRANCH   1  22
BRANCH  16  36
ATOM     36  O   LIG d   1       3.165  -1.923  -7.778  0.00  0.00    -0.384 OA
ATOM     37  H   LIG d   1       3.720  -2.318  -7.092  0.00  0.00     0.210 HD
ENDBRANCH  16  36
BRANCH  15  38
ATOM     38  C   LIG d   1       2.854   1.710  -8.710  0.00  0.00    -0.023 C 
ATOM     39  H   LIG d   1       3.835   2.143  -8.514  0.00  0.00     0.027 H 
ATOM     40  H   LIG d   1       2.425   2.169  -9.600  0.00  0.00     0.027 H 
ATOM     41  H   LIG d   1       2.200   1.890  -7.857  0.00  0.00     0.027 H 
ENDBRANCH  15  38
BRANCH  15  42
ATOM     42  C   LIG d   1       1.887  -0.291  -9.862  0.00  0.00    -0.023 C 
ATOM     43  H   LIG d   1       1.335   0.563 -10.253  0.00  0.00     0.027 H 
ATOM     44  H   LIG d   1       2.327  -0.850 -10.688  0.00  0.00     0.027 H 
ATOM     45  H   LIG d   1       1.209  -0.938  -9.305  0.00  0.00     0.027 H 
ENDBRANCH  15  42
TORSDOF 8
ENDMDL
MODEL 5
REMARK VINA RESULT:      -6.4      1.857      5.181
REMARK  8 active torsions:
REMARK  status: ('A' for Active; 'I' for Inactive)
REMARK    1  A    between atoms: C_1  and  C_2 
REMARK    2  A    between atoms: C_3  and  C_4 
REMARK    3  A    between atoms: C_3  and  C_5 
REMARK    4  A    between atoms: C_5  and  O_7 
REMARK    5  A    between atoms: O_7  and  C_8 
REMARK    6  A    between atoms: C_22  and  C_26 
REMARK    7  A    between atoms: C_22  and  C_27 
REMARK    8  A    between atoms: C_23  and  O_25 
ROOT
ATOM      1  C   LIG d   1       5.820  -1.204  -5.241  0.00  0.00     0.165 C 
ATOM      2  H   LIG d   1       5.104  -1.985  -5.494  0.00  0.00     0.082 H 
ATOM      3  C   LIG d   1       6.592  -0.813  -6.476  0.00  0.00     0.080 A 
ATOM      4  C   LIG d   1       7.881  -1.260  -6.695  0.00  0.00     0.132 A 
ATOM      5  C   LIG d   1       8.569  -0.885  -7.853  0.00  0.00    -0.019 A 
ATOM      6  C   LIG d   1       7.984  -0.075  -8.779  0.00  0.00    -0.048 A 
ATOM      7  C   LIG d   1       6.680   0.388  -8.572  0.00  0.00     0.018 A 
ATOM      8  C   LIG d   1       5.978   0.016  -7.411  0.00  0.00     0.149 A 
ATOM      9  O   LIG d   1       4.721   0.458  -7.203  0.00  0.00    -0.422 OA
ATOM     10  C   LIG d   1       4.123   1.254  -8.098  0.00  0.00     0.337 A 
ATOM     11  O   LIG d   1       2.985   1.632  -7.877  0.00  0.00    -0.245 OA
ATOM     12  C   LIG d   1       4.758   1.673  -9.284  0.00  0.00     0.024 A 
ATOM     13  C   LIG d   1       6.026   1.262  -9.548  0.00  0.00    -0.044 A 
ATOM     14  O   LIG d   1       8.518  -2.062  -5.803  0.00  0.00    -0.483 OA
ATOM     15  C   LIG d   1       7.725  -2.744  -4.831  0.00  0.00     0.135 C 
ATOM     16  C   LIG d   1       6.786  -1.723  -4.173  0.00  0.00     0.135 C 
ATOM     17  H   LIG d   1       6.224  -2.205  -3.373  0.00  0.00     0.067 H 
ATOM     18  H   LIG d   1       9.576  -1.241  -8.015  0.00  0.00     0.065 H 
ATOM     19  H   LIG d   1       8.525   0.209  -9.670  0.00  0.00     0.063 H 
ATOM     20  H   LIG d   1       4.240   2.316  -9.978  0.00  0.00     0.069 H 
ATOM     21  H   LIG d   1       6.534   1.569 -10.450  0.00  0.00     0.063 H 
ENDROOT
BRANCH   1  22
ATOM     22  O   LIG d   1       5.123  -0.063  -4.736  0.00  0.00    -0.450 OA
BRANCH  22  23
ATOM     23  C   LIG d   1       3.981  -0.295  -4.057  0.00  0.00     0.335 C 
ATOM     24  O   LIG d   1       2.908  -0.053  -4.574  0.00  0.00    -0.245 OA
BRANCH  23  25
ATOM     25  C   LIG d   1       4.035  -0.842  -2.695  0.00  0.00     0.029 C 
ATOM     26  C   LIG d   1       4.363  -0.054  -1.674  0.00  0.00    -0.077 C 
ATOM     27  H   LIG d   1       4.493  -0.474  -0.687  0.00  0.00     0.057 H 
BRANCH  26  28
ATOM     28  C   LIG d   1       4.552   1.425  -1.894  0.00  0.00    -0.046 C 
ATOM     29  H   LIG d   1       3.621   1.946  -1.673  0.00  0.00     0.027 H 
ATOM     30  H   LIG d   1       5.340   1.792  -1.237  0.00  0.00     0.027 H 
ATOM     31  H   LIG d   1       4.831   1.605  -2.933  0.00  0.00     0.027 H 
ENDBRANCH  26  28
BRANCH  25  32
ATOM     32  C   LIG d   1       3.720  -2.296  -2.453  0.00  0.00    -0.033 C 
ATOM     33  H   LIG d   1       3.727  -2.832  -3.402  0.00  0.00     0.028 H 
ATOM     34  H   LIG d   1       4.472  -2.724  -1.788  0.00  0.00     0.028 H 
ATOM     35  H   LIG d   1       2.737  -2.384  -1.993  0.00  0.00     0.028 H 
ENDBRANCH  25  32
ENDBRANCH  23  25
ENDBRANCH  22  23
ENDBRANCH   1  22
BRANCH  16  36
ATOM     36  O   LIG d   1       7.549  -0.638  -3.643  0.00  0.00    -0.384 OA
ATOM     37  H   LIG d   1       8.442  -0.883  -3.365  0.00  0.00     0.210 HD
ENDBRANCH  16  36
BRANCH  15  38
ATOM     38  C   LIG d   1       6.902  -3.839  -5.513  0.00  0.00    -0.023 C 
ATOM     39  H   LIG d   1       5.907  -3.874  -5.070  0.00  0.00     0.027 H 
ATOM     40  H   LIG d   1       6.819  -3.620  -6.577  0.00  0.00     0.027 H 
ATOM     41  H   LIG d   1       7.395  -4.801  -5.378  0.00  0.00     0.027 H 
ENDBRANCH  15  38
BRANCH  15  42
ATOM     42  C   LIG d   1       8.634  -3.366  -3.769  0.00  0.00    -0.023 C 
ATOM     43  H   LIG d   1       8.888  -2.615  -3.022  0.00  0.00     0.027 H 
ATOM     44  H   LIG d   1       8.116  -4.197  -3.289  0.00  0.00     0.027 H 
ATOM     45  H   LIG d   1       9.546  -3.732  -4.241  0.00  0.00     0.027 H 
ENDBRANCH  15  42
TORSDOF 8
ENDMDL
MODEL 6
REMARK VINA RESULT:      -6.0      1.913      5.770
REMARK  8 active torsions:
REMARK  status: ('A' for Active; 'I' for Inactive)
REMARK    1  A    between atoms: C_1  and  C_2 
REMARK    2  A    between atoms: C_3  and  C_4 
REMARK    3  A    between atoms: C_3  and  C_5 
REMARK    4  A    between atoms: C_5  and  O_7 
REMARK    5  A    between atoms: O_7  and  C_8 
REMARK    6  A    between atoms: C_22  and  C_26 
REMARK    7  A    between atoms: C_22  and  C_27 
REMARK    8  A    between atoms: C_23  and  O_25 
ROOT
ATOM      1  C   LIG d   1       4.382  -0.810  -6.694  0.00  0.00     0.165 C 
ATOM      2  H   LIG d   1       5.424  -0.562  -6.895  0.00  0.00     0.082 H 
ATOM      3  C   LIG d   1       3.933  -1.894  -7.641  0.00  0.00     0.080 A 
ATOM      4  C   LIG d   1       3.155  -1.613  -8.747  0.00  0.00     0.132 A 
ATOM      5  C   LIG d   1       2.759  -2.639  -9.610  0.00  0.00    -0.019 A 
ATOM      6  C   LIG d   1       3.131  -3.929  -9.374  0.00  0.00    -0.048 A 
ATOM      7  C   LIG d   1       3.918  -4.231  -8.256  0.00  0.00     0.018 A 
ATOM      8  C   LIG d   1       4.322  -3.206  -7.383  0.00  0.00     0.149 A 
ATOM      9  O   LIG d   1       5.080  -3.489  -6.305  0.00  0.00    -0.422 OA
ATOM     10  C   LIG d   1       5.460  -4.747  -6.051  0.00  0.00     0.337 A 
ATOM     11  O   LIG d   1       6.146  -4.965  -5.067  0.00  0.00    -0.245 OA
ATOM     12  C   LIG d   1       5.095  -5.830  -6.875  0.00  0.00     0.024 A 
ATOM     13  C   LIG d   1       4.330  -5.608  -7.976  0.00  0.00    -0.044 A 
ATOM     14  O   LIG d   1       2.747  -0.348  -9.028  0.00  0.00    -0.483 OA
ATOM     15  C   LIG d   1       3.433   0.733  -8.394  0.00  0.00     0.135 C 
ATOM     16  C   LIG d   1       3.514   0.436  -6.891  0.00  0.00     0.135 C 
ATOM     17  H   LIG d   1       3.965   1.283  -6.374  0.00  0.00     0.067 H 
ATOM     18  H   LIG d   1       2.153  -2.408 -10.473  0.00  0.00     0.065 H 
ATOM     19  H   LIG d   1       2.820  -4.714 -10.046  0.00  0.00     0.063 H 
ATOM     20  H   LIG d   1       5.421  -6.830  -6.633  0.00  0.00     0.069 H 
ATOM     21  H   LIG d   1       4.038  -6.421  -8.624  0.00  0.00     0.063 H 
ENDROOT
BRANCH   1  22
ATOM     22  O   LIG d   1       4.252  -1.271  -5.348  0.00  0.00    -0.450 OA
BRANCH  22  23
ATOM     23  C   LIG d   1       4.845  -0.531  -4.389  0.00  0.00     0.335 C 
ATOM     24  O   LIG d   1       6.028  -0.264  -4.472  0.00  0.00    -0.245 OA
BRANCH  23  25
ATOM     25  C   LIG d   1       4.060  -0.047  -3.245  0.00  0.00     0.029 C 
ATOM     26  C   LIG d   1       3.587  -0.910  -2.350  0.00  0.00    -0.077 C 
ATOM     27  H   LIG d   1       2.933  -0.567  -1.561  0.00  0.00     0.057 H 
BRANCH  26  28
ATOM     28  C   LIG d   1       3.963  -2.367  -2.436  0.00  0.00    -0.046 C 
ATOM     29  H   LIG d   1       4.244  -2.609  -3.460  0.00  0.00     0.027 H 
ATOM     30  H   LIG d   1       4.803  -2.565  -1.771  0.00  0.00     0.027 H 
ATOM     31  H   LIG d   1       3.112  -2.981  -2.139  0.00  0.00     0.027 H 
ENDBRANCH  26  28
BRANCH  25  32
ATOM     32  C   LIG d   1       3.790   1.427  -3.085  0.00  0.00    -0.033 C 
ATOM     33  H   LIG d   1       3.139   1.766  -3.891  0.00  0.00     0.028 H 
ATOM     34  H   LIG d   1       3.304   1.605  -2.125  0.00  0.00     0.028 H 
ATOM     35  H   LIG d   1       4.731   1.976  -3.123  0.00  0.00     0.028 H 
ENDBRANCH  25  32
ENDBRANCH  23  25
ENDBRANCH  22  23
ENDBRANCH   1  22
BRANCH  16  36
ATOM     36  O   LIG d   1       2.203   0.198  -6.375  0.00  0.00    -0.384 OA
ATOM     37  H   LIG d   1       1.540   0.015  -7.054  0.00  0.00     0.210 HD
ENDBRANCH  16  36
BRANCH  15  38
ATOM     38  C   LIG d   1       4.844   0.858  -8.973  0.00  0.00    -0.023 C 
ATOM     39  H   LIG d   1       5.573   0.568  -8.217  0.00  0.00     0.027 H 
ATOM     40  H   LIG d   1       4.939   0.205  -9.840  0.00  0.00     0.027 H 
ATOM     41  H   LIG d   1       5.022   1.890  -9.274  0.00  0.00     0.027 H 
ENDBRANCH  15  38
BRANCH  15  42
ATOM     42  C   LIG d   1       2.664   2.036  -8.621  0.00  0.00    -0.023 C 
ATOM     43  H   LIG d   1       3.086   2.821  -7.996  0.00  0.00     0.027 H 
ATOM     44  H   LIG d   1       2.739   2.325  -9.669  0.00  0.00     0.027 H 
ATOM     45  H   LIG d   1       1.616   1.889  -8.360  0.00  0.00     0.027 H 
ENDBRANCH  15  42
TORSDOF 8
ENDMDL
MODEL 7
REMARK VINA RESULT:      -6.0      1.386      4.569
REMARK  8 active torsions:
REMARK  status: ('A' for Active; 'I' for Inactive)
REMARK    1  A    between atoms: C_1  and  C_2 
REMARK    2  A    between atoms: C_3  and  C_4 
REMARK    3  A    between atoms: C_3  and  C_5 
REMARK    4  A    between atoms: C_5  and  O_7 
REMARK    5  A    between atoms: O_7  and  C_8 
REMARK    6  A    between atoms: C_22  and  C_26 
REMARK    7  A    between atoms: C_22  and  C_27 
REMARK    8  A    between atoms: C_23  and  O_25 
ROOT
ATOM      1  C   LIG d   1       4.382  -0.810  -5.416  0.00  0.00     0.165 C 
ATOM      2  H   LIG d   1       3.410  -1.303  -5.437  0.00  0.00     0.082 H 
ATOM      3  C   LIG d   1       5.471  -1.851  -5.354  0.00  0.00     0.080 A 
ATOM      4  C   LIG d   1       6.127  -2.143  -4.175  0.00  0.00     0.132 A 
ATOM      5  C   LIG d   1       7.129  -3.117  -4.148  0.00  0.00    -0.019 A 
ATOM      6  C   LIG d   1       7.474  -3.792  -5.280  0.00  0.00    -0.048 A 
ATOM      7  C   LIG d   1       6.821  -3.507  -6.485  0.00  0.00     0.018 A 
ATOM      8  C   LIG d   1       5.811  -2.529  -6.522  0.00  0.00     0.149 A 
ATOM      9  O   LIG d   1       5.176  -2.249  -7.678  0.00  0.00    -0.422 OA
ATOM     10  C   LIG d   1       5.495  -2.898  -8.805  0.00  0.00     0.337 A 
ATOM     11  O   LIG d   1       4.899  -2.619  -9.830  0.00  0.00    -0.245 OA
ATOM     12  C   LIG d   1       6.496  -3.888  -8.851  0.00  0.00     0.024 A 
ATOM     13  C   LIG d   1       7.172  -4.213  -7.718  0.00  0.00    -0.044 A 
ATOM     14  O   LIG d   1       5.832  -1.497  -3.016  0.00  0.00    -0.483 OA
ATOM     15  C   LIG d   1       4.592  -0.792  -2.941  0.00  0.00     0.135 C 
ATOM     16  C   LIG d   1       4.467   0.097  -4.186  0.00  0.00     0.135 C 
ATOM     17  H   LIG d   1       3.565   0.704  -4.114  0.00  0.00     0.067 H 
ATOM     18  H   LIG d   1       7.634  -3.339  -3.220  0.00  0.00     0.065 H 
ATOM     19  H   LIG d   1       8.250  -4.543  -5.249  0.00  0.00     0.063 H 
ATOM     20  H   LIG d   1       6.723  -4.387  -9.781  0.00  0.00     0.069 H 
ATOM     21  H   LIG d   1       7.943  -4.970  -7.727  0.00  0.00     0.063 H 
ENDROOT
BRANCH   1  22
ATOM     22  O   LIG d   1       4.543  -0.024  -6.598  0.00  0.00    -0.450 OA
BRANCH  22  23
ATOM     23  C   LIG d   1       3.443   0.594  -7.076  0.00  0.00     0.335 C 
ATOM     24  O   LIG d   1       2.806   1.340  -6.359  0.00  0.00    -0.245 OA
BRANCH  23  25
ATOM     25  C   LIG d   1       3.018   0.366  -8.464  0.00  0.00     0.029 C 
ATOM     26  C   LIG d   1       3.361   1.230  -9.416  0.00  0.00    -0.077 C 
ATOM     27  H   LIG d   1       2.972   1.113 -10.417  0.00  0.00     0.057 H 
BRANCH  26  28
ATOM     28  C   LIG d   1       4.292   2.371  -9.098  0.00  0.00    -0.046 C 
ATOM     29  H   LIG d   1       5.322   2.055  -9.263  0.00  0.00     0.027 H 
ATOM     30  H   LIG d   1       4.063   3.218  -9.744  0.00  0.00     0.027 H 
ATOM     31  H   LIG d   1       4.166   2.664  -8.055  0.00  0.00     0.027 H 
ENDBRANCH  26  28
BRANCH  25  32
ATOM     32  C   LIG d   1       2.191  -0.846  -8.809  0.00  0.00    -0.033 C 
ATOM     33  H   LIG d   1       2.647  -1.369  -9.650  0.00  0.00     0.028 H 
ATOM     34  H   LIG d   1       2.147  -1.513  -7.948  0.00  0.00     0.028 H 
ATOM     35  H   LIG d   1       1.182  -0.535  -9.078  0.00  0.00     0.028 H 
ENDBRANCH  25  32
ENDBRANCH  23  25
ENDBRANCH  22  23
ENDBRANCH   1  22
BRANCH  16  36
ATOM     36  O   LIG d   1       5.612   0.945  -4.290  0.00  0.00    -0.384 OA
ATOM     37  H   LIG d   1       5.559   1.592  -5.007  0.00  0.00     0.210 HD
ENDBRANCH  16  36
BRANCH  15  38
ATOM     38  C   LIG d   1       3.433  -1.790  -2.901  0.00  0.00    -0.023 C 
ATOM     39  H   LIG d   1       2.623  -1.382  -2.297  0.00  0.00     0.027 H 
ATOM     40  H   LIG d   1       3.075  -1.971  -3.914  0.00  0.00     0.027 H 
ATOM     41  H   LIG d   1       3.776  -2.727  -2.464  0.00  0.00     0.027 H 
ENDBRANCH  15  38
BRANCH  15  42
ATOM     42  C   LIG d   1       4.569   0.078  -1.683  0.00  0.00    -0.023 C 
ATOM     43  H   LIG d   1       5.309  -0.289  -0.973  0.00  0.00     0.027 H 
ATOM     44  H   LIG d   1       4.799   1.109  -1.949  0.00  0.00     0.027 H 
ATOM     45  H   LIG d   1       3.579   0.033  -1.229  0.00  0.00     0.027 H 
ENDBRANCH  15  42
TORSDOF 8
ENDMDL
MODEL 8
REMARK VINA RESULT:      -5.9      2.553      4.228
REMARK  8 active torsions:
REMARK  status: ('A' for Active; 'I' for Inactive)
REMARK    1  A    between atoms: C_1  and  C_2 
REMARK    2  A    between atoms: C_3  and  C_4 
REMARK    3  A    between atoms: C_3  and  C_5 
REMARK    4  A    between atoms: C_5  and  O_7 
REMARK    5  A    between atoms: O_7  and  C_8 
REMARK    6  A    between atoms: C_22  and  C_26 
REMARK    7  A    between atoms: C_22  and  C_27 
REMARK    8  A    between atoms: C_23  and  O_25 
ROOT
ATOM      1  C   LIG d   1       4.922  -0.372  -6.021  0.00  0.00     0.165 C 
ATOM      2  H   LIG d   1       5.160  -1.279  -6.577  0.00  0.00     0.082 H 
ATOM      3  C   LIG d   1       6.187   0.206  -5.440  0.00  0.00     0.080 A 
ATOM      4  C   LIG d   1       6.509   0.046  -4.106  0.00  0.00     0.132 A 
ATOM      5  C   LIG d   1       7.693   0.590  -3.597  0.00  0.00    -0.019 A 
ATOM      6  C   LIG d   1       8.543   1.285  -4.404  0.00  0.00    -0.048 A 
ATOM      7  C   LIG d   1       8.230   1.459  -5.757  0.00  0.00     0.018 A 
ATOM      8  C   LIG d   1       7.042   0.914  -6.279  0.00  0.00     0.149 A 
ATOM      9  O   LIG d   1       6.734   1.077  -7.581  0.00  0.00    -0.422 OA
ATOM     10  C   LIG d   1       7.552   1.755  -8.396  0.00  0.00     0.337 A 
ATOM     11  O   LIG d   1       7.240   1.880  -9.568  0.00  0.00    -0.245 OA
ATOM     12  C   LIG d   1       8.757   2.332  -7.950  0.00  0.00     0.024 A 
ATOM     13  C   LIG d   1       9.122   2.203  -6.647  0.00  0.00    -0.044 A 
ATOM     14  O   LIG d   1       5.697  -0.630  -3.253  0.00  0.00    -0.483 OA
ATOM     15  C   LIG d   1       4.705  -1.490  -3.814  0.00  0.00     0.135 C 
ATOM     16  C   LIG d   1       3.944  -0.708  -4.892  0.00  0.00     0.135 C 
ATOM     17  H   LIG d   1       3.129  -1.319  -5.282  0.00  0.00     0.067 H 
ATOM     18  H   LIG d   1       7.936   0.457  -2.554  0.00  0.00     0.065 H 
ATOM     19  H   LIG d   1       9.454   1.702  -4.001  0.00  0.00     0.063 H 
ATOM     20  H   LIG d   1       9.388   2.872  -8.640  0.00  0.00     0.069 H 
ATOM     21  H   LIG d   1      10.042   2.636  -6.281  0.00  0.00     0.063 H 
ENDROOT
BRANCH   1  22
ATOM     22  O   LIG d   1       4.323   0.582  -6.900  0.00  0.00    -0.450 OA
BRANCH  22  23
ATOM     23  C   LIG d   1       3.538   0.098  -7.884  0.00  0.00     0.335 C 
ATOM     24  O   LIG d   1       2.383  -0.198  -7.649  0.00  0.00    -0.245 OA
BRANCH  23  25
ATOM     25  C   LIG d   1       4.079  -0.069  -9.240  0.00  0.00     0.029 C 
ATOM     26  C   LIG d   1       4.031   0.941 -10.105  0.00  0.00    -0.077 C 
ATOM     27  H   LIG d   1       4.343   0.791 -11.129  0.00  0.00     0.057 H 
BRANCH  26  28
ATOM     28  C   LIG d   1       3.542   2.295  -9.657  0.00  0.00    -0.046 C 
ATOM     29  H   LIG d   1       4.311   2.776  -9.052  0.00  0.00     0.027 H 
ATOM     30  H   LIG d   1       3.327   2.910 -10.530  0.00  0.00     0.027 H 
ATOM     31  H   LIG d   1       2.635   2.175  -9.063  0.00  0.00     0.027 H 
ENDBRANCH  26  28
BRANCH  25  32
ATOM     32  C   LIG d   1       4.687  -1.385  -9.652  0.00  0.00    -0.033 C 
ATOM     33  H   LIG d   1       4.847  -1.389 -10.730  0.00  0.00     0.028 H 
ATOM     34  H   LIG d   1       5.641  -1.519  -9.142  0.00  0.00     0.028 H 
ATOM     35  H   LIG d   1       4.013  -2.198  -9.382  0.00  0.00     0.028 H 
ENDBRANCH  25  32
ENDBRANCH  23  25
ENDBRANCH  22  23
ENDBRANCH   1  22
BRANCH  16  36
ATOM     36  O   LIG d   1       3.418   0.497  -4.334  0.00  0.00    -0.384 OA
ATOM     37  H   LIG d   1       4.095   1.131  -4.060  0.00  0.00     0.210 HD
ENDBRANCH  16  36
BRANCH  15  38
ATOM     38  C   LIG d   1       5.378  -2.713  -4.440  0.00  0.00    -0.023 C 
ATOM     39  H   LIG d   1       6.338  -2.421  -4.864  0.00  0.00     0.027 H 
ATOM     40  H   LIG d   1       5.534  -3.473  -3.675  0.00  0.00     0.027 H 
ATOM     41  H   LIG d   1       4.740  -3.116  -5.226  0.00  0.00     0.027 H 
ENDBRANCH  15  38
BRANCH  15  42
ATOM     42  C   LIG d   1       3.733  -1.939  -2.720  0.00  0.00    -0.023 C 
ATOM     43  H   LIG d   1       2.729  -2.014  -3.135  0.00  0.00     0.027 H 
ATOM     44  H   LIG d   1       4.042  -2.910  -2.335  0.00  0.00     0.027 H 
ATOM     45  H   LIG d   1       3.737  -1.209  -1.910  0.00  0.00     0.027 H 
ENDBRANCH  15  42
TORSDOF 8
ENDMDL
MODEL 9
REMARK VINA RESULT:      -5.9      1.660      2.389
REMARK  8 active torsions:
REMARK  status: ('A' for Active; 'I' for Inactive)
REMARK    1  A    between atoms: C_1  and  C_2 
REMARK    2  A    between atoms: C_3  and  C_4 
REMARK    3  A    between atoms: C_3  and  C_5 
REMARK    4  A    between atoms: C_5  and  O_7 
REMARK    5  A    between atoms: O_7  and  C_8 
REMARK    6  A    between atoms: C_22  and  C_26 
REMARK    7  A    between atoms: C_22  and  C_27 
REMARK    8  A    between atoms: C_23  and  O_25 
ROOT
ATOM      1  C   LIG d   1       6.379  -0.281  -6.881  0.00  0.00     0.165 C 
ATOM      2  H   LIG d   1       6.736   0.747  -6.822  0.00  0.00     0.082 H 
ATOM      3  C   LIG d   1       6.298  -0.866  -5.494  0.00  0.00     0.080 A 
ATOM      4  C   LIG d   1       7.262  -1.733  -5.017  0.00  0.00     0.132 A 
ATOM      5  C   LIG d   1       7.163  -2.254  -3.724  0.00  0.00    -0.019 A 
ATOM      6  C   LIG d   1       6.118  -1.919  -2.916  0.00  0.00    -0.048 A 
ATOM      7  C   LIG d   1       5.132  -1.043  -3.385  0.00  0.00     0.018 A 
ATOM      8  C   LIG d   1       5.223  -0.512  -4.684  0.00  0.00     0.149 A 
ATOM      9  O   LIG d   1       4.277   0.332  -5.143  0.00  0.00    -0.422 OA
ATOM     10  C   LIG d   1       3.240   0.679  -4.370  0.00  0.00     0.337 A 
ATOM     11  O   LIG d   1       2.406   1.445  -4.818  0.00  0.00    -0.245 OA
ATOM     12  C   LIG d   1       3.076   0.189  -3.059  0.00  0.00     0.024 A 
ATOM     13  C   LIG d   1       3.996  -0.667  -2.541  0.00  0.00    -0.044 A 
ATOM     14  O   LIG d   1       8.321  -2.110  -5.780  0.00  0.00    -0.483 OA
ATOM     15  C   LIG d   1       8.635  -1.319  -6.927  0.00  0.00     0.135 C 
ATOM     16  C   LIG d   1       7.346  -1.108  -7.733  0.00  0.00     0.135 C 
ATOM     17  H   LIG d   1       7.574  -0.573  -8.655  0.00  0.00     0.067 H 
ATOM     18  H   LIG d   1       7.923  -2.930  -3.360  0.00  0.00     0.065 H 
ATOM     19  H   LIG d   1       6.050  -2.327  -1.919  0.00  0.00     0.063 H 
ATOM     20  H   LIG d   1       2.225   0.493  -2.469  0.00  0.00     0.069 H 
ATOM     21  H   LIG d   1       3.893  -1.055  -1.538  0.00  0.00     0.063 H 
ENDROOT
BRANCH   1  22
ATOM     22  O   LIG d   1       5.082  -0.301  -7.482  0.00  0.00    -0.450 OA
BRANCH  22  23
ATOM     23  C   LIG d   1       4.977   0.204  -8.727  0.00  0.00     0.335 C 
ATOM     24  O   LIG d   1       4.736  -0.533  -9.663  0.00  0.00    -0.245 OA
BRANCH  23  25
ATOM     25  C   LIG d   1       5.151   1.645  -8.953  0.00  0.00     0.029 C 
ATOM     26  C   LIG d   1       4.086   2.437  -9.051  0.00  0.00    -0.077 C 
ATOM     27  H   LIG d   1       4.210   3.479  -9.308  0.00  0.00     0.057 H 
BRANCH  26  28
ATOM     28  C   LIG d   1       2.708   1.881  -8.803  0.00  0.00    -0.046 C 
ATOM     29  H   LIG d   1       2.216   2.464  -8.024  0.00  0.00     0.027 H 
ATOM     30  H   LIG d   1       2.124   1.934  -9.721  0.00  0.00     0.027 H 
ATOM     31  H   LIG d   1       2.788   0.842  -8.482  0.00  0.00     0.027 H 
ENDBRANCH  26  28
BRANCH  25  32
ATOM     32  C   LIG d   1       6.536   2.227  -9.074  0.00  0.00    -0.033 C 
ATOM     33  H   LIG d   1       6.472   3.233  -9.489  0.00  0.00     0.028 H 
ATOM     34  H   LIG d   1       6.999   2.270  -8.087  0.00  0.00     0.028 H 
ATOM     35  H   LIG d   1       7.139   1.601  -9.731  0.00  0.00     0.028 H 
ENDBRANCH  25  32
ENDBRANCH  23  25
ENDBRANCH  22  23
ENDBRANCH   1  22
BRANCH  16  36
ATOM     36  O   LIG d   1       6.757  -2.372  -8.042  0.00  0.00    -0.384 OA
ATOM     37  H   LIG d   1       7.390  -3.102  -8.082  0.00  0.00     0.210 HD
ENDBRANCH  16  36
BRANCH  15  38
ATOM     38  C   LIG d   1       9.195   0.034  -6.483  0.00  0.00    -0.023 C 
ATOM     39  H   LIG d   1      10.269  -0.053  -6.323  0.00  0.00     0.027 H 
ATOM     40  H   LIG d   1       9.001   0.777  -7.256  0.00  0.00     0.027 H 
ATOM     41  H   LIG d   1       8.712   0.340  -5.555  0.00  0.00     0.027 H 
ENDBRANCH  15  38
BRANCH  15  42
ATOM     42  C   LIG d   1       9.667  -2.048  -7.789  0.00  0.00    -0.023 C 
ATOM     43  H   LIG d   1      10.667  -1.694  -7.537  0.00  0.00     0.027 H 
ATOM     44  H   LIG d   1       9.603  -3.120  -7.604  0.00  0.00     0.027 H 
ATOM     45  H   LIG d   1       9.467  -1.849  -8.842  0.00  0.00     0.027 H 
ENDBRANCH  15  42
TORSDOF 8
ENDMDL
MODEL 10
REMARK VINA RESULT:      -5.8      2.027      4.546
REMARK  8 active torsions:
REMARK  status: ('A' for Active; 'I' for Inactive)
REMARK    1  A    between atoms: C_1  and  C_2 
REMARK    2  A    between atoms: C_3  and  C_4 
REMARK    3  A    between atoms: C_3  and  C_5 
REMARK    4  A    between atoms: C_5  and  O_7 
REMARK    5  A    between atoms: O_7  and  C_8 
REMARK    6  A    between atoms: C_22  and  C_26 
REMARK    7  A    between atoms: C_22  and  C_27 
REMARK    8  A    between atoms: C_23  and  O_25 
ROOT
ATOM      1  C   LIG d   1       5.296  -0.712  -7.225  0.00  0.00     0.165 C 
ATOM      2  H   LIG d   1       5.261  -1.771  -7.481  0.00  0.00     0.082 H 
ATOM      3  C   LIG d   1       4.283  -0.423  -6.147  0.00  0.00     0.080 A 
ATOM      4  C   LIG d   1       3.072   0.176  -6.434  0.00  0.00     0.132 A 
ATOM      5  C   LIG d   1       2.150   0.426  -5.413  0.00  0.00    -0.019 A 
ATOM      6  C   LIG d   1       2.430   0.086  -4.123  0.00  0.00    -0.048 A 
ATOM      7  C   LIG d   1       3.654  -0.520  -3.815  0.00  0.00     0.018 A 
ATOM      8  C   LIG d   1       4.587  -0.777  -4.836  0.00  0.00     0.149 A 
ATOM      9  O   LIG d   1       5.768  -1.361  -4.547  0.00  0.00    -0.422 OA
ATOM     10  C   LIG d   1       6.068  -1.706  -3.289  0.00  0.00     0.337 A 
ATOM     11  O   LIG d   1       7.144  -2.233  -3.067  0.00  0.00    -0.245 OA
ATOM     12  C   LIG d   1       5.188  -1.481  -2.212  0.00  0.00     0.024 A 
ATOM     13  C   LIG d   1       3.983  -0.894  -2.439  0.00  0.00    -0.044 A 
ATOM     14  O   LIG d   1       2.742   0.546  -7.699  0.00  0.00    -0.483 OA
ATOM     15  C   LIG d   1       3.482  -0.026  -8.778  0.00  0.00     0.135 C 
ATOM     16  C   LIG d   1       4.978   0.124  -8.468  0.00  0.00     0.135 C 
ATOM     17  H   LIG d   1       5.565  -0.235  -9.313  0.00  0.00     0.067 H 
ATOM     18  H   LIG d   1       1.206   0.894  -5.648  0.00  0.00     0.065 H 
ATOM     19  H   LIG d   1       1.712   0.284  -3.342  0.00  0.00     0.063 H 
ATOM     20  H   LIG d   1       5.469  -1.774  -1.212  0.00  0.00     0.069 H 
ATOM     21  H   LIG d   1       3.291  -0.712  -1.630  0.00  0.00     0.063 H 
ENDROOT
BRANCH   1  22
ATOM     22  O   LIG d   1       6.603  -0.379  -6.751  0.00  0.00    -0.450 OA
BRANCH  22  23
ATOM     23  C   LIG d   1       7.649  -0.887  -7.434  0.00  0.00     0.335 C 
ATOM     24  O   LIG d   1       8.156  -0.246  -8.333  0.00  0.00    -0.245 OA
BRANCH  23  25
ATOM     25  C   LIG d   1       8.175  -2.215  -7.090  0.00  0.00     0.029 C 
ATOM     26  C   LIG d   1       9.118  -2.336  -6.159  0.00  0.00    -0.077 C 
ATOM     27  H   LIG d   1       9.571  -3.299  -5.970  0.00  0.00     0.057 H 
BRANCH  26  28
ATOM     28  C   LIG d   1       9.554  -1.131  -5.366  0.00  0.00    -0.046 C 
ATOM     29  H   LIG d   1      10.628  -0.990  -5.481  0.00  0.00     0.027 H 
ATOM     30  H   LIG d   1       9.030  -0.248  -5.731  0.00  0.00     0.027 H 
ATOM     31  H   LIG d   1       9.319  -1.284  -4.313  0.00  0.00     0.027 H 
ENDBRANCH  26  28
BRANCH  25  32
ATOM     32  C   LIG d   1       7.648  -3.440  -7.792  0.00  0.00    -0.033 C 
ATOM     33  H   LIG d   1       6.565  -3.368  -7.885  0.00  0.00     0.028 H 
ATOM     34  H   LIG d   1       8.095  -3.509  -8.785  0.00  0.00     0.028 H 
ATOM     35  H   LIG d   1       7.905  -4.329  -7.216  0.00  0.00     0.028 H 
ENDBRANCH  25  32
ENDBRANCH  23  25
ENDBRANCH  22  23
ENDBRANCH   1  22
BRANCH  16  36
ATOM     36  O   LIG d   1       5.283   1.497  -8.217  0.00  0.00    -0.384 OA
ATOM     37  H   LIG d   1       6.225   1.673  -8.086  0.00  0.00     0.210 HD
ENDBRANCH  16  36
BRANCH  15  38
ATOM     38  C   LIG d   1       3.130  -1.509  -8.916  0.00  0.00    -0.023 C 
ATOM     39  H   LIG d   1       2.306  -1.750  -8.245  0.00  0.00     0.027 H 
ATOM     40  H   LIG d   1       2.834  -1.717  -9.944  0.00  0.00     0.027 H 
ATOM     41  H   LIG d   1       3.999  -2.114  -8.659  0.00  0.00     0.027 H 
ENDBRANCH  15  38
BRANCH  15  42
ATOM     42  C   LIG d   1       3.149   0.708 -10.078  0.00  0.00    -0.023 C 
ATOM     43  H   LIG d   1       4.050   1.180 -10.469  0.00  0.00     0.027 H 
ATOM     44  H   LIG d   1       2.764  -0.003 -10.808  0.00  0.00     0.027 H 
ATOM     45  H   LIG d   1       2.396   1.471  -9.881  0.00  0.00     0.027 H 
ENDBRANCH  15  42
TORSDOF 8
ENDMDL
