MODEL 1
REMARK VINA RESULT:      -7.9      0.000      0.000
REMARK  8 active torsions:
REMARK  status: ('A' for Active; 'I' for Inactive)
REMARK    1  A    between atoms: C_1  and  C_2 
REMARK    2  A    between atoms: C_12  and  C_13 
REMARK    3  A    between atoms: C_13  and  C_14 
REMARK       I    between atoms: C_14  and  N_16 
REMARK    4  A    between atoms: N_16  and  C_17 
REMARK    5  A    between atoms: C_17  and  C_18 
REMARK    6  A    between atoms: C_18  and  C_19 
REMARK    7  A    between atoms: C_27  and  C_30 
REMARK    8  A    between atoms: C_27  and  C_31 
ROOT
ATOM      1  C   LIG d   1       7.556   1.013  -6.735  0.00  0.00    -0.029 A 
ATOM      2  C   LIG d   1       8.216   1.865  -5.741  0.00  0.00     0.021 A 
ATOM      3  C   LIG d   1       8.842   3.057  -6.118  0.00  0.00    -0.044 A 
ATOM      4  C   LIG d   1       9.451   3.842  -5.177  0.00  0.00    -0.005 A 
ATOM      5  C   LIG d   1       9.451   3.458  -3.840  0.00  0.00     0.128 A 
ATOM      6  C   LIG d   1       8.836   2.274  -3.452  0.00  0.00     0.023 A 
ATOM      7  C   LIG d   1       8.219   1.464  -4.393  0.00  0.00     0.143 A 
ATOM      8  O   LIG d   1       7.618   0.319  -4.017  0.00  0.00    -0.422 OA
ATOM      9  C   LIG d   1       7.015  -0.455  -4.926  0.00  0.00     0.341 A 
ATOM     10  O   LIG d   1       6.484  -1.487  -4.552  0.00  0.00    -0.245 OA
ATOM     11  C   LIG d   1       6.970  -0.131  -6.295  0.00  0.00     0.049 A 
ATOM     12  O   LIG d   1      10.036   4.220  -2.880  0.00  0.00    -0.486 OA
ATOM     13  C   LIG d   1      10.973   5.215  -3.296  0.00  0.00     0.105 C 
ATOM     14  C   LIG d   1      10.336   6.037  -4.425  0.00  0.00    -0.009 C 
ATOM     15  C   LIG d   1      10.121   5.116  -5.628  0.00  0.00    -0.021 C 
ATOM     16  H   LIG d   1       8.844   3.359  -7.155  0.00  0.00     0.063 H 
ATOM     17  H   LIG d   1       8.843   1.981  -2.412  0.00  0.00     0.069 H 
ATOM     18  H   LIG d   1      11.001   6.855  -4.704  0.00  0.00     0.031 H 
ATOM     19  H   LIG d   1       9.379   6.439  -4.093  0.00  0.00     0.031 H 
ATOM     20  H   LIG d   1      11.083   4.880  -6.081  0.00  0.00     0.032 H 
ATOM     21  H   LIG d   1       9.488   5.618  -6.360  0.00  0.00     0.032 H 
ENDROOT
BRANCH  11  22
ATOM     22  C   LIG d   1       6.274  -1.048  -7.268  0.00  0.00     0.056 C 
ATOM     23  H   LIG d   1       6.506  -0.740  -8.288  0.00  0.00     0.041 H 
ATOM     24  H   LIG d   1       6.615  -2.072  -7.112  0.00  0.00     0.041 H 
BRANCH  22  25
ATOM     25  C   LIG d   1       4.785  -0.977  -7.049  0.00  0.00     0.218 C 
ATOM     26  O   LIG d   1       4.070  -1.873  -7.446  0.00  0.00    -0.276 OA
ATOM     27  N   LIG d   1       4.247   0.082  -6.412  0.00  0.00    -0.315 N 
ATOM     28  H   LIG d   1       4.819   0.798  -6.095  0.00  0.00     0.149 HD
BRANCH  27  29
ATOM     29  C   LIG d   1       2.800   0.151  -6.199  0.00  0.00     0.016 C 
ATOM     30  H   LIG d   1       2.335   0.681  -7.030  0.00  0.00     0.046 H 
ATOM     31  H   LIG d   1       2.392  -0.858  -6.138  0.00  0.00     0.046 H 
BRANCH  29  32
ATOM     32  C   LIG d   1       2.511   0.896  -4.893  0.00  0.00    -0.009 C 
ATOM     33  H   LIG d   1       2.881   1.917  -4.969  0.00  0.00     0.033 H 
ATOM     34  H   LIG d   1       1.435   0.911  -4.716  0.00  0.00     0.033 H 
BRANCH  32  35
ATOM     35  C   LIG d   1       3.199   0.195  -3.752  0.00  0.00    -0.011 A 
ATOM     36  C   LIG d   1       3.988   0.915  -2.871  0.00  0.00     0.127 A 
ATOM     37  C   LIG d   1       4.620   0.270  -1.822  0.00  0.00    -0.026 A 
ATOM     38  F   LIG d   1       4.142   2.247  -3.036  0.00  0.00    -0.205 F 
ATOM     39  C   LIG d   1       4.462  -1.093  -1.654  0.00  0.00    -0.059 A 
ATOM     40  H   LIG d   1       5.236   0.831  -1.135  0.00  0.00     0.065 H 
ATOM     41  C   LIG d   1       3.673  -1.811  -2.533  0.00  0.00    -0.061 A 
ATOM     42  H   LIG d   1       4.955  -1.596  -0.835  0.00  0.00     0.062 H 
ATOM     43  C   LIG d   1       3.037  -1.167  -3.578  0.00  0.00    -0.056 A 
ATOM     44  H   LIG d   1       3.551  -2.876  -2.402  0.00  0.00     0.062 H 
ATOM     45  H   LIG d   1       2.418  -1.729  -4.262  0.00  0.00     0.062 H 
ENDBRANCH  32  35
ENDBRANCH  29  32
ENDBRANCH  27  29
ENDBRANCH  22  25
ENDBRANCH  11  22
BRANCH   1  46
ATOM     46  C   LIG d   1       7.528   1.394  -8.193  0.00  0.00    -0.038 C 
ATOM     47  H   LIG d   1       8.322   2.113  -8.396  0.00  0.00     0.028 H 
ATOM     48  H   LIG d   1       7.679   0.503  -8.803  0.00  0.00     0.028 H 
ATOM     49  H   LIG d   1       6.563   1.840  -8.433  0.00  0.00     0.028 H 
ENDBRANCH   1  46
BRANCH  13  50
ATOM     50  C   LIG d   1      12.248   4.541  -3.806  0.00  0.00    -0.025 C 
ATOM     51  H   LIG d   1      13.050   5.277  -3.865  0.00  0.00     0.027 H 
ATOM     52  H   LIG d   1      12.536   3.744  -3.121  0.00  0.00     0.027 H 
ATOM     53  H   LIG d   1      12.066   4.121  -4.796  0.00  0.00     0.027 H 
ENDBRANCH  13  50
BRANCH  13  54
ATOM     54  C   LIG d   1      11.310   6.131  -2.119  0.00  0.00    -0.025 C 
ATOM     55  H   LIG d   1      12.365   6.402  -2.159  0.00  0.00     0.027 H 
ATOM     56  H   LIG d   1      10.702   7.034  -2.176  0.00  0.00     0.027 H 
ATOM     57  H   LIG d   1      11.104   5.612  -1.184  0.00  0.00     0.027 H 
ENDBRANCH  13  54
TORSDOF 8
ENDMDL
MODEL 2
REMARK VINA RESULT:      -7.7      1.355      2.112
REMARK  8 active torsions:
REMARK  status: ('A' for Active; 'I' for Inactive)
REMARK    1  A    between atoms: C_1  and  C_2 
REMARK    2  A    between atoms: C_12  and  C_13 
REMARK    3  A    between atoms: C_13  and  C_14 
REMARK       I    between atoms: C_14  and  N_16 
REMARK    4  A    between atoms: N_16  and  C_17 
REMARK    5  A    between atoms: C_17  and  C_18 
REMARK    6  A    between atoms: C_18  and  C_19 
REMARK    7  A    between atoms: C_27  and  C_30 
REMARK    8  A    between atoms: C_27  and  C_31 
ROOT
ATOM      1  C   LIG d   1       7.639   0.639  -5.041  0.00  0.00    -0.029 A 
ATOM      2  C   LIG d   1       8.444   1.863  -5.094  0.00  0.00     0.021 A 
ATOM      3  C   LIG d   1       8.874   2.492  -3.922  0.00  0.00    -0.044 A 
ATOM      4  C   LIG d   1       9.628   3.632  -3.989  0.00  0.00    -0.005 A 
ATOM      5  C   LIG d   1       9.971   4.171  -5.225  0.00  0.00     0.128 A 
ATOM      6  C   LIG d   1       9.548   3.558  -6.398  0.00  0.00     0.023 A 
ATOM      7  C   LIG d   1       8.778   2.406  -6.348  0.00  0.00     0.143 A 
ATOM      8  O   LIG d   1       8.372   1.808  -7.484  0.00  0.00    -0.422 OA
ATOM      9  C   LIG d   1       7.639   0.691  -7.433  0.00  0.00     0.341 A 
ATOM     10  O   LIG d   1       7.284   0.177  -8.480  0.00  0.00    -0.245 OA
ATOM     11  C   LIG d   1       7.256   0.084  -6.221  0.00  0.00     0.049 A 
ATOM     12  O   LIG d   1      10.728   5.295  -5.327  0.00  0.00    -0.486 OA
ATOM     13  C   LIG d   1      10.848   6.125  -4.171  0.00  0.00     0.105 C 
ATOM     14  C   LIG d   1      11.226   5.241  -2.976  0.00  0.00    -0.009 C 
ATOM     15  C   LIG d   1      10.064   4.283  -2.701  0.00  0.00    -0.021 C 
ATOM     16  H   LIG d   1       8.611   2.076  -2.961  0.00  0.00     0.063 H 
ATOM     17  H   LIG d   1       9.815   3.985  -7.354  0.00  0.00     0.069 H 
ATOM     18  H   LIG d   1      11.403   5.864  -2.099  0.00  0.00     0.031 H 
ATOM     19  H   LIG d   1      12.125   4.671  -3.209  0.00  0.00     0.031 H 
ATOM     20  H   LIG d   1       9.230   4.838  -2.273  0.00  0.00     0.032 H 
ATOM     21  H   LIG d   1      10.387   3.514  -1.998  0.00  0.00     0.032 H 
ENDROOT
BRANCH  11  22
ATOM     22  C   LIG d   1       6.428  -1.175  -6.232  0.00  0.00     0.056 C 
ATOM     23  H   LIG d   1       6.819  -1.862  -6.982  0.00  0.00     0.041 H 
ATOM     24  H   LIG d   1       6.469  -1.646  -5.250  0.00  0.00     0.041 H 
BRANCH  22  25
ATOM     25  C   LIG d   1       4.998  -0.832  -6.563  0.00  0.00     0.218 C 
ATOM     26  O   LIG d   1       4.456  -1.347  -7.519  0.00  0.00    -0.276 OA
ATOM     27  N   LIG d   1       4.320   0.047  -5.798  0.00  0.00    -0.315 N 
ATOM     28  H   LIG d   1       4.754   0.459  -5.035  0.00  0.00     0.149 HD
BRANCH  27  29
ATOM     29  C   LIG d   1       2.931   0.380  -6.121  0.00  0.00     0.016 C 
ATOM     30  H   LIG d   1       2.887   1.380  -6.551  0.00  0.00     0.046 H 
ATOM     31  H   LIG d   1       2.540  -0.342  -6.837  0.00  0.00     0.046 H 
BRANCH  29  32
ATOM     32  C   LIG d   1       2.087   0.337  -4.845  0.00  0.00    -0.009 C 
ATOM     33  H   LIG d   1       1.634   1.313  -4.676  0.00  0.00     0.033 H 
ATOM     34  H   LIG d   1       1.303  -0.414  -4.954  0.00  0.00     0.033 H 
BRANCH  32  35
ATOM     35  C   LIG d   1       2.964  -0.020  -3.673  0.00  0.00    -0.011 A 
ATOM     36  C   LIG d   1       3.557   0.981  -2.923  0.00  0.00     0.127 A 
ATOM     37  C   LIG d   1       4.364   0.653  -1.846  0.00  0.00    -0.026 A 
ATOM     38  F   LIG d   1       3.349   2.278  -3.240  0.00  0.00    -0.205 F 
ATOM     39  C   LIG d   1       4.575  -0.674  -1.521  0.00  0.00    -0.059 A 
ATOM     40  H   LIG d   1       4.827   1.433  -1.260  0.00  0.00     0.065 H 
ATOM     41  C   LIG d   1       3.982  -1.673  -2.271  0.00  0.00    -0.061 A 
ATOM     42  H   LIG d   1       5.204  -0.930  -0.681  0.00  0.00     0.062 H 
ATOM     43  C   LIG d   1       3.173  -1.345  -3.343  0.00  0.00    -0.056 A 
ATOM     44  H   LIG d   1       4.149  -2.709  -2.018  0.00  0.00     0.062 H 
ATOM     45  H   LIG d   1       2.707  -2.127  -3.926  0.00  0.00     0.062 H 
ENDBRANCH  32  35
ENDBRANCH  29  32
ENDBRANCH  27  29
ENDBRANCH  22  25
ENDBRANCH  11  22
BRANCH   1  46
ATOM     46  C   LIG d   1       7.249   0.019  -3.724  0.00  0.00    -0.038 C 
ATOM     47  H   LIG d   1       7.965   0.314  -2.957  0.00  0.00     0.028 H 
ATOM     48  H   LIG d   1       6.253   0.360  -3.443  0.00  0.00     0.028 H 
ATOM     49  H   LIG d   1       7.247  -1.067  -3.821  0.00  0.00     0.028 H 
ENDBRANCH   1  46
BRANCH  13  50
ATOM     50  C   LIG d   1       9.514   6.821  -3.895  0.00  0.00    -0.025 C 
ATOM     51  H   LIG d   1       9.624   7.894  -4.049  0.00  0.00     0.027 H 
ATOM     52  H   LIG d   1       8.755   6.433  -4.575  0.00  0.00     0.027 H 
ATOM     53  H   LIG d   1       9.210   6.629  -2.866  0.00  0.00     0.027 H 
ENDBRANCH  13  50
BRANCH  13  54
ATOM     54  C   LIG d   1      11.938   7.174  -4.401  0.00  0.00    -0.025 C 
ATOM     55  H   LIG d   1      11.475   8.144  -4.586  0.00  0.00     0.027 H 
ATOM     56  H   LIG d   1      12.572   7.238  -3.517  0.00  0.00     0.027 H 
ATOM     57  H   LIG d   1      12.541   6.889  -5.262  0.00  0.00     0.027 H 
ENDBRANCH  13  54
TORSDOF 8
ENDMDL
MODEL 3
REMARK VINA RESULT:      -7.5      2.687      4.888
REMARK  8 active torsions:
REMARK  status: ('A' for Active; 'I' for Inactive)
REMARK    1  A    between atoms: C_1  and  C_2 
REMARK    2  A    between atoms: C_12  and  C_13 
REMARK    3  A    between atoms: C_13  and  C_14 
REMARK       I    between atoms: C_14  and  N_16 
REMARK    4  A    between atoms: N_16  and  C_17 
REMARK    5  A    between atoms: C_17  and  C_18 
REMARK    6  A    between atoms: C_18  and  C_19 
REMARK    7  A    between atoms: C_27  and  C_30 
REMARK    8  A    between atoms: C_27  and  C_31 
ROOT
ATOM      1  C   LIG d   1      10.161   5.167  -4.543  0.00  0.00    -0.029 A 
ATOM      2  C   LIG d   1      10.180   6.181  -3.484  0.00  0.00     0.021 A 
ATOM      3  C   LIG d   1      10.021   7.537  -3.784  0.00  0.00    -0.044 A 
ATOM      4  C   LIG d   1      10.038   8.470  -2.784  0.00  0.00    -0.005 A 
ATOM      5  C   LIG d   1      10.214   8.074  -1.462  0.00  0.00     0.128 A 
ATOM      6  C   LIG d   1      10.377   6.730  -1.149  0.00  0.00     0.023 A 
ATOM      7  C   LIG d   1      10.368   5.772  -2.152  0.00  0.00     0.143 A 
ATOM      8  O   LIG d   1      10.521   4.468  -1.850  0.00  0.00    -0.422 OA
ATOM      9  C   LIG d   1      10.502   3.546  -2.817  0.00  0.00     0.341 A 
ATOM     10  O   LIG d   1      10.646   2.375  -2.510  0.00  0.00    -0.245 OA
ATOM     11  C   LIG d   1      10.324   3.869  -4.176  0.00  0.00     0.049 A 
ATOM     12  O   LIG d   1      10.224   8.974  -0.444  0.00  0.00    -0.486 OA
ATOM     13  C   LIG d   1      10.433  10.349  -0.771  0.00  0.00     0.105 C 
ATOM     14  C   LIG d   1       9.478  10.726  -1.910  0.00  0.00    -0.009 C 
ATOM     15  C   LIG d   1       9.870   9.923  -3.152  0.00  0.00    -0.021 C 
ATOM     16  H   LIG d   1       9.882   7.849  -4.809  0.00  0.00     0.063 H 
ATOM     17  H   LIG d   1      10.517   6.431  -0.121  0.00  0.00     0.069 H 
ATOM     18  H   LIG d   1       9.562  11.793  -2.121  0.00  0.00     0.031 H 
ATOM     19  H   LIG d   1       8.453  10.488  -1.626  0.00  0.00     0.031 H 
ATOM     20  H   LIG d   1      10.807  10.307  -3.552  0.00  0.00     0.032 H 
ATOM     21  H   LIG d   1       9.088  10.017  -3.906  0.00  0.00     0.032 H 
ENDROOT
BRANCH  11  22
ATOM     22  C   LIG d   1      10.312   2.780  -5.218  0.00  0.00     0.056 C 
ATOM     23  H   LIG d   1      10.495   3.215  -6.201  0.00  0.00     0.041 H 
ATOM     24  H   LIG d   1      11.092   2.052  -4.993  0.00  0.00     0.041 H 
BRANCH  22  25
ATOM     25  C   LIG d   1       8.970   2.095  -5.214  0.00  0.00     0.218 C 
ATOM     26  O   LIG d   1       8.117   2.427  -6.010  0.00  0.00    -0.276 OA
ATOM     27  N   LIG d   1       8.717   1.113  -4.327  0.00  0.00    -0.315 N 
ATOM     28  H   LIG d   1       9.399   0.848  -3.690  0.00  0.00     0.149 HD
BRANCH  27  29
ATOM     29  C   LIG d   1       7.413   0.447  -4.323  0.00  0.00     0.016 C 
ATOM     30  H   LIG d   1       6.920   0.608  -5.282  0.00  0.00     0.046 H 
ATOM     31  H   LIG d   1       7.549  -0.622  -4.159  0.00  0.00     0.046 H 
BRANCH  29  32
ATOM     32  C   LIG d   1       6.547   1.027  -3.202  0.00  0.00    -0.009 C 
ATOM     33  H   LIG d   1       7.120   1.052  -2.277  0.00  0.00     0.033 H 
ATOM     34  H   LIG d   1       6.240   2.039  -3.468  0.00  0.00     0.033 H 
BRANCH  32  35
ATOM     35  C   LIG d   1       5.326   0.166  -3.014  0.00  0.00    -0.011 A 
ATOM     36  C   LIG d   1       4.073   0.749  -2.932  0.00  0.00     0.127 A 
ATOM     37  C   LIG d   1       2.950  -0.043  -2.759  0.00  0.00    -0.026 A 
ATOM     38  F   LIG d   1       3.945   2.091  -3.021  0.00  0.00    -0.205 F 
ATOM     39  C   LIG d   1       3.082  -1.416  -2.669  0.00  0.00    -0.059 A 
ATOM     40  H   LIG d   1       1.972   0.411  -2.695  0.00  0.00     0.065 H 
ATOM     41  C   LIG d   1       4.334  -1.998  -2.751  0.00  0.00    -0.061 A 
ATOM     42  H   LIG d   1       2.207  -2.034  -2.534  0.00  0.00     0.062 H 
ATOM     43  C   LIG d   1       5.454  -1.208  -2.929  0.00  0.00    -0.056 A 
ATOM     44  H   LIG d   1       4.436  -3.071  -2.680  0.00  0.00     0.062 H 
ATOM     45  H   LIG d   1       6.431  -1.664  -2.997  0.00  0.00     0.062 H 
ENDBRANCH  32  35
ENDBRANCH  29  32
ENDBRANCH  27  29
ENDBRANCH  22  25
ENDBRANCH  11  22
BRANCH   1  46
ATOM     46  C   LIG d   1       9.968   5.552  -5.987  0.00  0.00    -0.038 C 
ATOM     47  H   LIG d   1      10.781   5.140  -6.585  0.00  0.00     0.028 H 
ATOM     48  H   LIG d   1       9.017   5.157  -6.344  0.00  0.00     0.028 H 
ATOM     49  H   LIG d   1       9.966   6.639  -6.076  0.00  0.00     0.028 H 
ENDBRANCH   1  46
BRANCH  13  50
ATOM     50  C   LIG d   1      11.880  10.557  -1.222  0.00  0.00    -0.025 C 
ATOM     51  H   LIG d   1      12.474   9.684  -0.953  0.00  0.00     0.027 H 
ATOM     52  H   LIG d   1      11.907  10.696  -2.303  0.00  0.00     0.027 H 
ATOM     53  H   LIG d   1      12.289  11.441  -0.732  0.00  0.00     0.027 H 
ENDBRANCH  13  50
BRANCH  13  54
ATOM     54  C   LIG d   1      10.144  11.219   0.453  0.00  0.00    -0.025 C 
ATOM     55  H   LIG d   1      10.682  10.824   1.316  0.00  0.00     0.027 H 
ATOM     56  H   LIG d   1      10.473  12.240   0.259  0.00  0.00     0.027 H 
ATOM     57  H   LIG d   1       9.075  11.214   0.659  0.00  0.00     0.027 H 
ENDBRANCH  13  54
TORSDOF 8
ENDMDL
MODEL 4
REMARK VINA RESULT:      -7.4      2.718      4.637
REMARK  8 active torsions:
REMARK  status: ('A' for Active; 'I' for Inactive)
REMARK    1  A    between atoms: C_1  and  C_2 
REMARK    2  A    between atoms: C_12  and  C_13 
REMARK    3  A    between atoms: C_13  and  C_14 
REMARK       I    between atoms: C_14  and  N_16 
REMARK    4  A    between atoms: N_16  and  C_17 
REMARK    5  A    between atoms: C_17  and  C_18 
REMARK    6  A    between atoms: C_18  and  C_19 
REMARK    7  A    between atoms: C_27  and  C_30 
REMARK    8  A    between atoms: C_27  and  C_31 
ROOT
ATOM      1  C   LIG d   1      10.018   4.793  -5.472  0.00  0.00    -0.029 A 
ATOM      2  C   LIG d   1       9.987   6.058  -4.732  0.00  0.00     0.021 A 
ATOM      3  C   LIG d   1       9.833   7.277  -5.398  0.00  0.00    -0.044 A 
ATOM      4  C   LIG d   1       9.803   8.448  -4.691  0.00  0.00    -0.005 A 
ATOM      5  C   LIG d   1       9.925   8.432  -3.306  0.00  0.00     0.128 A 
ATOM      6  C   LIG d   1      10.082   7.228  -2.630  0.00  0.00     0.023 A 
ATOM      7  C   LIG d   1      10.121   6.032  -3.332  0.00  0.00     0.143 A 
ATOM      8  O   LIG d   1      10.267   4.863  -2.679  0.00  0.00    -0.422 OA
ATOM      9  C   LIG d   1      10.294   3.711  -3.357  0.00  0.00     0.341 A 
ATOM     10  O   LIG d   1      10.432   2.672  -2.735  0.00  0.00    -0.245 OA
ATOM     11  C   LIG d   1      10.172   3.647  -4.758  0.00  0.00     0.049 A 
ATOM     12  O   LIG d   1       9.887   9.576  -2.574  0.00  0.00    -0.486 OA
ATOM     13  C   LIG d   1      10.102  10.812  -3.255  0.00  0.00     0.105 C 
ATOM     14  C   LIG d   1       9.195  10.848  -4.491  0.00  0.00    -0.009 C 
ATOM     15  C   LIG d   1       9.643   9.742  -5.450  0.00  0.00    -0.021 C 
ATOM     16  H   LIG d   1       9.737   7.295  -6.473  0.00  0.00     0.063 H 
ATOM     17  H   LIG d   1      10.180   7.223  -1.555  0.00  0.00     0.069 H 
ATOM     18  H   LIG d   1       9.282  11.817  -4.983  0.00  0.00     0.031 H 
ATOM     19  H   LIG d   1       8.160  10.679  -4.193  0.00  0.00     0.031 H 
ATOM     20  H   LIG d   1      10.595  10.018  -5.902  0.00  0.00     0.032 H 
ATOM     21  H   LIG d   1       8.893   9.613  -6.231  0.00  0.00     0.032 H 
ENDROOT
BRANCH  11  22
ATOM     22  C   LIG d   1      10.211   2.315  -5.462  0.00  0.00     0.056 C 
ATOM     23  H   LIG d   1      10.411   2.470  -6.522  0.00  0.00     0.041 H 
ATOM     24  H   LIG d   1      10.999   1.698  -5.030  0.00  0.00     0.041 H 
BRANCH  22  25
ATOM     25  C   LIG d   1       8.883   1.621  -5.298  0.00  0.00     0.218 C 
ATOM     26  O   LIG d   1       7.938   1.950  -5.983  0.00  0.00    -0.276 OA
ATOM     27  N   LIG d   1       8.745   0.636  -4.389  0.00  0.00    -0.315 N 
ATOM     28  H   LIG d   1       9.501   0.374  -3.840  0.00  0.00     0.149 HD
BRANCH  27  29
ATOM     29  C   LIG d   1       7.455  -0.038  -4.230  0.00  0.00     0.016 C 
ATOM     30  H   LIG d   1       6.878   0.059  -5.149  0.00  0.00     0.046 H 
ATOM     31  H   LIG d   1       7.619  -1.093  -4.013  0.00  0.00     0.046 H 
BRANCH  29  32
ATOM     32  C   LIG d   1       6.683   0.604  -3.075  0.00  0.00    -0.009 C 
ATOM     33  H   LIG d   1       7.254   0.498  -2.153  0.00  0.00     0.033 H 
ATOM     34  H   LIG d   1       6.528   1.663  -3.286  0.00  0.00     0.033 H 
BRANCH  32  35
ATOM     35  C   LIG d   1       5.349  -0.077  -2.922  0.00  0.00    -0.011 A 
ATOM     36  C   LIG d   1       4.187   0.675  -2.887  0.00  0.00     0.127 A 
ATOM     37  C   LIG d   1       2.960   0.048  -2.746  0.00  0.00    -0.026 A 
ATOM     38  F   LIG d   1       4.249   2.021  -2.990  0.00  0.00    -0.205 F 
ATOM     39  C   LIG d   1       2.897  -1.329  -2.641  0.00  0.00    -0.059 A 
ATOM     40  H   LIG d   1       2.053   0.633  -2.719  0.00  0.00     0.065 H 
ATOM     41  C   LIG d   1       4.058  -2.079  -2.676  0.00  0.00    -0.061 A 
ATOM     42  H   LIG d   1       1.941  -1.818  -2.532  0.00  0.00     0.062 H 
ATOM     43  C   LIG d   1       5.282  -1.454  -2.822  0.00  0.00    -0.056 A 
ATOM     44  H   LIG d   1       4.008  -3.155  -2.593  0.00  0.00     0.062 H 
ATOM     45  H   LIG d   1       6.188  -2.042  -2.853  0.00  0.00     0.062 H 
ENDBRANCH  32  35
ENDBRANCH  29  32
ENDBRANCH  27  29
ENDBRANCH  22  25
ENDBRANCH  11  22
BRANCH   1  46
ATOM     46  C   LIG d   1       9.884   4.765  -6.973  0.00  0.00    -0.038 C 
ATOM     47  H   LIG d   1       9.883   3.732  -7.319  0.00  0.00     0.028 H 
ATOM     48  H   LIG d   1       8.951   5.247  -7.263  0.00  0.00     0.028 H 
ATOM     49  H   LIG d   1      10.724   5.297  -7.422  0.00  0.00     0.028 H 
ENDBRANCH   1  46
BRANCH  13  50
ATOM     50  C   LIG d   1      11.566  10.914  -3.689  0.00  0.00    -0.025 C 
ATOM     51  H   LIG d   1      11.629  11.455  -4.633  0.00  0.00     0.027 H 
ATOM     52  H   LIG d   1      12.135  11.446  -2.926  0.00  0.00     0.027 H 
ATOM     53  H   LIG d   1      11.978   9.912  -3.815  0.00  0.00     0.027 H 
ENDBRANCH  13  50
BRANCH  13  54
ATOM     54  C   LIG d   1       9.758  11.979  -2.329  0.00  0.00    -0.025 C 
ATOM     55  H   LIG d   1       8.792  12.398  -2.615  0.00  0.00     0.027 H 
ATOM     56  H   LIG d   1       9.707  11.623  -1.300  0.00  0.00     0.027 H 
ATOM     57  H   LIG d   1      10.525  12.748  -2.411  0.00  0.00     0.027 H 
ENDBRANCH  13  54
TORSDOF 8
ENDMDL
MODEL 5
REMARK VINA RESULT:      -7.3      2.455      4.606
REMARK  8 active torsions:
REMARK  status: ('A' for Active; 'I' for Inactive)
REMARK    1  A    between atoms: C_1  and  C_2 
REMARK    2  A    between atoms: C_12  and  C_13 
REMARK    3  A    between atoms: C_13  and  C_14 
REMARK       I    between atoms: C_14  and  N_16 
REMARK    4  A    between atoms: N_16  and  C_17 
REMARK    5  A    between atoms: C_17  and  C_18 
REMARK    6  A    between atoms: C_18  and  C_19 
REMARK    7  A    between atoms: C_27  and  C_30 
REMARK    8  A    between atoms: C_27  and  C_31 
ROOT
ATOM      1  C   LIG d   1      10.183   3.571  -4.111  0.00  0.00    -0.029 A 
ATOM      2  C   LIG d   1      10.127   4.975  -3.694  0.00  0.00     0.021 A 
ATOM      3  C   LIG d   1      10.316   5.335  -2.356  0.00  0.00    -0.044 A 
ATOM      4  C   LIG d   1      10.264   6.650  -1.983  0.00  0.00    -0.005 A 
ATOM      5  C   LIG d   1      10.025   7.637  -2.934  0.00  0.00     0.128 A 
ATOM      6  C   LIG d   1       9.832   7.294  -4.266  0.00  0.00     0.023 A 
ATOM      7  C   LIG d   1       9.875   5.965  -4.660  0.00  0.00     0.143 A 
ATOM      8  O   LIG d   1       9.694   5.631  -5.952  0.00  0.00    -0.422 OA
ATOM      9  C   LIG d   1       9.746   4.350  -6.331  0.00  0.00     0.341 A 
ATOM     10  O   LIG d   1       9.574   4.082  -7.507  0.00  0.00    -0.245 OA
ATOM     11  C   LIG d   1       9.988   3.297  -5.428  0.00  0.00     0.049 A 
ATOM     12  O   LIG d   1       9.980   8.953  -2.599  0.00  0.00    -0.486 OA
ATOM     13  C   LIG d   1       9.801   9.285  -1.221  0.00  0.00     0.105 C 
ATOM     14  C   LIG d   1      10.811   8.479  -0.394  0.00  0.00    -0.009 C 
ATOM     15  C   LIG d   1      10.466   6.994  -0.528  0.00  0.00    -0.021 C 
ATOM     16  H   LIG d   1      10.503   4.572  -1.614  0.00  0.00     0.063 H 
ATOM     17  H   LIG d   1       9.643   8.066  -4.998  0.00  0.00     0.069 H 
ATOM     18  H   LIG d   1      10.749   8.777   0.653  0.00  0.00     0.031 H 
ATOM     19  H   LIG d   1      11.819   8.658  -0.767  0.00  0.00     0.031 H 
ATOM     20  H   LIG d   1       9.551   6.782   0.025  0.00  0.00     0.032 H 
ATOM     21  H   LIG d   1      11.282   6.394  -0.124  0.00  0.00     0.032 H 
ENDROOT
BRANCH  11  22
ATOM     22  C   LIG d   1      10.034   1.873  -5.920  0.00  0.00     0.056 C 
ATOM     23  H   LIG d   1      10.251   1.863  -6.988  0.00  0.00     0.041 H 
ATOM     24  H   LIG d   1      10.813   1.328  -5.386  0.00  0.00     0.041 H 
BRANCH  22  25
ATOM     25  C   LIG d   1       8.701   1.213  -5.672  0.00  0.00     0.218 C 
ATOM     26  O   LIG d   1       7.674   1.833  -5.857  0.00  0.00    -0.276 OA
ATOM     27  N   LIG d   1       8.649  -0.064  -5.244  0.00  0.00    -0.315 N 
ATOM     28  H   LIG d   1       9.470  -0.558  -5.096  0.00  0.00     0.149 HD
BRANCH  27  29
ATOM     29  C   LIG d   1       7.354  -0.704  -5.004  0.00  0.00     0.016 C 
ATOM     30  H   LIG d   1       6.556  -0.058  -5.369  0.00  0.00     0.046 H 
ATOM     31  H   LIG d   1       7.317  -1.659  -5.527  0.00  0.00     0.046 H 
BRANCH  29  32
ATOM     32  C   LIG d   1       7.172  -0.939  -3.503  0.00  0.00    -0.009 C 
ATOM     33  H   LIG d   1       7.323  -1.994  -3.280  0.00  0.00     0.033 H 
ATOM     34  H   LIG d   1       7.900  -0.343  -2.951  0.00  0.00     0.033 H 
BRANCH  32  35
ATOM     35  C   LIG d   1       5.780  -0.533  -3.096  0.00  0.00    -0.011 A 
ATOM     36  C   LIG d   1       5.483   0.802  -2.880  0.00  0.00     0.127 A 
ATOM     37  C   LIG d   1       4.203   1.174  -2.506  0.00  0.00    -0.026 A 
ATOM     38  F   LIG d   1       6.442   1.741  -3.033  0.00  0.00    -0.205 F 
ATOM     39  C   LIG d   1       3.222   0.213  -2.349  0.00  0.00    -0.059 A 
ATOM     40  H   LIG d   1       3.970   2.215  -2.337  0.00  0.00     0.065 H 
ATOM     41  C   LIG d   1       3.520  -1.120  -2.566  0.00  0.00    -0.061 A 
ATOM     42  H   LIG d   1       2.223   0.503  -2.058  0.00  0.00     0.062 H 
ATOM     43  C   LIG d   1       4.796  -1.492  -2.944  0.00  0.00    -0.056 A 
ATOM     44  H   LIG d   1       2.753  -1.871  -2.442  0.00  0.00     0.062 H 
ATOM     45  H   LIG d   1       5.026  -2.533  -3.117  0.00  0.00     0.062 H 
ENDBRANCH  32  35
ENDBRANCH  29  32
ENDBRANCH  27  29
ENDBRANCH  22  25
ENDBRANCH  11  22
BRANCH   1  46
ATOM     46  C   LIG d   1      10.444   2.471  -3.115  0.00  0.00    -0.038 C 
ATOM     47  H   LIG d   1       9.518   1.931  -2.918  0.00  0.00     0.028 H 
ATOM     48  H   LIG d   1      11.187   1.784  -3.520  0.00  0.00     0.028 H 
ATOM     49  H   LIG d   1      10.818   2.904  -2.187  0.00  0.00     0.028 H 
ENDBRANCH   1  46
BRANCH  13  50
ATOM     50  C   LIG d   1       8.379   8.930  -0.785  0.00  0.00    -0.025 C 
ATOM     51  H   LIG d   1       8.368   8.715   0.283  0.00  0.00     0.027 H 
ATOM     52  H   LIG d   1       7.715   9.770  -0.993  0.00  0.00     0.027 H 
ATOM     53  H   LIG d   1       8.038   8.053  -1.337  0.00  0.00     0.027 H 
ENDBRANCH  13  50
BRANCH  13  54
ATOM     54  C   LIG d   1      10.045  10.781  -1.016  0.00  0.00    -0.025 C 
ATOM     55  H   LIG d   1      10.399  11.224  -1.947  0.00  0.00     0.027 H 
ATOM     56  H   LIG d   1       9.114  11.263  -0.717  0.00  0.00     0.027 H 
ATOM     57  H   LIG d   1      10.794  10.924  -0.238  0.00  0.00     0.027 H 
ENDBRANCH  13  54
TORSDOF 8
ENDMDL
MODEL 6
REMARK VINA RESULT:      -7.3      3.782      5.755
REMARK  8 active torsions:
REMARK  status: ('A' for Active; 'I' for Inactive)
REMARK    1  A    between atoms: C_1  and  C_2 
REMARK    2  A    between atoms: C_12  and  C_13 
REMARK    3  A    between atoms: C_13  and  C_14 
REMARK       I    between atoms: C_14  and  N_16 
REMARK    4  A    between atoms: N_16  and  C_17 
REMARK    5  A    between atoms: C_17  and  C_18 
REMARK    6  A    between atoms: C_18  and  C_19 
REMARK    7  A    between atoms: C_27  and  C_30 
REMARK    8  A    between atoms: C_27  and  C_31 
ROOT
ATOM      1  C   LIG d   1       5.640  -2.272  -6.749  0.00  0.00    -0.029 A 
ATOM      2  C   LIG d   1       6.948  -2.609  -6.180  0.00  0.00     0.021 A 
ATOM      3  C   LIG d   1       7.208  -3.889  -5.682  0.00  0.00    -0.044 A 
ATOM      4  C   LIG d   1       8.435  -4.188  -5.157  0.00  0.00    -0.005 A 
ATOM      5  C   LIG d   1       9.433  -3.219  -5.116  0.00  0.00     0.128 A 
ATOM      6  C   LIG d   1       9.188  -1.941  -5.605  0.00  0.00     0.023 A 
ATOM      7  C   LIG d   1       7.947  -1.620  -6.134  0.00  0.00     0.143 A 
ATOM      8  O   LIG d   1       7.711  -0.384  -6.613  0.00  0.00    -0.422 OA
ATOM      9  C   LIG d   1       6.517  -0.079  -7.133  0.00  0.00     0.341 A 
ATOM     10  O   LIG d   1       6.335   1.050  -7.553  0.00  0.00    -0.245 OA
ATOM     11  C   LIG d   1       5.461  -1.007  -7.212  0.00  0.00     0.049 A 
ATOM     12  O   LIG d   1      10.666  -3.487  -4.613  0.00  0.00    -0.486 OA
ATOM     13  C   LIG d   1      10.813  -4.642  -3.785  0.00  0.00     0.105 C 
ATOM     14  C   LIG d   1      10.174  -5.837  -4.505  0.00  0.00    -0.009 C 
ATOM     15  C   LIG d   1       8.670  -5.579  -4.624  0.00  0.00    -0.021 C 
ATOM     16  H   LIG d   1       6.437  -4.645  -5.713  0.00  0.00     0.063 H 
ATOM     17  H   LIG d   1       9.967  -1.193  -5.566  0.00  0.00     0.069 H 
ATOM     18  H   LIG d   1      10.346  -6.747  -3.929  0.00  0.00     0.031 H 
ATOM     19  H   LIG d   1      10.609  -5.944  -5.498  0.00  0.00     0.031 H 
ATOM     20  H   LIG d   1       8.207  -5.675  -3.643  0.00  0.00     0.032 H 
ATOM     21  H   LIG d   1       8.231  -6.307  -5.306  0.00  0.00     0.032 H 
ENDROOT
BRANCH  11  22
ATOM     22  C   LIG d   1       4.138  -0.600  -7.810  0.00  0.00     0.056 C 
ATOM     23  H   LIG d   1       4.310   0.061  -8.659  0.00  0.00     0.041 H 
ATOM     24  H   LIG d   1       3.601  -1.488  -8.143  0.00  0.00     0.041 H 
BRANCH  22  25
ATOM     25  C   LIG d   1       3.318   0.121  -6.770  0.00  0.00     0.218 C 
ATOM     26  O   LIG d   1       3.005   1.280  -6.942  0.00  0.00    -0.276 OA
ATOM     27  N   LIG d   1       2.934  -0.522  -5.650  0.00  0.00    -0.315 N 
ATOM     28  H   LIG d   1       3.185  -1.448  -5.512  0.00  0.00     0.149 HD
BRANCH  27  29
ATOM     29  C   LIG d   1       2.137   0.179  -4.640  0.00  0.00     0.016 C 
ATOM     30  H   LIG d   1       2.305   1.253  -4.726  0.00  0.00     0.046 H 
ATOM     31  H   LIG d   1       1.080  -0.037  -4.796  0.00  0.00     0.046 H 
BRANCH  29  32
ATOM     32  C   LIG d   1       2.553  -0.292  -3.245  0.00  0.00    -0.009 C 
ATOM     33  H   LIG d   1       2.217   0.431  -2.503  0.00  0.00     0.033 H 
ATOM     34  H   LIG d   1       2.098  -1.262  -3.039  0.00  0.00     0.033 H 
BRANCH  32  35
ATOM     35  C   LIG d   1       4.052  -0.417  -3.182  0.00  0.00    -0.011 A 
ATOM     36  C   LIG d   1       4.635  -1.650  -2.944  0.00  0.00     0.127 A 
ATOM     37  C   LIG d   1       6.014  -1.764  -2.887  0.00  0.00    -0.026 A 
ATOM     38  F   LIG d   1       3.859  -2.742  -2.767  0.00  0.00    -0.205 F 
ATOM     39  C   LIG d   1       6.808  -0.647  -3.068  0.00  0.00    -0.059 A 
ATOM     40  H   LIG d   1       6.470  -2.726  -2.701  0.00  0.00     0.065 H 
ATOM     41  C   LIG d   1       6.224   0.584  -3.307  0.00  0.00    -0.061 A 
ATOM     42  H   LIG d   1       7.883  -0.736  -3.024  0.00  0.00     0.062 H 
ATOM     43  C   LIG d   1       4.848   0.698  -3.369  0.00  0.00    -0.056 A 
ATOM     44  H   LIG d   1       6.845   1.457  -3.447  0.00  0.00     0.062 H 
ATOM     45  H   LIG d   1       4.394   1.660  -3.559  0.00  0.00     0.062 H 
ENDBRANCH  32  35
ENDBRANCH  29  32
ENDBRANCH  27  29
ENDBRANCH  22  25
ENDBRANCH  11  22
BRANCH   1  46
ATOM     46  C   LIG d   1       4.534  -3.293  -6.817  0.00  0.00    -0.038 C 
ATOM     47  H   LIG d   1       4.964  -4.293  -6.864  0.00  0.00     0.028 H 
ATOM     48  H   LIG d   1       3.906  -3.207  -5.931  0.00  0.00     0.028 H 
ATOM     49  H   LIG d   1       3.930  -3.115  -7.708  0.00  0.00     0.028 H 
ENDBRANCH   1  46
BRANCH  13  50
ATOM     50  C   LIG d   1      10.108  -4.410  -2.448  0.00  0.00    -0.025 C 
ATOM     51  H   LIG d   1      10.592  -3.589  -1.919  0.00  0.00     0.027 H 
ATOM     52  H   LIG d   1       9.062  -4.160  -2.627  0.00  0.00     0.027 H 
ATOM     53  H   LIG d   1      10.166  -5.316  -1.844  0.00  0.00     0.027 H 
ENDBRANCH  13  50
BRANCH  13  54
ATOM     54  C   LIG d   1      12.298  -4.918  -3.545  0.00  0.00    -0.025 C 
ATOM     55  H   LIG d   1      12.661  -4.280  -2.739  0.00  0.00     0.027 H 
ATOM     56  H   LIG d   1      12.432  -5.964  -3.267  0.00  0.00     0.027 H 
ATOM     57  H   LIG d   1      12.859  -4.709  -4.455  0.00  0.00     0.027 H 
ENDBRANCH  13  54
TORSDOF 8
ENDMDL
MODEL 7
REMARK VINA RESULT:      -7.0      4.327      6.570
REMARK  8 active torsions:
REMARK  status: ('A' for Active; 'I' for Inactive)
REMARK    1  A    between atoms: C_1  and  C_2 
REMARK    2  A    between atoms: C_12  and  C_13 
REMARK    3  A    between atoms: C_13  and  C_14 
REMARK       I    between atoms: C_14  and  N_16 
REMARK    4  A    between atoms: N_16  and  C_17 
REMARK    5  A    between atoms: C_17  and  C_18 
REMARK    6  A    between atoms: C_18  and  C_19 
REMARK    7  A    between atoms: C_27  and  C_30 
REMARK    8  A    between atoms: C_27  and  C_31 
ROOT
ATOM      1  C   LIG d   1       5.546  -2.835  -8.263  0.00  0.00    -0.029 A 
ATOM      2  C   LIG d   1       5.508  -2.025  -7.042  0.00  0.00     0.021 A 
ATOM      3  C   LIG d   1       4.753  -2.427  -5.936  0.00  0.00    -0.044 A 
ATOM      4  C   LIG d   1       4.731  -1.661  -4.802  0.00  0.00    -0.005 A 
ATOM      5  C   LIG d   1       5.462  -0.479  -4.743  0.00  0.00     0.128 A 
ATOM      6  C   LIG d   1       6.214  -0.065  -5.836  0.00  0.00     0.023 A 
ATOM      7  C   LIG d   1       6.242  -0.827  -6.995  0.00  0.00     0.143 A 
ATOM      8  O   LIG d   1       6.976  -0.430  -8.053  0.00  0.00    -0.422 OA
ATOM      9  C   LIG d   1       7.009  -1.171  -9.165  0.00  0.00     0.341 A 
ATOM     10  O   LIG d   1       7.680  -0.781 -10.106  0.00  0.00    -0.245 OA
ATOM     11  C   LIG d   1       6.301  -2.381  -9.298  0.00  0.00     0.049 A 
ATOM     12  O   LIG d   1       5.471   0.298  -3.629  0.00  0.00    -0.486 OA
ATOM     13  C   LIG d   1       4.437   0.095  -2.665  0.00  0.00     0.105 C 
ATOM     14  C   LIG d   1       4.346  -1.407  -2.362  0.00  0.00    -0.009 C 
ATOM     15  C   LIG d   1       3.897  -2.128  -3.635  0.00  0.00    -0.021 C 
ATOM     16  H   LIG d   1       4.186  -3.345  -5.977  0.00  0.00     0.063 H 
ATOM     17  H   LIG d   1       6.776   0.856  -5.784  0.00  0.00     0.069 H 
ATOM     18  H   LIG d   1       3.619  -1.578  -1.568  0.00  0.00     0.031 H 
ATOM     19  H   LIG d   1       5.322  -1.780  -2.052  0.00  0.00     0.031 H 
ATOM     20  H   LIG d   1       2.848  -1.906  -3.827  0.00  0.00     0.032 H 
ATOM     21  H   LIG d   1       4.024  -3.203  -3.507  0.00  0.00     0.032 H 
ENDROOT
BRANCH  11  22
ATOM     22  C   LIG d   1       6.380  -3.169 -10.580  0.00  0.00     0.056 C 
ATOM     23  H   LIG d   1       7.417  -3.217 -10.914  0.00  0.00     0.041 H 
ATOM     24  H   LIG d   1       6.006  -4.179 -10.411  0.00  0.00     0.041 H 
BRANCH  22  25
ATOM     25  C   LIG d   1       5.543  -2.494 -11.637  0.00  0.00     0.218 C 
ATOM     26  O   LIG d   1       6.030  -2.226 -12.716  0.00  0.00    -0.276 OA
ATOM     27  N   LIG d   1       4.255  -2.189 -11.384  0.00  0.00    -0.315 N 
ATOM     28  H   LIG d   1       3.867  -2.403 -10.521  0.00  0.00     0.149 HD
BRANCH  27  29
ATOM     29  C   LIG d   1       3.443  -1.534 -12.411  0.00  0.00     0.016 C 
ATOM     30  H   LIG d   1       4.031  -0.757 -12.899  0.00  0.00     0.046 H 
ATOM     31  H   LIG d   1       3.127  -2.270 -13.151  0.00  0.00     0.046 H 
BRANCH  29  32
ATOM     32  C   LIG d   1       2.208  -0.905 -11.761  0.00  0.00    -0.009 C 
ATOM     33  H   LIG d   1       1.806  -0.133 -12.416  0.00  0.00     0.033 H 
ATOM     34  H   LIG d   1       1.452  -1.674 -11.600  0.00  0.00     0.033 H 
BRANCH  32  35
ATOM     35  C   LIG d   1       2.592  -0.294 -10.439  0.00  0.00    -0.011 A 
ATOM     36  C   LIG d   1       3.425   0.812 -10.403  0.00  0.00     0.127 A 
ATOM     37  C   LIG d   1       3.778   1.373  -9.188  0.00  0.00    -0.026 A 
ATOM     38  F   LIG d   1       3.894   1.343 -11.554  0.00  0.00    -0.205 F 
ATOM     39  C   LIG d   1       3.298   0.830  -8.011  0.00  0.00    -0.059 A 
ATOM     40  H   LIG d   1       4.427   2.236  -9.159  0.00  0.00     0.065 H 
ATOM     41  C   LIG d   1       2.466  -0.274  -8.048  0.00  0.00    -0.061 A 
ATOM     42  H   LIG d   1       3.573   1.268  -7.063  0.00  0.00     0.062 H 
ATOM     43  C   LIG d   1       2.109  -0.832  -9.261  0.00  0.00    -0.056 A 
ATOM     44  H   LIG d   1       2.092  -0.699  -7.128  0.00  0.00     0.062 H 
ATOM     45  H   LIG d   1       1.456  -1.692  -9.289  0.00  0.00     0.062 H 
ENDBRANCH  32  35
ENDBRANCH  29  32
ENDBRANCH  27  29
ENDBRANCH  22  25
ENDBRANCH  11  22
BRANCH   1  46
ATOM     46  C   LIG d   1       4.774  -4.125  -8.367  0.00  0.00    -0.038 C 
ATOM     47  H   LIG d   1       5.467  -4.966  -8.354  0.00  0.00     0.028 H 
ATOM     48  H   LIG d   1       4.087  -4.206  -7.526  0.00  0.00     0.028 H 
ATOM     49  H   LIG d   1       4.209  -4.135  -9.300  0.00  0.00     0.028 H 
ENDBRANCH   1  46
BRANCH  13  50
ATOM     50  C   LIG d   1       3.103   0.588  -3.228  0.00  0.00    -0.025 C 
ATOM     51  H   LIG d   1       2.739  -0.120  -3.972  0.00  0.00     0.027 H 
ATOM     52  H   LIG d   1       2.377   0.671  -2.419  0.00  0.00     0.027 H 
ATOM     53  H   LIG d   1       3.243   1.565  -3.692  0.00  0.00     0.027 H 
ENDBRANCH  13  50
BRANCH  13  54
ATOM     54  C   LIG d   1       4.770   0.860  -1.383  0.00  0.00    -0.025 C 
ATOM     55  H   LIG d   1       5.227   1.816  -1.638  0.00  0.00     0.027 H 
ATOM     56  H   LIG d   1       3.855   1.035  -0.817  0.00  0.00     0.027 H 
ATOM     57  H   LIG d   1       5.464   0.275  -0.781  0.00  0.00     0.027 H 
ENDBRANCH  13  54
TORSDOF 8
ENDMDL
MODEL 8
REMARK VINA RESULT:      -6.8      7.436     10.768
REMARK  8 active torsions:
REMARK  status: ('A' for Active; 'I' for Inactive)
REMARK    1  A    between atoms: C_1  and  C_2 
REMARK    2  A    between atoms: C_12  and  C_13 
REMARK    3  A    between atoms: C_13  and  C_14 
REMARK       I    between atoms: C_14  and  N_16 
REMARK    4  A    between atoms: N_16  and  C_17 
REMARK    5  A    between atoms: C_17  and  C_18 
REMARK    6  A    between atoms: C_18  and  C_19 
REMARK    7  A    between atoms: C_27  and  C_30 
REMARK    8  A    between atoms: C_27  and  C_31 
ROOT
ATOM      1  C   LIG d   1       6.659  -7.612  -5.269  0.00  0.00    -0.029 A 
ATOM      2  C   LIG d   1       6.716  -8.881  -4.537  0.00  0.00     0.021 A 
ATOM      3  C   LIG d   1       7.701  -9.110  -3.571  0.00  0.00    -0.044 A 
ATOM      4  C   LIG d   1       7.738 -10.298  -2.894  0.00  0.00    -0.005 A 
ATOM      5  C   LIG d   1       6.796 -11.285  -3.163  0.00  0.00     0.128 A 
ATOM      6  C   LIG d   1       5.813 -11.073  -4.123  0.00  0.00     0.023 A 
ATOM      7  C   LIG d   1       5.766  -9.876  -4.822  0.00  0.00     0.143 A 
ATOM      8  O   LIG d   1       4.810  -9.667  -5.749  0.00  0.00    -0.422 OA
ATOM      9  C   LIG d   1       4.760  -8.509  -6.415  0.00  0.00     0.341 A 
ATOM     10  O   LIG d   1       3.886  -8.353  -7.249  0.00  0.00    -0.245 OA
ATOM     11  C   LIG d   1       5.675  -7.462  -6.194  0.00  0.00     0.049 A 
ATOM     12  O   LIG d   1       6.797 -12.471  -2.501  0.00  0.00    -0.486 OA
ATOM     13  C   LIG d   1       7.987 -12.846  -1.805  0.00  0.00     0.105 C 
ATOM     14  C   LIG d   1       8.435 -11.662  -0.939  0.00  0.00    -0.009 C 
ATOM     15  C   LIG d   1       8.821 -10.506  -1.866  0.00  0.00    -0.021 C 
ATOM     16  H   LIG d   1       8.434  -8.345  -3.358  0.00  0.00     0.063 H 
ATOM     17  H   LIG d   1       5.087 -11.846  -4.329  0.00  0.00     0.069 H 
ATOM     18  H   LIG d   1       9.296 -11.952  -0.336  0.00  0.00     0.031 H 
ATOM     19  H   LIG d   1       7.618 -11.353  -0.287  0.00  0.00     0.031 H 
ATOM     20  H   LIG d   1       9.758 -10.742  -2.368  0.00  0.00     0.032 H 
ATOM     21  H   LIG d   1       8.943  -9.596  -1.278  0.00  0.00     0.032 H 
ENDROOT
BRANCH  11  22
ATOM     22  C   LIG d   1       5.564  -6.180  -6.980  0.00  0.00     0.056 C 
ATOM     23  H   LIG d   1       6.561  -5.791  -7.184  0.00  0.00     0.041 H 
ATOM     24  H   LIG d   1       5.049  -6.373  -7.921  0.00  0.00     0.041 H 
BRANCH  22  25
ATOM     25  C   LIG d   1       4.784  -5.168  -6.180  0.00  0.00     0.218 C 
ATOM     26  O   LIG d   1       3.601  -5.341  -5.971  0.00  0.00    -0.276 OA
ATOM     27  N   LIG d   1       5.399  -4.070  -5.698  0.00  0.00    -0.315 N 
ATOM     28  H   LIG d   1       6.344  -3.931  -5.866  0.00  0.00     0.149 HD
BRANCH  27  29
ATOM     29  C   LIG d   1       4.641  -3.087  -4.922  0.00  0.00     0.016 C 
ATOM     30  H   LIG d   1       4.331  -2.270  -5.573  0.00  0.00     0.046 H 
ATOM     31  H   LIG d   1       3.760  -3.563  -4.492  0.00  0.00     0.046 H 
BRANCH  29  32
ATOM     32  C   LIG d   1       5.521  -2.536  -3.797  0.00  0.00    -0.009 C 
ATOM     33  H   LIG d   1       5.588  -3.270  -2.996  0.00  0.00     0.033 H 
ATOM     34  H   LIG d   1       6.519  -2.329  -4.186  0.00  0.00     0.033 H 
BRANCH  32  35
ATOM     35  C   LIG d   1       4.916  -1.263  -3.264  0.00  0.00    -0.011 A 
ATOM     36  C   LIG d   1       5.734  -0.204  -2.908  0.00  0.00     0.127 A 
ATOM     37  C   LIG d   1       5.178   0.965  -2.418  0.00  0.00    -0.026 A 
ATOM     38  F   LIG d   1       7.074  -0.311  -3.040  0.00  0.00    -0.205 F 
ATOM     39  C   LIG d   1       3.806   1.074  -2.285  0.00  0.00    -0.059 A 
ATOM     40  H   LIG d   1       5.815   1.792  -2.141  0.00  0.00     0.065 H 
ATOM     41  C   LIG d   1       2.991   0.016  -2.640  0.00  0.00    -0.061 A 
ATOM     42  H   LIG d   1       3.372   1.986  -1.903  0.00  0.00     0.062 H 
ATOM     43  C   LIG d   1       3.545  -1.150  -3.135  0.00  0.00    -0.056 A 
ATOM     44  H   LIG d   1       1.919   0.101  -2.535  0.00  0.00     0.062 H 
ATOM     45  H   LIG d   1       2.906  -1.975  -3.416  0.00  0.00     0.062 H 
ENDBRANCH  32  35
ENDBRANCH  29  32
ENDBRANCH  27  29
ENDBRANCH  22  25
ENDBRANCH  11  22
BRANCH   1  46
ATOM     46  C   LIG d   1       7.657  -6.514  -5.005  0.00  0.00    -0.038 C 
ATOM     47  H   LIG d   1       8.226  -6.314  -5.913  0.00  0.00     0.028 H 
ATOM     48  H   LIG d   1       7.130  -5.611  -4.699  0.00  0.00     0.028 H 
ATOM     49  H   LIG d   1       8.337  -6.825  -4.212  0.00  0.00     0.028 H 
ENDBRANCH   1  46
BRANCH  13  50
ATOM     50  C   LIG d   1       9.086 -13.190  -2.813  0.00  0.00    -0.025 C 
ATOM     51  H   LIG d   1       8.791 -12.846  -3.804  0.00  0.00     0.027 H 
ATOM     52  H   LIG d   1      10.014 -12.700  -2.519  0.00  0.00     0.027 H 
ATOM     53  H   LIG d   1       9.236 -14.270  -2.833  0.00  0.00     0.027 H 
ENDBRANCH  13  50
BRANCH  13  54
ATOM     54  C   LIG d   1       7.706 -14.058  -0.916  0.00  0.00    -0.025 C 
ATOM     55  H   LIG d   1       6.697 -13.983  -0.509  0.00  0.00     0.027 H 
ATOM     56  H   LIG d   1       7.791 -14.970  -1.507  0.00  0.00     0.027 H 
ATOM     57  H   LIG d   1       8.426 -14.084  -0.099  0.00  0.00     0.027 H 
ENDBRANCH  13  54
TORSDOF 8
ENDMDL
MODEL 9
REMARK VINA RESULT:      -6.8      7.123      9.821
REMARK  8 active torsions:
REMARK  status: ('A' for Active; 'I' for Inactive)
REMARK    1  A    between atoms: C_1  and  C_2 
REMARK    2  A    between atoms: C_12  and  C_13 
REMARK    3  A    between atoms: C_13  and  C_14 
REMARK       I    between atoms: C_14  and  N_16 
REMARK    4  A    between atoms: N_16  and  C_17 
REMARK    5  A    between atoms: C_17  and  C_18 
REMARK    6  A    between atoms: C_18  and  C_19 
REMARK    7  A    between atoms: C_27  and  C_30 
REMARK    8  A    between atoms: C_27  and  C_31 
ROOT
ATOM      1  C   LIG d   1       7.338  -7.154  -4.927  0.00  0.00    -0.029 A 
ATOM      2  C   LIG d   1       7.720  -8.092  -3.868  0.00  0.00     0.021 A 
ATOM      3  C   LIG d   1       8.927  -7.942  -3.177  0.00  0.00    -0.044 A 
ATOM      4  C   LIG d   1       9.267  -8.824  -2.188  0.00  0.00    -0.005 A 
ATOM      5  C   LIG d   1       8.415  -9.875  -1.864  0.00  0.00     0.128 A 
ATOM      6  C   LIG d   1       7.214 -10.038  -2.545  0.00  0.00     0.023 A 
ATOM      7  C   LIG d   1       6.857  -9.156  -3.554  0.00  0.00     0.143 A 
ATOM      8  O   LIG d   1       5.691  -9.309  -4.211  0.00  0.00    -0.422 OA
ATOM      9  C   LIG d   1       5.344  -8.452  -5.177  0.00  0.00     0.341 A 
ATOM     10  O   LIG d   1       4.284  -8.622  -5.754  0.00  0.00    -0.245 OA
ATOM     11  C   LIG d   1       6.152  -7.363  -5.557  0.00  0.00     0.049 A 
ATOM     12  O   LIG d   1       8.717 -10.761  -0.880  0.00  0.00    -0.486 OA
ATOM     13  C   LIG d   1      10.075 -10.834  -0.442  0.00  0.00     0.105 C 
ATOM     14  C   LIG d   1      10.569  -9.410  -0.155  0.00  0.00    -0.009 C 
ATOM     15  C   LIG d   1      10.581  -8.631  -1.472  0.00  0.00    -0.021 C 
ATOM     16  H   LIG d   1       9.591  -7.127  -3.423  0.00  0.00     0.063 H 
ATOM     17  H   LIG d   1       6.559 -10.858  -2.291  0.00  0.00     0.069 H 
ATOM     18  H   LIG d   1      11.577  -9.448   0.258  0.00  0.00     0.031 H 
ATOM     19  H   LIG d   1       9.899  -8.924   0.554  0.00  0.00     0.031 H 
ATOM     20  H   LIG d   1      11.393  -8.993  -2.101  0.00  0.00     0.032 H 
ATOM     21  H   LIG d   1      10.727  -7.571  -1.265  0.00  0.00     0.032 H 
ENDROOT
BRANCH  11  22
ATOM     22  C   LIG d   1       5.703  -6.433  -6.654  0.00  0.00     0.056 C 
ATOM     23  H   LIG d   1       6.574  -6.042  -7.179  0.00  0.00     0.041 H 
ATOM     24  H   LIG d   1       5.070  -6.977  -7.356  0.00  0.00     0.041 H 
BRANCH  22  25
ATOM     25  C   LIG d   1       4.922  -5.291  -6.057  0.00  0.00     0.218 C 
ATOM     26  O   LIG d   1       3.767  -5.454  -5.723  0.00  0.00    -0.276 OA
ATOM     27  N   LIG d   1       5.506  -4.087  -5.893  0.00  0.00    -0.315 N 
ATOM     28  H   LIG d   1       6.429  -3.956  -6.161  0.00  0.00     0.149 HD
BRANCH  27  29
ATOM     29  C   LIG d   1       4.747  -2.978  -5.312  0.00  0.00     0.016 C 
ATOM     30  H   LIG d   1       5.089  -2.037  -5.744  0.00  0.00     0.046 H 
ATOM     31  H   LIG d   1       3.686  -3.111  -5.525  0.00  0.00     0.046 H 
BRANCH  29  32
ATOM     32  C   LIG d   1       4.962  -2.950  -3.797  0.00  0.00    -0.009 C 
ATOM     33  H   LIG d   1       4.146  -3.478  -3.305  0.00  0.00     0.033 H 
ATOM     34  H   LIG d   1       5.908  -3.437  -3.556  0.00  0.00     0.033 H 
BRANCH  32  35
ATOM     35  C   LIG d   1       4.997  -1.522  -3.320  0.00  0.00    -0.011 A 
ATOM     36  C   LIG d   1       3.932  -1.006  -2.600  0.00  0.00     0.127 A 
ATOM     37  C   LIG d   1       3.965   0.307  -2.162  0.00  0.00    -0.026 A 
ATOM     38  F   LIG d   1       2.863  -1.784  -2.325  0.00  0.00    -0.205 F 
ATOM     39  C   LIG d   1       5.060   1.102  -2.443  0.00  0.00    -0.059 A 
ATOM     40  H   LIG d   1       3.136   0.710  -1.600  0.00  0.00     0.065 H 
ATOM     41  C   LIG d   1       6.123   0.586  -3.163  0.00  0.00    -0.061 A 
ATOM     42  H   LIG d   1       5.086   2.126  -2.102  0.00  0.00     0.062 H 
ATOM     43  C   LIG d   1       6.093  -0.727  -3.596  0.00  0.00    -0.056 A 
ATOM     44  H   LIG d   1       6.978   1.207  -3.383  0.00  0.00     0.062 H 
ATOM     45  H   LIG d   1       6.926  -1.130  -4.154  0.00  0.00     0.062 H 
ENDBRANCH  32  35
ENDBRANCH  29  32
ENDBRANCH  27  29
ENDBRANCH  22  25
ENDBRANCH  11  22
BRANCH   1  46
ATOM     46  C   LIG d   1       8.229  -5.999  -5.306  0.00  0.00    -0.038 C 
ATOM     47  H   LIG d   1       9.272  -6.284  -5.168  0.00  0.00     0.028 H 
ATOM     48  H   LIG d   1       8.059  -5.737  -6.350  0.00  0.00     0.028 H 
ATOM     49  H   LIG d   1       8.000  -5.141  -4.674  0.00  0.00     0.028 H 
ENDBRANCH   1  46
BRANCH  13  50
ATOM     50  C   LIG d   1      10.936 -11.466  -1.537  0.00  0.00    -0.025 C 
ATOM     51  H   LIG d   1      11.951 -11.608  -1.165  0.00  0.00     0.027 H 
ATOM     52  H   LIG d   1      10.514 -12.431  -1.819  0.00  0.00     0.027 H 
ATOM     53  H   LIG d   1      10.955 -10.811  -2.408  0.00  0.00     0.027 H 
ENDBRANCH  13  50
BRANCH  13  54
ATOM     54  C   LIG d   1      10.161 -11.676   0.832  0.00  0.00    -0.025 C 
ATOM     55  H   LIG d   1      10.286 -12.726   0.566  0.00  0.00     0.027 H 
ATOM     56  H   LIG d   1      11.015 -11.349   1.426  0.00  0.00     0.027 H 
ATOM     57  H   LIG d   1       9.247 -11.554   1.411  0.00  0.00     0.027 H 
ENDBRANCH  13  54
TORSDOF 8
ENDMDL
