MODEL 1
REMARK VINA RESULT:      -6.6      0.000      0.000
REMARK  8 active torsions:
REMARK  status: ('A' for Active; 'I' for Inactive)
REMARK    1  A    between atoms: C_1  and  C_2 
REMARK    2  A    between atoms: C_19  and  C_22 
REMARK    3  A    between atoms: C_25  and  O_32 
REMARK    4  A    between atoms: C_26  and  O_30 
REMARK    5  A    between atoms: C_27  and  O_28 
REMARK    6  A    between atoms: O_28  and  C_29 
REMARK    7  A    between atoms: O_30  and  C_31 
REMARK    8  A    between atoms: O_32  and  C_33 
ROOT
ATOM      1  C   LIG d   1       8.565  -2.627  -5.596  0.00  0.00    -0.033 A 
ATOM      2  C   LIG d   1       7.428  -3.187  -5.089  0.00  0.00    -0.015 A 
ATOM      3  C   LIG d   1       6.540  -2.421  -4.338  0.00  0.00     0.143 A 
ATOM      4  C   LIG d   1       6.812  -1.062  -4.099  0.00  0.00     0.063 A 
ATOM      5  C   LIG d   1       5.862  -0.271  -3.314  0.00  0.00    -0.023 A 
ATOM      6  C   LIG d   1       4.751  -0.886  -2.838  0.00  0.00     0.041 A 
ATOM      7  C   LIG d   1       4.544  -2.256  -3.111  0.00  0.00     0.341 A 
ATOM      8  O   LIG d   1       3.545  -2.803  -2.676  0.00  0.00    -0.245 OA
ATOM      9  O   LIG d   1       5.416  -2.973  -3.836  0.00  0.00    -0.422 OA
ATOM     10  C   LIG d   1       3.908   0.099  -2.056  0.00  0.00    -0.020 C 
ATOM     11  C   LIG d   1       4.423   1.493  -2.481  0.00  0.00    -0.045 C 
ATOM     12  C   LIG d   1       5.874   1.183  -2.905  0.00  0.00    -0.026 C 
ATOM     13  C   LIG d   1       7.983  -0.481  -4.612  0.00  0.00     0.143 A 
ATOM     14  C   LIG d   1       8.856  -1.278  -5.367  0.00  0.00     0.063 A 
ATOM     15  C   LIG d   1      10.081  -0.671  -5.913  0.00  0.00     0.171 C 
ATOM     16  O   LIG d   1      10.759  -1.241  -6.742  0.00  0.00    -0.292 OA
ATOM     17  C   LIG d   1      10.452   0.702  -5.385  0.00  0.00     0.052 C 
ATOM     18  C   LIG d   1       9.150   1.505  -5.255  0.00  0.00     0.136 C 
ATOM     19  H   LIG d   1       8.686   1.607  -6.236  0.00  0.00     0.079 H 
ATOM     20  O   LIG d   1       8.257   0.819  -4.377  0.00  0.00    -0.482 OA
ATOM     21  H   LIG d   1       7.215  -4.230  -5.272  0.00  0.00     0.066 H 
ATOM     22  H   LIG d   1       2.856  -0.011  -2.319  0.00  0.00     0.032 H 
ATOM     23  H   LIG d   1       4.048  -0.047  -0.986  0.00  0.00     0.032 H 
ATOM     24  H   LIG d   1       3.846   1.881  -3.320  0.00  0.00     0.027 H 
ATOM     25  H   LIG d   1       4.401   2.187  -1.641  0.00  0.00     0.027 H 
ATOM     26  H   LIG d   1       6.554   1.335  -2.066  0.00  0.00     0.031 H 
ATOM     27  H   LIG d   1       6.165   1.811  -3.747  0.00  0.00     0.031 H 
ATOM     28  H   LIG d   1      11.083   1.146  -6.022  0.00  0.00     0.038 H 
ATOM     29  H   LIG d   1      10.929   0.609  -4.409  0.00  0.00     0.038 H 
ENDROOT
BRANCH  18  30
ATOM     30  C   LIG d   1       9.454   2.872  -4.698  0.00  0.00     0.039 A 
ATOM     31  C   LIG d   1       9.547   3.962  -5.550  0.00  0.00     0.172 A 
ATOM     32  C   LIG d   1       9.827   5.222  -5.035  0.00  0.00     0.204 A 
ATOM     33  C   LIG d   1      10.013   5.384  -3.667  0.00  0.00     0.165 A 
ATOM     34  C   LIG d   1       9.917   4.289  -2.822  0.00  0.00    -0.016 A 
ATOM     35  C   LIG d   1       9.638   3.038  -3.338  0.00  0.00    -0.048 A 
ATOM     36  H   LIG d   1      10.061   4.414  -1.759  0.00  0.00     0.066 H 
ATOM     37  H   LIG d   1       9.560   2.187  -2.677  0.00  0.00     0.062 H 
BRANCH  31  38
ATOM     38  O   LIG d   1       9.365   3.798  -6.888  0.00  0.00    -0.491 OA
BRANCH  38  39
ATOM     39  C   LIG d   1      10.527   3.523  -7.672  0.00  0.00     0.079 C 
ATOM     40  H   LIG d   1      11.242   4.340  -7.562  0.00  0.00     0.066 H 
ATOM     41  H   LIG d   1      10.984   2.593  -7.333  0.00  0.00     0.066 H 
ATOM     42  H   LIG d   1      10.244   3.429  -8.720  0.00  0.00     0.066 H 
ENDBRANCH  38  39
ENDBRANCH  31  38
BRANCH  32  43
ATOM     43  O   LIG d   1       9.920   6.294  -5.868  0.00  0.00    -0.488 OA
BRANCH  43  44
ATOM     44  C   LIG d   1      11.234   6.715  -6.240  0.00  0.00     0.079 C 
ATOM     45  H   LIG d   1      11.969   6.042  -5.799  0.00  0.00     0.066 H 
ATOM     46  H   LIG d   1      11.328   6.697  -7.325  0.00  0.00     0.066 H 
ATOM     47  H   LIG d   1      11.407   7.729  -5.876  0.00  0.00     0.066 H 
ENDBRANCH  43  44
ENDBRANCH  32  43
BRANCH  33  48
ATOM     48  O   LIG d   1      10.288   6.615  -3.159  0.00  0.00    -0.491 OA
BRANCH  48  49
ATOM     49  C   LIG d   1       9.533   7.030  -2.019  0.00  0.00     0.079 C 
ATOM     50  H   LIG d   1       9.691   6.326  -1.202  0.00  0.00     0.066 H 
ATOM     51  H   LIG d   1       9.857   8.023  -1.712  0.00  0.00     0.066 H 
ATOM     52  H   LIG d   1       8.473   7.056  -2.275  0.00  0.00     0.066 H 
ENDBRANCH  48  49
ENDBRANCH  33  48
ENDBRANCH  18  30
BRANCH   1  53
ATOM     53  C   LIG d   1       9.515  -3.470  -6.408  0.00  0.00    -0.039 C 
ATOM     54  H   LIG d   1       9.389  -3.241  -7.467  0.00  0.00     0.028 H 
ATOM     55  H   LIG d   1      10.541  -3.252  -6.109  0.00  0.00     0.028 H 
ATOM     56  H   LIG d   1       9.303  -4.525  -6.237  0.00  0.00     0.028 H 
ENDBRANCH   1  53
TORSDOF 8
ENDMDL
MODEL 2
REMARK VINA RESULT:      -6.4      3.149      8.111
REMARK  8 active torsions:
REMARK  status: ('A' for Active; 'I' for Inactive)
REMARK    1  A    between atoms: C_1  and  C_2 
REMARK    2  A    between atoms: C_19  and  C_22 
REMARK    3  A    between atoms: C_25  and  O_32 
REMARK    4  A    between atoms: C_26  and  O_30 
REMARK    5  A    between atoms: C_27  and  O_28 
REMARK    6  A    between atoms: O_28  and  C_29 
REMARK    7  A    between atoms: O_30  and  C_31 
REMARK    8  A    between atoms: O_32  and  C_33 
ROOT
ATOM      1  C   LIG d   1       8.925   0.914  -4.606  0.00  0.00    -0.033 A 
ATOM      2  C   LIG d   1       7.896   1.669  -4.121  0.00  0.00    -0.015 A 
ATOM      3  C   LIG d   1       6.711   1.065  -3.710  0.00  0.00     0.143 A 
ATOM      4  C   LIG d   1       6.570  -0.332  -3.791  0.00  0.00     0.063 A 
ATOM      5  C   LIG d   1       5.319  -0.951  -3.346  0.00  0.00    -0.023 A 
ATOM      6  C   LIG d   1       4.334  -0.144  -2.876  0.00  0.00     0.041 A 
ATOM      7  C   LIG d   1       4.542   1.252  -2.828  0.00  0.00     0.341 A 
ATOM      8  O   LIG d   1       3.651   1.970  -2.408  0.00  0.00    -0.245 OA
ATOM      9  O   LIG d   1       5.693   1.810  -3.232  0.00  0.00    -0.422 OA
ATOM     10  C   LIG d   1       3.134  -0.975  -2.474  0.00  0.00    -0.020 C 
ATOM     11  C   LIG d   1       3.668  -2.419  -2.350  0.00  0.00    -0.045 C 
ATOM     12  C   LIG d   1       4.881  -2.395  -3.303  0.00  0.00    -0.026 C 
ATOM     13  C   LIG d   1       7.622  -1.115  -4.294  0.00  0.00     0.143 A 
ATOM     14  C   LIG d   1       8.803  -0.477  -4.697  0.00  0.00     0.063 A 
ATOM     15  C   LIG d   1       9.912  -1.294  -5.218  0.00  0.00     0.171 C 
ATOM     16  O   LIG d   1      11.023  -0.833  -5.379  0.00  0.00    -0.292 OA
ATOM     17  C   LIG d   1       9.593  -2.742  -5.543  0.00  0.00     0.052 C 
ATOM     18  C   LIG d   1       8.666  -3.262  -4.435  0.00  0.00     0.136 C 
ATOM     19  H   LIG d   1       9.181  -3.210  -3.476  0.00  0.00     0.079 H 
ATOM     20  O   LIG d   1       7.489  -2.455  -4.386  0.00  0.00    -0.482 OA
ATOM     21  H   LIG d   1       8.002   2.742  -4.057  0.00  0.00     0.066 H 
ATOM     22  H   LIG d   1       2.741  -0.633  -1.516  0.00  0.00     0.032 H 
ATOM     23  H   LIG d   1       2.361  -0.919  -3.240  0.00  0.00     0.032 H 
ATOM     24  H   LIG d   1       3.980  -2.632  -1.327  0.00  0.00     0.027 H 
ATOM     25  H   LIG d   1       2.921  -3.139  -2.685  0.00  0.00     0.027 H 
ATOM     26  H   LIG d   1       4.588  -2.731  -4.298  0.00  0.00     0.031 H 
ATOM     27  H   LIG d   1       5.682  -3.022  -2.913  0.00  0.00     0.031 H 
ATOM     28  H   LIG d   1      10.441  -3.271  -5.577  0.00  0.00     0.038 H 
ATOM     29  H   LIG d   1       9.089  -2.804  -6.508  0.00  0.00     0.038 H 
ENDROOT
BRANCH  18  30
ATOM     30  C   LIG d   1       8.285  -4.690  -4.726  0.00  0.00     0.039 A 
ATOM     31  C   LIG d   1       9.012  -5.729  -4.164  0.00  0.00     0.172 A 
ATOM     32  C   LIG d   1       8.660  -7.046  -4.432  0.00  0.00     0.204 A 
ATOM     33  C   LIG d   1       7.580  -7.317  -5.264  0.00  0.00     0.165 A 
ATOM     34  C   LIG d   1       6.859  -6.273  -5.822  0.00  0.00    -0.016 A 
ATOM     35  C   LIG d   1       7.212  -4.964  -5.552  0.00  0.00    -0.048 A 
ATOM     36  H   LIG d   1       6.019  -6.483  -6.469  0.00  0.00     0.066 H 
ATOM     37  H   LIG d   1       6.645  -4.153  -5.985  0.00  0.00     0.062 H 
BRANCH  31  38
ATOM     38  O   LIG d   1      10.068  -5.458  -3.350  0.00  0.00    -0.491 OA
BRANCH  38  39
ATOM     39  C   LIG d   1       9.782  -5.231  -1.969  0.00  0.00     0.079 C 
ATOM     40  H   LIG d   1       8.806  -5.654  -1.726  0.00  0.00     0.066 H 
ATOM     41  H   LIG d   1      10.547  -5.707  -1.356  0.00  0.00     0.066 H 
ATOM     42  H   LIG d   1       9.771  -4.159  -1.772  0.00  0.00     0.066 H 
ENDBRANCH  38  39
ENDBRANCH  31  38
BRANCH  32  43
ATOM     43  O   LIG d   1       9.371  -8.068  -3.883  0.00  0.00    -0.488 OA
BRANCH  43  44
ATOM     44  C   LIG d   1       8.860  -8.639  -2.676  0.00  0.00     0.079 C 
ATOM     45  H   LIG d   1       7.964  -8.098  -2.370  0.00  0.00     0.066 H 
ATOM     46  H   LIG d   1       8.613  -9.687  -2.845  0.00  0.00     0.066 H 
ATOM     47  H   LIG d   1       9.614  -8.564  -1.892  0.00  0.00     0.066 H 
ENDBRANCH  43  44
ENDBRANCH  32  43
BRANCH  33  48
ATOM     48  O   LIG d   1       7.232  -8.604  -5.531  0.00  0.00    -0.491 OA
BRANCH  48  49
ATOM     49  C   LIG d   1       5.965  -9.049  -5.043  0.00  0.00     0.079 C 
ATOM     50  H   LIG d   1       6.058  -9.331  -3.994  0.00  0.00     0.066 H 
ATOM     51  H   LIG d   1       5.237  -8.245  -5.139  0.00  0.00     0.066 H 
ATOM     52  H   LIG d   1       5.634  -9.910  -5.623  0.00  0.00     0.066 H 
ENDBRANCH  48  49
ENDBRANCH  33  48
ENDBRANCH  18  30
BRANCH   1  53
ATOM     53  C   LIG d   1      10.202   1.584  -5.045  0.00  0.00    -0.039 C 
ATOM     54  H   LIG d   1      10.554   2.249  -4.255  0.00  0.00     0.028 H 
ATOM     55  H   LIG d   1      10.960   0.825  -5.246  0.00  0.00     0.028 H 
ATOM     56  H   LIG d   1      10.018   2.161  -5.950  0.00  0.00     0.028 H 
ENDBRANCH   1  53
TORSDOF 8
ENDMDL
MODEL 3
REMARK VINA RESULT:      -6.4      5.068      8.071
REMARK  8 active torsions:
REMARK  status: ('A' for Active; 'I' for Inactive)
REMARK    1  A    between atoms: C_1  and  C_2 
REMARK    2  A    between atoms: C_19  and  C_22 
REMARK    3  A    between atoms: C_25  and  O_32 
REMARK    4  A    between atoms: C_26  and  O_30 
REMARK    5  A    between atoms: C_27  and  O_28 
REMARK    6  A    between atoms: O_28  and  C_29 
REMARK    7  A    between atoms: O_30  and  C_31 
REMARK    8  A    between atoms: O_32  and  C_33 
ROOT
ATOM      1  C   LIG d   1       4.556  -0.086  -3.214  0.00  0.00    -0.033 A 
ATOM      2  C   LIG d   1       5.590  -0.855  -2.761  0.00  0.00    -0.015 A 
ATOM      3  C   LIG d   1       6.280  -1.691  -3.633  0.00  0.00     0.143 A 
ATOM      4  C   LIG d   1       5.916  -1.747  -4.990  0.00  0.00     0.063 A 
ATOM      5  C   LIG d   1       6.660  -2.628  -5.894  0.00  0.00    -0.023 A 
ATOM      6  C   LIG d   1       7.676  -3.366  -5.381  0.00  0.00     0.041 A 
ATOM      7  C   LIG d   1       7.984  -3.265  -4.006  0.00  0.00     0.341 A 
ATOM      8  O   LIG d   1       8.895  -3.935  -3.552  0.00  0.00    -0.245 OA
ATOM      9  O   LIG d   1       7.302  -2.452  -3.186  0.00  0.00    -0.422 OA
ATOM     10  C   LIG d   1       8.308  -4.204  -6.472  0.00  0.00    -0.020 C 
ATOM     11  C   LIG d   1       7.837  -3.562  -7.795  0.00  0.00    -0.045 C 
ATOM     12  C   LIG d   1       6.512  -2.892  -7.373  0.00  0.00    -0.026 C 
ATOM     13  C   LIG d   1       4.850  -0.965  -5.462  0.00  0.00     0.143 A 
ATOM     14  C   LIG d   1       4.176  -0.130  -4.560  0.00  0.00     0.063 A 
ATOM     15  C   LIG d   1       3.063   0.698  -5.052  0.00  0.00     0.171 C 
ATOM     16  O   LIG d   1       2.585   1.589  -4.380  0.00  0.00    -0.292 OA
ATOM     17  C   LIG d   1       2.542   0.380  -6.442  0.00  0.00     0.052 C 
ATOM     18  C   LIG d   1       3.762   0.072  -7.322  0.00  0.00     0.136 C 
ATOM     19  H   LIG d   1       4.408   0.949  -7.368  0.00  0.00     0.079 H 
ATOM     20  O   LIG d   1       4.486  -1.023  -6.761  0.00  0.00    -0.482 OA
ATOM     21  H   LIG d   1       5.873  -0.813  -1.720  0.00  0.00     0.066 H 
ATOM     22  H   LIG d   1       9.395  -4.164  -6.398  0.00  0.00     0.032 H 
ATOM     23  H   LIG d   1       7.963  -5.235  -6.406  0.00  0.00     0.032 H 
ATOM     24  H   LIG d   1       8.555  -2.820  -8.145  0.00  0.00     0.027 H 
ATOM     25  H   LIG d   1       7.665  -4.323  -8.557  0.00  0.00     0.027 H 
ATOM     26  H   LIG d   1       5.673  -3.564  -7.556  0.00  0.00     0.031 H 
ATOM     27  H   LIG d   1       6.372  -1.956  -7.913  0.00  0.00     0.031 H 
ATOM     28  H   LIG d   1       2.036   1.166  -6.796  0.00  0.00     0.038 H 
ATOM     29  H   LIG d   1       1.884  -0.488  -6.403  0.00  0.00     0.038 H 
ENDROOT
BRANCH  18  30
ATOM     30  C   LIG d   1       3.302  -0.288  -8.711  0.00  0.00     0.039 A 
ATOM     31  C   LIG d   1       4.046   0.111  -9.812  0.00  0.00     0.172 A 
ATOM     32  C   LIG d   1       3.621  -0.222 -11.093  0.00  0.00     0.204 A 
ATOM     33  C   LIG d   1       2.452  -0.954 -11.265  0.00  0.00     0.165 A 
ATOM     34  C   LIG d   1       1.715  -1.348 -10.159  0.00  0.00    -0.016 A 
ATOM     35  C   LIG d   1       2.141  -1.015  -8.888  0.00  0.00    -0.048 A 
ATOM     36  H   LIG d   1       0.806  -1.917 -10.293  0.00  0.00     0.066 H 
ATOM     37  H   LIG d   1       1.566  -1.328  -8.028  0.00  0.00     0.062 H 
BRANCH  31  38
ATOM     38  O   LIG d   1       5.190   0.827  -9.638  0.00  0.00    -0.491 OA
BRANCH  38  39
ATOM     39  C   LIG d   1       5.046   2.210  -9.314  0.00  0.00     0.079 C 
ATOM     40  H   LIG d   1       3.987   2.455  -9.226  0.00  0.00     0.066 H 
ATOM     41  H   LIG d   1       5.546   2.417  -8.368  0.00  0.00     0.066 H 
ATOM     42  H   LIG d   1       5.494   2.817 -10.102  0.00  0.00     0.066 H 
ENDBRANCH  38  39
ENDBRANCH  31  38
BRANCH  32  43
ATOM     43  O   LIG d   1       4.348   0.167 -12.176  0.00  0.00    -0.488 OA
BRANCH  43  44
ATOM     44  C   LIG d   1       5.363  -0.729 -12.632  0.00  0.00     0.079 C 
ATOM     45  H   LIG d   1       5.787  -0.353 -13.563  0.00  0.00     0.066 H 
ATOM     46  H   LIG d   1       6.147  -0.804 -11.879  0.00  0.00     0.066 H 
ATOM     47  H   LIG d   1       4.928  -1.714 -12.802  0.00  0.00     0.066 H 
ENDBRANCH  43  44
ENDBRANCH  32  43
BRANCH  33  48
ATOM     48  O   LIG d   1       2.032  -1.281 -12.516  0.00  0.00    -0.491 OA
BRANCH  48  49
ATOM     49  C   LIG d   1       0.827  -2.041 -12.618  0.00  0.00     0.079 C 
ATOM     50  H   LIG d   1       0.105  -1.499 -13.229  0.00  0.00     0.066 H 
ATOM     51  H   LIG d   1       1.042  -3.003 -13.079  0.00  0.00     0.066 H 
ATOM     52  H   LIG d   1       0.412  -2.199 -11.622  0.00  0.00     0.066 H 
ENDBRANCH  48  49
ENDBRANCH  33  48
ENDBRANCH  18  30
BRANCH   1  53
ATOM     53  C   LIG d   1       3.820   0.816  -2.257  0.00  0.00    -0.039 C 
ATOM     54  H   LIG d   1       4.323   1.782  -2.208  0.00  0.00     0.028 H 
ATOM     55  H   LIG d   1       2.796   0.957  -2.606  0.00  0.00     0.028 H 
ATOM     56  H   LIG d   1       3.806   0.363  -1.266  0.00  0.00     0.028 H 
ENDBRANCH   1  53
TORSDOF 8
ENDMDL
MODEL 4
REMARK VINA RESULT:      -6.3      5.142      7.465
REMARK  8 active torsions:
REMARK  status: ('A' for Active; 'I' for Inactive)
REMARK    1  A    between atoms: C_1  and  C_2 
REMARK    2  A    between atoms: C_19  and  C_22 
REMARK    3  A    between atoms: C_25  and  O_32 
REMARK    4  A    between atoms: C_26  and  O_30 
REMARK    5  A    between atoms: C_27  and  O_28 
REMARK    6  A    between atoms: O_28  and  C_29 
REMARK    7  A    between atoms: O_30  and  C_31 
REMARK    8  A    between atoms: O_32  and  C_33 
ROOT
ATOM      1  C   LIG d   1       3.764  -6.544  -8.756  0.00  0.00    -0.033 A 
ATOM      2  C   LIG d   1       3.148  -6.153  -9.910  0.00  0.00    -0.015 A 
ATOM      3  C   LIG d   1       2.826  -4.815 -10.118  0.00  0.00     0.143 A 
ATOM      4  C   LIG d   1       3.136  -3.856  -9.137  0.00  0.00     0.063 A 
ATOM      5  C   LIG d   1       2.796  -2.452  -9.378  0.00  0.00    -0.023 A 
ATOM      6  C   LIG d   1       2.184  -2.129 -10.545  0.00  0.00     0.041 A 
ATOM      7  C   LIG d   1       1.897  -3.144 -11.484  0.00  0.00     0.341 A 
ATOM      8  O   LIG d   1       1.343  -2.847 -12.528  0.00  0.00    -0.245 OA
ATOM      9  O   LIG d   1       2.217  -4.427 -11.258  0.00  0.00    -0.422 OA
ATOM     10  C   LIG d   1       1.919  -0.639 -10.595  0.00  0.00    -0.020 C 
ATOM     11  C   LIG d   1       2.833  -0.032  -9.508  0.00  0.00    -0.045 C 
ATOM     12  C   LIG d   1       3.005  -1.217  -8.534  0.00  0.00    -0.026 C 
ATOM     13  C   LIG d   1       3.763  -4.252  -7.945  0.00  0.00     0.143 A 
ATOM     14  C   LIG d   1       4.078  -5.606  -7.766  0.00  0.00     0.063 A 
ATOM     15  C   LIG d   1       4.743  -6.024  -6.521  0.00  0.00     0.171 C 
ATOM     16  O   LIG d   1       5.229  -7.129  -6.397  0.00  0.00    -0.292 OA
ATOM     17  C   LIG d   1       4.787  -5.002  -5.399  0.00  0.00     0.052 C 
ATOM     18  C   LIG d   1       5.073  -3.637  -6.041  0.00  0.00     0.136 C 
ATOM     19  H   LIG d   1       6.040  -3.667  -6.544  0.00  0.00     0.079 H 
ATOM     20  O   LIG d   1       4.052  -3.339  -6.993  0.00  0.00    -0.482 OA
ATOM     21  H   LIG d   1       2.910  -6.886 -10.666  0.00  0.00     0.066 H 
ATOM     22  H   LIG d   1       2.181  -0.241 -11.575  0.00  0.00     0.032 H 
ATOM     23  H   LIG d   1       0.873  -0.433 -10.370  0.00  0.00     0.032 H 
ATOM     24  H   LIG d   1       3.793   0.268  -9.930  0.00  0.00     0.027 H 
ATOM     25  H   LIG d   1       2.346   0.810  -9.016  0.00  0.00     0.027 H 
ATOM     26  H   LIG d   1       2.256  -1.168  -7.743  0.00  0.00     0.031 H 
ATOM     27  H   LIG d   1       4.007  -1.215  -8.107  0.00  0.00     0.031 H 
ATOM     28  H   LIG d   1       5.507  -5.250  -4.751  0.00  0.00     0.038 H 
ATOM     29  H   LIG d   1       3.828  -4.976  -4.882  0.00  0.00     0.038 H 
ENDROOT
BRANCH  18  30
ATOM     30  C   LIG d   1       5.093  -2.574  -4.974  0.00  0.00     0.039 A 
ATOM     31  C   LIG d   1       5.711  -1.357  -5.221  0.00  0.00     0.172 A 
ATOM     32  C   LIG d   1       5.729  -0.376  -4.236  0.00  0.00     0.204 A 
ATOM     33  C   LIG d   1       5.126  -0.619  -3.007  0.00  0.00     0.165 A 
ATOM     34  C   LIG d   1       4.511  -1.839  -2.769  0.00  0.00    -0.016 A 
ATOM     35  C   LIG d   1       4.496  -2.811  -3.751  0.00  0.00    -0.048 A 
ATOM     36  H   LIG d   1       4.043  -2.028  -1.814  0.00  0.00     0.066 H 
ATOM     37  H   LIG d   1       4.011  -3.758  -3.563  0.00  0.00     0.062 H 
BRANCH  31  38
ATOM     38  O   LIG d   1       6.299  -1.123  -6.425  0.00  0.00    -0.491 OA
BRANCH  38  39
ATOM     39  C   LIG d   1       7.658  -1.537  -6.574  0.00  0.00     0.079 C 
ATOM     40  H   LIG d   1       7.897  -2.283  -5.816  0.00  0.00     0.066 H 
ATOM     41  H   LIG d   1       7.801  -1.968  -7.565  0.00  0.00     0.066 H 
ATOM     42  H   LIG d   1       8.315  -0.675  -6.454  0.00  0.00     0.066 H 
ENDBRANCH  38  39
ENDBRANCH  31  38
BRANCH  32  43
ATOM     43  O   LIG d   1       6.334   0.820  -4.474  0.00  0.00    -0.488 OA
BRANCH  43  44
ATOM     44  C   LIG d   1       7.653   0.994  -3.953  0.00  0.00     0.079 C 
ATOM     45  H   LIG d   1       7.758   0.422  -3.032  0.00  0.00     0.066 H 
ATOM     46  H   LIG d   1       8.382   0.646  -4.684  0.00  0.00     0.066 H 
ATOM     47  H   LIG d   1       7.823   2.051  -3.745  0.00  0.00     0.066 H 
ENDBRANCH  43  44
ENDBRANCH  32  43
BRANCH  33  48
ATOM     48  O   LIG d   1       5.142   0.337  -2.040  0.00  0.00    -0.491 OA
BRANCH  48  49
ATOM     49  C   LIG d   1       4.034   1.238  -2.001  0.00  0.00     0.079 C 
ATOM     50  H   LIG d   1       3.337   0.992  -2.802  0.00  0.00     0.066 H 
ATOM     51  H   LIG d   1       3.529   1.150  -1.040  0.00  0.00     0.066 H 
ATOM     52  H   LIG d   1       4.392   2.259  -2.132  0.00  0.00     0.066 H 
ENDBRANCH  48  49
ENDBRANCH  33  48
ENDBRANCH  18  30
BRANCH   1  53
ATOM     53  C   LIG d   1       4.108  -7.996  -8.547  0.00  0.00    -0.039 C 
ATOM     54  H   LIG d   1       3.650  -8.349  -7.623  0.00  0.00     0.028 H 
ATOM     55  H   LIG d   1       3.733  -8.583  -9.387  0.00  0.00     0.028 H 
ATOM     56  H   LIG d   1       5.190  -8.108  -8.482  0.00  0.00     0.028 H 
ENDBRANCH   1  53
TORSDOF 8
ENDMDL
MODEL 5
REMARK VINA RESULT:      -6.3      3.551      9.023
REMARK  8 active torsions:
REMARK  status: ('A' for Active; 'I' for Inactive)
REMARK    1  A    between atoms: C_1  and  C_2 
REMARK    2  A    between atoms: C_19  and  C_22 
REMARK    3  A    between atoms: C_25  and  O_32 
REMARK    4  A    between atoms: C_26  and  O_30 
REMARK    5  A    between atoms: C_27  and  O_28 
REMARK    6  A    between atoms: O_28  and  C_29 
REMARK    7  A    between atoms: O_30  and  C_31 
REMARK    8  A    between atoms: O_32  and  C_33 
ROOT
ATOM      1  C   LIG d   1       9.381  -0.986  -5.574  0.00  0.00    -0.033 A 
ATOM      2  C   LIG d   1       8.789   0.067  -4.938  0.00  0.00    -0.015 A 
ATOM      3  C   LIG d   1       7.561  -0.093  -4.303  0.00  0.00     0.143 A 
ATOM      4  C   LIG d   1       6.923  -1.347  -4.313  0.00  0.00     0.063 A 
ATOM      5  C   LIG d   1       5.634  -1.497  -3.633  0.00  0.00    -0.023 A 
ATOM      6  C   LIG d   1       5.099  -0.412  -3.020  0.00  0.00     0.041 A 
ATOM      7  C   LIG d   1       5.792   0.818  -3.054  0.00  0.00     0.341 A 
ATOM      8  O   LIG d   1       5.303   1.790  -2.505  0.00  0.00    -0.245 OA
ATOM      9  O   LIG d   1       6.975   0.947  -3.674  0.00  0.00    -0.422 OA
ATOM     10  C   LIG d   1       3.775  -0.777  -2.384  0.00  0.00    -0.020 C 
ATOM     11  C   LIG d   1       3.776  -2.320  -2.312  0.00  0.00    -0.045 C 
ATOM     12  C   LIG d   1       4.729  -2.694  -3.467  0.00  0.00    -0.026 C 
ATOM     13  C   LIG d   1       7.522  -2.432  -4.971  0.00  0.00     0.143 A 
ATOM     14  C   LIG d   1       8.760  -2.241  -5.599  0.00  0.00     0.063 A 
ATOM     15  C   LIG d   1       9.396  -3.378  -6.283  0.00  0.00     0.171 C 
ATOM     16  O   LIG d   1      10.550  -3.335  -6.655  0.00  0.00    -0.292 OA
ATOM     17  C   LIG d   1       8.533  -4.608  -6.501  0.00  0.00     0.052 C 
ATOM     18  C   LIG d   1       7.695  -4.804  -5.229  0.00  0.00     0.136 C 
ATOM     19  H   LIG d   1       8.357  -4.971  -4.379  0.00  0.00     0.079 H 
ATOM     20  O   LIG d   1       6.909  -3.635  -4.996  0.00  0.00    -0.482 OA
ATOM     21  H   LIG d   1       9.278   1.030  -4.927  0.00  0.00     0.066 H 
ATOM     22  H   LIG d   1       3.706  -0.351  -1.382  0.00  0.00     0.032 H 
ATOM     23  H   LIG d   1       2.948  -0.426  -3.001  0.00  0.00     0.032 H 
ATOM     24  H   LIG d   1       4.169  -2.665  -1.355  0.00  0.00     0.027 H 
ATOM     25  H   LIG d   1       2.776  -2.718  -2.486  0.00  0.00     0.027 H 
ATOM     26  H   LIG d   1       4.163  -2.871  -4.382  0.00  0.00     0.031 H 
ATOM     27  H   LIG d   1       5.312  -3.577  -3.206  0.00  0.00     0.031 H 
ATOM     28  H   LIG d   1       9.119  -5.401  -6.668  0.00  0.00     0.038 H 
ATOM     29  H   LIG d   1       7.877  -4.454  -7.358  0.00  0.00     0.038 H 
ENDROOT
BRANCH  18  30
ATOM     30  C   LIG d   1       6.788  -5.995  -5.402  0.00  0.00     0.039 A 
ATOM     31  C   LIG d   1       7.184  -7.240  -4.937  0.00  0.00     0.172 A 
ATOM     32  C   LIG d   1       6.347  -8.337  -5.097  0.00  0.00     0.204 A 
ATOM     33  C   LIG d   1       5.115  -8.182  -5.722  0.00  0.00     0.165 A 
ATOM     34  C   LIG d   1       4.728  -6.934  -6.184  0.00  0.00    -0.016 A 
ATOM     35  C   LIG d   1       5.563  -5.845  -6.023  0.00  0.00    -0.048 A 
ATOM     36  H   LIG d   1       3.770  -6.812  -6.671  0.00  0.00     0.066 H 
ATOM     37  H   LIG d   1       5.256  -4.872  -6.380  0.00  0.00     0.062 H 
BRANCH  31  38
ATOM     38  O   LIG d   1       8.390  -7.387  -4.325  0.00  0.00    -0.491 OA
BRANCH  38  39
ATOM     39  C   LIG d   1       9.457  -7.917  -5.113  0.00  0.00     0.079 C 
ATOM     40  H   LIG d   1       9.961  -8.709  -4.557  0.00  0.00     0.066 H 
ATOM     41  H   LIG d   1       9.056  -8.325  -6.041  0.00  0.00     0.066 H 
ATOM     42  H   LIG d   1      10.170  -7.125  -5.341  0.00  0.00     0.066 H 
ENDBRANCH  38  39
ENDBRANCH  31  38
BRANCH  32  43
ATOM     43  O   LIG d   1       6.731  -9.561  -4.642  0.00  0.00    -0.488 OA
BRANCH  43  44
ATOM     44  C   LIG d   1       6.387  -9.890  -3.295  0.00  0.00     0.079 C 
ATOM     45  H   LIG d   1       6.730 -10.900  -3.069  0.00  0.00     0.066 H 
ATOM     46  H   LIG d   1       6.861  -9.183  -2.615  0.00  0.00     0.066 H 
ATOM     47  H   LIG d   1       5.304  -9.840  -3.175  0.00  0.00     0.066 H 
ENDBRANCH  43  44
ENDBRANCH  32  43
BRANCH  33  48
ATOM     48  O   LIG d   1       4.293  -9.253  -5.882  0.00  0.00    -0.491 OA
BRANCH  48  49
ATOM     49  C   LIG d   1       4.454 -10.022  -7.076  0.00  0.00     0.079 C 
ATOM     50  H   LIG d   1       3.622 -10.719  -7.174  0.00  0.00     0.066 H 
ATOM     51  H   LIG d   1       4.474  -9.356  -7.937  0.00  0.00     0.066 H 
ATOM     52  H   LIG d   1       5.390 -10.579  -7.026  0.00  0.00     0.066 H 
ENDBRANCH  48  49
ENDBRANCH  33  48
ENDBRANCH  18  30
BRANCH   1  53
ATOM     53  C   LIG d   1      10.712  -0.797  -6.255  0.00  0.00    -0.039 C 
ATOM     54  H   LIG d   1      10.580  -0.185  -7.148  0.00  0.00     0.028 H 
ATOM     55  H   LIG d   1      11.402  -0.299  -5.572  0.00  0.00     0.028 H 
ATOM     56  H   LIG d   1      11.119  -1.767  -6.537  0.00  0.00     0.028 H 
ENDBRANCH   1  53
TORSDOF 8
ENDMDL
MODEL 6
REMARK VINA RESULT:      -6.0      4.990      8.797
REMARK  8 active torsions:
REMARK  status: ('A' for Active; 'I' for Inactive)
REMARK    1  A    between atoms: C_1  and  C_2 
REMARK    2  A    between atoms: C_19  and  C_22 
REMARK    3  A    between atoms: C_25  and  O_32 
REMARK    4  A    between atoms: C_26  and  O_30 
REMARK    5  A    between atoms: C_27  and  O_28 
REMARK    6  A    between atoms: O_28  and  C_29 
REMARK    7  A    between atoms: O_30  and  C_31 
REMARK    8  A    between atoms: O_32  and  C_33 
ROOT
ATOM      1  C   LIG d   1       7.516  -3.370  -4.463  0.00  0.00    -0.033 A 
ATOM      2  C   LIG d   1       7.392  -2.398  -3.512  0.00  0.00    -0.015 A 
ATOM      3  C   LIG d   1       6.350  -1.477  -3.579  0.00  0.00     0.143 A 
ATOM      4  C   LIG d   1       5.417  -1.545  -4.629  0.00  0.00     0.063 A 
ATOM      5  C   LIG d   1       4.324  -0.572  -4.677  0.00  0.00    -0.023 A 
ATOM      6  C   LIG d   1       4.257   0.370  -3.703  0.00  0.00     0.041 A 
ATOM      7  C   LIG d   1       5.232   0.384  -2.681  0.00  0.00     0.341 A 
ATOM      8  O   LIG d   1       5.167   1.235  -1.812  0.00  0.00    -0.245 OA
ATOM      9  O   LIG d   1       6.227  -0.515  -2.640  0.00  0.00    -0.422 OA
ATOM     10  C   LIG d   1       3.064   1.272  -3.937  0.00  0.00    -0.020 C 
ATOM     11  C   LIG d   1       2.164   0.500  -4.927  0.00  0.00    -0.045 C 
ATOM     12  C   LIG d   1       3.186  -0.399  -5.655  0.00  0.00    -0.026 C 
ATOM     13  C   LIG d   1       5.542  -2.538  -5.613  0.00  0.00     0.143 A 
ATOM     14  C   LIG d   1       6.600  -3.453  -5.518  0.00  0.00     0.063 A 
ATOM     15  C   LIG d   1       6.730  -4.501  -6.543  0.00  0.00     0.171 C 
ATOM     16  O   LIG d   1       7.485  -5.441  -6.402  0.00  0.00    -0.292 OA
ATOM     17  C   LIG d   1       5.874  -4.344  -7.786  0.00  0.00     0.052 C 
ATOM     18  C   LIG d   1       4.499  -3.838  -7.328  0.00  0.00     0.136 C 
ATOM     19  H   LIG d   1       4.043  -4.573  -6.664  0.00  0.00     0.079 H 
ATOM     20  O   LIG d   1       4.658  -2.603  -6.631  0.00  0.00    -0.482 OA
ATOM     21  H   LIG d   1       8.106  -2.343  -2.704  0.00  0.00     0.066 H 
ATOM     22  H   LIG d   1       2.533   1.448  -3.001  0.00  0.00     0.032 H 
ATOM     23  H   LIG d   1       3.384   2.218  -4.372  0.00  0.00     0.032 H 
ATOM     24  H   LIG d   1       1.426  -0.101  -4.395  0.00  0.00     0.027 H 
ATOM     25  H   LIG d   1       1.678   1.183  -5.624  0.00  0.00     0.027 H 
ATOM     26  H   LIG d   1       3.539   0.089  -6.564  0.00  0.00     0.031 H 
ATOM     27  H   LIG d   1       2.740  -1.364  -5.892  0.00  0.00     0.031 H 
ATOM     28  H   LIG d   1       5.793  -5.227  -8.249  0.00  0.00     0.038 H 
ATOM     29  H   LIG d   1       6.329  -3.621  -8.463  0.00  0.00     0.038 H 
ENDROOT
BRANCH  18  30
ATOM     30  C   LIG d   1       3.613  -3.629  -8.529  0.00  0.00     0.039 A 
ATOM     31  C   LIG d   1       2.918  -4.699  -9.072  0.00  0.00     0.172 A 
ATOM     32  C   LIG d   1       2.102  -4.504 -10.180  0.00  0.00     0.204 A 
ATOM     33  C   LIG d   1       1.985  -3.237 -10.739  0.00  0.00     0.165 A 
ATOM     34  C   LIG d   1       2.684  -2.173 -10.190  0.00  0.00    -0.016 A 
ATOM     35  C   LIG d   1       3.495  -2.371  -9.088  0.00  0.00    -0.048 A 
ATOM     36  H   LIG d   1       2.594  -1.188 -10.624  0.00  0.00     0.066 H 
ATOM     37  H   LIG d   1       4.034  -1.538  -8.660  0.00  0.00     0.062 H 
BRANCH  31  38
ATOM     38  O   LIG d   1       3.035  -5.937  -8.521  0.00  0.00    -0.491 OA
BRANCH  38  39
ATOM     39  C   LIG d   1       3.810  -6.897  -9.242  0.00  0.00     0.079 C 
ATOM     40  H   LIG d   1       3.472  -6.933 -10.278  0.00  0.00     0.066 H 
ATOM     41  H   LIG d   1       4.861  -6.612  -9.213  0.00  0.00     0.066 H 
ATOM     42  H   LIG d   1       3.687  -7.880  -8.786  0.00  0.00     0.066 H 
ENDBRANCH  38  39
ENDBRANCH  31  38
BRANCH  32  43
ATOM     43  O   LIG d   1       1.418  -5.552 -10.716  0.00  0.00    -0.488 OA
BRANCH  43  44
ATOM     44  C   LIG d   1       0.095  -5.781 -10.227  0.00  0.00     0.079 C 
ATOM     45  H   LIG d   1       0.124  -6.538  -9.443  0.00  0.00     0.066 H 
ATOM     46  H   LIG d   1      -0.310  -4.854  -9.824  0.00  0.00     0.066 H 
ATOM     47  H   LIG d   1      -0.538  -6.130 -11.044  0.00  0.00     0.066 H 
ENDBRANCH  43  44
ENDBRANCH  32  43
BRANCH  33  48
ATOM     48  O   LIG d   1       1.188  -3.042 -11.823  0.00  0.00    -0.491 OA
BRANCH  48  49
ATOM     49  C   LIG d   1       0.935  -1.690 -12.208  0.00  0.00     0.079 C 
ATOM     50  H   LIG d   1       1.286  -1.530 -13.227  0.00  0.00     0.066 H 
ATOM     51  H   LIG d   1      -0.134  -1.492 -12.156  0.00  0.00     0.066 H 
ATOM     52  H   LIG d   1       1.463  -1.015 -11.533  0.00  0.00     0.066 H 
ENDBRANCH  48  49
ENDBRANCH  33  48
ENDBRANCH  18  30
BRANCH   1  53
ATOM     53  C   LIG d   1       8.648  -4.361  -4.375  0.00  0.00    -0.039 C 
ATOM     54  H   LIG d   1       9.193  -4.210  -3.442  0.00  0.00     0.028 H 
ATOM     55  H   LIG d   1       8.246  -5.375  -4.401  0.00  0.00     0.028 H 
ATOM     56  H   LIG d   1       9.324  -4.218  -5.218  0.00  0.00     0.028 H 
ENDBRANCH   1  53
TORSDOF 8
ENDMDL
MODEL 7
REMARK VINA RESULT:      -5.9      2.365      3.971
REMARK  8 active torsions:
REMARK  status: ('A' for Active; 'I' for Inactive)
REMARK    1  A    between atoms: C_1  and  C_2 
REMARK    2  A    between atoms: C_19  and  C_22 
REMARK    3  A    between atoms: C_25  and  O_32 
REMARK    4  A    between atoms: C_26  and  O_30 
REMARK    5  A    between atoms: C_27  and  O_28 
REMARK    6  A    between atoms: O_28  and  C_29 
REMARK    7  A    between atoms: O_30  and  C_31 
REMARK    8  A    between atoms: O_32  and  C_33 
ROOT
ATOM      1  C   LIG d   1       6.216  -4.777  -5.405  0.00  0.00    -0.033 A 
ATOM      2  C   LIG d   1       5.018  -4.320  -4.937  0.00  0.00    -0.015 A 
ATOM      3  C   LIG d   1       4.927  -3.066  -4.341  0.00  0.00     0.143 A 
ATOM      4  C   LIG d   1       6.074  -2.260  -4.219  0.00  0.00     0.063 A 
ATOM      5  C   LIG d   1       5.956  -0.940  -3.596  0.00  0.00    -0.023 A 
ATOM      6  C   LIG d   1       4.737  -0.544  -3.150  0.00  0.00     0.041 A 
ATOM      7  C   LIG d   1       3.629  -1.407  -3.299  0.00  0.00     0.341 A 
ATOM      8  O   LIG d   1       2.538  -1.047  -2.893  0.00  0.00    -0.245 OA
ATOM      9  O   LIG d   1       3.743  -2.613  -3.877  0.00  0.00    -0.422 OA
ATOM     10  C   LIG d   1       4.832   0.838  -2.542  0.00  0.00    -0.020 C 
ATOM     11  C   LIG d   1       6.168   1.415  -3.062  0.00  0.00    -0.045 C 
ATOM     12  C   LIG d   1       6.985   0.134  -3.335  0.00  0.00    -0.026 C 
ATOM     13  C   LIG d   1       7.310  -2.727  -4.692  0.00  0.00     0.143 A 
ATOM     14  C   LIG d   1       7.369  -3.993  -5.291  0.00  0.00     0.063 A 
ATOM     15  C   LIG d   1       8.662  -4.483  -5.796  0.00  0.00     0.171 C 
ATOM     16  O   LIG d   1       8.740  -5.463  -6.507  0.00  0.00    -0.292 OA
ATOM     17  C   LIG d   1       9.894  -3.699  -5.380  0.00  0.00     0.052 C 
ATOM     18  C   LIG d   1       9.524  -2.210  -5.436  0.00  0.00     0.136 C 
ATOM     19  H   LIG d   1       9.250  -1.942  -6.457  0.00  0.00     0.079 H 
ATOM     20  O   LIG d   1       8.418  -1.965  -4.568  0.00  0.00    -0.482 OA
ATOM     21  H   LIG d   1       4.135  -4.935  -5.030  0.00  0.00     0.066 H 
ATOM     22  H   LIG d   1       3.998   1.457  -2.875  0.00  0.00     0.032 H 
ATOM     23  H   LIG d   1       4.844   0.774  -1.454  0.00  0.00     0.032 H 
ATOM     24  H   LIG d   1       6.015   1.983  -3.980  0.00  0.00     0.027 H 
ATOM     25  H   LIG d   1       6.649   2.030  -2.301  0.00  0.00     0.027 H 
ATOM     26  H   LIG d   1       7.589  -0.123  -2.465  0.00  0.00     0.031 H 
ATOM     27  H   LIG d   1       7.621   0.270  -4.210  0.00  0.00     0.031 H 
ATOM     28  H   LIG d   1      10.646  -3.904  -6.006  0.00  0.00     0.038 H 
ATOM     29  H   LIG d   1      10.183  -3.972  -4.365  0.00  0.00     0.038 H 
ENDROOT
BRANCH  18  30
ATOM     30  C   LIG d   1      10.703  -1.381  -4.997  0.00  0.00     0.039 A 
ATOM     31  C   LIG d   1      10.660   0.000  -5.113  0.00  0.00     0.172 A 
ATOM     32  C   LIG d   1      11.747   0.764  -4.707  0.00  0.00     0.204 A 
ATOM     33  C   LIG d   1      12.874   0.140  -4.187  0.00  0.00     0.165 A 
ATOM     34  C   LIG d   1      12.909  -1.242  -4.075  0.00  0.00    -0.016 A 
ATOM     35  C   LIG d   1      11.826  -1.997  -4.479  0.00  0.00    -0.048 A 
ATOM     36  H   LIG d   1      13.786  -1.728  -3.670  0.00  0.00     0.066 H 
ATOM     37  H   LIG d   1      11.854  -3.073  -4.386  0.00  0.00     0.062 H 
BRANCH  31  38
ATOM     38  O   LIG d   1       9.553   0.607  -5.623  0.00  0.00    -0.491 OA
BRANCH  38  39
ATOM     39  C   LIG d   1       9.571   0.923  -7.016  0.00  0.00     0.079 C 
ATOM     40  H   LIG d   1      10.546   1.335  -7.283  0.00  0.00     0.066 H 
ATOM     41  H   LIG d   1       9.388   0.020  -7.597  0.00  0.00     0.066 H 
ATOM     42  H   LIG d   1       8.796   1.658  -7.231  0.00  0.00     0.066 H 
ENDBRANCH  38  39
ENDBRANCH  31  38
BRANCH  32  43
ATOM     43  O   LIG d   1      11.709   2.120  -4.819  0.00  0.00    -0.488 OA
BRANCH  43  44
ATOM     44  C   LIG d   1      11.182   2.848  -3.708  0.00  0.00     0.079 C 
ATOM     45  H   LIG d   1      10.113   3.006  -3.852  0.00  0.00     0.066 H 
ATOM     46  H   LIG d   1      11.347   2.283  -2.791  0.00  0.00     0.066 H 
ATOM     47  H   LIG d   1      11.685   3.813  -3.636  0.00  0.00     0.066 H 
ENDBRANCH  43  44
ENDBRANCH  32  43
BRANCH  33  48
ATOM     48  O   LIG d   1      13.942   0.883  -3.789  0.00  0.00    -0.491 OA
BRANCH  48  49
ATOM     49  C   LIG d   1      14.827   0.290  -2.838  0.00  0.00     0.079 C 
ATOM     50  H   LIG d   1      14.586   0.654  -1.840  0.00  0.00     0.066 H 
ATOM     51  H   LIG d   1      14.717  -0.793  -2.866  0.00  0.00     0.066 H 
ATOM     52  H   LIG d   1      15.856   0.556  -3.083  0.00  0.00     0.066 H 
ENDBRANCH  48  49
ENDBRANCH  33  48
ENDBRANCH  18  30
BRANCH   1  53
ATOM     53  C   LIG d   1       6.297  -6.137  -6.050  0.00  0.00    -0.039 C 
ATOM     54  H   LIG d   1       5.631  -6.170  -6.914  0.00  0.00     0.028 H 
ATOM     55  H   LIG d   1       7.322  -6.325  -6.374  0.00  0.00     0.028 H 
ATOM     56  H   LIG d   1       5.998  -6.900  -5.332  0.00  0.00     0.028 H 
ENDBRANCH   1  53
TORSDOF 8
ENDMDL
MODEL 8
REMARK VINA RESULT:      -5.8      7.372     10.460
REMARK  8 active torsions:
REMARK  status: ('A' for Active; 'I' for Inactive)
REMARK    1  A    between atoms: C_1  and  C_2 
REMARK    2  A    between atoms: C_19  and  C_22 
REMARK    3  A    between atoms: C_25  and  O_32 
REMARK    4  A    between atoms: C_26  and  O_30 
REMARK    5  A    between atoms: C_27  and  O_28 
REMARK    6  A    between atoms: O_28  and  C_29 
REMARK    7  A    between atoms: O_30  and  C_31 
REMARK    8  A    between atoms: O_32  and  C_33 
ROOT
ATOM      1  C   LIG d   1      10.449  11.508  -0.108  0.00  0.00    -0.033 A 
ATOM      2  C   LIG d   1      10.674  10.534   0.822  0.00  0.00    -0.015 A 
ATOM      3  C   LIG d   1      10.822   9.207   0.430  0.00  0.00     0.143 A 
ATOM      4  C   LIG d   1      10.743   8.863  -0.931  0.00  0.00     0.063 A 
ATOM      5  C   LIG d   1      10.910   7.462  -1.325  0.00  0.00    -0.023 A 
ATOM      6  C   LIG d   1      11.129   6.541  -0.352  0.00  0.00     0.041 A 
ATOM      7  C   LIG d   1      11.191   6.957   0.997  0.00  0.00     0.341 A 
ATOM      8  O   LIG d   1      11.385   6.124   1.865  0.00  0.00    -0.245 OA
ATOM      9  O   LIG d   1      11.043   8.243   1.349  0.00  0.00    -0.422 OA
ATOM     10  C   LIG d   1      11.270   5.165  -0.964  0.00  0.00    -0.020 C 
ATOM     11  C   LIG d   1      11.543   5.418  -2.464  0.00  0.00    -0.045 C 
ATOM     12  C   LIG d   1      10.885   6.798  -2.681  0.00  0.00    -0.026 C 
ATOM     13  C   LIG d   1      10.506   9.858  -1.892  0.00  0.00     0.143 A 
ATOM     14  C   LIG d   1      10.364  11.186  -1.467  0.00  0.00     0.063 A 
ATOM     15  C   LIG d   1      10.123  12.234  -2.472  0.00  0.00     0.171 C 
ATOM     16  O   LIG d   1      10.205  13.413  -2.197  0.00  0.00    -0.292 OA
ATOM     17  C   LIG d   1       9.767  11.764  -3.871  0.00  0.00     0.052 C 
ATOM     18  C   LIG d   1      10.650  10.546  -4.178  0.00  0.00     0.136 C 
ATOM     19  H   LIG d   1      11.699  10.842  -4.151  0.00  0.00     0.079 H 
ATOM     20  O   LIG d   1      10.416   9.534  -3.200  0.00  0.00    -0.482 OA
ATOM     21  H   LIG d   1      10.737  10.795   1.868  0.00  0.00     0.066 H 
ATOM     22  H   LIG d   1      12.108   4.633  -0.512  0.00  0.00     0.032 H 
ATOM     23  H   LIG d   1      10.349   4.597  -0.836  0.00  0.00     0.032 H 
ATOM     24  H   LIG d   1      12.614   5.461  -2.663  0.00  0.00     0.027 H 
ATOM     25  H   LIG d   1      11.064   4.656  -3.080  0.00  0.00     0.027 H 
ATOM     26  H   LIG d   1       9.858   6.677  -3.025  0.00  0.00     0.031 H 
ATOM     27  H   LIG d   1      11.459   7.382  -3.399  0.00  0.00     0.031 H 
ATOM     28  H   LIG d   1       9.936  12.502  -4.524  0.00  0.00     0.038 H 
ATOM     29  H   LIG d   1       8.715  11.480  -3.911  0.00  0.00     0.038 H 
ENDROOT
BRANCH  18  30
ATOM     30  C   LIG d   1      10.313  10.012  -5.546  0.00  0.00     0.039 A 
ATOM     31  C   LIG d   1      10.839  10.620  -6.676  0.00  0.00     0.172 A 
ATOM     32  C   LIG d   1      10.528  10.127  -7.937  0.00  0.00     0.204 A 
ATOM     33  C   LIG d   1       9.690   9.025  -8.061  0.00  0.00     0.165 A 
ATOM     34  C   LIG d   1       9.168   8.424  -6.927  0.00  0.00    -0.016 A 
ATOM     35  C   LIG d   1       9.480   8.917  -5.674  0.00  0.00    -0.048 A 
ATOM     36  H   LIG d   1       8.516   7.567  -7.022  0.00  0.00     0.066 H 
ATOM     37  H   LIG d   1       9.076   8.443  -4.792  0.00  0.00     0.062 H 
BRANCH  31  38
ATOM     38  O   LIG d   1      11.660  11.699  -6.550  0.00  0.00    -0.491 OA
BRANCH  38  39
ATOM     39  C   LIG d   1      13.053  11.437  -6.378  0.00  0.00     0.079 C 
ATOM     40  H   LIG d   1      13.349  10.606  -7.020  0.00  0.00     0.066 H 
ATOM     41  H   LIG d   1      13.627  12.324  -6.645  0.00  0.00     0.066 H 
ATOM     42  H   LIG d   1      13.249  11.177  -5.337  0.00  0.00     0.066 H 
ENDBRANCH  38  39
ENDBRANCH  31  38
BRANCH  32  43
ATOM     43  O   LIG d   1      11.043  10.721  -9.049  0.00  0.00    -0.488 OA
BRANCH  43  44
ATOM     44  C   LIG d   1      12.189  10.107  -9.641  0.00  0.00     0.079 C 
ATOM     45  H   LIG d   1      12.919  10.874  -9.899  0.00  0.00     0.066 H 
ATOM     46  H   LIG d   1      12.632   9.406  -8.934  0.00  0.00     0.066 H 
ATOM     47  H   LIG d   1      11.889   9.573 -10.543  0.00  0.00     0.066 H 
ENDBRANCH  43  44
ENDBRANCH  32  43
BRANCH  33  48
ATOM     48  O   LIG d   1       9.382   8.540  -9.293  0.00  0.00    -0.491 OA
BRANCH  48  49
ATOM     49  C   LIG d   1       9.543   7.135  -9.496  0.00  0.00     0.079 C 
ATOM     50  H   LIG d   1       9.215   6.599  -8.605  0.00  0.00     0.066 H 
ATOM     51  H   LIG d   1       8.945   6.820 -10.350  0.00  0.00     0.066 H 
ATOM     52  H   LIG d   1      10.594   6.913  -9.686  0.00  0.00     0.066 H 
ENDBRANCH  48  49
ENDBRANCH  33  48
ENDBRANCH  18  30
BRANCH   1  53
ATOM     53  C   LIG d   1      10.293  12.941   0.333  0.00  0.00    -0.039 C 
ATOM     54  H   LIG d   1       9.811  12.970   1.310  0.00  0.00     0.028 H 
ATOM     55  H   LIG d   1      11.276  13.410   0.398  0.00  0.00     0.028 H 
ATOM     56  H   LIG d   1       9.682  13.480  -0.390  0.00  0.00     0.028 H 
ENDBRANCH   1  53
TORSDOF 8
ENDMDL
MODEL 9
REMARK VINA RESULT:      -5.8      5.894      9.483
REMARK  8 active torsions:
REMARK  status: ('A' for Active; 'I' for Inactive)
REMARK    1  A    between atoms: C_1  and  C_2 
REMARK    2  A    between atoms: C_19  and  C_22 
REMARK    3  A    between atoms: C_25  and  O_32 
REMARK    4  A    between atoms: C_26  and  O_30 
REMARK    5  A    between atoms: C_27  and  O_28 
REMARK    6  A    between atoms: O_28  and  C_29 
REMARK    7  A    between atoms: O_30  and  C_31 
REMARK    8  A    between atoms: O_32  and  C_33 
ROOT
ATOM      1  C   LIG d   1       9.975  10.750  -3.645  0.00  0.00    -0.033 A 
ATOM      2  C   LIG d   1      10.027  10.051  -2.474  0.00  0.00    -0.015 A 
ATOM      3  C   LIG d   1      10.049   8.659  -2.485  0.00  0.00     0.143 A 
ATOM      4  C   LIG d   1      10.018   7.965  -3.707  0.00  0.00     0.063 A 
ATOM      5  C   LIG d   1      10.049   6.501  -3.698  0.00  0.00    -0.023 A 
ATOM      6  C   LIG d   1      10.100   5.865  -2.500  0.00  0.00     0.041 A 
ATOM      7  C   LIG d   1      10.123   6.626  -1.310  0.00  0.00     0.341 A 
ATOM      8  O   LIG d   1      10.164   6.048  -0.239  0.00  0.00    -0.245 OA
ATOM      9  O   LIG d   1      10.100   7.967  -1.327  0.00  0.00    -0.422 OA
ATOM     10  C   LIG d   1      10.123   4.367  -2.711  0.00  0.00    -0.020 C 
ATOM     11  C   LIG d   1      10.517   4.175  -4.192  0.00  0.00    -0.045 C 
ATOM     12  C   LIG d   1      10.036   5.497  -4.826  0.00  0.00    -0.026 C 
ATOM     13  C   LIG d   1       9.957   8.678  -4.916  0.00  0.00     0.143 A 
ATOM     14  C   LIG d   1       9.940  10.079  -4.872  0.00  0.00     0.063 A 
ATOM     15  C   LIG d   1       9.885  10.830  -6.137  0.00  0.00     0.171 C 
ATOM     16  O   LIG d   1      10.082  12.026  -6.177  0.00  0.00    -0.292 OA
ATOM     17  C   LIG d   1       9.568  10.030  -7.388  0.00  0.00     0.052 C 
ATOM     18  C   LIG d   1      10.325   8.699  -7.279  0.00  0.00     0.136 C 
ATOM     19  H   LIG d   1      11.397   8.893  -7.234  0.00  0.00     0.079 H 
ATOM     20  O   LIG d   1       9.915   8.018  -6.093  0.00  0.00    -0.482 OA
ATOM     21  H   LIG d   1      10.053  10.581  -1.533  0.00  0.00     0.066 H 
ATOM     22  H   LIG d   1      10.864   3.904  -2.059  0.00  0.00     0.032 H 
ATOM     23  H   LIG d   1       9.137   3.943  -2.522  0.00  0.00     0.032 H 
ATOM     24  H   LIG d   1      11.597   4.063  -4.295  0.00  0.00     0.027 H 
ATOM     25  H   LIG d   1       9.996   3.321  -4.626  0.00  0.00     0.027 H 
ATOM     26  H   LIG d   1       9.025   5.382  -5.219  0.00  0.00     0.031 H 
ATOM     27  H   LIG d   1      10.717   5.807  -5.618  0.00  0.00     0.031 H 
ATOM     28  H   LIG d   1       9.861  10.543  -8.195  0.00  0.00     0.038 H 
ATOM     29  H   LIG d   1       8.495   9.844  -7.447  0.00  0.00     0.038 H 
ENDROOT
BRANCH  18  30
ATOM     30  C   LIG d   1      10.017   7.845  -8.482  0.00  0.00     0.039 A 
ATOM     31  C   LIG d   1      10.432   8.248  -9.741  0.00  0.00     0.172 A 
ATOM     32  C   LIG d   1      10.149   7.460 -10.850  0.00  0.00     0.204 A 
ATOM     33  C   LIG d   1       9.449   6.270 -10.691  0.00  0.00     0.165 A 
ATOM     34  C   LIG d   1       9.038   5.874  -9.428  0.00  0.00    -0.016 A 
ATOM     35  C   LIG d   1       9.322   6.661  -8.328  0.00  0.00    -0.048 A 
ATOM     36  H   LIG d   1       8.494   4.948  -9.303  0.00  0.00     0.066 H 
ATOM     37  H   LIG d   1       9.004   6.347  -7.344  0.00  0.00     0.062 H 
BRANCH  31  38
ATOM     38  O   LIG d   1      11.117   9.415  -9.892  0.00  0.00    -0.491 OA
BRANCH  38  39
ATOM     39  C   LIG d   1      12.543   9.332  -9.908  0.00  0.00     0.079 C 
ATOM     40  H   LIG d   1      12.848   8.290  -9.812  0.00  0.00     0.066 H 
ATOM     41  H   LIG d   1      12.921   9.735 -10.847  0.00  0.00     0.066 H 
ATOM     42  H   LIG d   1      12.949   9.907  -9.076  0.00  0.00     0.066 H 
ENDBRANCH  38  39
ENDBRANCH  31  38
BRANCH  32  43
ATOM     43  O   LIG d   1      10.554   7.852 -12.089  0.00  0.00    -0.488 OA
BRANCH  43  44
ATOM     44  C   LIG d   1       9.664   8.692 -12.827  0.00  0.00     0.079 C 
ATOM     45  H   LIG d   1       9.568   9.652 -12.322  0.00  0.00     0.066 H 
ATOM     46  H   LIG d   1      10.059   8.846 -13.831  0.00  0.00     0.066 H 
ATOM     47  H   LIG d   1       8.685   8.215 -12.891  0.00  0.00     0.066 H 
ENDBRANCH  43  44
ENDBRANCH  32  43
BRANCH  33  48
ATOM     48  O   LIG d   1       9.168   5.495 -11.773  0.00  0.00    -0.491 OA
BRANCH  48  49
ATOM     49  C   LIG d   1      10.087   4.444 -12.075  0.00  0.00     0.079 C 
ATOM     50  H   LIG d   1      11.056   4.668 -11.629  0.00  0.00     0.066 H 
ATOM     51  H   LIG d   1       9.710   3.506 -11.671  0.00  0.00     0.066 H 
ATOM     52  H   LIG d   1      10.197   4.356 -13.156  0.00  0.00     0.066 H 
ENDBRANCH  48  49
ENDBRANCH  33  48
ENDBRANCH  18  30
BRANCH   1  53
ATOM     53  C   LIG d   1       9.955  12.257  -3.616  0.00  0.00    -0.039 C 
ATOM     54  H   LIG d   1      10.405  12.644  -4.531  0.00  0.00     0.028 H 
ATOM     55  H   LIG d   1       8.923  12.606  -3.543  0.00  0.00     0.028 H 
ATOM     56  H   LIG d   1      10.519  12.613  -2.754  0.00  0.00     0.028 H 
ENDBRANCH   1  53
TORSDOF 8
ENDMDL
