MODEL 1
REMARK VINA RESULT:      -6.5      0.000      0.000
REMARK  7 active torsions:
REMARK  status: ('A' for Active; 'I' for Inactive)
REMARK    1  A    between atoms: C_1  and  C_2 
REMARK    2  A    between atoms: C_2  and  C_4 
REMARK    3  A    between atoms: C_4  and  C_5 
REMARK    4  A    between atoms: C_13  and  C_28 
REMARK    5  A    between atoms: N_19  and  C_20 
REMARK    6  A    between atoms: C_20  and  C_21 
REMARK    7  A    between atoms: C_21  and  C_22 
ROOT
ATOM      1  C   LIG d   1       3.947  -0.826  -7.081  0.00  0.00     0.063 C 
ATOM      2  H   LIG d   1       3.500  -1.512  -6.363  0.00  0.00     0.053 H 
ATOM      3  C   LIG d   1       3.812  -1.362  -8.473  0.00  0.00     0.119 C 
ATOM      4  C   LIG d   1       4.789  -2.272  -9.127  0.00  0.00    -0.051 C 
ATOM      5  C   LIG d   1       4.151  -2.681 -10.231  0.00  0.00    -0.056 C 
ATOM      6  C   LIG d   1       2.759  -2.038 -10.218  0.00  0.00     0.087 C 
ATOM      7  H   LIG d   1       2.000  -2.551 -10.809  0.00  0.00     0.065 H 
ATOM      8  O   LIG d   1       2.520  -1.957  -8.765  0.00  0.00    -0.359 OA
ATOM      9  C   LIG d   1       2.955  -0.522 -10.542  0.00  0.00     0.043 C 
ATOM     10  H   LIG d   1       1.995  -0.009 -10.603  0.00  0.00     0.040 H 
ATOM     11  C   LIG d   1       3.763  -0.040  -9.325  0.00  0.00     0.081 C 
ATOM     12  H   LIG d   1       4.750   0.335  -9.597  0.00  0.00     0.043 H 
ATOM     13  C   LIG d   1       3.018   0.873  -8.393  0.00  0.00     0.223 C 
ATOM     14  O   LIG d   1       2.359   1.834  -8.730  0.00  0.00    -0.275 OA
ATOM     15  N   LIG d   1       3.199   0.454  -7.115  0.00  0.00    -0.294 N 
ATOM     16  H   LIG d   1       5.780  -2.540  -8.792  0.00  0.00     0.060 H 
ATOM     17  H   LIG d   1       4.544  -3.341 -10.990  0.00  0.00     0.060 H 
ENDROOT
BRANCH  15  18
ATOM     18  C   LIG d   1       2.720   1.168  -5.929  0.00  0.00     0.019 C 
ATOM     19  H   LIG d   1       3.562   1.652  -5.432  0.00  0.00     0.047 H 
ATOM     20  H   LIG d   1       1.993   1.922  -6.228  0.00  0.00     0.047 H 
BRANCH  18  21
ATOM     21  C   LIG d   1       2.062   0.176  -4.968  0.00  0.00    -0.012 C 
ATOM     22  H   LIG d   1       1.093   0.563  -4.654  0.00  0.00     0.033 H 
ATOM     23  H   LIG d   1       1.926  -0.781  -5.470  0.00  0.00     0.033 H 
BRANCH  21  24
ATOM     24  C   LIG d   1       2.943  -0.011  -3.759  0.00  0.00    -0.046 A 
ATOM     25  C   LIG d   1       3.583   1.076  -3.195  0.00  0.00    -0.059 A 
ATOM     26  C   LIG d   1       4.391   0.903  -2.086  0.00  0.00    -0.061 A 
ATOM     27  H   LIG d   1       3.453   2.060  -3.620  0.00  0.00     0.062 H 
ATOM     28  C   LIG d   1       4.558  -0.356  -1.542  0.00  0.00    -0.062 A 
ATOM     29  H   LIG d   1       4.891   1.753  -1.646  0.00  0.00     0.062 H 
ATOM     30  C   LIG d   1       3.916  -1.443  -2.105  0.00  0.00    -0.061 A 
ATOM     31  H   LIG d   1       5.189  -0.491  -0.676  0.00  0.00     0.062 H 
ATOM     32  C   LIG d   1       3.105  -1.271  -3.212  0.00  0.00    -0.059 A 
ATOM     33  H   LIG d   1       4.047  -2.427  -1.680  0.00  0.00     0.062 H 
ATOM     34  H   LIG d   1       2.602  -2.119  -3.650  0.00  0.00     0.062 H 
ENDBRANCH  21  24
ENDBRANCH  18  21
ENDBRANCH  15  18
BRANCH   1  35
ATOM     35  C   LIG d   1       5.419  -0.578  -6.742  0.00  0.00    -0.011 C 
ATOM     36  H   LIG d   1       6.036  -0.810  -7.610  0.00  0.00     0.033 H 
ATOM     37  H   LIG d   1       5.557   0.467  -6.467  0.00  0.00     0.033 H 
BRANCH  35  38
ATOM     38  C   LIG d   1       5.823  -1.459  -5.589  0.00  0.00    -0.078 C 
ATOM     39  C   LIG d   1       6.617  -0.995  -4.656  0.00  0.00    -0.100 C 
ATOM     40  H   LIG d   1       6.907  -1.626  -3.830  0.00  0.00     0.053 H 
ATOM     41  H   LIG d   1       6.983   0.020  -4.714  0.00  0.00     0.053 H 
BRANCH  38  42
ATOM     42  C   LIG d   1       5.314  -2.875  -5.508  0.00  0.00    -0.044 C 
ATOM     43  H   LIG d   1       4.343  -2.885  -5.015  0.00  0.00     0.027 H 
ATOM     44  H   LIG d   1       5.216  -3.285  -6.513  0.00  0.00     0.027 H 
ATOM     45  H   LIG d   1       6.017  -3.483  -4.937  0.00  0.00     0.027 H 
ENDBRANCH  38  42
ENDBRANCH  35  38
ENDBRANCH   1  35
BRANCH   9  46
ATOM     46  C   LIG d   1       3.740  -0.342 -11.817  0.00  0.00     0.048 C 
ATOM     47  O   LIG d   1       4.767   0.293 -11.808  0.00  0.00    -0.549 OA
ATOM     48  O   LIG d   1       3.297  -0.886 -12.961  0.00  0.00    -0.549 OA
ENDBRANCH   9  46
TORSDOF 7
ENDMDL
MODEL 2
REMARK VINA RESULT:      -6.4      1.978      3.239
REMARK  7 active torsions:
REMARK  status: ('A' for Active; 'I' for Inactive)
REMARK    1  A    between atoms: C_1  and  C_2 
REMARK    2  A    between atoms: C_2  and  C_4 
REMARK    3  A    between atoms: C_4  and  C_5 
REMARK    4  A    between atoms: C_13  and  C_28 
REMARK    5  A    between atoms: N_19  and  C_20 
REMARK    6  A    between atoms: C_20  and  C_21 
REMARK    7  A    between atoms: C_21  and  C_22 
ROOT
ATOM      1  C   LIG d   1       4.640  -2.111  -6.765  0.00  0.00     0.063 C 
ATOM      2  H   LIG d   1       4.027  -2.495  -5.951  0.00  0.00     0.053 H 
ATOM      3  C   LIG d   1       3.879  -1.097  -7.562  0.00  0.00     0.119 C 
ATOM      4  C   LIG d   1       3.002  -1.417  -8.719  0.00  0.00    -0.051 C 
ATOM      5  C   LIG d   1       2.349  -0.270  -8.949  0.00  0.00    -0.056 C 
ATOM      6  C   LIG d   1       2.812   0.737  -7.889  0.00  0.00     0.087 C 
ATOM      7  H   LIG d   1       2.123   1.559  -7.692  0.00  0.00     0.065 H 
ATOM      8  O   LIG d   1       3.092  -0.173  -6.764  0.00  0.00    -0.359 OA
ATOM      9  C   LIG d   1       4.270   1.156  -8.266  0.00  0.00     0.043 C 
ATOM     10  H   LIG d   1       4.646   1.916  -7.581  0.00  0.00     0.040 H 
ATOM     11  C   LIG d   1       5.033  -0.169  -8.093  0.00  0.00     0.081 C 
ATOM     12  H   LIG d   1       5.477  -0.523  -9.023  0.00  0.00     0.043 H 
ATOM     13  C   LIG d   1       5.985  -0.204  -6.930  0.00  0.00     0.223 C 
ATOM     14  O   LIG d   1       6.793   0.659  -6.659  0.00  0.00    -0.275 OA
ATOM     15  N   LIG d   1       5.798  -1.353  -6.233  0.00  0.00    -0.294 N 
ATOM     16  H   LIG d   1       2.914  -2.352  -9.252  0.00  0.00     0.060 H 
ATOM     17  H   LIG d   1       1.630  -0.088  -9.734  0.00  0.00     0.060 H 
ENDROOT
BRANCH  15  18
ATOM     18  C   LIG d   1       6.627  -1.785  -5.105  0.00  0.00     0.019 C 
ATOM     19  H   LIG d   1       7.273  -2.605  -5.423  0.00  0.00     0.047 H 
ATOM     20  H   LIG d   1       7.239  -0.951  -4.763  0.00  0.00     0.047 H 
BRANCH  18  21
ATOM     21  C   LIG d   1       5.727  -2.260  -3.963  0.00  0.00    -0.012 C 
ATOM     22  H   LIG d   1       4.992  -2.966  -4.349  0.00  0.00     0.033 H 
ATOM     23  H   LIG d   1       6.333  -2.749  -3.201  0.00  0.00     0.033 H 
BRANCH  21  24
ATOM     24  C   LIG d   1       5.017  -1.076  -3.357  0.00  0.00    -0.046 A 
ATOM     25  C   LIG d   1       3.637  -1.064  -3.278  0.00  0.00    -0.059 A 
ATOM     26  C   LIG d   1       2.987   0.022  -2.722  0.00  0.00    -0.061 A 
ATOM     27  H   LIG d   1       3.068  -1.902  -3.650  0.00  0.00     0.062 H 
ATOM     28  C   LIG d   1       3.716   1.095  -2.247  0.00  0.00    -0.062 A 
ATOM     29  H   LIG d   1       1.909   0.032  -2.660  0.00  0.00     0.062 H 
ATOM     30  C   LIG d   1       5.096   1.082  -2.324  0.00  0.00    -0.061 A 
ATOM     31  H   LIG d   1       3.208   1.944  -1.812  0.00  0.00     0.062 H 
ATOM     32  C   LIG d   1       5.748  -0.005  -2.876  0.00  0.00    -0.059 A 
ATOM     33  H   LIG d   1       5.666   1.921  -1.953  0.00  0.00     0.062 H 
ATOM     34  H   LIG d   1       6.826  -0.017  -2.935  0.00  0.00     0.062 H 
ENDBRANCH  21  24
ENDBRANCH  18  21
ENDBRANCH  15  18
BRANCH   1  35
ATOM     35  C   LIG d   1       5.116  -3.254  -7.665  0.00  0.00    -0.011 C 
ATOM     36  H   LIG d   1       4.958  -2.983  -8.710  0.00  0.00     0.033 H 
ATOM     37  H   LIG d   1       6.177  -3.434  -7.493  0.00  0.00     0.033 H 
BRANCH  35  38
ATOM     38  C   LIG d   1       4.335  -4.502  -7.346  0.00  0.00    -0.078 C 
ATOM     39  C   LIG d   1       4.380  -5.012  -6.141  0.00  0.00    -0.100 C 
ATOM     40  H   LIG d   1       3.820  -5.907  -5.911  0.00  0.00     0.053 H 
ATOM     41  H   LIG d   1       4.977  -4.538  -5.375  0.00  0.00     0.053 H 
BRANCH  38  42
ATOM     42  C   LIG d   1       3.503  -5.164  -8.414  0.00  0.00    -0.044 C 
ATOM     43  H   LIG d   1       2.826  -5.882  -7.953  0.00  0.00     0.027 H 
ATOM     44  H   LIG d   1       2.924  -4.408  -8.945  0.00  0.00     0.027 H 
ATOM     45  H   LIG d   1       4.157  -5.680  -9.117  0.00  0.00     0.027 H 
ENDBRANCH  38  42
ENDBRANCH  35  38
ENDBRANCH   1  35
BRANCH   9  46
ATOM     46  C   LIG d   1       4.340   1.637  -9.693  0.00  0.00     0.048 C 
ATOM     47  O   LIG d   1       5.134   1.142 -10.458  0.00  0.00    -0.549 OA
ATOM     48  O   LIG d   1       3.522   2.614 -10.113  0.00  0.00    -0.549 OA
ENDBRANCH   9  46
TORSDOF 7
ENDMDL
MODEL 3
REMARK VINA RESULT:      -6.2      2.615      6.622
REMARK  7 active torsions:
REMARK  status: ('A' for Active; 'I' for Inactive)
REMARK    1  A    between atoms: C_1  and  C_2 
REMARK    2  A    between atoms: C_2  and  C_4 
REMARK    3  A    between atoms: C_4  and  C_5 
REMARK    4  A    between atoms: C_13  and  C_28 
REMARK    5  A    between atoms: N_19  and  C_20 
REMARK    6  A    between atoms: C_20  and  C_21 
REMARK    7  A    between atoms: C_21  and  C_22 
ROOT
ATOM      1  C   LIG d   1       4.650  -0.661  -7.019  0.00  0.00     0.063 C 
ATOM      2  H   LIG d   1       5.353  -0.124  -7.655  0.00  0.00     0.053 H 
ATOM      3  C   LIG d   1       5.220  -0.844  -5.646  0.00  0.00     0.119 C 
ATOM      4  C   LIG d   1       6.071  -1.989  -5.229  0.00  0.00    -0.051 C 
ATOM      5  C   LIG d   1       6.544  -1.614  -4.034  0.00  0.00    -0.056 C 
ATOM      6  C   LIG d   1       6.001  -0.208  -3.749  0.00  0.00     0.087 C 
ATOM      7  H   LIG d   1       6.577   0.380  -3.036  0.00  0.00     0.065 H 
ATOM      8  O   LIG d   1       5.910   0.322  -5.121  0.00  0.00    -0.359 OA
ATOM      9  C   LIG d   1       4.481  -0.366  -3.421  0.00  0.00     0.043 C 
ATOM     10  H   LIG d   1       4.039   0.594  -3.154  0.00  0.00     0.040 H 
ATOM     11  C   LIG d   1       3.921  -0.880  -4.759  0.00  0.00     0.081 C 
ATOM     12  H   LIG d   1       3.482  -1.874  -4.677  0.00  0.00     0.043 H 
ATOM     13  C   LIG d   1       3.045   0.096  -5.494  0.00  0.00     0.223 C 
ATOM     14  O   LIG d   1       2.140   0.735  -5.002  0.00  0.00    -0.275 OA
ATOM     15  N   LIG d   1       3.428   0.147  -6.795  0.00  0.00    -0.294 N 
ATOM     16  H   LIG d   1       6.261  -2.908  -5.763  0.00  0.00     0.060 H 
ATOM     17  H   LIG d   1       7.188  -2.194  -3.389  0.00  0.00     0.060 H 
ENDROOT
BRANCH  15  18
ATOM     18  C   LIG d   1       2.727   0.901  -7.838  0.00  0.00     0.019 C 
ATOM     19  H   LIG d   1       1.957   0.271  -8.286  0.00  0.00     0.047 H 
ATOM     20  H   LIG d   1       2.264   1.784  -7.400  0.00  0.00     0.047 H 
BRANCH  18  21
ATOM     21  C   LIG d   1       3.725   1.328  -8.916  0.00  0.00    -0.012 C 
ATOM     22  H   LIG d   1       3.597   2.389  -9.131  0.00  0.00     0.033 H 
ATOM     23  H   LIG d   1       4.740   1.150  -8.563  0.00  0.00     0.033 H 
BRANCH  21  24
ATOM     24  C   LIG d   1       3.483   0.529 -10.171  0.00  0.00    -0.046 A 
ATOM     25  C   LIG d   1       4.403   0.564 -11.202  0.00  0.00    -0.059 A 
ATOM     26  C   LIG d   1       4.179  -0.168 -12.353  0.00  0.00    -0.061 A 
ATOM     27  H   LIG d   1       5.295   1.165 -11.108  0.00  0.00     0.062 H 
ATOM     28  C   LIG d   1       3.037  -0.937 -12.473  0.00  0.00    -0.062 A 
ATOM     29  H   LIG d   1       4.898  -0.140 -13.158  0.00  0.00     0.062 H 
ATOM     30  C   LIG d   1       2.118  -0.974 -11.441  0.00  0.00    -0.061 A 
ATOM     31  H   LIG d   1       2.863  -1.510 -13.371  0.00  0.00     0.062 H 
ATOM     32  C   LIG d   1       2.342  -0.244 -10.288  0.00  0.00    -0.059 A 
ATOM     33  H   LIG d   1       1.225  -1.574 -11.534  0.00  0.00     0.062 H 
ATOM     34  H   LIG d   1       1.626  -0.275  -9.481  0.00  0.00     0.062 H 
ENDBRANCH  21  24
ENDBRANCH  18  21
ENDBRANCH  15  18
BRANCH   1  35
ATOM     35  C   LIG d   1       4.293  -2.015  -7.636  0.00  0.00    -0.011 C 
ATOM     36  H   LIG d   1       4.456  -2.804  -6.901  0.00  0.00     0.033 H 
ATOM     37  H   LIG d   1       3.246  -2.011  -7.938  0.00  0.00     0.033 H 
BRANCH  35  38
ATOM     38  C   LIG d   1       5.163  -2.262  -8.841  0.00  0.00    -0.078 C 
ATOM     39  C   LIG d   1       4.779  -3.110  -9.763  0.00  0.00    -0.100 C 
ATOM     40  H   LIG d   1       5.402  -3.287 -10.627  0.00  0.00     0.053 H 
ATOM     41  H   LIG d   1       3.839  -3.632  -9.659  0.00  0.00     0.053 H 
BRANCH  38  42
ATOM     42  C   LIG d   1       6.474  -1.534  -8.986  0.00  0.00    -0.044 C 
ATOM     43  H   LIG d   1       6.609  -1.231 -10.023  0.00  0.00     0.027 H 
ATOM     44  H   LIG d   1       6.473  -0.652  -8.345  0.00  0.00     0.027 H 
ATOM     45  H   LIG d   1       7.291  -2.194  -8.691  0.00  0.00     0.027 H 
ENDBRANCH  38  42
ENDBRANCH  35  38
ENDBRANCH   1  35
BRANCH   9  46
ATOM     46  C   LIG d   1       4.269  -1.378  -2.324  0.00  0.00     0.048 C 
ATOM     47  O   LIG d   1       4.657  -1.144  -1.204  0.00  0.00    -0.549 OA
ATOM     48  O   LIG d   1       3.651  -2.539  -2.591  0.00  0.00    -0.549 OA
ENDBRANCH   9  46
TORSDOF 7
ENDMDL
MODEL 4
REMARK VINA RESULT:      -5.9      2.177      3.323
REMARK  7 active torsions:
REMARK  status: ('A' for Active; 'I' for Inactive)
REMARK    1  A    between atoms: C_1  and  C_2 
REMARK    2  A    between atoms: C_2  and  C_4 
REMARK    3  A    between atoms: C_4  and  C_5 
REMARK    4  A    between atoms: C_13  and  C_28 
REMARK    5  A    between atoms: N_19  and  C_20 
REMARK    6  A    between atoms: C_20  and  C_21 
REMARK    7  A    between atoms: C_21  and  C_22 
ROOT
ATOM      1  C   LIG d   1       5.060  -2.001  -5.722  0.00  0.00     0.063 C 
ATOM      2  H   LIG d   1       4.722  -1.950  -4.687  0.00  0.00     0.053 H 
ATOM      3  C   LIG d   1       5.019  -3.412  -6.218  0.00  0.00     0.119 C 
ATOM      4  C   LIG d   1       6.130  -4.390  -6.080  0.00  0.00    -0.051 C 
ATOM      5  C   LIG d   1       5.570  -5.557  -6.426  0.00  0.00    -0.056 C 
ATOM      6  C   LIG d   1       4.094  -5.280  -6.736  0.00  0.00     0.087 C 
ATOM      7  H   LIG d   1       3.429  -6.139  -6.654  0.00  0.00     0.065 H 
ATOM      8  O   LIG d   1       3.838  -4.157  -5.818  0.00  0.00    -0.359 OA
ATOM      9  C   LIG d   1       4.052  -4.524  -8.104  0.00  0.00     0.043 C 
ATOM     10  H   LIG d   1       3.023  -4.341  -8.415  0.00  0.00     0.040 H 
ATOM     11  C   LIG d   1       4.768  -3.207  -7.758  0.00  0.00     0.081 C 
ATOM     12  H   LIG d   1       5.684  -3.063  -8.329  0.00  0.00     0.043 H 
ATOM     13  C   LIG d   1       3.883  -1.992  -7.743  0.00  0.00     0.223 C 
ATOM     14  O   LIG d   1       3.083  -1.695  -8.605  0.00  0.00    -0.275 OA
ATOM     15  N   LIG d   1       4.121  -1.279  -6.613  0.00  0.00    -0.294 N 
ATOM     16  H   LIG d   1       7.149  -4.204  -5.775  0.00  0.00     0.060 H 
ATOM     17  H   LIG d   1       6.066  -6.515  -6.476  0.00  0.00     0.060 H 
ENDROOT
BRANCH  15  18
ATOM     18  C   LIG d   1       3.529   0.028  -6.314  0.00  0.00     0.019 C 
ATOM     19  H   LIG d   1       4.316   0.724  -6.020  0.00  0.00     0.047 H 
ATOM     20  H   LIG d   1       3.019   0.407  -7.199  0.00  0.00     0.047 H 
BRANCH  18  21
ATOM     21  C   LIG d   1       2.524  -0.118  -5.169  0.00  0.00    -0.012 C 
ATOM     22  H   LIG d   1       1.766   0.660  -5.250  0.00  0.00     0.033 H 
ATOM     23  H   LIG d   1       2.048  -1.096  -5.226  0.00  0.00     0.033 H 
BRANCH  21  24
ATOM     24  C   LIG d   1       3.242   0.015  -3.851  0.00  0.00    -0.046 A 
ATOM     25  C   LIG d   1       3.642   1.261  -3.404  0.00  0.00    -0.059 A 
ATOM     26  C   LIG d   1       4.301   1.383  -2.195  0.00  0.00    -0.061 A 
ATOM     27  H   LIG d   1       3.441   2.138  -4.001  0.00  0.00     0.062 H 
ATOM     28  C   LIG d   1       4.559   0.260  -1.432  0.00  0.00    -0.062 A 
ATOM     29  H   LIG d   1       4.613   2.356  -1.846  0.00  0.00     0.062 H 
ATOM     30  C   LIG d   1       4.157  -0.986  -1.877  0.00  0.00    -0.061 A 
ATOM     31  H   LIG d   1       5.073   0.355  -0.487  0.00  0.00     0.062 H 
ATOM     32  C   LIG d   1       3.495  -1.108  -3.085  0.00  0.00    -0.059 A 
ATOM     33  H   LIG d   1       4.359  -1.864  -1.282  0.00  0.00     0.062 H 
ATOM     34  H   LIG d   1       3.179  -2.080  -3.432  0.00  0.00     0.062 H 
ENDBRANCH  21  24
ENDBRANCH  18  21
ENDBRANCH  15  18
BRANCH   1  35
ATOM     35  C   LIG d   1       6.473  -1.427  -5.853  0.00  0.00    -0.011 C 
ATOM     36  H   LIG d   1       7.140  -2.190  -6.254  0.00  0.00     0.033 H 
ATOM     37  H   LIG d   1       6.456  -0.570  -6.527  0.00  0.00     0.033 H 
BRANCH  35  38
ATOM     38  C   LIG d   1       6.966  -0.990  -4.498  0.00  0.00    -0.078 C 
ATOM     39  C   LIG d   1       7.194   0.277  -4.261  0.00  0.00    -0.100 C 
ATOM     40  H   LIG d   1       7.547   0.590  -3.290  0.00  0.00     0.053 H 
ATOM     41  H   LIG d   1       7.030   1.010  -5.037  0.00  0.00     0.053 H 
BRANCH  38  42
ATOM     42  C   LIG d   1       7.196  -2.013  -3.415  0.00  0.00    -0.044 C 
ATOM     43  H   LIG d   1       7.069  -1.544  -2.440  0.00  0.00     0.027 H 
ATOM     44  H   LIG d   1       6.478  -2.826  -3.524  0.00  0.00     0.027 H 
ATOM     45  H   LIG d   1       8.208  -2.410  -3.499  0.00  0.00     0.027 H 
ENDBRANCH  38  42
ENDBRANCH  35  38
ENDBRANCH   1  35
BRANCH   9  46
ATOM     46  C   LIG d   1       4.806  -5.285  -9.164  0.00  0.00     0.048 C 
ATOM     47  O   LIG d   1       5.750  -4.775  -9.717  0.00  0.00    -0.549 OA
ATOM     48  O   LIG d   1       4.428  -6.530  -9.493  0.00  0.00    -0.549 OA
ENDBRANCH   9  46
TORSDOF 7
ENDMDL
MODEL 5
REMARK VINA RESULT:      -5.8      3.816      7.055
REMARK  7 active torsions:
REMARK  status: ('A' for Active; 'I' for Inactive)
REMARK    1  A    between atoms: C_1  and  C_2 
REMARK    2  A    between atoms: C_2  and  C_4 
REMARK    3  A    between atoms: C_4  and  C_5 
REMARK    4  A    between atoms: C_13  and  C_28 
REMARK    5  A    between atoms: N_19  and  C_20 
REMARK    6  A    between atoms: C_20  and  C_21 
REMARK    7  A    between atoms: C_21  and  C_22 
ROOT
ATOM      1  C   LIG d   1       4.670  -2.211  -5.747  0.00  0.00     0.063 C 
ATOM      2  H   LIG d   1       3.988  -3.036  -5.949  0.00  0.00     0.053 H 
ATOM      3  C   LIG d   1       4.124  -1.333  -4.664  0.00  0.00     0.119 C 
ATOM      4  C   LIG d   1       3.211  -0.182  -4.889  0.00  0.00    -0.051 C 
ATOM      5  C   LIG d   1       2.793   0.138  -3.657  0.00  0.00    -0.056 C 
ATOM      6  C   LIG d   1       3.433  -0.862  -2.686  0.00  0.00     0.087 C 
ATOM      7  H   LIG d   1       2.914  -0.989  -1.736  0.00  0.00     0.065 H 
ATOM      8  O   LIG d   1       3.524  -2.050  -3.553  0.00  0.00    -0.359 OA
ATOM      9  C   LIG d   1       4.947  -0.488  -2.583  0.00  0.00     0.043 C 
ATOM     10  H   LIG d   1       5.458  -1.128  -1.862  0.00  0.00     0.040 H 
ATOM     11  C   LIG d   1       5.439  -0.764  -4.014  0.00  0.00     0.081 C 
ATOM     12  H   LIG d   1       5.814   0.130  -4.510  0.00  0.00     0.043 H 
ATOM     13  C   LIG d   1       6.358  -1.946  -4.149  0.00  0.00     0.223 C 
ATOM     14  O   LIG d   1       7.315  -2.176  -3.441  0.00  0.00    -0.275 OA
ATOM     15  N   LIG d   1       5.948  -2.715  -5.190  0.00  0.00    -0.294 N 
ATOM     16  H   LIG d   1       2.947   0.289  -5.825  0.00  0.00     0.060 H 
ATOM     17  H   LIG d   1       2.128   0.947  -3.396  0.00  0.00     0.060 H 
ENDROOT
BRANCH  15  18
ATOM     18  C   LIG d   1       6.671  -3.886  -5.694  0.00  0.00     0.019 C 
ATOM     19  H   LIG d   1       7.336  -3.581  -6.503  0.00  0.00     0.047 H 
ATOM     20  H   LIG d   1       7.256  -4.326  -4.887  0.00  0.00     0.047 H 
BRANCH  18  21
ATOM     21  C   LIG d   1       5.669  -4.916  -6.219  0.00  0.00    -0.012 C 
ATOM     22  H   LIG d   1       4.664  -4.644  -5.894  0.00  0.00     0.033 H 
ATOM     23  H   LIG d   1       5.704  -4.936  -7.308  0.00  0.00     0.033 H 
BRANCH  21  24
ATOM     24  C   LIG d   1       6.019  -6.279  -5.679  0.00  0.00    -0.046 A 
ATOM     25  C   LIG d   1       5.040  -7.247  -5.558  0.00  0.00    -0.059 A 
ATOM     26  C   LIG d   1       5.363  -8.497  -5.062  0.00  0.00    -0.061 A 
ATOM     27  H   LIG d   1       4.025  -7.027  -5.849  0.00  0.00     0.062 H 
ATOM     28  C   LIG d   1       6.663  -8.778  -4.689  0.00  0.00    -0.062 A 
ATOM     29  H   LIG d   1       4.598  -9.253  -4.967  0.00  0.00     0.062 H 
ATOM     30  C   LIG d   1       7.643  -7.811  -4.813  0.00  0.00    -0.061 A 
ATOM     31  H   LIG d   1       6.915  -9.755  -4.302  0.00  0.00     0.062 H 
ATOM     32  C   LIG d   1       7.322  -6.562  -5.311  0.00  0.00    -0.059 A 
ATOM     33  H   LIG d   1       8.659  -8.030  -4.521  0.00  0.00     0.062 H 
ATOM     34  H   LIG d   1       8.087  -5.806  -5.410  0.00  0.00     0.062 H 
ENDBRANCH  21  24
ENDBRANCH  18  21
ENDBRANCH  15  18
BRANCH   1  35
ATOM     35  C   LIG d   1       4.923  -1.399  -7.020  0.00  0.00    -0.011 C 
ATOM     36  H   LIG d   1       4.895  -0.335  -6.784  0.00  0.00     0.033 H 
ATOM     37  H   LIG d   1       5.902  -1.656  -7.425  0.00  0.00     0.033 H 
BRANCH  35  38
ATOM     38  C   LIG d   1       3.858  -1.717  -8.037  0.00  0.00    -0.078 C 
ATOM     39  C   LIG d   1       3.769  -2.924  -8.537  0.00  0.00    -0.100 C 
ATOM     40  H   LIG d   1       3.006  -3.151  -9.267  0.00  0.00     0.053 H 
ATOM     41  H   LIG d   1       4.460  -3.692  -8.222  0.00  0.00     0.053 H 
BRANCH  38  42
ATOM     42  C   LIG d   1       2.895  -0.645  -8.478  0.00  0.00    -0.044 C 
ATOM     43  H   LIG d   1       3.383   0.008  -9.201  0.00  0.00     0.027 H 
ATOM     44  H   LIG d   1       2.022  -1.108  -8.938  0.00  0.00     0.027 H 
ATOM     45  H   LIG d   1       2.581  -0.059  -7.614  0.00  0.00     0.027 H 
ENDBRANCH  38  42
ENDBRANCH  35  38
ENDBRANCH   1  35
BRANCH   9  46
ATOM     46  C   LIG d   1       5.119   0.966  -2.224  0.00  0.00     0.048 C 
ATOM     47  O   LIG d   1       4.668   1.390  -1.187  0.00  0.00    -0.549 OA
ATOM     48  O   LIG d   1       5.773   1.790  -3.058  0.00  0.00    -0.549 OA
ENDBRANCH   9  46
TORSDOF 7
ENDMDL
MODEL 6
REMARK VINA RESULT:      -5.6      3.311      4.459
REMARK  7 active torsions:
REMARK  status: ('A' for Active; 'I' for Inactive)
REMARK    1  A    between atoms: C_1  and  C_2 
REMARK    2  A    between atoms: C_2  and  C_4 
REMARK    3  A    between atoms: C_4  and  C_5 
REMARK    4  A    between atoms: C_13  and  C_28 
REMARK    5  A    between atoms: N_19  and  C_20 
REMARK    6  A    between atoms: C_20  and  C_21 
REMARK    7  A    between atoms: C_21  and  C_22 
ROOT
ATOM      1  C   LIG d   1       6.886  -0.266  -6.073  0.00  0.00     0.063 C 
ATOM      2  H   LIG d   1       5.845  -0.408  -5.787  0.00  0.00     0.053 H 
ATOM      3  C   LIG d   1       6.977   0.355  -7.432  0.00  0.00     0.119 C 
ATOM      4  C   LIG d   1       7.001  -0.404  -8.710  0.00  0.00    -0.051 C 
ATOM      5  C   LIG d   1       6.834   0.541  -9.644  0.00  0.00    -0.056 C 
ATOM      6  C   LIG d   1       6.668   1.879  -8.914  0.00  0.00     0.087 C 
ATOM      7  H   LIG d   1       6.152   2.657  -9.475  0.00  0.00     0.065 H 
ATOM      8  O   LIG d   1       6.021   1.422  -7.671  0.00  0.00    -0.359 OA
ATOM      9  C   LIG d   1       8.075   2.270  -8.357  0.00  0.00     0.043 C 
ATOM     10  H   LIG d   1       8.043   3.244  -7.868  0.00  0.00     0.040 H 
ATOM     11  C   LIG d   1       8.333   1.148  -7.336  0.00  0.00     0.081 C 
ATOM     12  H   LIG d   1       9.204   0.544  -7.586  0.00  0.00     0.043 H 
ATOM     13  C   LIG d   1       8.307   1.584  -5.898  0.00  0.00     0.223 C 
ATOM     14  O   LIG d   1       8.881   2.553  -5.448  0.00  0.00    -0.275 OA
ATOM     15  N   LIG d   1       7.542   0.721  -5.182  0.00  0.00    -0.294 N 
ATOM     16  H   LIG d   1       7.125  -1.468  -8.852  0.00  0.00     0.060 H 
ATOM     17  H   LIG d   1       6.818   0.389 -10.713  0.00  0.00     0.060 H 
ENDROOT
BRANCH  15  18
ATOM     18  C   LIG d   1       7.383   0.761  -3.726  0.00  0.00     0.019 C 
ATOM     19  H   LIG d   1       7.395  -0.256  -3.332  0.00  0.00     0.047 H 
ATOM     20  H   LIG d   1       8.201   1.331  -3.287  0.00  0.00     0.047 H 
BRANCH  18  21
ATOM     21  C   LIG d   1       6.051   1.428  -3.377  0.00  0.00    -0.012 C 
ATOM     22  H   LIG d   1       6.172   2.033  -2.479  0.00  0.00     0.033 H 
ATOM     23  H   LIG d   1       5.735   2.064  -4.203  0.00  0.00     0.033 H 
BRANCH  21  24
ATOM     24  C   LIG d   1       5.008   0.367  -3.131  0.00  0.00    -0.046 A 
ATOM     25  C   LIG d   1       5.281  -0.686  -2.278  0.00  0.00    -0.059 A 
ATOM     26  C   LIG d   1       4.324  -1.658  -2.053  0.00  0.00    -0.061 A 
ATOM     27  H   LIG d   1       6.240  -0.749  -1.788  0.00  0.00     0.062 H 
ATOM     28  C   LIG d   1       3.095  -1.578  -2.681  0.00  0.00    -0.062 A 
ATOM     29  H   LIG d   1       4.537  -2.480  -1.387  0.00  0.00     0.062 H 
ATOM     30  C   LIG d   1       2.822  -0.524  -3.533  0.00  0.00    -0.061 A 
ATOM     31  H   LIG d   1       2.348  -2.337  -2.506  0.00  0.00     0.062 H 
ATOM     32  C   LIG d   1       3.777   0.451  -3.755  0.00  0.00    -0.059 A 
ATOM     33  H   LIG d   1       1.863  -0.460  -4.024  0.00  0.00     0.062 H 
ATOM     34  H   LIG d   1       3.563   1.276  -4.418  0.00  0.00     0.062 H 
ENDBRANCH  21  24
ENDBRANCH  18  21
ENDBRANCH  15  18
BRANCH   1  35
ATOM     35  C   LIG d   1       7.638  -1.599  -6.042  0.00  0.00    -0.011 C 
ATOM     36  H   LIG d   1       7.628  -2.045  -7.036  0.00  0.00     0.033 H 
ATOM     37  H   LIG d   1       8.669  -1.427  -5.731  0.00  0.00     0.033 H 
BRANCH  35  38
ATOM     38  C   LIG d   1       6.967  -2.530  -5.066  0.00  0.00    -0.078 C 
ATOM     39  C   LIG d   1       5.739  -2.931  -5.281  0.00  0.00    -0.100 C 
ATOM     40  H   LIG d   1       5.259  -3.599  -4.582  0.00  0.00     0.053 H 
ATOM     41  H   LIG d   1       5.206  -2.593  -6.158  0.00  0.00     0.053 H 
BRANCH  38  42
ATOM     42  C   LIG d   1       7.710  -3.001  -3.842  0.00  0.00    -0.044 C 
ATOM     43  H   LIG d   1       7.302  -2.513  -2.958  0.00  0.00     0.027 H 
ATOM     44  H   LIG d   1       7.601  -4.081  -3.744  0.00  0.00     0.027 H 
ATOM     45  H   LIG d   1       8.767  -2.751  -3.939  0.00  0.00     0.027 H 
ENDBRANCH  38  42
ENDBRANCH  35  38
ENDBRANCH   1  35
BRANCH   9  46
ATOM     46  C   LIG d   1       9.112   2.252  -9.451  0.00  0.00     0.048 C 
ATOM     47  O   LIG d   1       9.078   3.082 -10.328  0.00  0.00    -0.549 OA
ATOM     48  O   LIG d   1      10.071   1.314  -9.452  0.00  0.00    -0.549 OA
ENDBRANCH   9  46
TORSDOF 7
ENDMDL
MODEL 7
REMARK VINA RESULT:      -5.6      3.494      7.048
REMARK  7 active torsions:
REMARK  status: ('A' for Active; 'I' for Inactive)
REMARK    1  A    between atoms: C_1  and  C_2 
REMARK    2  A    between atoms: C_2  and  C_4 
REMARK    3  A    between atoms: C_4  and  C_5 
REMARK    4  A    between atoms: C_13  and  C_28 
REMARK    5  A    between atoms: N_19  and  C_20 
REMARK    6  A    between atoms: C_20  and  C_21 
REMARK    7  A    between atoms: C_21  and  C_22 
ROOT
ATOM      1  C   LIG d   1       4.904  -2.266  -5.920  0.00  0.00     0.063 C 
ATOM      2  H   LIG d   1       4.217  -3.063  -6.201  0.00  0.00     0.053 H 
ATOM      3  C   LIG d   1       4.298  -1.400  -4.860  0.00  0.00     0.119 C 
ATOM      4  C   LIG d   1       3.440  -0.215  -5.124  0.00  0.00    -0.051 C 
ATOM      5  C   LIG d   1       2.933   0.084  -3.921  0.00  0.00    -0.056 C 
ATOM      6  C   LIG d   1       3.462  -0.961  -2.931  0.00  0.00     0.087 C 
ATOM      7  H   LIG d   1       2.864  -1.098  -2.030  0.00  0.00     0.065 H 
ATOM      8  O   LIG d   1       3.589  -2.128  -3.822  0.00  0.00    -0.359 OA
ATOM      9  C   LIG d   1       4.973  -0.639  -2.694  0.00  0.00     0.043 C 
ATOM     10  H   LIG d   1       5.404  -1.314  -1.955  0.00  0.00     0.040 H 
ATOM     11  C   LIG d   1       5.572  -0.891  -4.089  0.00  0.00     0.081 C 
ATOM     12  H   LIG d   1       6.012   0.004  -4.527  0.00  0.00     0.043 H 
ATOM     13  C   LIG d   1       6.464  -2.098  -4.185  0.00  0.00     0.223 C 
ATOM     14  O   LIG d   1       7.353  -2.377  -3.409  0.00  0.00    -0.275 OA
ATOM     15  N   LIG d   1       6.117  -2.825  -5.277  0.00  0.00    -0.294 N 
ATOM     16  H   LIG d   1       3.268   0.288  -6.064  0.00  0.00     0.060 H 
ATOM     17  H   LIG d   1       2.273   0.907  -3.690  0.00  0.00     0.060 H 
ENDROOT
BRANCH  15  18
ATOM     18  C   LIG d   1       6.844  -4.004  -5.756  0.00  0.00     0.019 C 
ATOM     19  H   LIG d   1       7.133  -3.854  -6.797  0.00  0.00     0.047 H 
ATOM     20  H   LIG d   1       7.736  -4.153  -5.148  0.00  0.00     0.047 H 
BRANCH  18  21
ATOM     21  C   LIG d   1       5.942  -5.235  -5.650  0.00  0.00    -0.012 C 
ATOM     22  H   LIG d   1       6.497  -6.054  -5.192  0.00  0.00     0.033 H 
ATOM     23  H   LIG d   1       5.073  -4.998  -5.037  0.00  0.00     0.033 H 
BRANCH  21  24
ATOM     24  C   LIG d   1       5.489  -5.646  -7.027  0.00  0.00    -0.046 A 
ATOM     25  C   LIG d   1       6.420  -6.014  -7.981  0.00  0.00    -0.059 A 
ATOM     26  C   LIG d   1       6.003  -6.390  -9.244  0.00  0.00    -0.061 A 
ATOM     27  H   LIG d   1       7.472  -6.007  -7.739  0.00  0.00     0.062 H 
ATOM     28  C   LIG d   1       4.657  -6.398  -9.554  0.00  0.00    -0.062 A 
ATOM     29  H   LIG d   1       6.730  -6.677  -9.989  0.00  0.00     0.062 H 
ATOM     30  C   LIG d   1       3.725  -6.032  -8.600  0.00  0.00    -0.061 A 
ATOM     31  H   LIG d   1       4.331  -6.692 -10.541  0.00  0.00     0.062 H 
ATOM     32  C   LIG d   1       4.141  -5.659  -7.335  0.00  0.00    -0.059 A 
ATOM     33  H   LIG d   1       2.673  -6.038  -8.842  0.00  0.00     0.062 H 
ATOM     34  H   LIG d   1       3.414  -5.376  -6.589  0.00  0.00     0.062 H 
ENDBRANCH  21  24
ENDBRANCH  18  21
ENDBRANCH  15  18
BRANCH   1  35
ATOM     35  C   LIG d   1       5.284  -1.428  -7.144  0.00  0.00    -0.011 C 
ATOM     36  H   LIG d   1       4.797  -0.455  -7.083  0.00  0.00     0.033 H 
ATOM     37  H   LIG d   1       6.365  -1.293  -7.170  0.00  0.00     0.033 H 
BRANCH  35  38
ATOM     38  C   LIG d   1       4.836  -2.137  -8.395  0.00  0.00    -0.078 C 
ATOM     39  C   LIG d   1       5.723  -2.611  -9.234  0.00  0.00    -0.100 C 
ATOM     40  H   LIG d   1       5.402  -3.119 -10.131  0.00  0.00     0.053 H 
ATOM     41  H   LIG d   1       6.778  -2.493  -9.028  0.00  0.00     0.053 H 
BRANCH  38  42
ATOM     42  C   LIG d   1       3.365  -2.301  -8.683  0.00  0.00    -0.044 C 
ATOM     43  H   LIG d   1       2.996  -3.198  -8.188  0.00  0.00     0.027 H 
ATOM     44  H   LIG d   1       2.823  -1.431  -8.312  0.00  0.00     0.027 H 
ATOM     45  H   LIG d   1       3.213  -2.391  -9.759  0.00  0.00     0.027 H 
ENDBRANCH  38  42
ENDBRANCH  35  38
ENDBRANCH   1  35
BRANCH   9  46
ATOM     46  C   LIG d   1       5.158   0.799  -2.281  0.00  0.00     0.048 C 
ATOM     47  O   LIG d   1       4.683   1.195  -1.243  0.00  0.00    -0.549 OA
ATOM     48  O   LIG d   1       5.851   1.639  -3.066  0.00  0.00    -0.549 OA
ENDBRANCH   9  46
TORSDOF 7
ENDMDL
MODEL 8
REMARK VINA RESULT:      -5.3      3.979      6.738
REMARK  7 active torsions:
REMARK  status: ('A' for Active; 'I' for Inactive)
REMARK    1  A    between atoms: C_1  and  C_2 
REMARK    2  A    between atoms: C_2  and  C_4 
REMARK    3  A    between atoms: C_4  and  C_5 
REMARK    4  A    between atoms: C_13  and  C_28 
REMARK    5  A    between atoms: N_19  and  C_20 
REMARK    6  A    between atoms: C_20  and  C_21 
REMARK    7  A    between atoms: C_21  and  C_22 
ROOT
ATOM      1  C   LIG d   1       6.102  -2.507  -4.966  0.00  0.00     0.063 C 
ATOM      2  H   LIG d   1       6.698  -3.318  -4.549  0.00  0.00     0.053 H 
ATOM      3  C   LIG d   1       5.282  -1.854  -3.897  0.00  0.00     0.119 C 
ATOM      4  C   LIG d   1       3.923  -2.294  -3.487  0.00  0.00    -0.051 C 
ATOM      5  C   LIG d   1       3.692  -1.604  -2.362  0.00  0.00    -0.056 C 
ATOM      6  C   LIG d   1       4.947  -0.771  -2.073  0.00  0.00     0.087 C 
ATOM      7  H   LIG d   1       5.079  -0.468  -1.035  0.00  0.00     0.065 H 
ATOM      8  O   LIG d   1       5.984  -1.650  -2.641  0.00  0.00    -0.359 OA
ATOM      9  C   LIG d   1       4.973   0.388  -3.122  0.00  0.00     0.043 C 
ATOM     10  H   LIG d   1       5.816   1.057  -2.941  0.00  0.00     0.040 H 
ATOM     11  C   LIG d   1       5.152  -0.383  -4.440  0.00  0.00     0.081 C 
ATOM     12  H   LIG d   1       4.315  -0.249  -5.124  0.00  0.00     0.043 H 
ATOM     13  C   LIG d   1       6.491  -0.204  -5.101  0.00  0.00     0.223 C 
ATOM     14  O   LIG d   1       7.047   0.858  -5.283  0.00  0.00    -0.275 OA
ATOM     15  N   LIG d   1       6.978  -1.418  -5.462  0.00  0.00    -0.294 N 
ATOM     16  H   LIG d   1       3.273  -3.001  -3.980  0.00  0.00     0.060 H 
ATOM     17  H   LIG d   1       2.791  -1.630  -1.768  0.00  0.00     0.060 H 
ENDROOT
BRANCH  15  18
ATOM     18  C   LIG d   1       8.205  -1.626  -6.236  0.00  0.00     0.019 C 
ATOM     19  H   LIG d   1       8.093  -2.511  -6.863  0.00  0.00     0.047 H 
ATOM     20  H   LIG d   1       8.389  -0.755  -6.865  0.00  0.00     0.047 H 
BRANCH  18  21
ATOM     21  C   LIG d   1       9.383  -1.823  -5.280  0.00  0.00    -0.012 C 
ATOM     22  H   LIG d   1      10.304  -1.507  -5.769  0.00  0.00     0.033 H 
ATOM     23  H   LIG d   1       9.226  -1.228  -4.381  0.00  0.00     0.033 H 
BRANCH  21  24
ATOM     24  C   LIG d   1       9.487  -3.280  -4.906  0.00  0.00    -0.046 A 
ATOM     25  C   LIG d   1       9.853  -4.214  -5.857  0.00  0.00    -0.059 A 
ATOM     26  C   LIG d   1       9.948  -5.549  -5.514  0.00  0.00    -0.061 A 
ATOM     27  H   LIG d   1      10.064  -3.900  -6.868  0.00  0.00     0.062 H 
ATOM     28  C   LIG d   1       9.678  -5.951  -4.219  0.00  0.00    -0.062 A 
ATOM     29  H   LIG d   1      10.234  -6.279  -6.257  0.00  0.00     0.062 H 
ATOM     30  C   LIG d   1       9.314  -5.017  -3.267  0.00  0.00    -0.061 A 
ATOM     31  H   LIG d   1       9.752  -6.994  -3.950  0.00  0.00     0.062 H 
ATOM     32  C   LIG d   1       9.222  -3.681  -3.609  0.00  0.00    -0.059 A 
ATOM     33  H   LIG d   1       9.103  -5.331  -2.256  0.00  0.00     0.062 H 
ATOM     34  H   LIG d   1       8.941  -2.951  -2.865  0.00  0.00     0.062 H 
ENDBRANCH  21  24
ENDBRANCH  18  21
ENDBRANCH  15  18
BRANCH   1  35
ATOM     35  C   LIG d   1       5.202  -3.025  -6.091  0.00  0.00    -0.011 C 
ATOM     36  H   LIG d   1       4.188  -2.653  -5.945  0.00  0.00     0.033 H 
ATOM     37  H   LIG d   1       5.582  -2.675  -7.050  0.00  0.00     0.033 H 
BRANCH  35  38
ATOM     38  C   LIG d   1       5.193  -4.531  -6.072  0.00  0.00    -0.078 C 
ATOM     39  C   LIG d   1       6.232  -5.188  -5.619  0.00  0.00    -0.100 C 
ATOM     40  H   LIG d   1       6.225  -6.267  -5.606  0.00  0.00     0.053 H 
ATOM     41  H   LIG d   1       7.097  -4.649  -5.260  0.00  0.00     0.053 H 
BRANCH  38  42
ATOM     42  C   LIG d   1       3.987  -5.284  -6.574  0.00  0.00    -0.044 C 
ATOM     43  H   LIG d   1       3.676  -6.013  -5.827  0.00  0.00     0.027 H 
ATOM     44  H   LIG d   1       3.173  -4.583  -6.761  0.00  0.00     0.027 H 
ATOM     45  H   LIG d   1       4.241  -5.800  -7.501  0.00  0.00     0.027 H 
ENDBRANCH  38  42
ENDBRANCH  35  38
ENDBRANCH   1  35
BRANCH   9  46
ATOM     46  C   LIG d   1       3.673   1.150  -3.115  0.00  0.00     0.048 C 
ATOM     47  O   LIG d   1       3.247   1.608  -2.082  0.00  0.00    -0.549 OA
ATOM     48  O   LIG d   1       2.988   1.319  -4.257  0.00  0.00    -0.549 OA
ENDBRANCH   9  46
TORSDOF 7
ENDMDL
MODEL 9
REMARK VINA RESULT:      -5.3      2.197      4.383
REMARK  7 active torsions:
REMARK  status: ('A' for Active; 'I' for Inactive)
REMARK    1  A    between atoms: C_1  and  C_2 
REMARK    2  A    between atoms: C_2  and  C_4 
REMARK    3  A    between atoms: C_4  and  C_5 
REMARK    4  A    between atoms: C_13  and  C_28 
REMARK    5  A    between atoms: N_19  and  C_20 
REMARK    6  A    between atoms: C_20  and  C_21 
REMARK    7  A    between atoms: C_21  and  C_22 
ROOT
ATOM      1  C   LIG d   1       4.673  -0.694  -5.121  0.00  0.00     0.063 C 
ATOM      2  H   LIG d   1       5.073   0.161  -4.577  0.00  0.00     0.053 H 
ATOM      3  C   LIG d   1       4.189  -0.274  -6.475  0.00  0.00     0.119 C 
ATOM      4  C   LIG d   1       2.818   0.222  -6.766  0.00  0.00    -0.051 C 
ATOM      5  C   LIG d   1       2.914   0.705  -8.012  0.00  0.00    -0.056 C 
ATOM      6  C   LIG d   1       4.371   0.532  -8.457  0.00  0.00     0.087 C 
ATOM      7  H   LIG d   1       4.699   1.199  -9.254  0.00  0.00     0.065 H 
ATOM      8  O   LIG d   1       5.060   0.664  -7.161  0.00  0.00    -0.359 OA
ATOM      9  C   LIG d   1       4.587  -0.993  -8.721  0.00  0.00     0.043 C 
ATOM     10  H   LIG d   1       5.593  -1.185  -9.096  0.00  0.00     0.040 H 
ATOM     11  C   LIG d   1       4.397  -1.587  -7.315  0.00  0.00     0.081 C 
ATOM     12  H   LIG d   1       3.553  -2.274  -7.258  0.00  0.00     0.043 H 
ATOM     13  C   LIG d   1       5.649  -2.133  -6.686  0.00  0.00     0.223 C 
ATOM     14  O   LIG d   1       6.445  -2.868  -7.230  0.00  0.00    -0.275 OA
ATOM     15  N   LIG d   1       5.746  -1.674  -5.412  0.00  0.00    -0.294 N 
ATOM     16  H   LIG d   1       1.949   0.198  -6.125  0.00  0.00     0.060 H 
ATOM     17  H   LIG d   1       2.114   1.137  -8.594  0.00  0.00     0.060 H 
ENDROOT
BRANCH  15  18
ATOM     18  C   LIG d   1       6.773  -2.091  -4.454  0.00  0.00     0.019 C 
ATOM     19  H   LIG d   1       6.411  -2.948  -3.884  0.00  0.00     0.047 H 
ATOM     20  H   LIG d   1       7.680  -2.369  -4.991  0.00  0.00     0.047 H 
BRANCH  18  21
ATOM     21  C   LIG d   1       7.079  -0.935  -3.500  0.00  0.00    -0.012 C 
ATOM     22  H   LIG d   1       6.146  -0.537  -3.101  0.00  0.00     0.033 H 
ATOM     23  H   LIG d   1       7.699  -1.295  -2.680  0.00  0.00     0.033 H 
BRANCH  21  24
ATOM     24  C   LIG d   1       7.811   0.151  -4.245  0.00  0.00    -0.046 A 
ATOM     25  C   LIG d   1       7.554   1.480  -3.958  0.00  0.00    -0.059 A 
ATOM     26  C   LIG d   1       8.226   2.476  -4.642  0.00  0.00    -0.061 A 
ATOM     27  H   LIG d   1       6.829   1.738  -3.202  0.00  0.00     0.062 H 
ATOM     28  C   LIG d   1       9.153   2.145  -5.611  0.00  0.00    -0.062 A 
ATOM     29  H   LIG d   1       8.025   3.513  -4.419  0.00  0.00     0.062 H 
ATOM     30  C   LIG d   1       9.412   0.817  -5.897  0.00  0.00    -0.061 A 
ATOM     31  H   LIG d   1       9.678   2.923  -6.146  0.00  0.00     0.062 H 
ATOM     32  C   LIG d   1       8.743  -0.180  -5.211  0.00  0.00    -0.059 A 
ATOM     33  H   LIG d   1      10.136   0.558  -6.654  0.00  0.00     0.062 H 
ATOM     34  H   LIG d   1       8.946  -1.217  -5.431  0.00  0.00     0.062 H 
ENDBRANCH  21  24
ENDBRANCH  18  21
ENDBRANCH  15  18
BRANCH   1  35
ATOM     35  C   LIG d   1       3.543  -1.354  -4.329  0.00  0.00    -0.011 C 
ATOM     36  H   LIG d   1       2.582  -1.002  -4.703  0.00  0.00     0.033 H 
ATOM     37  H   LIG d   1       3.603  -2.437  -4.444  0.00  0.00     0.033 H 
BRANCH  35  38
ATOM     38  C   LIG d   1       3.676  -0.996  -2.871  0.00  0.00    -0.078 C 
ATOM     39  C   LIG d   1       3.920  -1.930  -1.987  0.00  0.00    -0.100 C 
ATOM     40  H   LIG d   1       4.016  -1.673  -0.942  0.00  0.00     0.053 H 
ATOM     41  H   LIG d   1       4.026  -2.958  -2.301  0.00  0.00     0.053 H 
BRANCH  38  42
ATOM     42  C   LIG d   1       3.528   0.438  -2.432  0.00  0.00    -0.044 C 
ATOM     43  H   LIG d   1       3.451   1.081  -3.308  0.00  0.00     0.027 H 
ATOM     44  H   LIG d   1       2.630   0.541  -1.824  0.00  0.00     0.027 H 
ATOM     45  H   LIG d   1       4.399   0.729  -1.843  0.00  0.00     0.027 H 
ENDBRANCH  38  42
ENDBRANCH  35  38
ENDBRANCH   1  35
BRANCH   9  46
ATOM     46  C   LIG d   1       3.549  -1.526  -9.676  0.00  0.00     0.048 C 
ATOM     47  O   LIG d   1       2.810  -2.417  -9.329  0.00  0.00    -0.549 OA
ATOM     48  O   LIG d   1       3.446  -1.012 -10.911  0.00  0.00    -0.549 OA
ENDBRANCH   9  46
TORSDOF 7
ENDMDL
MODEL 10
REMARK VINA RESULT:      -5.2     10.115     12.068
REMARK  7 active torsions:
REMARK  status: ('A' for Active; 'I' for Inactive)
REMARK    1  A    between atoms: C_1  and  C_2 
REMARK    2  A    between atoms: C_2  and  C_4 
REMARK    3  A    between atoms: C_4  and  C_5 
REMARK    4  A    between atoms: C_13  and  C_28 
REMARK    5  A    between atoms: N_19  and  C_20 
REMARK    6  A    between atoms: C_20  and  C_21 
REMARK    7  A    between atoms: C_21  and  C_22 
ROOT
ATOM      1  C   LIG d   1       8.020  -9.929  -2.536  0.00  0.00     0.063 C 
ATOM      2  H   LIG d   1       8.964 -10.241  -2.980  0.00  0.00     0.053 H 
ATOM      3  C   LIG d   1       6.889 -10.170  -3.487  0.00  0.00     0.119 C 
ATOM      4  C   LIG d   1       6.428  -9.200  -4.515  0.00  0.00    -0.051 C 
ATOM      5  C   LIG d   1       5.592  -9.918  -5.277  0.00  0.00    -0.056 C 
ATOM      6  C   LIG d   1       5.584 -11.348  -4.721  0.00  0.00     0.087 C 
ATOM      7  H   LIG d   1       5.280 -12.122  -5.425  0.00  0.00     0.065 H 
ATOM      8  O   LIG d   1       6.959 -11.435  -4.198  0.00  0.00    -0.359 OA
ATOM      9  C   LIG d   1       4.787 -11.308  -3.377  0.00  0.00     0.043 C 
ATOM     10  H   LIG d   1       4.694 -12.307  -2.950  0.00  0.00     0.040 H 
ATOM     11  C   LIG d   1       5.685 -10.414  -2.504  0.00  0.00     0.081 C 
ATOM     12  H   LIG d   1       5.189  -9.496  -2.193  0.00  0.00     0.043 H 
ATOM     13  C   LIG d   1       6.378 -11.125  -1.376  0.00  0.00     0.223 C 
ATOM     14  O   LIG d   1       5.849 -11.890  -0.598  0.00  0.00    -0.275 OA
ATOM     15  N   LIG d   1       7.689 -10.775  -1.364  0.00  0.00    -0.294 N 
ATOM     16  H   LIG d   1       6.700  -8.160  -4.623  0.00  0.00     0.060 H 
ATOM     17  H   LIG d   1       5.029  -9.559  -6.125  0.00  0.00     0.060 H 
ENDROOT
BRANCH  15  18
ATOM     18  C   LIG d   1       8.649 -11.179  -0.334  0.00  0.00     0.019 C 
ATOM     19  H   LIG d   1       8.665 -10.432   0.461  0.00  0.00     0.047 H 
ATOM     20  H   LIG d   1       8.354 -12.144   0.079  0.00  0.00     0.047 H 
BRANCH  18  21
ATOM     21  C   LIG d   1      10.044 -11.294  -0.953  0.00  0.00    -0.012 C 
ATOM     22  H   LIG d   1      10.473 -12.265  -0.706  0.00  0.00     0.033 H 
ATOM     23  H   LIG d   1       9.970 -11.194  -2.035  0.00  0.00     0.033 H 
BRANCH  21  24
ATOM     24  C   LIG d   1      10.927 -10.201  -0.407  0.00  0.00    -0.046 A 
ATOM     25  C   LIG d   1      12.138  -9.923  -1.013  0.00  0.00    -0.059 A 
ATOM     26  C   LIG d   1      12.947  -8.921  -0.511  0.00  0.00    -0.061 A 
ATOM     27  H   LIG d   1      12.451 -10.489  -1.877  0.00  0.00     0.062 H 
ATOM     28  C   LIG d   1      12.547  -8.197   0.596  0.00  0.00    -0.062 A 
ATOM     29  H   LIG d   1      13.893  -8.704  -0.985  0.00  0.00     0.062 H 
ATOM     30  C   LIG d   1      11.335  -8.474   1.201  0.00  0.00    -0.061 A 
ATOM     31  H   LIG d   1      13.179  -7.415   0.988  0.00  0.00     0.062 H 
ATOM     32  C   LIG d   1      10.523  -9.473   0.698  0.00  0.00    -0.059 A 
ATOM     33  H   LIG d   1      11.021  -7.909   2.066  0.00  0.00     0.062 H 
ATOM     34  H   LIG d   1       9.575  -9.688   1.168  0.00  0.00     0.062 H 
ENDBRANCH  21  24
ENDBRANCH  18  21
ENDBRANCH  15  18
BRANCH   1  35
ATOM     35  C   LIG d   1       8.077  -8.454  -2.133  0.00  0.00    -0.011 C 
ATOM     36  H   LIG d   1       7.256  -7.915  -2.607  0.00  0.00     0.033 H 
ATOM     37  H   LIG d   1       7.989  -8.369  -1.050  0.00  0.00     0.033 H 
BRANCH  35  38
ATOM     38  C   LIG d   1       9.389  -7.863  -2.578  0.00  0.00    -0.078 C 
ATOM     39  C   LIG d   1      10.021  -8.370  -3.607  0.00  0.00    -0.100 C 
ATOM     40  H   LIG d   1      10.962  -7.947  -3.926  0.00  0.00     0.053 H 
ATOM     41  H   LIG d   1       9.602  -9.213  -4.137  0.00  0.00     0.053 H 
BRANCH  38  42
ATOM     42  C   LIG d   1       9.975  -6.687  -1.840  0.00  0.00    -0.044 C 
ATOM     43  H   LIG d   1      10.540  -7.043  -0.979  0.00  0.00     0.027 H 
ATOM     44  H   LIG d   1      10.636  -6.132  -2.505  0.00  0.00     0.027 H 
ATOM     45  H   LIG d   1       9.171  -6.033  -1.501  0.00  0.00     0.027 H 
ENDBRANCH  38  42
ENDBRANCH  35  38
ENDBRANCH   1  35
BRANCH   9  46
ATOM     46  C   LIG d   1       3.430 -10.681  -3.574  0.00  0.00     0.048 C 
ATOM     47  O   LIG d   1       3.189  -9.600  -3.091  0.00  0.00    -0.549 OA
ATOM     48  O   LIG d   1       2.491 -11.323  -4.286  0.00  0.00    -0.549 OA
ENDBRANCH   9  46
TORSDOF 7
ENDMDL
