MODEL 1
REMARK VINA RESULT:      -6.7      0.000      0.000
REMARK  6 active torsions:
REMARK  status: ('A' for Active; 'I' for Inactive)
REMARK    1  A    between atoms: C_1  and  C_2 
REMARK    2  A    between atoms: C_17  and  C_29 
REMARK    3  A    between atoms: C_22  and  C_23 
REMARK    4  A    between atoms: C_22  and  O_28 
REMARK    5  A    between atoms: C_23  and  C_24 
REMARK    6  A    between atoms: C_24  and  C_25 
ROOT
ATOM      1  C   LIG d   1       7.596  -0.216  -6.312  0.00  0.00    -0.003 C 
ATOM      2  C   LIG d   1       6.788  -0.379  -7.601  0.00  0.00    -0.036 C 
ATOM      3  C   LIG d   1       7.542   0.221  -8.788  0.00  0.00     0.011 C 
ATOM      4  C   LIG d   1       7.851   1.668  -8.498  0.00  0.00     0.156 C 
ATOM      5  O   LIG d   1       7.872   2.479  -9.403  0.00  0.00    -0.293 OA
ATOM      6  C   LIG d   1       8.111   2.076  -7.181  0.00  0.00    -0.015 C 
ATOM      7  C   LIG d   1       8.014   1.218  -6.142  0.00  0.00    -0.038 C 
ATOM      8  C   LIG d   1       8.332   1.696  -4.786  0.00  0.00    -0.062 C 
ATOM      9  C   LIG d   1       7.473   1.319  -3.819  0.00  0.00    -0.080 C 
ATOM     10  C   LIG d   1       6.302   0.461  -4.238  0.00  0.00    -0.016 C 
ATOM     11  H   LIG d   1       5.602   1.079  -4.798  0.00  0.00     0.035 H 
ATOM     12  C   LIG d   1       6.763  -0.683  -5.124  0.00  0.00    -0.025 C 
ATOM     13  H   LIG d   1       7.374  -1.360  -4.523  0.00  0.00     0.032 H 
ATOM     14  C   LIG d   1       5.522  -1.445  -5.602  0.00  0.00    -0.048 C 
ATOM     15  C   LIG d   1       4.819  -2.047  -4.394  0.00  0.00    -0.044 C 
ATOM     16  C   LIG d   1       4.485  -1.065  -3.302  0.00  0.00     0.000 C 
ATOM     17  C   LIG d   1       5.608  -0.067  -2.982  0.00  0.00    -0.026 C 
ATOM     18  H   LIG d   1       6.337  -0.497  -2.281  0.00  0.00     0.031 H 
ATOM     19  C   LIG d   1       4.854   1.137  -2.349  0.00  0.00    -0.046 C 
ATOM     20  C   LIG d   1       3.542   1.204  -3.159  0.00  0.00    -0.023 C 
ATOM     21  C   LIG d   1       3.200  -0.264  -3.497  0.00  0.00     0.072 C 
ATOM     22  H   LIG d   1       6.613  -1.440  -7.791  0.00  0.00     0.028 H 
ATOM     23  H   LIG d   1       5.827   0.129  -7.496  0.00  0.00     0.028 H 
ATOM     24  H   LIG d   1       8.464  -0.325  -8.971  0.00  0.00     0.035 H 
ATOM     25  H   LIG d   1       6.912   0.162  -9.681  0.00  0.00     0.035 H 
ATOM     26  H   LIG d   1       8.396   3.101  -6.993  0.00  0.00     0.066 H 
ATOM     27  H   LIG d   1       9.196   2.309  -4.584  0.00  0.00     0.062 H 
ATOM     28  H   LIG d   1       7.615   1.614  -2.791  0.00  0.00     0.058 H 
ATOM     29  H   LIG d   1       4.865  -0.777  -6.149  0.00  0.00     0.027 H 
ATOM     30  H   LIG d   1       5.836  -2.255  -6.271  0.00  0.00     0.027 H 
ATOM     31  H   LIG d   1       3.927  -2.585  -4.710  0.00  0.00     0.027 H 
ATOM     32  H   LIG d   1       5.495  -2.805  -3.961  0.00  0.00     0.027 H 
ATOM     33  H   LIG d   1       4.649   0.959  -1.295  0.00  0.00     0.027 H 
ATOM     34  H   LIG d   1       5.425   2.058  -2.474  0.00  0.00     0.027 H 
ATOM     35  H   LIG d   1       2.749   1.645  -2.559  0.00  0.00     0.029 H 
ATOM     36  H   LIG d   1       3.690   1.774  -4.074  0.00  0.00     0.029 H 
ENDROOT
BRANCH  21  37
ATOM     37  C   LIG d   1       2.640  -0.354  -4.913  0.00  0.00    -0.018 C 
ATOM     38  H   LIG d   1       3.187  -1.114  -5.472  0.00  0.00     0.030 H 
ATOM     39  H   LIG d   1       1.585  -0.624  -4.870  0.00  0.00     0.030 H 
BRANCH  37  40
ATOM     40  C   LIG d   1       2.792   0.999  -5.610  0.00  0.00    -0.011 C 
ATOM     41  H   LIG d   1       1.914   1.613  -5.407  0.00  0.00     0.033 H 
ATOM     42  H   LIG d   1       3.682   1.503  -5.235  0.00  0.00     0.033 H 
BRANCH  40  43
ATOM     43  C   LIG d   1       2.924   0.787  -7.096  0.00  0.00     0.042 C 
ATOM     44  O   LIG d   1       3.173   1.731  -7.827  0.00  0.00    -0.550 OA
ATOM     45  O   LIG d   1       2.780  -0.328  -7.568  0.00  0.00    -0.550 OA
ENDBRANCH  40  43
ENDBRANCH  37  40
ENDBRANCH  21  37
BRANCH  21  46
ATOM     46  O   LIG d   1       2.206  -0.731  -2.569  0.00  0.00    -0.388 OA
ATOM     47  H   LIG d   1       2.026  -0.117  -1.843  0.00  0.00     0.210 HD
ENDBRANCH  21  46
BRANCH  16  48
ATOM     48  C   LIG d   1       4.278  -1.911  -2.016  0.00  0.00    -0.057 C 
ATOM     49  H   LIG d   1       5.204  -1.930  -1.442  0.00  0.00     0.024 H 
ATOM     50  H   LIG d   1       3.485  -1.467  -1.414  0.00  0.00     0.024 H 
ATOM     51  H   LIG d   1       4.001  -2.928  -2.292  0.00  0.00     0.024 H 
ENDBRANCH  16  48
BRANCH   1  52
ATOM     52  C   LIG d   1       8.852  -1.092  -6.390  0.00  0.00    -0.055 C 
ATOM     53  H   LIG d   1       8.811  -1.706  -7.290  0.00  0.00     0.024 H 
ATOM     54  H   LIG d   1       9.736  -0.456  -6.423  0.00  0.00     0.024 H 
ATOM     55  H   LIG d   1       8.899  -1.736  -5.512  0.00  0.00     0.024 H 
ENDBRANCH   1  52
TORSDOF 6
ENDMDL
MODEL 2
REMARK VINA RESULT:      -6.2      2.085      6.005
REMARK  6 active torsions:
REMARK  status: ('A' for Active; 'I' for Inactive)
REMARK    1  A    between atoms: C_1  and  C_2 
REMARK    2  A    between atoms: C_17  and  C_29 
REMARK    3  A    between atoms: C_22  and  C_23 
REMARK    4  A    between atoms: C_22  and  O_28 
REMARK    5  A    between atoms: C_23  and  C_24 
REMARK    6  A    between atoms: C_24  and  C_25 
ROOT
ATOM      1  C   LIG d   1       4.353  -0.921  -4.444  0.00  0.00    -0.003 C 
ATOM      2  C   LIG d   1       5.742  -0.502  -3.961  0.00  0.00    -0.036 C 
ATOM      3  C   LIG d   1       5.740  -0.275  -2.449  0.00  0.00     0.011 C 
ATOM      4  C   LIG d   1       4.692   0.752  -2.103  0.00  0.00     0.156 C 
ATOM      5  O   LIG d   1       4.870   1.515  -1.175  0.00  0.00    -0.293 OA
ATOM      6  C   LIG d   1       3.511   0.826  -2.859  0.00  0.00    -0.015 C 
ATOM      7  C   LIG d   1       3.317   0.050  -3.947  0.00  0.00    -0.038 C 
ATOM      8  C   LIG d   1       2.044   0.149  -4.680  0.00  0.00    -0.062 C 
ATOM      9  C   LIG d   1       2.146   0.187  -6.022  0.00  0.00    -0.080 C 
ATOM     10  C   LIG d   1       3.537   0.125  -6.607  0.00  0.00    -0.016 C 
ATOM     11  H   LIG d   1       4.038   1.073  -6.412  0.00  0.00     0.035 H 
ATOM     12  C   LIG d   1       4.340  -0.994  -5.967  0.00  0.00    -0.025 C 
ATOM     13  H   LIG d   1       3.898  -1.948  -6.260  0.00  0.00     0.032 H 
ATOM     14  C   LIG d   1       5.768  -0.932  -6.520  0.00  0.00    -0.048 C 
ATOM     15  C   LIG d   1       5.727  -1.190  -8.020  0.00  0.00    -0.044 C 
ATOM     16  C   LIG d   1       4.791  -0.295  -8.789  0.00  0.00     0.000 C 
ATOM     17  C   LIG d   1       3.426  -0.080  -8.118  0.00  0.00    -0.026 C 
ATOM     18  H   LIG d   1       2.731  -0.897  -8.353  0.00  0.00     0.031 H 
ATOM     19  C   LIG d   1       2.937   1.271  -8.716  0.00  0.00    -0.046 C 
ATOM     20  C   LIG d   1       4.232   2.102  -8.830  0.00  0.00    -0.023 C 
ATOM     21  C   LIG d   1       5.340   1.079  -9.164  0.00  0.00     0.072 C 
ATOM     22  H   LIG d   1       6.464  -1.285  -4.201  0.00  0.00     0.028 H 
ATOM     23  H   LIG d   1       6.038   0.424  -4.459  0.00  0.00     0.028 H 
ATOM     24  H   LIG d   1       5.535  -1.204  -1.923  0.00  0.00     0.035 H 
ATOM     25  H   LIG d   1       6.721   0.097  -2.140  0.00  0.00     0.035 H 
ATOM     26  H   LIG d   1       2.739   1.521  -2.563  0.00  0.00     0.066 H 
ATOM     27  H   LIG d   1       1.093   0.188  -4.171  0.00  0.00     0.062 H 
ATOM     28  H   LIG d   1       1.274   0.258  -6.653  0.00  0.00     0.058 H 
ATOM     29  H   LIG d   1       6.211   0.033  -6.297  0.00  0.00     0.027 H 
ATOM     30  H   LIG d   1       6.371  -1.714  -6.042  0.00  0.00     0.027 H 
ATOM     31  H   LIG d   1       6.731  -1.140  -8.436  0.00  0.00     0.027 H 
ATOM     32  H   LIG d   1       5.386  -2.230  -8.168  0.00  0.00     0.027 H 
ATOM     33  H   LIG d   1       2.485   1.123  -9.695  0.00  0.00     0.027 H 
ATOM     34  H   LIG d   1       2.231   1.757  -8.041  0.00  0.00     0.027 H 
ATOM     35  H   LIG d   1       4.143   2.832  -9.632  0.00  0.00     0.029 H 
ATOM     36  H   LIG d   1       4.450   2.596  -7.886  0.00  0.00     0.029 H 
ENDROOT
BRANCH  21  37
ATOM     37  C   LIG d   1       6.622   1.441  -8.420  0.00  0.00    -0.018 C 
ATOM     38  H   LIG d   1       6.464   2.356  -7.848  0.00  0.00     0.030 H 
ATOM     39  H   LIG d   1       6.891   0.632  -7.742  0.00  0.00     0.030 H 
BRANCH  37  40
ATOM     40  C   LIG d   1       7.753   1.660  -9.428  0.00  0.00    -0.011 C 
ATOM     41  H   LIG d   1       8.437   0.811  -9.394  0.00  0.00     0.033 H 
ATOM     42  H   LIG d   1       7.335   1.750 -10.429  0.00  0.00     0.033 H 
BRANCH  40  43
ATOM     43  C   LIG d   1       8.500   2.921  -9.079  0.00  0.00     0.042 C 
ATOM     44  O   LIG d   1       8.105   3.998  -9.493  0.00  0.00    -0.550 OA
ATOM     45  O   LIG d   1       9.500   2.865  -8.383  0.00  0.00    -0.550 OA
ENDBRANCH  40  43
ENDBRANCH  37  40
ENDBRANCH  21  37
BRANCH  21  46
ATOM     46  O   LIG d   1       5.593   1.117 -10.579  0.00  0.00    -0.388 OA
ATOM     47  H   LIG d   1       5.014   0.541 -11.098  0.00  0.00     0.210 HD
ENDBRANCH  21  46
BRANCH  16  48
ATOM     48  C   LIG d   1       4.504  -1.028 -10.128  0.00  0.00    -0.057 C 
ATOM     49  H   LIG d   1       3.506  -1.463 -10.096  0.00  0.00     0.024 H 
ATOM     50  H   LIG d   1       4.566  -0.316 -10.951  0.00  0.00     0.024 H 
ATOM     51  H   LIG d   1       5.240  -1.818 -10.273  0.00  0.00     0.024 H 
ENDBRANCH  16  48
BRANCH   1  52
ATOM     52  C   LIG d   1       4.027  -2.315  -3.896  0.00  0.00    -0.055 C 
ATOM     53  H   LIG d   1       3.051  -2.295  -3.410  0.00  0.00     0.024 H 
ATOM     54  H   LIG d   1       4.011  -3.033  -4.715  0.00  0.00     0.024 H 
ATOM     55  H   LIG d   1       4.787  -2.606  -3.171  0.00  0.00     0.024 H 
ENDBRANCH   1  52
TORSDOF 6
ENDMDL
MODEL 3
REMARK VINA RESULT:      -6.0      2.088      5.365
REMARK  6 active torsions:
REMARK  status: ('A' for Active; 'I' for Inactive)
REMARK    1  A    between atoms: C_1  and  C_2 
REMARK    2  A    between atoms: C_17  and  C_29 
REMARK    3  A    between atoms: C_22  and  C_23 
REMARK    4  A    between atoms: C_22  and  O_28 
REMARK    5  A    between atoms: C_23  and  C_24 
REMARK    6  A    between atoms: C_24  and  C_25 
ROOT
ATOM      1  C   LIG d   1       6.033  -1.185  -4.012  0.00  0.00    -0.003 C 
ATOM      2  C   LIG d   1       5.985   0.332  -4.203  0.00  0.00    -0.036 C 
ATOM      3  C   LIG d   1       5.622   1.028  -2.890  0.00  0.00     0.011 C 
ATOM      4  C   LIG d   1       4.310   0.484  -2.388  0.00  0.00     0.156 C 
ATOM      5  O   LIG d   1       3.543   1.206  -1.782  0.00  0.00    -0.293 OA
ATOM      6  C   LIG d   1       3.973  -0.858  -2.625  0.00  0.00    -0.015 C 
ATOM      7  C   LIG d   1       4.763  -1.665  -3.366  0.00  0.00    -0.038 C 
ATOM      8  C   LIG d   1       4.374  -3.074  -3.552  0.00  0.00    -0.062 C 
ATOM      9  C   LIG d   1       4.497  -3.551  -4.805  0.00  0.00    -0.080 C 
ATOM     10  C   LIG d   1       5.011  -2.596  -5.856  0.00  0.00    -0.016 C 
ATOM     11  H   LIG d   1       4.233  -1.866  -6.072  0.00  0.00     0.035 H 
ATOM     12  C   LIG d   1       6.247  -1.865  -5.360  0.00  0.00    -0.025 C 
ATOM     13  H   LIG d   1       7.057  -2.588  -5.254  0.00  0.00     0.032 H 
ATOM     14  C   LIG d   1       6.651  -0.837  -6.422  0.00  0.00    -0.048 C 
ATOM     15  C   LIG d   1       7.029  -1.573  -7.700  0.00  0.00    -0.044 C 
ATOM     16  C   LIG d   1       5.983  -2.526  -8.214  0.00  0.00     0.000 C 
ATOM     17  C   LIG d   1       5.321  -3.386  -7.128  0.00  0.00    -0.026 C 
ATOM     18  H   LIG d   1       5.924  -4.277  -6.901  0.00  0.00     0.031 H 
ATOM     19  C   LIG d   1       3.951  -3.774  -7.756  0.00  0.00    -0.046 C 
ATOM     20  C   LIG d   1       3.542  -2.505  -8.533  0.00  0.00    -0.023 C 
ATOM     21  C   LIG d   1       4.867  -1.902  -9.050  0.00  0.00     0.072 C 
ATOM     22  H   LIG d   1       6.962   0.689  -4.536  0.00  0.00     0.028 H 
ATOM     23  H   LIG d   1       5.236   0.581  -4.957  0.00  0.00     0.028 H 
ATOM     24  H   LIG d   1       6.398   0.869  -2.146  0.00  0.00     0.035 H 
ATOM     25  H   LIG d   1       5.519   2.102  -3.071  0.00  0.00     0.035 H 
ATOM     26  H   LIG d   1       3.061  -1.255  -2.204  0.00  0.00     0.066 H 
ATOM     27  H   LIG d   1       4.015  -3.680  -2.735  0.00  0.00     0.062 H 
ATOM     28  H   LIG d   1       4.240  -4.570  -5.049  0.00  0.00     0.058 H 
ATOM     29  H   LIG d   1       5.836  -0.141  -6.594  0.00  0.00     0.027 H 
ATOM     30  H   LIG d   1       7.523  -0.276  -6.064  0.00  0.00     0.027 H 
ATOM     31  H   LIG d   1       7.310  -0.860  -8.473  0.00  0.00     0.027 H 
ATOM     32  H   LIG d   1       7.937  -2.164  -7.486  0.00  0.00     0.027 H 
ATOM     33  H   LIG d   1       4.058  -4.622  -8.430  0.00  0.00     0.027 H 
ATOM     34  H   LIG d   1       3.220  -3.996  -6.978  0.00  0.00     0.027 H 
ATOM     35  H   LIG d   1       2.898  -2.766  -9.370  0.00  0.00     0.029 H 
ATOM     36  H   LIG d   1       3.042  -1.800  -7.872  0.00  0.00     0.029 H 
ENDROOT
BRANCH  21  37
ATOM     37  C   LIG d   1       4.817  -0.380  -8.953  0.00  0.00    -0.018 C 
ATOM     38  H   LIG d   1       5.331  -0.057  -8.047  0.00  0.00     0.030 H 
ATOM     39  H   LIG d   1       5.307   0.056  -9.823  0.00  0.00     0.030 H 
BRANCH  37  40
ATOM     40  C   LIG d   1       3.359   0.081  -8.904  0.00  0.00    -0.011 C 
ATOM     41  H   LIG d   1       3.110   0.596  -9.832  0.00  0.00     0.033 H 
ATOM     42  H   LIG d   1       2.708  -0.784  -8.782  0.00  0.00     0.033 H 
BRANCH  40  43
ATOM     43  C   LIG d   1       3.169   1.021  -7.742  0.00  0.00     0.042 C 
ATOM     44  O   LIG d   1       3.390   0.638  -6.605  0.00  0.00    -0.550 OA
ATOM     45  O   LIG d   1       2.793   2.165  -7.937  0.00  0.00    -0.550 OA
ENDBRANCH  40  43
ENDBRANCH  37  40
ENDBRANCH  21  37
BRANCH  21  46
ATOM     46  O   LIG d   1       5.040  -2.279 -10.426  0.00  0.00    -0.388 OA
ATOM     47  H   LIG d   1       5.690  -1.744 -10.902  0.00  0.00     0.210 HD
ENDBRANCH  21  46
BRANCH  16  48
ATOM     48  C   LIG d   1       6.728  -3.511  -9.154  0.00  0.00    -0.057 C 
ATOM     49  H   LIG d   1       7.470  -2.966  -9.737  0.00  0.00     0.024 H 
ATOM     50  H   LIG d   1       7.224  -4.277  -8.558  0.00  0.00     0.024 H 
ATOM     51  H   LIG d   1       6.012  -3.981  -9.828  0.00  0.00     0.024 H 
ENDBRANCH  16  48
BRANCH   1  52
ATOM     52  C   LIG d   1       7.215  -1.542  -3.104  0.00  0.00    -0.055 C 
ATOM     53  H   LIG d   1       8.023  -1.959  -3.706  0.00  0.00     0.024 H 
ATOM     54  H   LIG d   1       7.566  -0.645  -2.594  0.00  0.00     0.024 H 
ATOM     55  H   LIG d   1       6.896  -2.279  -2.366  0.00  0.00     0.024 H 
ENDBRANCH   1  52
TORSDOF 6
ENDMDL
MODEL 4
REMARK VINA RESULT:      -5.9      2.136      6.033
REMARK  6 active torsions:
REMARK  status: ('A' for Active; 'I' for Inactive)
REMARK    1  A    between atoms: C_1  and  C_2 
REMARK    2  A    between atoms: C_17  and  C_29 
REMARK    3  A    between atoms: C_22  and  C_23 
REMARK    4  A    between atoms: C_22  and  O_28 
REMARK    5  A    between atoms: C_23  and  C_24 
REMARK    6  A    between atoms: C_24  and  C_25 
ROOT
ATOM      1  C   LIG d   1       5.106  -1.321  -4.178  0.00  0.00    -0.003 C 
ATOM      2  C   LIG d   1       5.751  -0.714  -2.932  0.00  0.00    -0.036 C 
ATOM      3  C   LIG d   1       4.681  -0.298  -1.921  0.00  0.00     0.011 C 
ATOM      4  C   LIG d   1       3.723   0.660  -2.580  0.00  0.00     0.156 C 
ATOM      5  O   LIG d   1       3.207   1.548  -1.932  0.00  0.00    -0.293 OA
ATOM      6  C   LIG d   1       3.429   0.525  -3.947  0.00  0.00    -0.015 C 
ATOM      7  C   LIG d   1       4.047  -0.399  -4.715  0.00  0.00    -0.038 C 
ATOM      8  C   LIG d   1       3.673  -0.516  -6.135  0.00  0.00    -0.062 C 
ATOM      9  C   LIG d   1       4.699  -0.638  -6.999  0.00  0.00    -0.080 C 
ATOM     10  C   LIG d   1       6.092  -0.641  -6.415  0.00  0.00    -0.016 C 
ATOM     11  H   LIG d   1       6.328   0.367  -6.077  0.00  0.00     0.035 H 
ATOM     12  C   LIG d   1       6.177  -1.588  -5.231  0.00  0.00    -0.025 C 
ATOM     13  H   LIG d   1       6.051  -2.609  -5.596  0.00  0.00     0.032 H 
ATOM     14  C   LIG d   1       7.576  -1.461  -4.618  0.00  0.00    -0.048 C 
ATOM     15  C   LIG d   1       8.606  -1.909  -5.647  0.00  0.00    -0.044 C 
ATOM     16  C   LIG d   1       8.513  -1.213  -6.979  0.00  0.00     0.000 C 
ATOM     17  C   LIG d   1       7.081  -1.045  -7.508  0.00  0.00    -0.026 C 
ATOM     18  H   LIG d   1       6.740  -1.949  -8.032  0.00  0.00     0.031 H 
ATOM     19  C   LIG d   1       7.192   0.166  -8.479  0.00  0.00    -0.046 C 
ATOM     20  C   LIG d   1       8.205   1.095  -7.777  0.00  0.00    -0.023 C 
ATOM     21  C   LIG d   1       9.198   0.149  -7.068  0.00  0.00     0.072 C 
ATOM     22  H   LIG d   1       6.412  -1.448  -2.467  0.00  0.00     0.028 H 
ATOM     23  H   LIG d   1       6.334   0.165  -3.214  0.00  0.00     0.028 H 
ATOM     24  H   LIG d   1       4.143  -1.168  -1.555  0.00  0.00     0.035 H 
ATOM     25  H   LIG d   1       5.162   0.203  -1.075  0.00  0.00     0.035 H 
ATOM     26  H   LIG d   1       2.691   1.174  -4.394  0.00  0.00     0.066 H 
ATOM     27  H   LIG d   1       2.644  -0.503  -6.458  0.00  0.00     0.062 H 
ATOM     28  H   LIG d   1       4.534  -0.732  -8.061  0.00  0.00     0.058 H 
ATOM     29  H   LIG d   1       7.752  -0.437  -4.304  0.00  0.00     0.027 H 
ATOM     30  H   LIG d   1       7.643  -2.114  -3.740  0.00  0.00     0.027 H 
ATOM     31  H   LIG d   1       9.609  -1.817  -5.235  0.00  0.00     0.027 H 
ATOM     32  H   LIG d   1       8.447  -2.987  -5.826  0.00  0.00     0.027 H 
ATOM     33  H   LIG d   1       7.565  -0.148  -9.452  0.00  0.00     0.027 H 
ATOM     34  H   LIG d   1       6.228   0.664  -8.584  0.00  0.00     0.027 H 
ATOM     35  H   LIG d   1       8.728   1.706  -8.510  0.00  0.00     0.029 H 
ATOM     36  H   LIG d   1       7.699   1.724  -7.047  0.00  0.00     0.029 H 
ENDROOT
BRANCH  21  37
ATOM     37  C   LIG d   1       9.581   0.723  -5.707  0.00  0.00    -0.018 C 
ATOM     38  H   LIG d   1       9.170   0.093  -4.918  0.00  0.00     0.030 H 
ATOM     39  H   LIG d   1      10.667   0.755  -5.617  0.00  0.00     0.030 H 
BRANCH  37  40
ATOM     40  C   LIG d   1       9.017   2.139  -5.573  0.00  0.00    -0.011 C 
ATOM     41  H   LIG d   1       9.836   2.858  -5.577  0.00  0.00     0.033 H 
ATOM     42  H   LIG d   1       8.349   2.345  -6.409  0.00  0.00     0.033 H 
BRANCH  40  43
ATOM     43  C   LIG d   1       8.253   2.255  -4.279  0.00  0.00     0.042 C 
ATOM     44  O   LIG d   1       8.830   2.590  -3.258  0.00  0.00    -0.550 OA
ATOM     45  O   LIG d   1       7.058   2.014  -4.252  0.00  0.00    -0.550 OA
ENDBRANCH  40  43
ENDBRANCH  37  40
ENDBRANCH  21  37
BRANCH  21  46
ATOM     46  O   LIG d   1      10.381   0.031  -7.876  0.00  0.00    -0.388 OA
ATOM     47  H   LIG d   1      10.683   0.868  -8.257  0.00  0.00     0.210 HD
ENDBRANCH  21  46
BRANCH  16  48
ATOM     48  C   LIG d   1       9.245  -2.133  -7.993  0.00  0.00    -0.057 C 
ATOM     49  H   LIG d   1      10.224  -2.403  -7.596  0.00  0.00     0.024 H 
ATOM     50  H   LIG d   1       8.657  -3.036  -8.154  0.00  0.00     0.024 H 
ATOM     51  H   LIG d   1       9.369  -1.605  -8.937  0.00  0.00     0.024 H 
ENDBRANCH  16  48
BRANCH   1  52
ATOM     52  C   LIG d   1       4.455  -2.659  -3.809  0.00  0.00    -0.055 C 
ATOM     53  H   LIG d   1       5.060  -3.160  -3.052  0.00  0.00     0.024 H 
ATOM     54  H   LIG d   1       3.455  -2.480  -3.416  0.00  0.00     0.024 H 
ATOM     55  H   LIG d   1       4.391  -3.288  -4.696  0.00  0.00     0.024 H 
ENDBRANCH   1  52
TORSDOF 6
ENDMDL
MODEL 5
REMARK VINA RESULT:      -5.9      2.692      4.457
REMARK  6 active torsions:
REMARK  status: ('A' for Active; 'I' for Inactive)
REMARK    1  A    between atoms: C_1  and  C_2 
REMARK    2  A    between atoms: C_17  and  C_29 
REMARK    3  A    between atoms: C_22  and  C_23 
REMARK    4  A    between atoms: C_22  and  O_28 
REMARK    5  A    between atoms: C_23  and  C_24 
REMARK    6  A    between atoms: C_24  and  C_25 
ROOT
ATOM      1  C   LIG d   1       4.944  -0.470  -8.026  0.00  0.00    -0.003 C 
ATOM      2  C   LIG d   1       5.899  -1.660  -8.123  0.00  0.00    -0.036 C 
ATOM      3  C   LIG d   1       5.826  -2.297  -9.512  0.00  0.00     0.011 C 
ATOM      4  C   LIG d   1       4.401  -2.695  -9.799  0.00  0.00     0.156 C 
ATOM      5  O   LIG d   1       4.168  -3.680 -10.471  0.00  0.00    -0.293 OA
ATOM      6  C   LIG d   1       3.344  -1.926  -9.287  0.00  0.00    -0.015 C 
ATOM      7  C   LIG d   1       3.566  -0.874  -8.469  0.00  0.00    -0.038 C 
ATOM      8  C   LIG d   1       2.418  -0.085  -7.991  0.00  0.00    -0.062 C 
ATOM      9  C   LIG d   1       2.437   0.235  -6.682  0.00  0.00    -0.080 C 
ATOM     10  C   LIG d   1       3.618  -0.248  -5.874  0.00  0.00    -0.016 C 
ATOM     11  H   LIG d   1       3.530  -1.325  -5.742  0.00  0.00     0.035 H 
ATOM     12  C   LIG d   1       4.921   0.053  -6.594  0.00  0.00    -0.025 C 
ATOM     13  H   LIG d   1       5.058   1.136  -6.623  0.00  0.00     0.032 H 
ATOM     14  C   LIG d   1       6.067  -0.558  -5.780  0.00  0.00    -0.048 C 
ATOM     15  C   LIG d   1       6.121   0.122  -4.418  0.00  0.00    -0.044 C 
ATOM     16  C   LIG d   1       4.823   0.109  -3.654  0.00  0.00     0.000 C 
ATOM     17  C   LIG d   1       3.584   0.428  -4.504  0.00  0.00    -0.026 C 
ATOM     18  H   LIG d   1       3.437   1.513  -4.604  0.00  0.00     0.031 H 
ATOM     19  C   LIG d   1       2.420  -0.231  -3.710  0.00  0.00    -0.046 C 
ATOM     20  C   LIG d   1       3.052  -1.527  -3.158  0.00  0.00    -0.023 C 
ATOM     21  C   LIG d   1       4.525  -1.167  -2.869  0.00  0.00     0.072 C 
ATOM     22  H   LIG d   1       6.922  -1.325  -7.940  0.00  0.00     0.028 H 
ATOM     23  H   LIG d   1       5.627  -2.408  -7.374  0.00  0.00     0.028 H 
ATOM     24  H   LIG d   1       6.177  -1.601 -10.269  0.00  0.00     0.035 H 
ATOM     25  H   LIG d   1       6.458  -3.190  -9.531  0.00  0.00     0.035 H 
ATOM     26  H   LIG d   1       2.329  -2.182  -9.554  0.00  0.00     0.066 H 
ATOM     27  H   LIG d   1       1.617   0.215  -8.647  0.00  0.00     0.062 H 
ATOM     28  H   LIG d   1       1.645   0.813  -6.231  0.00  0.00     0.058 H 
ATOM     29  H   LIG d   1       5.922  -1.629  -5.681  0.00  0.00     0.027 H 
ATOM     30  H   LIG d   1       7.014  -0.378  -6.304  0.00  0.00     0.027 H 
ATOM     31  H   LIG d   1       6.922  -0.305  -3.819  0.00  0.00     0.027 H 
ATOM     32  H   LIG d   1       6.394   1.179  -4.586  0.00  0.00     0.027 H 
ATOM     33  H   LIG d   1       2.087   0.413  -2.898  0.00  0.00     0.027 H 
ATOM     34  H   LIG d   1       1.587  -0.467  -4.373  0.00  0.00     0.027 H 
ATOM     35  H   LIG d   1       2.553  -1.830  -2.240  0.00  0.00     0.029 H 
ATOM     36  H   LIG d   1       2.999  -2.320  -3.901  0.00  0.00     0.029 H 
ENDROOT
BRANCH  21  37
ATOM     37  C   LIG d   1       5.430  -2.335  -3.248  0.00  0.00    -0.018 C 
ATOM     38  H   LIG d   1       6.311  -1.958  -3.768  0.00  0.00     0.030 H 
ATOM     39  H   LIG d   1       5.739  -2.864  -2.347  0.00  0.00     0.030 H 
BRANCH  37  40
ATOM     40  C   LIG d   1       4.668  -3.294  -4.166  0.00  0.00    -0.011 C 
ATOM     41  H   LIG d   1       4.028  -3.940  -3.564  0.00  0.00     0.033 H 
ATOM     42  H   LIG d   1       4.055  -2.722  -4.861  0.00  0.00     0.033 H 
BRANCH  40  43
ATOM     43  C   LIG d   1       5.650  -4.138  -4.937  0.00  0.00     0.042 C 
ATOM     44  O   LIG d   1       6.835  -3.850  -4.935  0.00  0.00    -0.550 OA
ATOM     45  O   LIG d   1       5.259  -5.108  -5.565  0.00  0.00    -0.550 OA
ENDBRANCH  40  43
ENDBRANCH  37  40
ENDBRANCH  21  37
BRANCH  21  46
ATOM     46  O   LIG d   1       4.668  -0.901  -1.463  0.00  0.00    -0.388 OA
ATOM     47  H   LIG d   1       4.095  -0.193  -1.136  0.00  0.00     0.210 HD
ENDBRANCH  21  46
BRANCH  16  48
ATOM     48  C   LIG d   1       4.935   1.248  -2.605  0.00  0.00    -0.057 C 
ATOM     49  H   LIG d   1       4.903   2.212  -3.111  0.00  0.00     0.024 H 
ATOM     50  H   LIG d   1       4.104   1.177  -1.903  0.00  0.00     0.024 H 
ATOM     51  H   LIG d   1       5.877   1.152  -2.065  0.00  0.00     0.024 H 
ENDBRANCH  16  48
BRANCH   1  52
ATOM     52  C   LIG d   1       5.446   0.656  -8.938  0.00  0.00    -0.055 C 
ATOM     53  H   LIG d   1       4.605   1.084  -9.483  0.00  0.00     0.024 H 
ATOM     54  H   LIG d   1       5.920   1.429  -8.334  0.00  0.00     0.024 H 
ATOM     55  H   LIG d   1       6.170   0.253  -9.646  0.00  0.00     0.024 H 
ENDBRANCH   1  52
TORSDOF 6
ENDMDL
MODEL 6
REMARK VINA RESULT:      -5.7      3.992      6.160
REMARK  6 active torsions:
REMARK  status: ('A' for Active; 'I' for Inactive)
REMARK    1  A    between atoms: C_1  and  C_2 
REMARK    2  A    between atoms: C_17  and  C_29 
REMARK    3  A    between atoms: C_22  and  C_23 
REMARK    4  A    between atoms: C_22  and  O_28 
REMARK    5  A    between atoms: C_23  and  C_24 
REMARK    6  A    between atoms: C_24  and  C_25 
ROOT
ATOM      1  C   LIG d   1       9.409  -4.525  -4.631  0.00  0.00    -0.003 C 
ATOM      2  C   LIG d   1       9.931  -3.883  -3.345  0.00  0.00    -0.036 C 
ATOM      3  C   LIG d   1      10.893  -4.828  -2.624  0.00  0.00     0.011 C 
ATOM      4  C   LIG d   1      10.194  -6.135  -2.354  0.00  0.00     0.156 C 
ATOM      5  O   LIG d   1      10.457  -6.772  -1.353  0.00  0.00    -0.293 OA
ATOM      6  C   LIG d   1       9.236  -6.615  -3.261  0.00  0.00    -0.015 C 
ATOM      7  C   LIG d   1       8.860  -5.894  -4.340  0.00  0.00    -0.038 C 
ATOM      8  C   LIG d   1       7.875  -6.465  -5.275  0.00  0.00    -0.062 C 
ATOM      9  C   LIG d   1       6.904  -5.624  -5.682  0.00  0.00    -0.080 C 
ATOM     10  C   LIG d   1       6.943  -4.215  -5.139  0.00  0.00    -0.016 C 
ATOM     11  H   LIG d   1       6.658  -4.241  -4.088  0.00  0.00     0.035 H 
ATOM     12  C   LIG d   1       8.341  -3.633  -5.253  0.00  0.00    -0.025 C 
ATOM     13  H   LIG d   1       8.576  -3.504  -6.312  0.00  0.00     0.032 H 
ATOM     14  C   LIG d   1       8.339  -2.253  -4.587  0.00  0.00    -0.048 C 
ATOM     15  C   LIG d   1       7.391  -1.339  -5.351  0.00  0.00    -0.044 C 
ATOM     16  C   LIG d   1       5.996  -1.878  -5.525  0.00  0.00     0.000 C 
ATOM     17  C   LIG d   1       5.934  -3.364  -5.910  0.00  0.00    -0.026 C 
ATOM     18  H   LIG d   1       6.050  -3.502  -6.994  0.00  0.00     0.031 H 
ATOM     19  C   LIG d   1       4.521  -3.805  -5.430  0.00  0.00    -0.046 C 
ATOM     20  C   LIG d   1       4.326  -3.015  -4.119  0.00  0.00    -0.023 C 
ATOM     21  C   LIG d   1       5.049  -1.669  -4.345  0.00  0.00     0.072 C 
ATOM     22  H   LIG d   1      10.457  -2.957  -3.586  0.00  0.00     0.028 H 
ATOM     23  H   LIG d   1       9.092  -3.657  -2.684  0.00  0.00     0.028 H 
ATOM     24  H   LIG d   1      11.782  -4.999  -3.224  0.00  0.00     0.035 H 
ATOM     25  H   LIG d   1      11.190  -4.378  -1.671  0.00  0.00     0.035 H 
ATOM     26  H   LIG d   1       8.789  -7.584  -3.093  0.00  0.00     0.066 H 
ATOM     27  H   LIG d   1       7.929  -7.489  -5.608  0.00  0.00     0.062 H 
ATOM     28  H   LIG d   1       6.134  -5.941  -6.368  0.00  0.00     0.058 H 
ATOM     29  H   LIG d   1       8.045  -2.344  -3.546  0.00  0.00     0.027 H 
ATOM     30  H   LIG d   1       9.351  -1.832  -4.631  0.00  0.00     0.027 H 
ATOM     31  H   LIG d   1       7.366  -0.354  -4.888  0.00  0.00     0.027 H 
ATOM     32  H   LIG d   1       7.816  -1.191  -6.360  0.00  0.00     0.027 H 
ATOM     33  H   LIG d   1       3.760  -3.536  -6.160  0.00  0.00     0.027 H 
ATOM     34  H   LIG d   1       4.498  -4.877  -5.235  0.00  0.00     0.027 H 
ATOM     35  H   LIG d   1       3.267  -2.845  -3.934  0.00  0.00     0.029 H 
ATOM     36  H   LIG d   1       4.778  -3.548  -3.285  0.00  0.00     0.029 H 
ENDROOT
BRANCH  21  37
ATOM     37  C   LIG d   1       5.762  -1.241  -3.066  0.00  0.00    -0.018 C 
ATOM     38  H   LIG d   1       6.361  -2.070  -2.690  0.00  0.00     0.030 H 
ATOM     39  H   LIG d   1       6.411  -0.392  -3.278  0.00  0.00     0.030 H 
BRANCH  37  40
ATOM     40  C   LIG d   1       4.726  -0.841  -2.014  0.00  0.00    -0.011 C 
ATOM     41  H   LIG d   1       3.784  -1.349  -2.221  0.00  0.00     0.033 H 
ATOM     42  H   LIG d   1       5.083  -1.128  -1.025  0.00  0.00     0.033 H 
BRANCH  40  43
ATOM     43  C   LIG d   1       4.514   0.649  -2.059  0.00  0.00     0.042 C 
ATOM     44  O   LIG d   1       5.473   1.401  -2.107  0.00  0.00    -0.550 OA
ATOM     45  O   LIG d   1       3.382   1.105  -2.046  0.00  0.00    -0.550 OA
ENDBRANCH  40  43
ENDBRANCH  37  40
ENDBRANCH  21  37
BRANCH  21  46
ATOM     46  O   LIG d   1       4.073  -0.673  -4.693  0.00  0.00    -0.388 OA
ATOM     47  H   LIG d   1       4.282  -0.182  -5.501  0.00  0.00     0.210 HD
ENDBRANCH  21  46
BRANCH  16  48
ATOM     48  C   LIG d   1       5.381  -1.096  -6.718  0.00  0.00    -0.057 C 
ATOM     49  H   LIG d   1       4.312  -1.298  -6.770  0.00  0.00     0.024 H 
ATOM     50  H   LIG d   1       5.544  -0.028  -6.573  0.00  0.00     0.024 H 
ATOM     51  H   LIG d   1       5.857  -1.416  -7.644  0.00  0.00     0.024 H 
ENDBRANCH  16  48
BRANCH   1  52
ATOM     52  C   LIG d   1      10.563  -4.659  -5.632  0.00  0.00    -0.055 C 
ATOM     53  H   LIG d   1      11.251  -3.822  -5.507  0.00  0.00     0.024 H 
ATOM     54  H   LIG d   1      11.092  -5.595  -5.454  0.00  0.00     0.024 H 
ATOM     55  H   LIG d   1      10.165  -4.653  -6.647  0.00  0.00     0.024 H 
ENDBRANCH   1  52
TORSDOF 6
ENDMDL
MODEL 7
REMARK VINA RESULT:      -5.6      2.147      3.024
REMARK  6 active torsions:
REMARK  status: ('A' for Active; 'I' for Inactive)
REMARK    1  A    between atoms: C_1  and  C_2 
REMARK    2  A    between atoms: C_17  and  C_29 
REMARK    3  A    between atoms: C_22  and  C_23 
REMARK    4  A    between atoms: C_22  and  O_28 
REMARK    5  A    between atoms: C_23  and  C_24 
REMARK    6  A    between atoms: C_24  and  C_25 
ROOT
ATOM      1  C   LIG d   1       7.918  -0.137  -7.825  0.00  0.00    -0.003 C 
ATOM      2  C   LIG d   1       6.959   1.021  -8.100  0.00  0.00    -0.036 C 
ATOM      3  C   LIG d   1       7.708   2.207  -8.710  0.00  0.00     0.011 C 
ATOM      4  C   LIG d   1       8.828   2.613  -7.788  0.00  0.00     0.156 C 
ATOM      5  O   LIG d   1       9.155   3.780  -7.703  0.00  0.00    -0.293 OA
ATOM      6  C   LIG d   1       9.492   1.639  -7.024  0.00  0.00    -0.015 C 
ATOM      7  C   LIG d   1       9.100   0.346  -7.032  0.00  0.00    -0.038 C 
ATOM      8  C   LIG d   1       9.856  -0.636  -6.236  0.00  0.00    -0.062 C 
ATOM      9  C   LIG d   1       9.113  -1.506  -5.526  0.00  0.00    -0.080 C 
ATOM     10  C   LIG d   1       7.612  -1.371  -5.629  0.00  0.00    -0.016 C 
ATOM     11  H   LIG d   1       7.306  -0.474  -5.094  0.00  0.00     0.035 H 
ATOM     12  C   LIG d   1       7.182  -1.246  -7.081  0.00  0.00    -0.025 C 
ATOM     13  H   LIG d   1       7.389  -2.193  -7.585  0.00  0.00     0.032 H 
ATOM     14  C   LIG d   1       5.670  -1.002  -7.110  0.00  0.00    -0.048 C 
ATOM     15  C   LIG d   1       4.964  -2.215  -6.520  0.00  0.00    -0.044 C 
ATOM     16  C   LIG d   1       5.438  -2.616  -5.148  0.00  0.00     0.000 C 
ATOM     17  C   LIG d   1       6.964  -2.590  -4.972  0.00  0.00    -0.026 C 
ATOM     18  H   LIG d   1       7.424  -3.521  -5.331  0.00  0.00     0.031 H 
ATOM     19  C   LIG d   1       7.149  -2.420  -3.437  0.00  0.00    -0.046 C 
ATOM     20  C   LIG d   1       5.995  -1.476  -3.039  0.00  0.00    -0.023 C 
ATOM     21  C   LIG d   1       4.828  -1.845  -3.980  0.00  0.00     0.072 C 
ATOM     22  H   LIG d   1       6.182   0.696  -8.795  0.00  0.00     0.028 H 
ATOM     23  H   LIG d   1       6.493   1.339  -7.165  0.00  0.00     0.028 H 
ATOM     24  H   LIG d   1       8.107   1.944  -9.686  0.00  0.00     0.035 H 
ATOM     25  H   LIG d   1       7.017   3.047  -8.825  0.00  0.00     0.035 H 
ATOM     26  H   LIG d   1      10.336   1.930  -6.417  0.00  0.00     0.066 H 
ATOM     27  H   LIG d   1      10.935  -0.653  -6.225  0.00  0.00     0.062 H 
ATOM     28  H   LIG d   1       9.568  -2.267  -4.911  0.00  0.00     0.058 H 
ATOM     29  H   LIG d   1       5.429  -0.098  -6.560  0.00  0.00     0.027 H 
ATOM     30  H   LIG d   1       5.348  -0.876  -8.151  0.00  0.00     0.027 H 
ATOM     31  H   LIG d   1       3.886  -2.058  -6.521  0.00  0.00     0.027 H 
ATOM     32  H   LIG d   1       5.149  -3.068  -7.196  0.00  0.00     0.027 H 
ATOM     33  H   LIG d   1       7.060  -3.376  -2.925  0.00  0.00     0.027 H 
ATOM     34  H   LIG d   1       8.112  -1.959  -3.214  0.00  0.00     0.027 H 
ATOM     35  H   LIG d   1       5.709  -1.644  -2.003  0.00  0.00     0.029 H 
ATOM     36  H   LIG d   1       6.285  -0.438  -3.192  0.00  0.00     0.029 H 
ENDROOT
BRANCH  21  37
ATOM     37  C   LIG d   1       4.087  -0.583  -4.410  0.00  0.00    -0.018 C 
ATOM     38  H   LIG d   1       4.806   0.217  -4.589  0.00  0.00     0.030 H 
ATOM     39  H   LIG d   1       3.530  -0.781  -5.325  0.00  0.00     0.030 H 
BRANCH  37  40
ATOM     40  C   LIG d   1       3.117  -0.158  -3.305  0.00  0.00    -0.011 C 
ATOM     41  H   LIG d   1       2.114  -0.063  -3.720  0.00  0.00     0.033 H 
ATOM     42  H   LIG d   1       3.114  -0.909  -2.516  0.00  0.00     0.033 H 
BRANCH  40  43
ATOM     43  C   LIG d   1       3.554   1.167  -2.736  0.00  0.00     0.042 C 
ATOM     44  O   LIG d   1       3.543   2.165  -3.436  0.00  0.00    -0.550 OA
ATOM     45  O   LIG d   1       3.918   1.242  -1.574  0.00  0.00    -0.550 OA
ENDBRANCH  40  43
ENDBRANCH  37  40
ENDBRANCH  21  37
BRANCH  21  46
ATOM     46  O   LIG d   1       3.918  -2.704  -3.271  0.00  0.00    -0.388 OA
ATOM     47  H   LIG d   1       4.106  -3.647  -3.374  0.00  0.00     0.210 HD
ENDBRANCH  21  46
BRANCH  16  48
ATOM     48  C   LIG d   1       5.006  -4.096  -4.964  0.00  0.00    -0.057 C 
ATOM     49  H   LIG d   1       4.271  -4.162  -4.162  0.00  0.00     0.024 H 
ATOM     50  H   LIG d   1       4.567  -4.465  -5.891  0.00  0.00     0.024 H 
ATOM     51  H   LIG d   1       5.877  -4.699  -4.708  0.00  0.00     0.024 H 
ENDBRANCH  16  48
BRANCH   1  52
ATOM     52  C   LIG d   1       8.417  -0.706  -9.158  0.00  0.00    -0.055 C 
ATOM     53  H   LIG d   1       7.599  -0.713  -9.879  0.00  0.00     0.024 H 
ATOM     54  H   LIG d   1       9.230  -0.087  -9.536  0.00  0.00     0.024 H 
ATOM     55  H   LIG d   1       8.775  -1.724  -9.007  0.00  0.00     0.024 H 
ENDBRANCH   1  52
TORSDOF 6
ENDMDL
MODEL 8
REMARK VINA RESULT:      -5.5      2.582      4.826
REMARK  6 active torsions:
REMARK  status: ('A' for Active; 'I' for Inactive)
REMARK    1  A    between atoms: C_1  and  C_2 
REMARK    2  A    between atoms: C_17  and  C_29 
REMARK    3  A    between atoms: C_22  and  C_23 
REMARK    4  A    between atoms: C_22  and  O_28 
REMARK    5  A    between atoms: C_23  and  C_24 
REMARK    6  A    between atoms: C_24  and  C_25 
ROOT
ATOM      1  C   LIG d   1       4.374  -1.445  -7.821  0.00  0.00    -0.003 C 
ATOM      2  C   LIG d   1       3.515  -0.684  -6.810  0.00  0.00    -0.036 C 
ATOM      3  C   LIG d   1       2.674   0.383  -7.513  0.00  0.00     0.011 C 
ATOM      4  C   LIG d   1       3.586   1.305  -8.282  0.00  0.00     0.156 C 
ATOM      5  O   LIG d   1       3.302   2.480  -8.403  0.00  0.00    -0.293 OA
ATOM      6  C   LIG d   1       4.764   0.803  -8.856  0.00  0.00    -0.015 C 
ATOM      7  C   LIG d   1       5.151  -0.479  -8.671  0.00  0.00    -0.038 C 
ATOM      8  C   LIG d   1       6.380  -0.957  -9.327  0.00  0.00    -0.062 C 
ATOM      9  C   LIG d   1       7.199  -1.701  -8.557  0.00  0.00    -0.080 C 
ATOM     10  C   LIG d   1       6.762  -1.950  -7.133  0.00  0.00    -0.016 C 
ATOM     11  H   LIG d   1       6.865  -1.023  -6.571  0.00  0.00     0.035 H 
ATOM     12  C   LIG d   1       5.311  -2.395  -7.085  0.00  0.00    -0.025 C 
ATOM     13  H   LIG d   1       5.236  -3.380  -7.551  0.00  0.00     0.032 H 
ATOM     14  C   LIG d   1       4.900  -2.523  -5.614  0.00  0.00    -0.048 C 
ATOM     15  C   LIG d   1       5.742  -3.612  -4.961  0.00  0.00    -0.044 C 
ATOM     16  C   LIG d   1       7.229  -3.437  -5.113  0.00  0.00     0.000 C 
ATOM     17  C   LIG d   1       7.677  -3.010  -6.519  0.00  0.00    -0.026 C 
ATOM     18  H   LIG d   1       7.779  -3.877  -7.186  0.00  0.00     0.031 H 
ATOM     19  C   LIG d   1       9.051  -2.323  -6.269  0.00  0.00    -0.046 C 
ATOM     20  C   LIG d   1       8.845  -1.589  -4.927  0.00  0.00    -0.023 C 
ATOM     21  C   LIG d   1       7.895  -2.494  -4.113  0.00  0.00     0.072 C 
ATOM     22  H   LIG d   1       2.848  -1.381  -6.298  0.00  0.00     0.028 H 
ATOM     23  H   LIG d   1       4.161  -0.200  -6.074  0.00  0.00     0.028 H 
ATOM     24  H   LIG d   1       1.958  -0.078  -8.188  0.00  0.00     0.035 H 
ATOM     25  H   LIG d   1       2.130   0.963  -6.762  0.00  0.00     0.035 H 
ATOM     26  H   LIG d   1       5.376   1.456  -9.460  0.00  0.00     0.066 H 
ATOM     27  H   LIG d   1       6.607  -0.725 -10.355  0.00  0.00     0.062 H 
ATOM     28  H   LIG d   1       8.124  -2.102  -8.941  0.00  0.00     0.058 H 
ATOM     29  H   LIG d   1       5.027  -1.571  -5.109  0.00  0.00     0.027 H 
ATOM     30  H   LIG d   1       3.843  -2.812  -5.561  0.00  0.00     0.027 H 
ATOM     31  H   LIG d   1       5.473  -3.713  -3.911  0.00  0.00     0.027 H 
ATOM     32  H   LIG d   1       5.471  -4.570  -5.439  0.00  0.00     0.027 H 
ATOM     33  H   LIG d   1       9.847  -3.060  -6.188  0.00  0.00     0.027 H 
ATOM     34  H   LIG d   1       9.274  -1.609  -7.062  0.00  0.00     0.027 H 
ATOM     35  H   LIG d   1       9.794  -1.478  -4.407  0.00  0.00     0.029 H 
ATOM     36  H   LIG d   1       8.385  -0.617  -5.093  0.00  0.00     0.029 H 
ENDROOT
BRANCH  21  37
ATOM     37  C   LIG d   1       6.900  -1.637  -3.336  0.00  0.00    -0.018 C 
ATOM     38  H   LIG d   1       5.886  -1.982  -3.540  0.00  0.00     0.030 H 
ATOM     39  H   LIG d   1       7.103  -1.720  -2.268  0.00  0.00     0.030 H 
BRANCH  37  40
ATOM     40  C   LIG d   1       7.037  -0.176  -3.769  0.00  0.00    -0.011 C 
ATOM     41  H   LIG d   1       7.944   0.247  -3.337  0.00  0.00     0.033 H 
ATOM     42  H   LIG d   1       7.093  -0.123  -4.855  0.00  0.00     0.033 H 
BRANCH  40  43
ATOM     43  C   LIG d   1       5.841   0.605  -3.289  0.00  0.00     0.042 C 
ATOM     44  O   LIG d   1       5.946   1.796  -3.050  0.00  0.00    -0.550 OA
ATOM     45  O   LIG d   1       4.768   0.045  -3.138  0.00  0.00    -0.550 OA
ENDBRANCH  40  43
ENDBRANCH  37  40
ENDBRANCH  21  37
BRANCH  21  46
ATOM     46  O   LIG d   1       8.675  -3.265  -3.183  0.00  0.00    -0.388 OA
ATOM     47  H   LIG d   1       8.900  -4.151  -3.498  0.00  0.00     0.210 HD
ENDBRANCH  21  46
BRANCH  16  48
ATOM     48  C   LIG d   1       7.851  -4.838  -4.866  0.00  0.00    -0.057 C 
ATOM     49  H   LIG d   1       7.563  -5.194  -3.877  0.00  0.00     0.024 H 
ATOM     50  H   LIG d   1       7.489  -5.534  -5.623  0.00  0.00     0.024 H 
ATOM     51  H   LIG d   1       8.937  -4.768  -4.925  0.00  0.00     0.024 H 
ENDBRANCH  16  48
BRANCH   1  52
ATOM     52  C   LIG d   1       3.463  -2.280  -8.729  0.00  0.00    -0.055 C 
ATOM     53  H   LIG d   1       3.333  -1.767  -9.682  0.00  0.00     0.024 H 
ATOM     54  H   LIG d   1       3.916  -3.256  -8.900  0.00  0.00     0.024 H 
ATOM     55  H   LIG d   1       2.492  -2.407  -8.250  0.00  0.00     0.024 H 
ENDBRANCH   1  52
TORSDOF 6
ENDMDL
MODEL 9
REMARK VINA RESULT:      -5.4      2.788      3.726
REMARK  6 active torsions:
REMARK  status: ('A' for Active; 'I' for Inactive)
REMARK    1  A    between atoms: C_1  and  C_2 
REMARK    2  A    between atoms: C_17  and  C_29 
REMARK    3  A    between atoms: C_22  and  C_23 
REMARK    4  A    between atoms: C_22  and  O_28 
REMARK    5  A    between atoms: C_23  and  C_24 
REMARK    6  A    between atoms: C_24  and  C_25 
ROOT
ATOM      1  C   LIG d   1       7.140  -4.596  -5.849  0.00  0.00    -0.003 C 
ATOM      2  C   LIG d   1       6.181  -4.716  -7.033  0.00  0.00    -0.036 C 
ATOM      3  C   LIG d   1       6.876  -5.379  -8.223  0.00  0.00     0.011 C 
ATOM      4  C   LIG d   1       8.110  -4.590  -8.578  0.00  0.00     0.156 C 
ATOM      5  O   LIG d   1       8.471  -4.512  -9.736  0.00  0.00    -0.293 OA
ATOM      6  C   LIG d   1       8.840  -3.943  -7.569  0.00  0.00    -0.015 C 
ATOM      7  C   LIG d   1       8.421  -3.940  -6.284  0.00  0.00    -0.038 C 
ATOM      8  C   LIG d   1       9.247  -3.272  -5.264  0.00  0.00    -0.062 C 
ATOM      9  C   LIG d   1       8.576  -2.502  -4.385  0.00  0.00    -0.080 C 
ATOM     10  C   LIG d   1       7.077  -2.416  -4.551  0.00  0.00    -0.016 C 
ATOM     11  H   LIG d   1       6.860  -1.821  -5.437  0.00  0.00     0.035 H 
ATOM     12  C   LIG d   1       6.476  -3.800  -4.731  0.00  0.00    -0.025 C 
ATOM     13  H   LIG d   1       6.598  -4.353  -3.797  0.00  0.00     0.032 H 
ATOM     14  C   LIG d   1       4.977  -3.636  -5.004  0.00  0.00    -0.048 C 
ATOM     15  C   LIG d   1       4.321  -2.999  -3.787  0.00  0.00    -0.044 C 
ATOM     16  C   LIG d   1       4.951  -1.708  -3.333  0.00  0.00     0.000 C 
ATOM     17  C   LIG d   1       6.487  -1.721  -3.325  0.00  0.00    -0.026 C 
ATOM     18  H   LIG d   1       6.878  -2.160  -2.397  0.00  0.00     0.031 H 
ATOM     19  C   LIG d   1       6.863  -0.215  -3.442  0.00  0.00    -0.046 C 
ATOM     20  C   LIG d   1       5.787   0.349  -4.395  0.00  0.00    -0.023 C 
ATOM     21  C   LIG d   1       4.506  -0.452  -4.077  0.00  0.00     0.072 C 
ATOM     22  H   LIG d   1       5.318  -5.320  -6.745  0.00  0.00     0.028 H 
ATOM     23  H   LIG d   1       5.840  -3.722  -7.330  0.00  0.00     0.028 H 
ATOM     24  H   LIG d   1       7.147  -6.404  -7.985  0.00  0.00     0.035 H 
ATOM     25  H   LIG d   1       6.195  -5.383  -9.080  0.00  0.00     0.035 H 
ATOM     26  H   LIG d   1       9.758  -3.436  -7.825  0.00  0.00     0.066 H 
ATOM     27  H   LIG d   1      10.318  -3.394  -5.225  0.00  0.00     0.062 H 
ATOM     28  H   LIG d   1       9.086  -1.970  -3.597  0.00  0.00     0.058 H 
ATOM     29  H   LIG d   1       4.826  -3.033  -5.894  0.00  0.00     0.027 H 
ATOM     30  H   LIG d   1       4.533  -4.625  -5.170  0.00  0.00     0.027 H 
ATOM     31  H   LIG d   1       3.256  -2.863  -3.964  0.00  0.00     0.027 H 
ATOM     32  H   LIG d   1       4.403  -3.718  -2.952  0.00  0.00     0.027 H 
ATOM     33  H   LIG d   1       6.815   0.275  -2.472  0.00  0.00     0.027 H 
ATOM     34  H   LIG d   1       7.855  -0.099  -3.878  0.00  0.00     0.027 H 
ATOM     35  H   LIG d   1       5.627   1.407  -4.200  0.00  0.00     0.029 H 
ATOM     36  H   LIG d   1       6.080   0.192  -5.431  0.00  0.00     0.029 H 
ENDROOT
BRANCH  21  37
ATOM     37  C   LIG d   1       3.747  -0.750  -5.367  0.00  0.00    -0.018 C 
ATOM     38  H   LIG d   1       3.513  -1.814  -5.413  0.00  0.00     0.030 H 
ATOM     39  H   LIG d   1       2.821  -0.175  -5.386  0.00  0.00     0.030 H 
BRANCH  37  40
ATOM     40  C   LIG d   1       4.611  -0.365  -6.569  0.00  0.00    -0.011 C 
ATOM     41  H   LIG d   1       5.382   0.337  -6.252  0.00  0.00     0.033 H 
ATOM     42  H   LIG d   1       5.081  -1.258  -6.980  0.00  0.00     0.033 H 
BRANCH  40  43
ATOM     43  C   LIG d   1       3.748   0.279  -7.623  0.00  0.00     0.042 C 
ATOM     44  O   LIG d   1       2.701  -0.248  -7.960  0.00  0.00    -0.550 OA
ATOM     45  O   LIG d   1       4.097   1.327  -8.139  0.00  0.00    -0.550 OA
ENDBRANCH  40  43
ENDBRANCH  37  40
ENDBRANCH  21  37
BRANCH  21  46
ATOM     46  O   LIG d   1       3.670   0.338  -3.214  0.00  0.00    -0.388 OA
ATOM     47  H   LIG d   1       2.738   0.078  -3.222  0.00  0.00     0.210 HD
ENDBRANCH  21  46
BRANCH  16  48
ATOM     48  C   LIG d   1       4.511  -1.516  -1.856  0.00  0.00    -0.057 C 
ATOM     49  H   LIG d   1       3.587  -2.064  -1.679  0.00  0.00     0.024 H 
ATOM     50  H   LIG d   1       5.291  -1.891  -1.193  0.00  0.00     0.024 H 
ATOM     51  H   LIG d   1       4.347  -0.456  -1.663  0.00  0.00     0.024 H 
ENDBRANCH  16  48
BRANCH   1  52
ATOM     52  C   LIG d   1       7.460  -5.996  -5.313  0.00  0.00    -0.055 C 
ATOM     53  H   LIG d   1       7.239  -6.036  -4.246  0.00  0.00     0.024 H 
ATOM     54  H   LIG d   1       6.852  -6.733  -5.838  0.00  0.00     0.024 H 
ATOM     55  H   LIG d   1       8.515  -6.214  -5.474  0.00  0.00     0.024 H 
ENDBRANCH   1  52
TORSDOF 6
ENDMDL
MODEL 10
REMARK VINA RESULT:      -5.4      3.071      5.147
REMARK  6 active torsions:
REMARK  status: ('A' for Active; 'I' for Inactive)
REMARK    1  A    between atoms: C_1  and  C_2 
REMARK    2  A    between atoms: C_17  and  C_29 
REMARK    3  A    between atoms: C_22  and  C_23 
REMARK    4  A    between atoms: C_22  and  O_28 
REMARK    5  A    between atoms: C_23  and  C_24 
REMARK    6  A    between atoms: C_24  and  C_25 
ROOT
ATOM      1  C   LIG d   1       4.425  -1.150  -9.204  0.00  0.00    -0.003 C 
ATOM      2  C   LIG d   1       4.837  -2.568  -9.602  0.00  0.00    -0.036 C 
ATOM      3  C   LIG d   1       4.058  -3.028 -10.835  0.00  0.00     0.011 C 
ATOM      4  C   LIG d   1       2.581  -2.932 -10.552  0.00  0.00     0.156 C 
ATOM      5  O   LIG d   1       1.813  -3.733 -11.046  0.00  0.00    -0.293 OA
ATOM      6  C   LIG d   1       2.095  -1.916  -9.714  0.00  0.00    -0.015 C 
ATOM      7  C   LIG d   1       2.929  -1.061  -9.083  0.00  0.00    -0.038 C 
ATOM      8  C   LIG d   1       2.359   0.006  -8.243  0.00  0.00    -0.062 C 
ATOM      9  C   LIG d   1       2.959   0.192  -7.051  0.00  0.00    -0.080 C 
ATOM     10  C   LIG d   1       4.129  -0.705  -6.724  0.00  0.00    -0.016 C 
ATOM     11  H   LIG d   1       3.753  -1.707  -6.524  0.00  0.00     0.035 H 
ATOM     12  C   LIG d   1       5.100  -0.770  -7.891  0.00  0.00    -0.025 C 
ATOM     13  H   LIG d   1       5.558   0.214  -8.014  0.00  0.00     0.032 H 
ATOM     14  C   LIG d   1       6.200  -1.777  -7.540  0.00  0.00    -0.048 C 
ATOM     15  C   LIG d   1       6.966  -1.267  -6.327  0.00  0.00    -0.044 C 
ATOM     16  C   LIG d   1       6.110  -0.936  -5.133  0.00  0.00     0.000 C 
ATOM     17  C   LIG d   1       4.821  -0.172  -5.470  0.00  0.00    -0.026 C 
ATOM     18  H   LIG d   1       5.006   0.908  -5.552  0.00  0.00     0.031 H 
ATOM     19  C   LIG d   1       3.883  -0.496  -4.271  0.00  0.00    -0.046 C 
ATOM     20  C   LIG d   1       4.218  -1.967  -3.943  0.00  0.00    -0.023 C 
ATOM     21  C   LIG d   1       5.726  -2.115  -4.242  0.00  0.00     0.072 C 
ATOM     22  H   LIG d   1       5.905  -2.588  -9.829  0.00  0.00     0.028 H 
ATOM     23  H   LIG d   1       4.633  -3.252  -8.777  0.00  0.00     0.028 H 
ATOM     24  H   LIG d   1       4.311  -2.417 -11.697  0.00  0.00     0.035 H 
ATOM     25  H   LIG d   1       4.314  -4.070 -11.052  0.00  0.00     0.035 H 
ATOM     26  H   LIG d   1       1.030  -1.815  -9.570  0.00  0.00     0.066 H 
ATOM     27  H   LIG d   1       1.516   0.597  -8.563  0.00  0.00     0.062 H 
ATOM     28  H   LIG d   1       2.620   0.949  -6.360  0.00  0.00     0.058 H 
ATOM     29  H   LIG d   1       5.763  -2.752  -7.350  0.00  0.00     0.027 H 
ATOM     30  H   LIG d   1       6.892  -1.861  -8.388  0.00  0.00     0.027 H 
ATOM     31  H   LIG d   1       7.747  -1.974  -6.054  0.00  0.00     0.027 H 
ATOM     32  H   LIG d   1       7.484  -0.340  -6.629  0.00  0.00     0.027 H 
ATOM     33  H   LIG d   1       4.099   0.148  -3.422  0.00  0.00     0.027 H 
ATOM     34  H   LIG d   1       2.837  -0.401  -4.564  0.00  0.00     0.027 H 
ATOM     35  H   LIG d   1       4.021  -2.174  -2.893  0.00  0.00     0.029 H 
ATOM     36  H   LIG d   1       3.642  -2.637  -4.579  0.00  0.00     0.029 H 
ENDROOT
BRANCH  21  37
ATOM     37  C   LIG d   1       5.998  -3.472  -4.883  0.00  0.00    -0.018 C 
ATOM     38  H   LIG d   1       6.277  -3.330  -5.928  0.00  0.00     0.030 H 
ATOM     39  H   LIG d   1       6.811  -3.968  -4.354  0.00  0.00     0.030 H 
BRANCH  37  40
ATOM     40  C   LIG d   1       4.737  -4.335  -4.805  0.00  0.00    -0.011 C 
ATOM     41  H   LIG d   1       4.875  -5.112  -4.052  0.00  0.00     0.033 H 
ATOM     42  H   LIG d   1       3.886  -3.712  -4.533  0.00  0.00     0.033 H 
BRANCH  40  43
ATOM     43  C   LIG d   1       4.483  -4.975  -6.145  0.00  0.00     0.042 C 
ATOM     44  O   LIG d   1       3.378  -5.418  -6.411  0.00  0.00    -0.550 OA
ATOM     45  O   LIG d   1       5.383  -5.052  -6.965  0.00  0.00    -0.550 OA
ENDBRANCH  40  43
ENDBRANCH  37  40
ENDBRANCH  21  37
BRANCH  21  46
ATOM     46  O   LIG d   1       6.452  -2.028  -3.004  0.00  0.00    -0.388 OA
ATOM     47  H   LIG d   1       6.854  -1.162  -2.844  0.00  0.00     0.210 HD
ENDBRANCH  21  46
BRANCH  16  48
ATOM     48  C   LIG d   1       6.960   0.016  -4.250  0.00  0.00    -0.057 C 
ATOM     49  H   LIG d   1       8.017  -0.220  -4.375  0.00  0.00     0.024 H 
ATOM     50  H   LIG d   1       6.780   1.048  -4.550  0.00  0.00     0.024 H 
ATOM     51  H   LIG d   1       6.681  -0.114  -3.205  0.00  0.00     0.024 H 
ENDBRANCH  16  48
BRANCH   1  52
ATOM     52  C   LIG d   1       4.892  -0.167 -10.284  0.00  0.00    -0.055 C 
ATOM     53  H   LIG d   1       4.051   0.449 -10.603  0.00  0.00     0.024 H 
ATOM     54  H   LIG d   1       5.677   0.472  -9.879  0.00  0.00     0.024 H 
ATOM     55  H   LIG d   1       5.280  -0.723 -11.137  0.00  0.00     0.024 H 
ENDBRANCH   1  52
TORSDOF 6
ENDMDL
