MODEL 1
REMARK VINA RESULT:      -7.3      0.000      0.000
REMARK  7 active torsions:
REMARK  status: ('A' for Active; 'I' for Inactive)
REMARK    1  A    between atoms: C_1  and  O_2 
REMARK    2  A    between atoms: O_2  and  C_3 
REMARK    3  A    between atoms: C_7  and  O_9 
REMARK    4  A    between atoms: O_9  and  C_10 
REMARK    5  A    between atoms: C_16  and  O_25 
REMARK    6  A    between atoms: C_20  and  C_21 
REMARK    7  A    between atoms: O_25  and  C_26 
REMARK       I    between atoms: C_26  and  N_28 
ROOT
ATOM      1  C   LIG d   1       6.001  -0.206  -4.601  0.00  0.00     0.222 A 
ATOM      2  C   LIG d   1       7.058   0.043  -5.522  0.00  0.00     0.235 A 
ATOM      3  O   LIG d   1       7.165  -0.598  -6.554  0.00  0.00    -0.283 OA
ATOM      4  C   LIG d   1       8.016   1.108  -5.177  0.00  0.00     0.068 A 
ATOM      5  C   LIG d   1       9.084   1.425  -6.018  0.00  0.00    -0.044 A 
ATOM      6  C   LIG d   1       9.949   2.421  -5.666  0.00  0.00    -0.018 A 
ATOM      7  C   LIG d   1       9.776   3.115  -4.470  0.00  0.00     0.137 A 
ATOM      8  C   LIG d   1       8.721   2.813  -3.627  0.00  0.00     0.024 A 
ATOM      9  C   LIG d   1       7.830   1.806  -3.971  0.00  0.00     0.143 A 
ATOM     10  O   LIG d   1       6.794   1.491  -3.168  0.00  0.00    -0.447 OA
ATOM     11  C   LIG d   1       5.917   0.524  -3.472  0.00  0.00     0.254 A 
ATOM     12  H   LIG d   1       9.224   0.887  -6.943  0.00  0.00     0.063 H 
ATOM     13  H   LIG d   1      10.773   2.672  -6.317  0.00  0.00     0.065 H 
ATOM     14  H   LIG d   1       8.593   3.358  -2.703  0.00  0.00     0.069 H 
ENDROOT
BRANCH   7  15
ATOM     15  O   LIG d   1      10.647   4.101  -4.132  0.00  0.00    -0.411 OA
BRANCH  15  16
ATOM     16  C   LIG d   1      10.144   5.343  -4.001  0.00  0.00     0.408 C 
ATOM     17  O   LIG d   1       9.426   5.802  -4.868  0.00  0.00    -0.226 OA
ATOM     18  N   LIG d   1      10.434   6.077  -2.908  0.00  0.00    -0.263 N 
ATOM     19  C   LIG d   1      11.300   5.541  -1.845  0.00  0.00     0.041 C 
ATOM     20  C   LIG d   1       9.895   7.435  -2.743  0.00  0.00     0.041 C 
ATOM     21  C   LIG d   1      10.589   5.733  -0.500  0.00  0.00     0.064 C 
ATOM     22  H   LIG d   1      11.479   4.480  -2.017  0.00  0.00     0.049 H 
ATOM     23  H   LIG d   1      12.249   6.078  -1.839  0.00  0.00     0.049 H 
ATOM     24  O   LIG d   1      10.193   7.101  -0.368  0.00  0.00    -0.377 OA
ATOM     25  H   LIG d   1       9.707   5.094  -0.460  0.00  0.00     0.058 H 
ATOM     26  H   LIG d   1      11.268   5.470   0.311  0.00  0.00     0.058 H 
ATOM     27  C   LIG d   1       9.253   7.536  -1.354  0.00  0.00     0.064 C 
ATOM     28  H   LIG d   1       8.971   8.570  -1.157  0.00  0.00     0.058 H 
ATOM     29  H   LIG d   1       8.367   6.902  -1.317  0.00  0.00     0.058 H 
ATOM     30  H   LIG d   1       9.145   7.629  -3.509  0.00  0.00     0.049 H 
ATOM     31  H   LIG d   1      10.702   8.164  -2.827  0.00  0.00     0.049 H 
ENDBRANCH  15  16
ENDBRANCH   7  15
BRANCH  11  32
ATOM     32  C   LIG d   1       4.791   0.245  -2.512  0.00  0.00     0.454 C 
ATOM     33  F   LIG d   1       4.924   1.066  -1.386  0.00  0.00    -0.163 F 
ATOM     34  F   LIG d   1       3.568   0.504  -3.138  0.00  0.00    -0.163 F 
ATOM     35  F   LIG d   1       4.838  -1.097  -2.116  0.00  0.00    -0.163 F 
ENDBRANCH  11  32
BRANCH   1  36
ATOM     36  O   LIG d   1       5.081  -1.176  -4.859  0.00  0.00    -0.448 OA
BRANCH  36  37
ATOM     37  C   LIG d   1       4.353  -1.076  -6.002  0.00  0.00     0.132 A 
ATOM     38  C   LIG d   1       3.538   0.027  -6.212  0.00  0.00    -0.019 A 
ATOM     39  C   LIG d   1       2.802   0.132  -7.377  0.00  0.00    -0.055 A 
ATOM     40  H   LIG d   1       3.483   0.808  -5.467  0.00  0.00     0.065 H 
ATOM     41  C   LIG d   1       2.866  -0.867  -8.330  0.00  0.00    -0.020 A 
ATOM     42  H   LIG d   1       2.172   0.994  -7.541  0.00  0.00     0.062 H 
ATOM     43  C   LIG d   1       3.675  -1.976  -8.121  0.00  0.00     0.124 A 
ATOM     44  H   LIG d   1       2.286  -0.785  -9.236  0.00  0.00     0.065 H 
ATOM     45  C   LIG d   1       4.418  -2.080  -6.956  0.00  0.00     0.022 A 
ATOM     46  H   LIG d   1       5.047  -2.943  -6.791  0.00  0.00     0.069 H 
BRANCH  43  47
ATOM     47  O   LIG d   1       3.736  -2.958  -9.058  0.00  0.00    -0.495 OA
BRANCH  47  48
ATOM     48  C   LIG d   1       2.558  -3.191  -9.832  0.00  0.00     0.079 C 
ATOM     49  H   LIG d   1       1.714  -2.674  -9.375  0.00  0.00     0.066 H 
ATOM     50  H   LIG d   1       2.708  -2.814 -10.844  0.00  0.00     0.066 H 
ATOM     51  H   LIG d   1       2.353  -4.260  -9.870  0.00  0.00     0.066 H 
ENDBRANCH  47  48
ENDBRANCH  43  47
ENDBRANCH  36  37
ENDBRANCH   1  36
TORSDOF 7
ENDMDL
MODEL 2
REMARK VINA RESULT:      -7.1      1.466      2.219
REMARK  7 active torsions:
REMARK  status: ('A' for Active; 'I' for Inactive)
REMARK    1  A    between atoms: C_1  and  O_2 
REMARK    2  A    between atoms: O_2  and  C_3 
REMARK    3  A    between atoms: C_7  and  O_9 
REMARK    4  A    between atoms: O_9  and  C_10 
REMARK    5  A    between atoms: C_16  and  O_25 
REMARK    6  A    between atoms: C_20  and  C_21 
REMARK    7  A    between atoms: O_25  and  C_26 
REMARK       I    between atoms: C_26  and  N_28 
ROOT
ATOM      1  C   LIG d   1       6.152  -0.906  -3.693  0.00  0.00     0.222 A 
ATOM      2  C   LIG d   1       7.424  -0.909  -4.333  0.00  0.00     0.235 A 
ATOM      3  O   LIG d   1       7.883  -1.925  -4.827  0.00  0.00    -0.283 OA
ATOM      4  C   LIG d   1       8.162   0.366  -4.372  0.00  0.00     0.068 A 
ATOM      5  C   LIG d   1       9.415   0.462  -4.978  0.00  0.00    -0.044 A 
ATOM      6  C   LIG d   1      10.067   1.662  -4.998  0.00  0.00    -0.018 A 
ATOM      7  C   LIG d   1       9.491   2.787  -4.410  0.00  0.00     0.137 A 
ATOM      8  C   LIG d   1       8.248   2.708  -3.808  0.00  0.00     0.024 A 
ATOM      9  C   LIG d   1       7.570   1.496  -3.782  0.00  0.00     0.143 A 
ATOM     10  O   LIG d   1       6.358   1.391  -3.201  0.00  0.00    -0.447 OA
ATOM     11  C   LIG d   1       5.679   0.237  -3.159  0.00  0.00     0.254 A 
ATOM     12  H   LIG d   1       9.867  -0.408  -5.430  0.00  0.00     0.063 H 
ATOM     13  H   LIG d   1      11.035   1.740  -5.470  0.00  0.00     0.065 H 
ATOM     14  H   LIG d   1       7.807   3.585  -3.358  0.00  0.00     0.069 H 
ENDROOT
BRANCH   7  15
ATOM     15  O   LIG d   1      10.153   3.972  -4.436  0.00  0.00    -0.411 OA
BRANCH  15  16
ATOM     16  C   LIG d   1      10.252   4.642  -3.271  0.00  0.00     0.408 C 
ATOM     17  O   LIG d   1      10.706   4.088  -2.289  0.00  0.00    -0.226 OA
ATOM     18  N   LIG d   1       9.848   5.926  -3.195  0.00  0.00    -0.263 N 
ATOM     19  C   LIG d   1       9.296   6.616  -4.371  0.00  0.00     0.041 C 
ATOM     20  C   LIG d   1       9.948   6.677  -1.934  0.00  0.00     0.041 C 
ATOM     21  C   LIG d   1      10.031   7.951  -4.537  0.00  0.00     0.064 C 
ATOM     22  H   LIG d   1       9.443   6.003  -5.260  0.00  0.00     0.049 H 
ATOM     23  H   LIG d   1       8.231   6.800  -4.223  0.00  0.00     0.049 H 
ATOM     24  O   LIG d   1       9.990   8.669  -3.302  0.00  0.00    -0.377 OA
ATOM     25  H   LIG d   1      11.069   7.763  -4.814  0.00  0.00     0.058 H 
ATOM     26  H   LIG d   1       9.547   8.539  -5.317  0.00  0.00     0.058 H 
ATOM     27  C   LIG d   1      10.651   8.009  -2.219  0.00  0.00     0.064 C 
ATOM     28  H   LIG d   1      10.612   8.639  -1.330  0.00  0.00     0.058 H 
ATOM     29  H   LIG d   1      11.691   7.821  -2.487  0.00  0.00     0.058 H 
ATOM     30  H   LIG d   1      10.525   6.104  -1.209  0.00  0.00     0.049 H 
ATOM     31  H   LIG d   1       8.949   6.867  -1.540  0.00  0.00     0.049 H 
ENDBRANCH  15  16
ENDBRANCH   7  15
BRANCH  11  32
ATOM     32  C   LIG d   1       4.331   0.217  -2.488  0.00  0.00     0.454 C 
ATOM     33  F   LIG d   1       4.106   1.447  -1.858  0.00  0.00    -0.163 F 
ATOM     34  F   LIG d   1       3.336  -0.006  -3.445  0.00  0.00    -0.163 F 
ATOM     35  F   LIG d   1       4.299  -0.806  -1.534  0.00  0.00    -0.163 F 
ENDBRANCH  11  32
BRANCH   1  36
ATOM     36  O   LIG d   1       5.417  -2.051  -3.622  0.00  0.00    -0.448 OA
BRANCH  36  37
ATOM     37  C   LIG d   1       5.030  -2.633  -4.786  0.00  0.00     0.132 A 
ATOM     38  C   LIG d   1       5.048  -4.015  -4.912  0.00  0.00    -0.019 A 
ATOM     39  C   LIG d   1       4.647  -4.608  -6.094  0.00  0.00    -0.055 A 
ATOM     40  H   LIG d   1       5.370  -4.628  -4.083  0.00  0.00     0.065 H 
ATOM     41  C   LIG d   1       4.240  -3.826  -7.158  0.00  0.00    -0.020 A 
ATOM     42  H   LIG d   1       4.658  -5.684  -6.188  0.00  0.00     0.062 H 
ATOM     43  C   LIG d   1       4.226  -2.443  -7.040  0.00  0.00     0.124 A 
ATOM     44  H   LIG d   1       3.932  -4.292  -8.082  0.00  0.00     0.065 H 
ATOM     45  C   LIG d   1       4.621  -1.847  -5.853  0.00  0.00     0.022 A 
ATOM     46  H   LIG d   1       4.612  -0.770  -5.759  0.00  0.00     0.069 H 
BRANCH  43  47
ATOM     47  O   LIG d   1       3.825  -1.676  -8.087  0.00  0.00    -0.495 OA
BRANCH  47  48
ATOM     48  C   LIG d   1       3.133  -0.465  -7.777  0.00  0.00     0.079 C 
ATOM     49  H   LIG d   1       2.667  -0.071  -8.681  0.00  0.00     0.066 H 
ATOM     50  H   LIG d   1       2.365  -0.666  -7.030  0.00  0.00     0.066 H 
ATOM     51  H   LIG d   1       3.839   0.267  -7.385  0.00  0.00     0.066 H 
ENDBRANCH  47  48
ENDBRANCH  43  47
ENDBRANCH  36  37
ENDBRANCH   1  36
TORSDOF 7
ENDMDL
MODEL 3
REMARK VINA RESULT:      -7.0      6.368     11.446
REMARK  7 active torsions:
REMARK  status: ('A' for Active; 'I' for Inactive)
REMARK    1  A    between atoms: C_1  and  O_2 
REMARK    2  A    between atoms: O_2  and  C_3 
REMARK    3  A    between atoms: C_7  and  O_9 
REMARK    4  A    between atoms: O_9  and  C_10 
REMARK    5  A    between atoms: C_16  and  O_25 
REMARK    6  A    between atoms: C_20  and  C_21 
REMARK    7  A    between atoms: O_25  and  C_26 
REMARK       I    between atoms: C_26  and  N_28 
ROOT
ATOM      1  C   LIG d   1       3.655  -0.256  -8.393  0.00  0.00     0.222 A 
ATOM      2  C   LIG d   1       3.363  -1.635  -8.588  0.00  0.00     0.235 A 
ATOM      3  O   LIG d   1       3.775  -2.486  -7.817  0.00  0.00    -0.283 OA
ATOM      4  C   LIG d   1       2.543  -1.992  -9.759  0.00  0.00     0.068 A 
ATOM      5  C   LIG d   1       2.204  -3.318 -10.032  0.00  0.00    -0.044 A 
ATOM      6  C   LIG d   1       1.438  -3.608 -11.124  0.00  0.00    -0.018 A 
ATOM      7  C   LIG d   1       1.002  -2.591 -11.971  0.00  0.00     0.137 A 
ATOM      8  C   LIG d   1       1.329  -1.271 -11.712  0.00  0.00     0.024 A 
ATOM      9  C   LIG d   1       2.103  -0.958 -10.603  0.00  0.00     0.143 A 
ATOM     10  O   LIG d   1       2.436   0.319 -10.328  0.00  0.00    -0.447 OA
ATOM     11  C   LIG d   1       3.182   0.655  -9.267  0.00  0.00     0.254 A 
ATOM     12  H   LIG d   1       2.543  -4.109  -9.381  0.00  0.00     0.063 H 
ATOM     13  H   LIG d   1       1.170  -4.633 -11.335  0.00  0.00     0.065 H 
ATOM     14  H   LIG d   1       0.984  -0.489 -12.372  0.00  0.00     0.069 H 
ENDROOT
BRANCH   7  15
ATOM     15  O   LIG d   1       0.245  -2.897 -13.056  0.00  0.00    -0.411 OA
BRANCH  15  16
ATOM     16  C   LIG d   1      -1.007  -3.335 -12.823  0.00  0.00     0.408 C 
ATOM     17  O   LIG d   1      -1.184  -4.363 -12.198  0.00  0.00    -0.226 OA
ATOM     18  N   LIG d   1      -2.064  -2.635 -13.281  0.00  0.00    -0.263 N 
ATOM     19  C   LIG d   1      -1.873  -1.388 -14.039  0.00  0.00     0.041 C 
ATOM     20  C   LIG d   1      -3.440  -3.094 -13.038  0.00  0.00     0.041 C 
ATOM     21  C   LIG d   1      -2.755  -0.302 -13.411  0.00  0.00     0.064 C 
ATOM     22  H   LIG d   1      -0.828  -1.085 -13.991  0.00  0.00     0.049 H 
ATOM     23  H   LIG d   1      -2.165  -1.541 -15.078  0.00  0.00     0.049 H 
ATOM     24  O   LIG d   1      -4.097  -0.785 -13.309  0.00  0.00    -0.377 OA
ATOM     25  H   LIG d   1      -2.380  -0.058 -12.417  0.00  0.00     0.058 H 
ATOM     26  H   LIG d   1      -2.735   0.591 -14.037  0.00  0.00     0.058 H 
ATOM     27  C   LIG d   1      -4.245  -1.925 -12.460  0.00  0.00     0.064 C 
ATOM     28  H   LIG d   1      -5.298  -2.202 -12.402  0.00  0.00     0.058 H 
ATOM     29  H   LIG d   1      -3.875  -1.687 -11.462  0.00  0.00     0.058 H 
ATOM     30  H   LIG d   1      -3.432  -3.922 -12.329  0.00  0.00     0.049 H 
ATOM     31  H   LIG d   1      -3.890  -3.420 -13.977  0.00  0.00     0.049 H 
ENDBRANCH  15  16
ENDBRANCH   7  15
BRANCH  11  32
ATOM     32  C   LIG d   1       3.503   2.109  -9.041  0.00  0.00     0.454 C 
ATOM     33  F   LIG d   1       4.859   2.243  -8.723  0.00  0.00    -0.163 F 
ATOM     34  F   LIG d   1       3.222   2.835 -10.203  0.00  0.00    -0.163 F 
ATOM     35  F   LIG d   1       2.727   2.599  -7.985  0.00  0.00    -0.163 F 
ENDBRANCH  11  32
BRANCH   1  36
ATOM     36  O   LIG d   1       4.408   0.143  -7.330  0.00  0.00    -0.448 OA
BRANCH  36  37
ATOM     37  C   LIG d   1       3.939  -0.119  -6.082  0.00  0.00     0.132 A 
ATOM     38  C   LIG d   1       2.681   0.331  -5.705  0.00  0.00    -0.019 A 
ATOM     39  C   LIG d   1       2.200   0.060  -4.438  0.00  0.00    -0.055 A 
ATOM     40  H   LIG d   1       2.075   0.889  -6.404  0.00  0.00     0.065 H 
ATOM     41  C   LIG d   1       2.975  -0.649  -3.540  0.00  0.00    -0.020 A 
ATOM     42  H   LIG d   1       1.220   0.407  -4.148  0.00  0.00     0.062 H 
ATOM     43  C   LIG d   1       4.236  -1.096  -3.911  0.00  0.00     0.124 A 
ATOM     44  H   LIG d   1       2.599  -0.855  -2.549  0.00  0.00     0.065 H 
ATOM     45  C   LIG d   1       4.718  -0.830  -5.182  0.00  0.00     0.022 A 
ATOM     46  H   LIG d   1       5.699  -1.176  -5.473  0.00  0.00     0.069 H 
BRANCH  43  47
ATOM     47  O   LIG d   1       4.997  -1.792  -3.026  0.00  0.00    -0.495 OA
BRANCH  47  48
ATOM     48  C   LIG d   1       6.414  -1.734  -3.202  0.00  0.00     0.079 C 
ATOM     49  H   LIG d   1       6.654  -1.017  -3.988  0.00  0.00     0.066 H 
ATOM     50  H   LIG d   1       6.884  -1.422  -2.269  0.00  0.00     0.066 H 
ATOM     51  H   LIG d   1       6.786  -2.719  -3.484  0.00  0.00     0.066 H 
ENDBRANCH  47  48
ENDBRANCH  43  47
ENDBRANCH  36  37
ENDBRANCH   1  36
TORSDOF 7
ENDMDL
MODEL 4
REMARK VINA RESULT:      -6.9      1.590      2.250
REMARK  7 active torsions:
REMARK  status: ('A' for Active; 'I' for Inactive)
REMARK    1  A    between atoms: C_1  and  O_2 
REMARK    2  A    between atoms: O_2  and  C_3 
REMARK    3  A    between atoms: C_7  and  O_9 
REMARK    4  A    between atoms: O_9  and  C_10 
REMARK    5  A    between atoms: C_16  and  O_25 
REMARK    6  A    between atoms: C_20  and  C_21 
REMARK    7  A    between atoms: O_25  and  C_26 
REMARK       I    between atoms: C_26  and  N_28 
ROOT
ATOM      1  C   LIG d   1       5.726  -0.287  -4.580  0.00  0.00     0.222 A 
ATOM      2  C   LIG d   1       6.676   0.052  -5.585  0.00  0.00     0.235 A 
ATOM      3  O   LIG d   1       6.666  -0.491  -6.677  0.00  0.00    -0.283 OA
ATOM      4  C   LIG d   1       7.671   1.087  -5.251  0.00  0.00     0.068 A 
ATOM      5  C   LIG d   1       8.641   1.486  -6.171  0.00  0.00    -0.044 A 
ATOM      6  C   LIG d   1       9.543   2.452  -5.827  0.00  0.00    -0.018 A 
ATOM      7  C   LIG d   1       9.506   3.031  -4.560  0.00  0.00     0.137 A 
ATOM      8  C   LIG d   1       8.549   2.647  -3.637  0.00  0.00     0.024 A 
ATOM      9  C   LIG d   1       7.621   1.670  -3.973  0.00  0.00     0.143 A 
ATOM     10  O   LIG d   1       6.678   1.277  -3.093  0.00  0.00    -0.447 OA
ATOM     11  C   LIG d   1       5.770   0.337  -3.386  0.00  0.00     0.254 A 
ATOM     12  H   LIG d   1       8.676   1.036  -7.152  0.00  0.00     0.063 H 
ATOM     13  H   LIG d   1      10.292   2.766  -6.538  0.00  0.00     0.065 H 
ATOM     14  H   LIG d   1       8.525   3.104  -2.659  0.00  0.00     0.069 H 
ENDROOT
BRANCH   7  15
ATOM     15  O   LIG d   1      10.413   3.987  -4.231  0.00  0.00    -0.411 OA
BRANCH  15  16
ATOM     16  C   LIG d   1       9.949   5.242  -4.073  0.00  0.00     0.408 C 
ATOM     17  O   LIG d   1       9.193   5.719  -4.897  0.00  0.00    -0.226 OA
ATOM     18  N   LIG d   1      10.320   5.968  -3.000  0.00  0.00    -0.263 N 
ATOM     19  C   LIG d   1      11.233   5.411  -1.988  0.00  0.00     0.041 C 
ATOM     20  C   LIG d   1       9.825   7.340  -2.806  0.00  0.00     0.041 C 
ATOM     21  C   LIG d   1      10.606   5.622  -0.604  0.00  0.00     0.064 C 
ATOM     22  H   LIG d   1      11.375   4.346  -2.168  0.00  0.00     0.049 H 
ATOM     23  H   LIG d   1      12.193   5.925  -2.038  0.00  0.00     0.049 H 
ATOM     24  O   LIG d   1      10.252   6.998  -0.452  0.00  0.00    -0.377 OA
ATOM     25  H   LIG d   1       9.713   5.004  -0.512  0.00  0.00     0.058 H 
ATOM     26  H   LIG d   1      11.324   5.342   0.167  0.00  0.00     0.058 H 
ATOM     27  C   LIG d   1       9.268   7.456  -1.382  0.00  0.00     0.064 C 
ATOM     28  H   LIG d   1       9.023   8.497  -1.171  0.00  0.00     0.058 H 
ATOM     29  H   LIG d   1       8.370   6.845  -1.293  0.00  0.00     0.058 H 
ATOM     30  H   LIG d   1       9.037   7.552  -3.528  0.00  0.00     0.049 H 
ATOM     31  H   LIG d   1      10.644   8.048  -2.938  0.00  0.00     0.049 H 
ENDBRANCH  15  16
ENDBRANCH   7  15
BRANCH  11  32
ATOM     32  C   LIG d   1       4.755  -0.037  -2.338  0.00  0.00     0.454 C 
ATOM     33  F   LIG d   1       3.468   0.063  -2.879  0.00  0.00    -0.163 F 
ATOM     34  F   LIG d   1       4.983  -1.350  -1.915  0.00  0.00    -0.163 F 
ATOM     35  F   LIG d   1       4.870   0.832  -1.247  0.00  0.00    -0.163 F 
ENDBRANCH  11  32
BRANCH   1  36
ATOM     36  O   LIG d   1       4.779  -1.235  -4.823  0.00  0.00    -0.448 OA
BRANCH  36  37
ATOM     37  C   LIG d   1       5.197  -2.498  -5.098  0.00  0.00     0.132 A 
ATOM     38  C   LIG d   1       6.355  -2.989  -4.512  0.00  0.00    -0.019 A 
ATOM     39  C   LIG d   1       6.777  -4.276  -4.787  0.00  0.00    -0.055 A 
ATOM     40  H   LIG d   1       6.925  -2.366  -3.838  0.00  0.00     0.065 H 
ATOM     41  C   LIG d   1       6.053  -5.073  -5.653  0.00  0.00    -0.020 A 
ATOM     42  H   LIG d   1       7.676  -4.658  -4.326  0.00  0.00     0.062 H 
ATOM     43  C   LIG d   1       4.897  -4.584  -6.246  0.00  0.00     0.124 A 
ATOM     44  H   LIG d   1       6.388  -6.076  -5.869  0.00  0.00     0.065 H 
ATOM     45  C   LIG d   1       4.469  -3.296  -5.968  0.00  0.00     0.022 A 
ATOM     46  H   LIG d   1       3.570  -2.913  -6.428  0.00  0.00     0.069 H 
BRANCH  43  47
ATOM     47  O   LIG d   1       4.186  -5.368  -7.098  0.00  0.00    -0.495 OA
BRANCH  47  48
ATOM     48  C   LIG d   1       4.517  -6.758  -7.129  0.00  0.00     0.079 C 
ATOM     49  H   LIG d   1       3.643  -7.346  -6.845  0.00  0.00     0.066 H 
ATOM     50  H   LIG d   1       4.829  -7.035  -8.136  0.00  0.00     0.066 H 
ATOM     51  H   LIG d   1       5.329  -6.954  -6.430  0.00  0.00     0.066 H 
ENDBRANCH  47  48
ENDBRANCH  43  47
ENDBRANCH  36  37
ENDBRANCH   1  36
TORSDOF 7
ENDMDL
MODEL 5
REMARK VINA RESULT:      -6.7      6.345     11.679
REMARK  7 active torsions:
REMARK  status: ('A' for Active; 'I' for Inactive)
REMARK    1  A    between atoms: C_1  and  O_2 
REMARK    2  A    between atoms: O_2  and  C_3 
REMARK    3  A    between atoms: C_7  and  O_9 
REMARK    4  A    between atoms: O_9  and  C_10 
REMARK    5  A    between atoms: C_16  and  O_25 
REMARK    6  A    between atoms: C_20  and  C_21 
REMARK    7  A    between atoms: O_25  and  C_26 
REMARK       I    between atoms: C_26  and  N_28 
ROOT
ATOM      1  C   LIG d   1       3.685  -0.249  -8.378  0.00  0.00     0.222 A 
ATOM      2  C   LIG d   1       3.355  -1.621  -8.565  0.00  0.00     0.235 A 
ATOM      3  O   LIG d   1       3.780  -2.484  -7.814  0.00  0.00    -0.283 OA
ATOM      4  C   LIG d   1       2.481  -1.955  -9.702  0.00  0.00     0.068 A 
ATOM      5  C   LIG d   1       2.102  -3.273  -9.966  0.00  0.00    -0.044 A 
ATOM      6  C   LIG d   1       1.286  -3.543 -11.027  0.00  0.00    -0.018 A 
ATOM      7  C   LIG d   1       0.838  -2.512 -11.852  0.00  0.00     0.137 A 
ATOM      8  C   LIG d   1       1.204  -1.201 -11.603  0.00  0.00     0.024 A 
ATOM      9  C   LIG d   1       2.029  -0.909 -10.526  0.00  0.00     0.143 A 
ATOM     10  O   LIG d   1       2.401   0.360 -10.260  0.00  0.00    -0.447 OA
ATOM     11  C   LIG d   1       3.196   0.674  -9.229  0.00  0.00     0.254 A 
ATOM     12  H   LIG d   1       2.451  -4.074  -9.332  0.00  0.00     0.063 H 
ATOM     13  H   LIG d   1       0.988  -4.560 -11.230  0.00  0.00     0.065 H 
ATOM     14  H   LIG d   1       0.849  -0.409 -12.245  0.00  0.00     0.069 H 
ENDROOT
BRANCH   7  15
ATOM     15  O   LIG d   1       0.031  -2.797 -12.906  0.00  0.00    -0.411 OA
BRANCH  15  16
ATOM     16  C   LIG d   1      -0.054  -4.089 -13.279  0.00  0.00     0.408 C 
ATOM     17  O   LIG d   1       0.858  -4.605 -13.895  0.00  0.00    -0.226 OA
ATOM     18  N   LIG d   1      -1.150  -4.810 -12.967  0.00  0.00    -0.263 N 
ATOM     19  C   LIG d   1      -2.266  -4.207 -12.221  0.00  0.00     0.041 C 
ATOM     20  C   LIG d   1      -1.265  -6.222 -13.363  0.00  0.00     0.041 C 
ATOM     21  C   LIG d   1      -2.609  -5.124 -11.041  0.00  0.00     0.064 C 
ATOM     22  H   LIG d   1      -1.971  -3.226 -11.850  0.00  0.00     0.049 H 
ATOM     23  H   LIG d   1      -3.134  -4.109 -12.874  0.00  0.00     0.049 H 
ATOM     24  O   LIG d   1      -2.812  -6.455 -11.522  0.00  0.00    -0.377 OA
ATOM     25  H   LIG d   1      -1.787  -5.117 -10.324  0.00  0.00     0.058 H 
ATOM     26  H   LIG d   1      -3.518  -4.768 -10.556  0.00  0.00     0.058 H 
ATOM     27  C   LIG d   1      -1.657  -7.041 -12.127  0.00  0.00     0.064 C 
ATOM     28  H   LIG d   1      -1.882  -8.065 -12.426  0.00  0.00     0.058 H 
ATOM     29  H   LIG d   1      -0.832  -7.041 -11.415  0.00  0.00     0.058 H 
ATOM     30  H   LIG d   1      -0.309  -6.575 -13.749  0.00  0.00     0.049 H 
ATOM     31  H   LIG d   1      -2.032  -6.327 -14.131  0.00  0.00     0.049 H 
ENDBRANCH  15  16
ENDBRANCH   7  15
BRANCH  11  32
ATOM     32  C   LIG d   1       3.558   2.121  -9.012  0.00  0.00     0.454 C 
ATOM     33  F   LIG d   1       3.297   2.846 -10.181  0.00  0.00    -0.163 F 
ATOM     34  F   LIG d   1       2.795   2.640  -7.961  0.00  0.00    -0.163 F 
ATOM     35  F   LIG d   1       4.917   2.220  -8.696  0.00  0.00    -0.163 F 
ENDBRANCH  11  32
BRANCH   1  36
ATOM     36  O   LIG d   1       4.489   0.129  -7.346  0.00  0.00    -0.448 OA
BRANCH  36  37
ATOM     37  C   LIG d   1       4.042  -0.079  -6.080  0.00  0.00     0.132 A 
ATOM     38  C   LIG d   1       2.757   0.310  -5.725  0.00  0.00    -0.019 A 
ATOM     39  C   LIG d   1       2.300   0.093  -4.439  0.00  0.00    -0.055 A 
ATOM     40  H   LIG d   1       2.113   0.777  -6.455  0.00  0.00     0.065 H 
ATOM     41  C   LIG d   1       3.123  -0.500  -3.501  0.00  0.00    -0.020 A 
ATOM     42  H   LIG d   1       1.299   0.392  -4.166  0.00  0.00     0.062 H 
ATOM     43  C   LIG d   1       4.411  -0.885  -3.850  0.00  0.00     0.124 A 
ATOM     44  H   LIG d   1       2.764  -0.663  -2.496  0.00  0.00     0.065 H 
ATOM     45  C   LIG d   1       4.870  -0.674  -5.140  0.00  0.00     0.022 A 
ATOM     46  H   LIG d   1       5.872  -0.972  -5.413  0.00  0.00     0.069 H 
BRANCH  43  47
ATOM     47  O   LIG d   1       5.219  -1.467  -2.926  0.00  0.00    -0.495 OA
BRANCH  47  48
ATOM     48  C   LIG d   1       6.549  -1.787  -3.337  0.00  0.00     0.079 C 
ATOM     49  H   LIG d   1       6.515  -2.369  -4.259  0.00  0.00     0.066 H 
ATOM     50  H   LIG d   1       7.108  -0.867  -3.510  0.00  0.00     0.066 H 
ATOM     51  H   LIG d   1       7.040  -2.369  -2.558  0.00  0.00     0.066 H 
ENDBRANCH  47  48
ENDBRANCH  43  47
ENDBRANCH  36  37
ENDBRANCH   1  36
TORSDOF 7
ENDMDL
MODEL 6
REMARK VINA RESULT:      -6.6      4.091      5.694
REMARK  7 active torsions:
REMARK  status: ('A' for Active; 'I' for Inactive)
REMARK    1  A    between atoms: C_1  and  O_2 
REMARK    2  A    between atoms: O_2  and  C_3 
REMARK    3  A    between atoms: C_7  and  O_9 
REMARK    4  A    between atoms: O_9  and  C_10 
REMARK    5  A    between atoms: C_16  and  O_25 
REMARK    6  A    between atoms: C_20  and  C_21 
REMARK    7  A    between atoms: O_25  and  C_26 
REMARK       I    between atoms: C_26  and  N_28 
ROOT
ATOM      1  C   LIG d   1       5.185  -0.433  -7.277  0.00  0.00     0.222 A 
ATOM      2  C   LIG d   1       6.591  -0.462  -7.053  0.00  0.00     0.235 A 
ATOM      3  O   LIG d   1       7.113  -1.366  -6.422  0.00  0.00    -0.283 OA
ATOM      4  C   LIG d   1       7.387   0.642  -7.615  0.00  0.00     0.068 A 
ATOM      5  C   LIG d   1       8.771   0.699  -7.448  0.00  0.00    -0.044 A 
ATOM      6  C   LIG d   1       9.476   1.737  -7.988  0.00  0.00    -0.018 A 
ATOM      7  C   LIG d   1       8.819   2.742  -8.695  0.00  0.00     0.137 A 
ATOM      8  C   LIG d   1       7.447   2.699  -8.870  0.00  0.00     0.024 A 
ATOM      9  C   LIG d   1       6.716   1.649  -8.332  0.00  0.00     0.143 A 
ATOM     10  O   LIG d   1       5.379   1.582  -8.488  0.00  0.00    -0.447 OA
ATOM     11  C   LIG d   1       4.645   0.583  -7.980  0.00  0.00     0.254 A 
ATOM     12  H   LIG d   1       9.283  -0.075  -6.897  0.00  0.00     0.063 H 
ATOM     13  H   LIG d   1      10.548   1.780  -7.864  0.00  0.00     0.065 H 
ATOM     14  H   LIG d   1       6.947   3.481  -9.423  0.00  0.00     0.069 H 
ENDROOT
BRANCH   7  15
ATOM     15  O   LIG d   1       9.534   3.770  -9.222  0.00  0.00    -0.411 OA
BRANCH  15  16
ATOM     16  C   LIG d   1       9.493   4.944  -8.563  0.00  0.00     0.408 C 
ATOM     17  O   LIG d   1       9.650   4.970  -7.358  0.00  0.00    -0.226 OA
ATOM     18  N   LIG d   1       9.279   6.090  -9.240  0.00  0.00    -0.263 N 
ATOM     19  C   LIG d   1       9.087   6.083 -10.699  0.00  0.00     0.041 C 
ATOM     20  C   LIG d   1       9.231   7.384  -8.542  0.00  0.00     0.041 C 
ATOM     21  C   LIG d   1      10.032   7.120 -11.316  0.00  0.00     0.064 C 
ATOM     22  H   LIG d   1       9.318   5.094 -11.095  0.00  0.00     0.049 H 
ATOM     23  H   LIG d   1       8.054   6.341 -10.935  0.00  0.00     0.049 H 
ATOM     24  O   LIG d   1       9.848   8.376 -10.658  0.00  0.00    -0.377 OA
ATOM     25  H   LIG d   1      11.064   6.792 -11.191  0.00  0.00     0.058 H 
ATOM     26  H   LIG d   1       9.810   7.230 -12.378  0.00  0.00     0.058 H 
ATOM     27  C   LIG d   1      10.169   8.359  -9.265  0.00  0.00     0.064 C 
ATOM     28  H   LIG d   1      10.044   9.359  -8.850  0.00  0.00     0.058 H 
ATOM     29  H   LIG d   1      11.201   8.035  -9.132  0.00  0.00     0.058 H 
ATOM     30  H   LIG d   1       9.556   7.258  -7.510  0.00  0.00     0.049 H 
ATOM     31  H   LIG d   1       8.212   7.774  -8.560  0.00  0.00     0.049 H 
ENDBRANCH  15  16
ENDBRANCH   7  15
BRANCH  11  32
ATOM     32  C   LIG d   1       3.156   0.594  -8.206  0.00  0.00     0.454 C 
ATOM     33  F   LIG d   1       2.838   1.565  -9.163  0.00  0.00    -0.163 F 
ATOM     34  F   LIG d   1       2.743  -0.662  -8.661  0.00  0.00    -0.163 F 
ATOM     35  F   LIG d   1       2.504   0.893  -7.005  0.00  0.00    -0.163 F 
ENDBRANCH  11  32
BRANCH   1  36
ATOM     36  O   LIG d   1       4.390  -1.423  -6.786  0.00  0.00    -0.448 OA
BRANCH  36  37
ATOM     37  C   LIG d   1       4.295  -1.554  -5.437  0.00  0.00     0.132 A 
ATOM     38  C   LIG d   1       4.609  -2.763  -4.832  0.00  0.00    -0.019 A 
ATOM     39  C   LIG d   1       4.518  -2.894  -3.459  0.00  0.00    -0.055 A 
ATOM     40  H   LIG d   1       4.930  -3.601  -5.434  0.00  0.00     0.065 H 
ATOM     41  C   LIG d   1       4.103  -1.826  -2.687  0.00  0.00    -0.020 A 
ATOM     42  H   LIG d   1       4.767  -3.834  -2.990  0.00  0.00     0.062 H 
ATOM     43  C   LIG d   1       3.782  -0.617  -3.288  0.00  0.00     0.124 A 
ATOM     44  H   LIG d   1       4.028  -1.933  -1.615  0.00  0.00     0.065 H 
ATOM     45  C   LIG d   1       3.878  -0.481  -4.663  0.00  0.00     0.022 A 
ATOM     46  H   LIG d   1       3.628   0.459  -5.133  0.00  0.00     0.069 H 
BRANCH  43  47
ATOM     47  O   LIG d   1       3.373   0.432  -2.527  0.00  0.00    -0.495 OA
BRANCH  47  48
ATOM     48  C   LIG d   1       4.390   1.205  -1.887  0.00  0.00     0.079 C 
ATOM     49  H   LIG d   1       5.010   1.689  -2.642  0.00  0.00     0.066 H 
ATOM     50  H   LIG d   1       3.927   1.964  -1.256  0.00  0.00     0.066 H 
ATOM     51  H   LIG d   1       5.010   0.552  -1.273  0.00  0.00     0.066 H 
ENDBRANCH  47  48
ENDBRANCH  43  47
ENDBRANCH  36  37
ENDBRANCH   1  36
TORSDOF 7
ENDMDL
MODEL 7
REMARK VINA RESULT:      -6.5      3.409      4.494
REMARK  7 active torsions:
REMARK  status: ('A' for Active; 'I' for Inactive)
REMARK    1  A    between atoms: C_1  and  O_2 
REMARK    2  A    between atoms: O_2  and  C_3 
REMARK    3  A    between atoms: C_7  and  O_9 
REMARK    4  A    between atoms: O_9  and  C_10 
REMARK    5  A    between atoms: C_16  and  O_25 
REMARK    6  A    between atoms: C_20  and  C_21 
REMARK    7  A    between atoms: O_25  and  C_26 
REMARK       I    between atoms: C_26  and  N_28 
ROOT
ATOM      1  C   LIG d   1       7.498  -0.328  -4.526  0.00  0.00     0.222 A 
ATOM      2  C   LIG d   1       7.706   1.033  -4.161  0.00  0.00     0.235 A 
ATOM      3  O   LIG d   1       7.283   1.479  -3.108  0.00  0.00    -0.283 OA
ATOM      4  C   LIG d   1       8.453   1.878  -5.109  0.00  0.00     0.068 A 
ATOM      5  C   LIG d   1       8.707   3.223  -4.838  0.00  0.00    -0.044 A 
ATOM      6  C   LIG d   1       9.407   3.974  -5.739  0.00  0.00    -0.018 A 
ATOM      7  C   LIG d   1       9.859   3.406  -6.929  0.00  0.00     0.137 A 
ATOM      8  C   LIG d   1       9.616   2.074  -7.211  0.00  0.00     0.024 A 
ATOM      9  C   LIG d   1       8.910   1.295  -6.304  0.00  0.00     0.143 A 
ATOM     10  O   LIG d   1       8.660  -0.006  -6.553  0.00  0.00    -0.447 OA
ATOM     11  C   LIG d   1       7.981  -0.783  -5.699  0.00  0.00     0.254 A 
ATOM     12  H   LIG d   1       8.354   3.668  -3.920  0.00  0.00     0.063 H 
ATOM     13  H   LIG d   1       9.608   5.014  -5.530  0.00  0.00     0.065 H 
ATOM     14  H   LIG d   1       9.974   1.641  -8.133  0.00  0.00     0.069 H 
ENDROOT
BRANCH   7  15
ATOM     15  O   LIG d   1      10.550   4.167  -7.817  0.00  0.00    -0.411 OA
BRANCH  15  16
ATOM     16  C   LIG d   1       9.859   5.115  -8.477  0.00  0.00     0.408 C 
ATOM     17  O   LIG d   1       8.954   4.798  -9.225  0.00  0.00    -0.226 OA
ATOM     18  N   LIG d   1      10.168   6.417  -8.309  0.00  0.00    -0.263 N 
ATOM     19  C   LIG d   1      11.258   6.825  -7.408  0.00  0.00     0.041 C 
ATOM     20  C   LIG d   1       9.426   7.470  -9.019  0.00  0.00     0.041 C 
ATOM     21  C   LIG d   1      10.725   7.909  -6.464  0.00  0.00     0.064 C 
ATOM     22  H   LIG d   1      11.596   5.966  -6.828  0.00  0.00     0.049 H 
ATOM     23  H   LIG d   1      12.088   7.223  -7.993  0.00  0.00     0.049 H 
ATOM     24  O   LIG d   1      10.116   8.947  -7.236  0.00  0.00    -0.377 OA
ATOM     25  H   LIG d   1       9.985   7.474  -5.792  0.00  0.00     0.058 H 
ATOM     26  H   LIG d   1      11.549   8.322  -5.882  0.00  0.00     0.058 H 
ATOM     27  C   LIG d   1       8.983   8.523  -7.997  0.00  0.00     0.064 C 
ATOM     28  H   LIG d   1       8.553   9.378  -8.518  0.00  0.00     0.058 H 
ATOM     29  H   LIG d   1       8.237   8.090  -7.330  0.00  0.00     0.058 H 
ATOM     30  H   LIG d   1       8.552   7.039  -9.506  0.00  0.00     0.049 H 
ATOM     31  H   LIG d   1      10.071   7.933  -9.767  0.00  0.00     0.049 H 
ENDBRANCH  15  16
ENDBRANCH   7  15
BRANCH  11  32
ATOM     32  C   LIG d   1       7.750  -2.226  -6.064  0.00  0.00     0.454 C 
ATOM     33  F   LIG d   1       8.038  -3.038  -4.961  0.00  0.00    -0.163 F 
ATOM     34  F   LIG d   1       6.415  -2.405  -6.440  0.00  0.00    -0.163 F 
ATOM     35  F   LIG d   1       8.586  -2.577  -7.131  0.00  0.00    -0.163 F 
ENDBRANCH  11  32
BRANCH   1  36
ATOM     36  O   LIG d   1       6.816  -1.164  -3.695  0.00  0.00    -0.448 OA
BRANCH  36  37
ATOM     37  C   LIG d   1       5.469  -1.014  -3.605  0.00  0.00     0.132 A 
ATOM     38  C   LIG d   1       4.774  -1.592  -2.551  0.00  0.00    -0.019 A 
ATOM     39  C   LIG d   1       3.405  -1.434  -2.455  0.00  0.00    -0.055 A 
ATOM     40  H   LIG d   1       5.306  -2.162  -1.803  0.00  0.00     0.065 H 
ATOM     41  C   LIG d   1       2.722  -0.710  -3.413  0.00  0.00    -0.020 A 
ATOM     42  H   LIG d   1       2.868  -1.881  -1.632  0.00  0.00     0.062 H 
ATOM     43  C   LIG d   1       3.411  -0.135  -4.472  0.00  0.00     0.124 A 
ATOM     44  H   LIG d   1       1.651  -0.592  -3.338  0.00  0.00     0.065 H 
ATOM     45  C   LIG d   1       4.785  -0.287  -4.568  0.00  0.00     0.022 A 
ATOM     46  H   LIG d   1       5.323   0.159  -5.391  0.00  0.00     0.069 H 
BRANCH  43  47
ATOM     47  O   LIG d   1       2.738   0.576  -5.414  0.00  0.00    -0.495 OA
BRANCH  47  48
ATOM     48  C   LIG d   1       2.979   0.235  -6.780  0.00  0.00     0.079 C 
ATOM     49  H   LIG d   1       2.864   1.123  -7.403  0.00  0.00     0.066 H 
ATOM     50  H   LIG d   1       3.993  -0.153  -6.885  0.00  0.00     0.066 H 
ATOM     51  H   LIG d   1       2.265  -0.525  -7.097  0.00  0.00     0.066 H 
ENDBRANCH  47  48
ENDBRANCH  43  47
ENDBRANCH  36  37
ENDBRANCH   1  36
TORSDOF 7
ENDMDL
MODEL 8
REMARK VINA RESULT:      -6.5      4.997      6.795
REMARK  7 active torsions:
REMARK  status: ('A' for Active; 'I' for Inactive)
REMARK    1  A    between atoms: C_1  and  O_2 
REMARK    2  A    between atoms: O_2  and  C_3 
REMARK    3  A    between atoms: C_7  and  O_9 
REMARK    4  A    between atoms: O_9  and  C_10 
REMARK    5  A    between atoms: C_16  and  O_25 
REMARK    6  A    between atoms: C_20  and  C_21 
REMARK    7  A    between atoms: O_25  and  C_26 
REMARK       I    between atoms: C_26  and  N_28 
ROOT
ATOM      1  C   LIG d   1       4.515  -0.011 -10.071  0.00  0.00     0.222 A 
ATOM      2  C   LIG d   1       5.213  -1.200  -9.715  0.00  0.00     0.235 A 
ATOM      3  O   LIG d   1       5.466  -2.059 -10.542  0.00  0.00    -0.283 OA
ATOM      4  C   LIG d   1       5.617  -1.347  -8.306  0.00  0.00     0.068 A 
ATOM      5  C   LIG d   1       6.305  -2.477  -7.862  0.00  0.00    -0.044 A 
ATOM      6  C   LIG d   1       6.666  -2.576  -6.549  0.00  0.00    -0.018 A 
ATOM      7  C   LIG d   1       6.343  -1.561  -5.650  0.00  0.00     0.137 A 
ATOM      8  C   LIG d   1       5.662  -0.435  -6.075  0.00  0.00     0.024 A 
ATOM      9  C   LIG d   1       5.291  -0.316  -7.408  0.00  0.00     0.143 A 
ATOM     10  O   LIG d   1       4.627   0.771  -7.849  0.00  0.00    -0.447 OA
ATOM     11  C   LIG d   1       4.254   0.916  -9.128  0.00  0.00     0.254 A 
ATOM     12  H   LIG d   1       6.553  -3.268  -8.554  0.00  0.00     0.063 H 
ATOM     13  H   LIG d   1       7.203  -3.447  -6.204  0.00  0.00     0.065 H 
ATOM     14  H   LIG d   1       5.419   0.349  -5.373  0.00  0.00     0.069 H 
ENDROOT
BRANCH   7  15
ATOM     15  O   LIG d   1       6.706  -1.677  -4.346  0.00  0.00    -0.411 OA
BRANCH  15  16
ATOM     16  C   LIG d   1       6.489  -0.609  -3.555  0.00  0.00     0.408 C 
ATOM     17  O   LIG d   1       7.330   0.264  -3.468  0.00  0.00    -0.226 OA
ATOM     18  N   LIG d   1       5.339  -0.507  -2.859  0.00  0.00    -0.263 N 
ATOM     19  C   LIG d   1       4.306  -1.552  -2.949  0.00  0.00     0.041 C 
ATOM     20  C   LIG d   1       5.079   0.650  -1.989  0.00  0.00     0.041 C 
ATOM     21  C   LIG d   1       2.962  -0.878  -3.250  0.00  0.00     0.064 C 
ATOM     22  H   LIG d   1       4.555  -2.247  -3.750  0.00  0.00     0.049 H 
ATOM     23  H   LIG d   1       4.243  -2.088  -2.002  0.00  0.00     0.049 H 
ATOM     24  O   LIG d   1       2.733   0.163  -2.297  0.00  0.00    -0.377 OA
ATOM     25  H   LIG d   1       2.985  -0.452  -4.254  0.00  0.00     0.058 H 
ATOM     26  H   LIG d   1       2.162  -1.615  -3.185  0.00  0.00     0.058 H 
ATOM     27  C   LIG d   1       3.698   1.217  -2.337  0.00  0.00     0.064 C 
ATOM     28  H   LIG d   1       3.427   1.986  -1.613  0.00  0.00     0.058 H 
ATOM     29  H   LIG d   1       3.724   1.649  -3.337  0.00  0.00     0.058 H 
ATOM     30  H   LIG d   1       5.841   1.412  -2.154  0.00  0.00     0.049 H 
ATOM     31  H   LIG d   1       5.094   0.336  -0.945  0.00  0.00     0.049 H 
ENDBRANCH  15  16
ENDBRANCH   7  15
BRANCH  11  32
ATOM     32  C   LIG d   1       3.515   2.166  -9.527  0.00  0.00     0.454 C 
ATOM     33  F   LIG d   1       3.670   2.380 -10.902  0.00  0.00    -0.163 F 
ATOM     34  F   LIG d   1       2.157   2.022  -9.227  0.00  0.00    -0.163 F 
ATOM     35  F   LIG d   1       4.035   3.259  -8.825  0.00  0.00    -0.163 F 
ENDBRANCH  11  32
BRANCH   1  36
ATOM     36  O   LIG d   1       4.113   0.190 -11.357  0.00  0.00    -0.448 OA
BRANCH  36  37
ATOM     37  C   LIG d   1       3.120  -0.599 -11.845  0.00  0.00     0.132 A 
ATOM     38  C   LIG d   1       1.953  -0.778 -11.116  0.00  0.00    -0.019 A 
ATOM     39  C   LIG d   1       0.940  -1.575 -11.616  0.00  0.00    -0.055 A 
ATOM     40  H   LIG d   1       1.833  -0.289 -10.160  0.00  0.00     0.065 H 
ATOM     41  C   LIG d   1       1.092  -2.206 -12.836  0.00  0.00    -0.020 A 
ATOM     42  H   LIG d   1       0.031  -1.708 -11.049  0.00  0.00     0.062 H 
ATOM     43  C   LIG d   1       2.261  -2.035 -13.566  0.00  0.00     0.124 A 
ATOM     44  H   LIG d   1       0.302  -2.831 -13.221  0.00  0.00     0.065 H 
ATOM     45  C   LIG d   1       3.275  -1.231 -13.070  0.00  0.00     0.022 A 
ATOM     46  H   LIG d   1       4.186  -1.098 -13.636  0.00  0.00     0.069 H 
BRANCH  43  47
ATOM     47  O   LIG d   1       2.410  -2.656 -14.765  0.00  0.00    -0.495 OA
BRANCH  47  48
ATOM     48  C   LIG d   1       3.175  -1.973 -15.759  0.00  0.00     0.079 C 
ATOM     49  H   LIG d   1       3.193  -2.565 -16.675  0.00  0.00     0.066 H 
ATOM     50  H   LIG d   1       2.722  -1.003 -15.964  0.00  0.00     0.066 H 
ATOM     51  H   LIG d   1       4.193  -1.830 -15.399  0.00  0.00     0.066 H 
ENDBRANCH  47  48
ENDBRANCH  43  47
ENDBRANCH  36  37
ENDBRANCH   1  36
TORSDOF 7
ENDMDL
MODEL 9
REMARK VINA RESULT:      -6.3      5.842      8.645
REMARK  7 active torsions:
REMARK  status: ('A' for Active; 'I' for Inactive)
REMARK    1  A    between atoms: C_1  and  O_2 
REMARK    2  A    between atoms: O_2  and  C_3 
REMARK    3  A    between atoms: C_7  and  O_9 
REMARK    4  A    between atoms: O_9  and  C_10 
REMARK    5  A    between atoms: C_16  and  O_25 
REMARK    6  A    between atoms: C_20  and  C_21 
REMARK    7  A    between atoms: O_25  and  C_26 
REMARK       I    between atoms: C_26  and  N_28 
ROOT
ATOM      1  C   LIG d   1       1.993  -3.580 -10.900  0.00  0.00     0.222 A 
ATOM      2  C   LIG d   1       1.723  -2.184 -10.824  0.00  0.00     0.235 A 
ATOM      3  O   LIG d   1       1.052  -1.621 -11.673  0.00  0.00    -0.283 OA
ATOM      4  C   LIG d   1       2.286  -1.450  -9.678  0.00  0.00     0.068 A 
ATOM      5  C   LIG d   1       2.075  -0.080  -9.518  0.00  0.00    -0.044 A 
ATOM      6  C   LIG d   1       2.610   0.566  -8.440  0.00  0.00    -0.018 A 
ATOM      7  C   LIG d   1       3.373  -0.134  -7.507  0.00  0.00     0.137 A 
ATOM      8  C   LIG d   1       3.590  -1.493  -7.651  0.00  0.00     0.024 A 
ATOM      9  C   LIG d   1       3.049  -2.165  -8.739  0.00  0.00     0.143 A 
ATOM     10  O   LIG d   1       3.245  -3.489  -8.904  0.00  0.00    -0.447 OA
ATOM     11  C   LIG d   1       2.738  -4.166  -9.942  0.00  0.00     0.254 A 
ATOM     12  H   LIG d   1       1.489   0.467 -10.241  0.00  0.00     0.063 H 
ATOM     13  H   LIG d   1       2.444   1.625  -8.311  0.00  0.00     0.065 H 
ATOM     14  H   LIG d   1       4.179  -2.028  -6.921  0.00  0.00     0.069 H 
ENDROOT
BRANCH   7  15
ATOM     15  O   LIG d   1       3.901   0.523  -6.442  0.00  0.00    -0.411 OA
BRANCH  15  16
ATOM     16  C   LIG d   1       3.335   0.297  -5.241  0.00  0.00     0.408 C 
ATOM     17  O   LIG d   1       2.148   0.503  -5.081  0.00  0.00    -0.226 OA
ATOM     18  N   LIG d   1       4.084  -0.159  -4.217  0.00  0.00    -0.263 N 
ATOM     19  C   LIG d   1       5.523  -0.416  -4.389  0.00  0.00     0.041 C 
ATOM     20  C   LIG d   1       3.487  -0.414  -2.897  0.00  0.00     0.041 C 
ATOM     21  C   LIG d   1       5.828  -1.825  -3.867  0.00  0.00     0.064 C 
ATOM     22  H   LIG d   1       5.785  -0.351  -5.444  0.00  0.00     0.049 H 
ATOM     23  H   LIG d   1       6.097   0.317  -3.821  0.00  0.00     0.049 H 
ATOM     24  O   LIG d   1       5.312  -1.958  -2.540  0.00  0.00    -0.377 OA
ATOM     25  H   LIG d   1       5.356  -2.563  -4.516  0.00  0.00     0.058 H 
ATOM     26  H   LIG d   1       6.906  -1.985  -3.856  0.00  0.00     0.058 H 
ATOM     27  C   LIG d   1       3.892  -1.823  -2.448  0.00  0.00     0.064 C 
ATOM     28  H   LIG d   1       3.577  -1.980  -1.416  0.00  0.00     0.058 H 
ATOM     29  H   LIG d   1       3.413  -2.561  -3.092  0.00  0.00     0.058 H 
ATOM     30  H   LIG d   1       2.402  -0.347  -2.965  0.00  0.00     0.049 H 
ATOM     31  H   LIG d   1       3.856   0.319  -2.179  0.00  0.00     0.049 H 
ENDBRANCH  15  16
ENDBRANCH   7  15
BRANCH  11  32
ATOM     32  C   LIG d   1       3.011  -5.644 -10.042  0.00  0.00     0.454 C 
ATOM     33  F   LIG d   1       3.985  -6.002  -9.102  0.00  0.00    -0.163 F 
ATOM     34  F   LIG d   1       1.834  -6.355  -9.788  0.00  0.00    -0.163 F 
ATOM     35  F   LIG d   1       3.471  -5.948 -11.328  0.00  0.00    -0.163 F 
ENDBRANCH  11  32
BRANCH   1  36
ATOM     36  O   LIG d   1       1.502  -4.319 -11.933  0.00  0.00    -0.448 OA
BRANCH  36  37
ATOM     37  C   LIG d   1       0.155  -4.469 -12.026  0.00  0.00     0.132 A 
ATOM     38  C   LIG d   1      -0.472  -4.373 -13.261  0.00  0.00    -0.019 A 
ATOM     39  C   LIG d   1      -1.841  -4.531 -13.357  0.00  0.00    -0.055 A 
ATOM     40  H   LIG d   1       0.113  -4.179 -14.149  0.00  0.00     0.065 H 
ATOM     41  C   LIG d   1      -2.592  -4.774 -12.222  0.00  0.00    -0.020 A 
ATOM     42  H   LIG d   1      -2.326  -4.461 -14.319  0.00  0.00     0.062 H 
ATOM     43  C   LIG d   1      -1.971  -4.864 -10.984  0.00  0.00     0.124 A 
ATOM     44  H   LIG d   1      -3.662  -4.892 -12.299  0.00  0.00     0.065 H 
ATOM     45  C   LIG d   1      -0.597  -4.711 -10.886  0.00  0.00     0.022 A 
ATOM     46  H   LIG d   1      -0.112  -4.781  -9.923  0.00  0.00     0.069 H 
BRANCH  43  47
ATOM     47  O   LIG d   1      -2.710  -5.102  -9.869  0.00  0.00    -0.495 OA
BRANCH  47  48
ATOM     48  C   LIG d   1      -4.065  -4.651  -9.881  0.00  0.00     0.079 C 
ATOM     49  H   LIG d   1      -4.646  -5.223  -9.155  0.00  0.00     0.066 H 
ATOM     50  H   LIG d   1      -4.099  -3.593  -9.619  0.00  0.00     0.066 H 
ATOM     51  H   LIG d   1      -4.487  -4.792 -10.875  0.00  0.00     0.066 H 
ENDBRANCH  47  48
ENDBRANCH  43  47
ENDBRANCH  36  37
ENDBRANCH   1  36
TORSDOF 7
ENDMDL
