MODEL 1
REMARK VINA RESULT:      -7.3      0.000      0.000
REMARK  8 active torsions:
REMARK  status: ('A' for Active; 'I' for Inactive)
REMARK    1  A    between atoms: C_1  and  O_2 
REMARK    2  A    between atoms: O_2  and  C_3 
REMARK    3  A    between atoms: C_8  and  C_9 
REMARK    4  A    between atoms: C_9  and  C_10 
REMARK    5  A    between atoms: C_10  and  N_11 
REMARK       I    between atoms: N_11  and  C_12 
REMARK    6  A    between atoms: C_12  and  C_14 
REMARK    7  A    between atoms: C_14  and  C_15 
REMARK    8  A    between atoms: C_15  and  C_16 
ROOT
ATOM      1  C   LIG d   1       7.388  -1.211  -6.213  0.00  0.00     0.026 C 
ATOM      2  H   LIG d   1       7.487  -2.211  -6.636  0.00  0.00     0.036 H 
ATOM      3  H   LIG d   1       8.284  -0.969  -5.641  0.00  0.00     0.036 H 
ENDROOT
BRANCH   1   4
ATOM      4  C   LIG d   1       7.217  -0.211  -7.327  0.00  0.00     0.213 C 
ATOM      5  N   LIG d   1       7.416  -0.587  -8.606  0.00  0.00    -0.315 N 
ATOM      6  H   LIG d   1       7.669  -1.501  -8.810  0.00  0.00     0.149 HD
ATOM      7  O   LIG d   1       6.902   0.932  -7.073  0.00  0.00    -0.276 OA
BRANCH   5   8
ATOM      8  C   LIG d   1       7.250   0.386  -9.689  0.00  0.00     0.016 C 
ATOM      9  H   LIG d   1       8.136   0.380 -10.323  0.00  0.00     0.046 H 
ATOM     10  H   LIG d   1       7.113   1.381  -9.266  0.00  0.00     0.046 H 
BRANCH   8  11
ATOM     11  C   LIG d   1       6.023   0.015 -10.525  0.00  0.00    -0.009 C 
ATOM     12  H   LIG d   1       5.881  -1.066 -10.502  0.00  0.00     0.033 H 
ATOM     13  H   LIG d   1       6.173   0.340 -11.554  0.00  0.00     0.033 H 
BRANCH  11  14
ATOM     14  C   LIG d   1       4.804   0.695  -9.957  0.00  0.00    -0.004 A 
ATOM     15  C   LIG d   1       3.631  -0.023  -9.770  0.00  0.00     0.123 A 
ATOM     16  C   LIG d   1       2.513   0.607  -9.242  0.00  0.00    -0.020 A 
ATOM     17  C   LIG d   1       2.567   1.946  -8.909  0.00  0.00    -0.058 A 
ATOM     18  H   LIG d   1       1.601   0.049  -9.092  0.00  0.00     0.065 H 
ATOM     19  C   LIG d   1       3.736   2.661  -9.102  0.00  0.00    -0.061 A 
ATOM     20  H   LIG d   1       1.697   2.435  -8.499  0.00  0.00     0.062 H 
ATOM     21  C   LIG d   1       4.851   2.036  -9.628  0.00  0.00    -0.055 A 
ATOM     22  H   LIG d   1       3.776   3.707  -8.841  0.00  0.00     0.062 H 
ATOM     23  H   LIG d   1       5.763   2.596  -9.778  0.00  0.00     0.062 H 
BRANCH  15  24
ATOM     24  O   LIG d   1       3.580  -1.340 -10.098  0.00  0.00    -0.495 OA
BRANCH  24  25
ATOM     25  C   LIG d   1       2.471  -2.090  -9.600  0.00  0.00     0.079 C 
ATOM     26  H   LIG d   1       2.836  -2.936  -9.018  0.00  0.00     0.066 H 
ATOM     27  H   LIG d   1       1.856  -1.452  -8.967  0.00  0.00     0.066 H 
ATOM     28  H   LIG d   1       1.875  -2.455 -10.437  0.00  0.00     0.066 H 
ENDBRANCH  24  25
ENDBRANCH  15  24
ENDBRANCH  11  14
ENDBRANCH   8  11
ENDBRANCH   5   8
ENDBRANCH   1   4
BRANCH   1  29
ATOM     29  C   LIG d   1       6.167  -1.164  -5.294  0.00  0.00    -0.018 C 
ATOM     30  H   LIG d   1       6.433  -1.562  -4.315  0.00  0.00     0.029 H 
ATOM     31  H   LIG d   1       5.831  -0.132  -5.188  0.00  0.00     0.029 H 
BRANCH  29  32
ATOM     32  C   LIG d   1       5.041  -2.007  -5.898  0.00  0.00     0.100 C 
ATOM     33  H   LIG d   1       5.414  -2.544  -6.770  0.00  0.00     0.059 H 
ATOM     34  N   LIG d   1       3.936  -1.134  -6.297  0.00  0.00    -0.300 N 
ATOM     35  C   LIG d   1       3.340  -0.325  -5.420  0.00  0.00     0.246 C 
ATOM     36  H   LIG d   1       3.632  -1.147  -7.218  0.00  0.00     0.150 HD
ATOM     37  C   LIG d   1       3.719  -0.204  -4.008  0.00  0.00     0.058 A 
ATOM     38  O   LIG d   1       2.418   0.360  -5.820  0.00  0.00    -0.270 OA
ATOM     39  C   LIG d   1       4.076  -1.297  -3.218  0.00  0.00     0.046 A 
ATOM     40  C   LIG d   1       3.721   1.082  -3.444  0.00  0.00    -0.048 A 
ATOM     41  N   LIG d   1       4.096  -2.599  -3.684  0.00  0.00    -0.283 N 
ATOM     42  C   LIG d   1       4.435  -1.088  -1.884  0.00  0.00    -0.040 A 
ATOM     43  C   LIG d   1       4.542  -2.990  -4.875  0.00  0.00     0.238 C 
ATOM     44  H   LIG d   1       3.757  -3.288  -3.090  0.00  0.00     0.155 HD
ATOM     45  O   LIG d   1       4.548  -4.172  -5.143  0.00  0.00    -0.273 OA
ATOM     46  C   LIG d   1       4.434   0.180  -1.347  0.00  0.00    -0.060 A 
ATOM     47  H   LIG d   1       4.715  -1.929  -1.268  0.00  0.00     0.064 H 
ATOM     48  C   LIG d   1       4.075   1.267  -2.128  0.00  0.00    -0.061 A 
ATOM     49  H   LIG d   1       4.714   0.327  -0.314  0.00  0.00     0.062 H 
ATOM     50  H   LIG d   1       4.074   2.260  -1.703  0.00  0.00     0.062 H 
ATOM     51  H   LIG d   1       3.442   1.933  -4.047  0.00  0.00     0.063 H 
ENDBRANCH  29  32
ENDBRANCH   1  29
TORSDOF 8
ENDMDL
MODEL 2
REMARK VINA RESULT:      -7.1      1.907      5.715
REMARK  8 active torsions:
REMARK  status: ('A' for Active; 'I' for Inactive)
REMARK    1  A    between atoms: C_1  and  O_2 
REMARK    2  A    between atoms: O_2  and  C_3 
REMARK    3  A    between atoms: C_8  and  C_9 
REMARK    4  A    between atoms: C_9  and  C_10 
REMARK    5  A    between atoms: C_10  and  N_11 
REMARK       I    between atoms: N_11  and  C_12 
REMARK    6  A    between atoms: C_12  and  C_14 
REMARK    7  A    between atoms: C_14  and  C_15 
REMARK    8  A    between atoms: C_15  and  C_16 
ROOT
ATOM      1  C   LIG d   1       6.690  -1.618  -7.780  0.00  0.00     0.026 C 
ATOM      2  H   LIG d   1       7.712  -1.907  -8.023  0.00  0.00     0.036 H 
ATOM      3  H   LIG d   1       6.175  -2.460  -7.317  0.00  0.00     0.036 H 
ENDROOT
BRANCH   1   4
ATOM      4  C   LIG d   1       6.712  -0.454  -6.822  0.00  0.00     0.213 C 
ATOM      5  N   LIG d   1       7.431  -0.532  -5.684  0.00  0.00    -0.315 N 
ATOM      6  H   LIG d   1       7.934  -1.336  -5.482  0.00  0.00     0.149 HD
ATOM      7  O   LIG d   1       6.083   0.551  -7.074  0.00  0.00    -0.276 OA
BRANCH   5   8
ATOM      8  C   LIG d   1       7.452   0.599  -4.754  0.00  0.00     0.016 C 
ATOM      9  H   LIG d   1       6.680   1.315  -5.033  0.00  0.00     0.046 H 
ATOM     10  H   LIG d   1       8.427   1.083  -4.791  0.00  0.00     0.046 H 
BRANCH   8  11
ATOM     11  C   LIG d   1       7.188   0.095  -3.333  0.00  0.00    -0.009 C 
ATOM     12  H   LIG d   1       7.663   0.764  -2.616  0.00  0.00     0.033 H 
ATOM     13  H   LIG d   1       7.600  -0.909  -3.222  0.00  0.00     0.033 H 
BRANCH  11  14
ATOM     14  C   LIG d   1       5.703   0.059  -3.080  0.00  0.00    -0.004 A 
ATOM     15  C   LIG d   1       4.992  -1.116  -3.280  0.00  0.00     0.123 A 
ATOM     16  C   LIG d   1       3.626  -1.146  -3.040  0.00  0.00    -0.020 A 
ATOM     17  C   LIG d   1       2.975  -0.006  -2.610  0.00  0.00    -0.058 A 
ATOM     18  H   LIG d   1       3.072  -2.060  -3.192  0.00  0.00     0.065 H 
ATOM     19  C   LIG d   1       3.685   1.165  -2.417  0.00  0.00    -0.061 A 
ATOM     20  H   LIG d   1       1.912  -0.030  -2.425  0.00  0.00     0.062 H 
ATOM     21  C   LIG d   1       5.047   1.198  -2.655  0.00  0.00    -0.055 A 
ATOM     22  H   LIG d   1       3.175   2.055  -2.081  0.00  0.00     0.062 H 
ATOM     23  H   LIG d   1       5.599   2.114  -2.504  0.00  0.00     0.062 H 
BRANCH  15  24
ATOM     24  O   LIG d   1       5.635  -2.236  -3.703  0.00  0.00    -0.495 OA
BRANCH  24  25
ATOM     25  C   LIG d   1       4.951  -3.057  -4.652  0.00  0.00     0.079 C 
ATOM     26  H   LIG d   1       4.113  -2.503  -5.074  0.00  0.00     0.066 H 
ATOM     27  H   LIG d   1       5.638  -3.338  -5.450  0.00  0.00     0.066 H 
ATOM     28  H   LIG d   1       4.581  -3.954  -4.156  0.00  0.00     0.066 H 
ENDBRANCH  24  25
ENDBRANCH  15  24
ENDBRANCH  11  14
ENDBRANCH   8  11
ENDBRANCH   5   8
ENDBRANCH   1   4
BRANCH   1  29
ATOM     29  C   LIG d   1       5.957  -1.211  -9.059  0.00  0.00    -0.018 C 
ATOM     30  H   LIG d   1       5.346  -0.329  -8.863  0.00  0.00     0.029 H 
ATOM     31  H   LIG d   1       6.684  -0.985  -9.839  0.00  0.00     0.029 H 
BRANCH  29  32
ATOM     32  C   LIG d   1       5.057  -2.361  -9.519  0.00  0.00     0.100 C 
ATOM     33  H   LIG d   1       5.617  -3.297  -9.490  0.00  0.00     0.059 H 
ATOM     34  N   LIG d   1       4.599  -2.108 -10.886  0.00  0.00    -0.300 N 
ATOM     35  C   LIG d   1       3.935  -0.994 -11.199  0.00  0.00     0.246 C 
ATOM     36  H   LIG d   1       4.781  -2.765 -11.576  0.00  0.00     0.150 HD
ATOM     37  C   LIG d   1       3.615   0.079 -10.251  0.00  0.00     0.058 A 
ATOM     38  O   LIG d   1       3.572  -0.859 -12.352  0.00  0.00    -0.270 OA
ATOM     39  C   LIG d   1       3.203  -0.161  -8.940  0.00  0.00     0.046 A 
ATOM     40  C   LIG d   1       3.739   1.403 -10.701  0.00  0.00    -0.048 A 
ATOM     41  N   LIG d   1       3.046  -1.429  -8.410  0.00  0.00    -0.283 N 
ATOM     42  C   LIG d   1       2.929   0.922  -8.100  0.00  0.00    -0.040 A 
ATOM     43  C   LIG d   1       3.861  -2.460  -8.613  0.00  0.00     0.238 C 
ATOM     44  H   LIG d   1       2.274  -1.580  -7.841  0.00  0.00     0.155 HD
ATOM     45  O   LIG d   1       3.635  -3.510  -8.050  0.00  0.00    -0.273 OA
ATOM     46  C   LIG d   1       3.058   2.215  -8.557  0.00  0.00    -0.060 A 
ATOM     47  H   LIG d   1       2.612   0.744  -7.084  0.00  0.00     0.064 H 
ATOM     48  C   LIG d   1       3.463   2.455  -9.860  0.00  0.00    -0.061 A 
ATOM     49  H   LIG d   1       2.843   3.043  -7.897  0.00  0.00     0.062 H 
ATOM     50  H   LIG d   1       3.562   3.471 -10.216  0.00  0.00     0.062 H 
ATOM     51  H   LIG d   1       4.053   1.597 -11.716  0.00  0.00     0.063 H 
ENDBRANCH  29  32
ENDBRANCH   1  29
TORSDOF 8
ENDMDL
MODEL 3
REMARK VINA RESULT:      -7.0      2.022      3.909
REMARK  8 active torsions:
REMARK  status: ('A' for Active; 'I' for Inactive)
REMARK    1  A    between atoms: C_1  and  O_2 
REMARK    2  A    between atoms: O_2  and  C_3 
REMARK    3  A    between atoms: C_8  and  C_9 
REMARK    4  A    between atoms: C_9  and  C_10 
REMARK    5  A    between atoms: C_10  and  N_11 
REMARK       I    between atoms: N_11  and  C_12 
REMARK    6  A    between atoms: C_12  and  C_14 
REMARK    7  A    between atoms: C_14  and  C_15 
REMARK    8  A    between atoms: C_15  and  C_16 
ROOT
ATOM      1  C   LIG d   1       2.671   0.453  -5.366  0.00  0.00     0.026 C 
ATOM      2  H   LIG d   1       2.774   1.415  -4.863  0.00  0.00     0.036 H 
ATOM      3  H   LIG d   1       1.740  -0.021  -5.055  0.00  0.00     0.036 H 
ENDROOT
BRANCH   1   4
ATOM      4  C   LIG d   1       2.653   0.668  -6.858  0.00  0.00     0.213 C 
ATOM      5  N   LIG d   1       2.697   1.919  -7.359  0.00  0.00    -0.315 N 
ATOM      6  H   LIG d   1       2.740   2.680  -6.760  0.00  0.00     0.149 HD
ATOM      7  O   LIG d   1       2.599  -0.284  -7.607  0.00  0.00    -0.276 OA
BRANCH   5   8
ATOM      8  C   LIG d   1       2.679   2.127  -8.809  0.00  0.00     0.016 C 
ATOM      9  H   LIG d   1       1.950   2.897  -9.057  0.00  0.00     0.046 H 
ATOM     10  H   LIG d   1       2.410   1.196  -9.307  0.00  0.00     0.046 H 
BRANCH   8  11
ATOM     11  C   LIG d   1       4.067   2.571  -9.277  0.00  0.00    -0.009 C 
ATOM     12  H   LIG d   1       4.632   2.955  -8.428  0.00  0.00     0.033 H 
ATOM     13  H   LIG d   1       3.963   3.354 -10.028  0.00  0.00     0.033 H 
BRANCH  11  14
ATOM     14  C   LIG d   1       4.795   1.396  -9.876  0.00  0.00    -0.004 A 
ATOM     15  C   LIG d   1       5.920   0.881  -9.248  0.00  0.00     0.123 A 
ATOM     16  C   LIG d   1       6.584  -0.205  -9.800  0.00  0.00    -0.020 A 
ATOM     17  C   LIG d   1       6.128  -0.767 -10.977  0.00  0.00    -0.058 A 
ATOM     18  H   LIG d   1       7.457  -0.609  -9.310  0.00  0.00     0.065 H 
ATOM     19  C   LIG d   1       5.010  -0.248 -11.605  0.00  0.00    -0.061 A 
ATOM     20  H   LIG d   1       6.646  -1.612 -11.407  0.00  0.00     0.062 H 
ATOM     21  C   LIG d   1       4.347   0.834 -11.057  0.00  0.00    -0.055 A 
ATOM     22  H   LIG d   1       4.655  -0.689 -12.524  0.00  0.00     0.062 H 
ATOM     23  H   LIG d   1       3.474   1.237 -11.548  0.00  0.00     0.062 H 
BRANCH  15  24
ATOM     24  O   LIG d   1       6.366   1.435  -8.091  0.00  0.00    -0.495 OA
BRANCH  24  25
ATOM     25  C   LIG d   1       7.723   1.884  -8.067  0.00  0.00     0.079 C 
ATOM     26  H   LIG d   1       7.768   2.923  -8.391  0.00  0.00     0.066 H 
ATOM     27  H   LIG d   1       8.114   1.802  -7.053  0.00  0.00     0.066 H 
ATOM     28  H   LIG d   1       8.320   1.267  -8.738  0.00  0.00     0.066 H 
ENDBRANCH  24  25
ENDBRANCH  15  24
ENDBRANCH  11  14
ENDBRANCH   8  11
ENDBRANCH   5   8
ENDBRANCH   1   4
BRANCH   1  29
ATOM     29  C   LIG d   1       3.850  -0.447  -4.995  0.00  0.00    -0.018 C 
ATOM     30  H   LIG d   1       4.023  -1.168  -5.794  0.00  0.00     0.029 H 
ATOM     31  H   LIG d   1       4.744   0.163  -4.855  0.00  0.00     0.029 H 
BRANCH  29  32
ATOM     32  C   LIG d   1       3.534  -1.192  -3.695  0.00  0.00     0.100 C 
ATOM     33  H   LIG d   1       2.519  -1.587  -3.738  0.00  0.00     0.059 H 
ATOM     34  N   LIG d   1       3.654  -0.273  -2.563  0.00  0.00    -0.300 N 
ATOM     35  C   LIG d   1       4.787   0.389  -2.323  0.00  0.00     0.246 C 
ATOM     36  H   LIG d   1       2.893  -0.145  -1.974  0.00  0.00     0.150 HD
ATOM     37  C   LIG d   1       5.997   0.293  -3.147  0.00  0.00     0.058 A 
ATOM     38  O   LIG d   1       4.818   1.124  -1.354  0.00  0.00    -0.270 OA
ATOM     39  C   LIG d   1       6.456  -0.907  -3.691  0.00  0.00     0.046 A 
ATOM     40  C   LIG d   1       6.712   1.477  -3.394  0.00  0.00    -0.048 A 
ATOM     41  N   LIG d   1       5.823  -2.122  -3.498  0.00  0.00    -0.283 N 
ATOM     42  C   LIG d   1       7.613  -0.904  -4.475  0.00  0.00    -0.040 A 
ATOM     43  C   LIG d   1       4.509  -2.322  -3.512  0.00  0.00     0.238 C 
ATOM     44  H   LIG d   1       6.388  -2.896  -3.339  0.00  0.00     0.155 HD
ATOM     45  O   LIG d   1       4.084  -3.449  -3.376  0.00  0.00    -0.273 OA
ATOM     46  C   LIG d   1       8.300   0.266  -4.708  0.00  0.00    -0.060 A 
ATOM     47  H   LIG d   1       7.972  -1.829  -4.901  0.00  0.00     0.064 H 
ATOM     48  C   LIG d   1       7.849   1.458  -4.165  0.00  0.00    -0.061 A 
ATOM     49  H   LIG d   1       9.193   0.254  -5.316  0.00  0.00     0.062 H 
ATOM     50  H   LIG d   1       8.391   2.375  -4.350  0.00  0.00     0.062 H 
ATOM     51  H   LIG d   1       6.366   2.409  -2.973  0.00  0.00     0.063 H 
ENDBRANCH  29  32
ENDBRANCH   1  29
TORSDOF 8
ENDMDL
MODEL 4
REMARK VINA RESULT:      -6.9      2.072      3.544
REMARK  8 active torsions:
REMARK  status: ('A' for Active; 'I' for Inactive)
REMARK    1  A    between atoms: C_1  and  O_2 
REMARK    2  A    between atoms: O_2  and  C_3 
REMARK    3  A    between atoms: C_8  and  C_9 
REMARK    4  A    between atoms: C_9  and  C_10 
REMARK    5  A    between atoms: C_10  and  N_11 
REMARK       I    between atoms: N_11  and  C_12 
REMARK    6  A    between atoms: C_12  and  C_14 
REMARK    7  A    between atoms: C_14  and  C_15 
REMARK    8  A    between atoms: C_15  and  C_16 
ROOT
ATOM      1  C   LIG d   1       6.378  -1.167  -7.059  0.00  0.00     0.026 C 
ATOM      2  H   LIG d   1       7.131  -1.872  -6.705  0.00  0.00     0.036 H 
ATOM      3  H   LIG d   1       6.739  -0.674  -7.962  0.00  0.00     0.036 H 
ENDROOT
BRANCH   1   4
ATOM      4  C   LIG d   1       5.102  -1.908  -7.364  0.00  0.00     0.213 C 
ATOM      5  N   LIG d   1       4.554  -1.827  -8.593  0.00  0.00    -0.315 N 
ATOM      6  H   LIG d   1       4.981  -1.292  -9.281  0.00  0.00     0.149 HD
ATOM      7  O   LIG d   1       4.567  -2.575  -6.505  0.00  0.00    -0.276 OA
BRANCH   5   8
ATOM      8  C   LIG d   1       3.313  -2.546  -8.890  0.00  0.00     0.016 C 
ATOM      9  H   LIG d   1       2.804  -2.792  -7.959  0.00  0.00     0.046 H 
ATOM     10  H   LIG d   1       3.545  -3.464  -9.431  0.00  0.00     0.046 H 
BRANCH   8  11
ATOM     11  C   LIG d   1       2.405  -1.664  -9.750  0.00  0.00    -0.009 C 
ATOM     12  H   LIG d   1       1.372  -1.776  -9.421  0.00  0.00     0.033 H 
ATOM     13  H   LIG d   1       2.489  -1.966 -10.794  0.00  0.00     0.033 H 
BRANCH  11  14
ATOM     14  C   LIG d   1       2.825  -0.224  -9.610  0.00  0.00    -0.004 A 
ATOM     15  C   LIG d   1       3.494   0.409 -10.647  0.00  0.00     0.123 A 
ATOM     16  C   LIG d   1       3.874   1.737 -10.515  0.00  0.00    -0.020 A 
ATOM     17  C   LIG d   1       3.590   2.425  -9.351  0.00  0.00    -0.058 A 
ATOM     18  H   LIG d   1       4.392   2.233 -11.323  0.00  0.00     0.065 H 
ATOM     19  C   LIG d   1       2.928   1.789  -8.316  0.00  0.00    -0.061 A 
ATOM     20  H   LIG d   1       3.887   3.458  -9.249  0.00  0.00     0.062 H 
ATOM     21  C   LIG d   1       2.548   0.466  -8.444  0.00  0.00    -0.055 A 
ATOM     22  H   LIG d   1       2.707   2.328  -7.407  0.00  0.00     0.062 H 
ATOM     23  H   LIG d   1       2.031  -0.028  -7.635  0.00  0.00     0.062 H 
BRANCH  15  24
ATOM     24  O   LIG d   1       3.772  -0.269 -11.791  0.00  0.00    -0.495 OA
BRANCH  24  25
ATOM     25  C   LIG d   1       5.146  -0.563 -12.053  0.00  0.00     0.079 C 
ATOM     26  H   LIG d   1       5.431  -1.469 -11.520  0.00  0.00     0.066 H 
ATOM     27  H   LIG d   1       5.287  -0.712 -13.124  0.00  0.00     0.066 H 
ATOM     28  H   LIG d   1       5.766   0.267 -11.716  0.00  0.00     0.066 H 
ENDBRANCH  24  25
ENDBRANCH  15  24
ENDBRANCH  11  14
ENDBRANCH   8  11
ENDBRANCH   5   8
ENDBRANCH   1   4
BRANCH   1  29
ATOM     29  C   LIG d   1       6.113  -0.119  -5.977  0.00  0.00    -0.018 C 
ATOM     30  H   LIG d   1       5.714   0.786  -6.437  0.00  0.00     0.029 H 
ATOM     31  H   LIG d   1       5.391  -0.510  -5.260  0.00  0.00     0.029 H 
BRANCH  29  32
ATOM     32  C   LIG d   1       7.421   0.211  -5.254  0.00  0.00     0.100 C 
ATOM     33  H   LIG d   1       8.187   0.471  -5.985  0.00  0.00     0.059 H 
ATOM     34  N   LIG d   1       7.858  -0.950  -4.479  0.00  0.00    -0.300 N 
ATOM     35  C   LIG d   1       7.072  -1.500  -3.552  0.00  0.00     0.246 C 
ATOM     36  H   LIG d   1       8.738  -1.324  -4.641  0.00  0.00     0.150 HD
ATOM     37  C   LIG d   1       5.719  -1.037  -3.226  0.00  0.00     0.058 A 
ATOM     38  O   LIG d   1       7.509  -2.454  -2.935  0.00  0.00    -0.270 OA
ATOM     39  C   LIG d   1       5.372   0.312  -3.155  0.00  0.00     0.046 A 
ATOM     40  C   LIG d   1       4.739  -2.013  -2.981  0.00  0.00    -0.048 A 
ATOM     41  N   LIG d   1       6.269   1.342  -3.373  0.00  0.00    -0.283 N 
ATOM     42  C   LIG d   1       4.054   0.664  -2.849  0.00  0.00    -0.040 A 
ATOM     43  C   LIG d   1       7.202   1.369  -4.320  0.00  0.00     0.238 C 
ATOM     44  H   LIG d   1       6.212   2.112  -2.784  0.00  0.00     0.155 HD
ATOM     45  O   LIG d   1       7.897   2.356  -4.434  0.00  0.00    -0.273 OA
ATOM     46  C   LIG d   1       3.106  -0.306  -2.614  0.00  0.00    -0.060 A 
ATOM     47  H   LIG d   1       3.778   1.706  -2.794  0.00  0.00     0.064 H 
ATOM     48  C   LIG d   1       3.449  -1.647  -2.679  0.00  0.00    -0.061 A 
ATOM     49  H   LIG d   1       2.091  -0.020  -2.378  0.00  0.00     0.062 H 
ATOM     50  H   LIG d   1       2.702  -2.405  -2.494  0.00  0.00     0.062 H 
ATOM     51  H   LIG d   1       5.001  -3.059  -3.030  0.00  0.00     0.063 H 
ENDBRANCH  29  32
ENDBRANCH   1  29
TORSDOF 8
ENDMDL
MODEL 5
REMARK VINA RESULT:      -6.8      2.130      6.147
REMARK  8 active torsions:
REMARK  status: ('A' for Active; 'I' for Inactive)
REMARK    1  A    between atoms: C_1  and  O_2 
REMARK    2  A    between atoms: O_2  and  C_3 
REMARK    3  A    between atoms: C_8  and  C_9 
REMARK    4  A    between atoms: C_9  and  C_10 
REMARK    5  A    between atoms: C_10  and  N_11 
REMARK       I    between atoms: N_11  and  C_12 
REMARK    6  A    between atoms: C_12  and  C_14 
REMARK    7  A    between atoms: C_14  and  C_15 
REMARK    8  A    between atoms: C_15  and  C_16 
ROOT
ATOM      1  C   LIG d   1       7.347  -1.690  -8.209  0.00  0.00     0.026 C 
ATOM      2  H   LIG d   1       7.981  -0.842  -7.947  0.00  0.00     0.036 H 
ATOM      3  H   LIG d   1       7.829  -2.274  -8.994  0.00  0.00     0.036 H 
ENDROOT
BRANCH   1   4
ATOM      4  C   LIG d   1       7.138  -2.555  -6.994  0.00  0.00     0.213 C 
ATOM      5  N   LIG d   1       6.455  -2.076  -5.935  0.00  0.00    -0.315 N 
ATOM      6  H   LIG d   1       6.098  -1.175  -5.955  0.00  0.00     0.149 HD
ATOM      7  O   LIG d   1       7.585  -3.682  -6.967  0.00  0.00    -0.276 OA
BRANCH   5   8
ATOM      8  C   LIG d   1       6.253  -2.918  -4.753  0.00  0.00     0.016 C 
ATOM      9  H   LIG d   1       6.699  -3.897  -4.923  0.00  0.00     0.046 H 
ATOM     10  H   LIG d   1       5.185  -3.032  -4.566  0.00  0.00     0.046 H 
BRANCH   8  11
ATOM     11  C   LIG d   1       6.914  -2.260  -3.540  0.00  0.00    -0.009 C 
ATOM     12  H   LIG d   1       7.885  -1.858  -3.828  0.00  0.00     0.033 H 
ATOM     13  H   LIG d   1       7.048  -3.003  -2.753  0.00  0.00     0.033 H 
BRANCH  11  14
ATOM     14  C   LIG d   1       6.037  -1.145  -3.032  0.00  0.00    -0.004 A 
ATOM     15  C   LIG d   1       6.357   0.175  -3.316  0.00  0.00     0.123 A 
ATOM     16  C   LIG d   1       5.543   1.198  -2.852  0.00  0.00    -0.020 A 
ATOM     17  C   LIG d   1       4.421   0.902  -2.103  0.00  0.00    -0.058 A 
ATOM     18  H   LIG d   1       5.789   2.226  -3.075  0.00  0.00     0.065 H 
ATOM     19  C   LIG d   1       4.107  -0.414  -1.817  0.00  0.00    -0.061 A 
ATOM     20  H   LIG d   1       3.788   1.699  -1.742  0.00  0.00     0.062 H 
ATOM     21  C   LIG d   1       4.916  -1.436  -2.278  0.00  0.00    -0.055 A 
ATOM     22  H   LIG d   1       3.229  -0.644  -1.232  0.00  0.00     0.062 H 
ATOM     23  H   LIG d   1       4.669  -2.463  -2.054  0.00  0.00     0.062 H 
BRANCH  15  24
ATOM     24  O   LIG d   1       7.462   0.464  -4.052  0.00  0.00    -0.495 OA
BRANCH  24  25
ATOM     25  C   LIG d   1       8.058   1.747  -3.852  0.00  0.00     0.079 C 
ATOM     26  H   LIG d   1       8.170   2.249  -4.812  0.00  0.00     0.066 H 
ATOM     27  H   LIG d   1       7.421   2.346  -3.201  0.00  0.00     0.066 H 
ATOM     28  H   LIG d   1       9.037   1.624  -3.390  0.00  0.00     0.066 H 
ENDBRANCH  24  25
ENDBRANCH  15  24
ENDBRANCH  11  14
ENDBRANCH   8  11
ENDBRANCH   5   8
ENDBRANCH   1   4
BRANCH   1  29
ATOM     29  C   LIG d   1       5.995  -1.180  -8.711  0.00  0.00    -0.018 C 
ATOM     30  H   LIG d   1       5.442  -0.740  -7.880  0.00  0.00     0.029 H 
ATOM     31  H   LIG d   1       6.153  -0.426  -9.482  0.00  0.00     0.029 H 
BRANCH  29  32
ATOM     32  C   LIG d   1       5.194  -2.346  -9.295  0.00  0.00     0.100 C 
ATOM     33  H   LIG d   1       5.772  -3.267  -9.206  0.00  0.00     0.059 H 
ATOM     34  N   LIG d   1       4.904  -2.084 -10.705  0.00  0.00    -0.300 N 
ATOM     35  C   LIG d   1       4.253  -0.984 -11.085  0.00  0.00     0.246 C 
ATOM     36  H   LIG d   1       5.190  -2.725 -11.374  0.00  0.00     0.150 HD
ATOM     37  C   LIG d   1       3.785   0.065 -10.172  0.00  0.00     0.058 A 
ATOM     38  O   LIG d   1       4.034  -0.840 -12.274  0.00  0.00    -0.270 OA
ATOM     39  C   LIG d   1       3.219  -0.206  -8.927  0.00  0.00     0.046 A 
ATOM     40  C   LIG d   1       3.927   1.399 -10.587  0.00  0.00    -0.048 A 
ATOM     41  N   LIG d   1       3.033  -1.487  -8.437  0.00  0.00    -0.283 N 
ATOM     42  C   LIG d   1       2.811   0.856  -8.115  0.00  0.00    -0.040 A 
ATOM     43  C   LIG d   1       3.897  -2.492  -8.548  0.00  0.00     0.238 C 
ATOM     44  H   LIG d   1       2.201  -1.667  -7.971  0.00  0.00     0.155 HD
ATOM     45  O   LIG d   1       3.632  -3.556  -8.031  0.00  0.00    -0.273 OA
ATOM     46  C   LIG d   1       2.959   2.158  -8.537  0.00  0.00    -0.060 A 
ATOM     47  H   LIG d   1       2.374   0.653  -7.149  0.00  0.00     0.064 H 
ATOM     48  C   LIG d   1       3.517   2.430  -9.775  0.00  0.00    -0.061 A 
ATOM     49  H   LIG d   1       2.639   2.970  -7.899  0.00  0.00     0.062 H 
ATOM     50  H   LIG d   1       3.631   3.453 -10.104  0.00  0.00     0.062 H 
ATOM     51  H   LIG d   1       4.360   1.617 -11.552  0.00  0.00     0.063 H 
ENDBRANCH  29  32
ENDBRANCH   1  29
TORSDOF 8
ENDMDL
MODEL 6
REMARK VINA RESULT:      -6.8      3.909      5.709
REMARK  8 active torsions:
REMARK  status: ('A' for Active; 'I' for Inactive)
REMARK    1  A    between atoms: C_1  and  O_2 
REMARK    2  A    between atoms: O_2  and  C_3 
REMARK    3  A    between atoms: C_8  and  C_9 
REMARK    4  A    between atoms: C_9  and  C_10 
REMARK    5  A    between atoms: C_10  and  N_11 
REMARK       I    between atoms: N_11  and  C_12 
REMARK    6  A    between atoms: C_12  and  C_14 
REMARK    7  A    between atoms: C_14  and  C_15 
REMARK    8  A    between atoms: C_15  and  C_16 
ROOT
ATOM      1  C   LIG d   1       7.638  -1.160  -5.995  0.00  0.00     0.026 C 
ATOM      2  H   LIG d   1       7.319  -1.148  -7.037  0.00  0.00     0.036 H 
ATOM      3  H   LIG d   1       8.627  -1.612  -5.923  0.00  0.00     0.036 H 
ENDROOT
BRANCH   1   4
ATOM      4  C   LIG d   1       7.691   0.252  -5.470  0.00  0.00     0.213 C 
ATOM      5  N   LIG d   1       8.176   0.494  -4.236  0.00  0.00    -0.315 N 
ATOM      6  H   LIG d   1       8.490  -0.239  -3.685  0.00  0.00     0.149 HD
ATOM      7  O   LIG d   1       7.297   1.170  -6.158  0.00  0.00    -0.276 OA
BRANCH   5   8
ATOM      8  C   LIG d   1       8.226   1.867  -3.726  0.00  0.00     0.016 C 
ATOM      9  H   LIG d   1       7.849   1.890  -2.705  0.00  0.00     0.046 H 
ATOM     10  H   LIG d   1       7.612   2.511  -4.355  0.00  0.00     0.046 H 
BRANCH   8  11
ATOM     11  C   LIG d   1       9.673   2.365  -3.746  0.00  0.00    -0.009 C 
ATOM     12  H   LIG d   1      10.292   1.664  -4.306  0.00  0.00     0.033 H 
ATOM     13  H   LIG d   1      10.044   2.442  -2.724  0.00  0.00     0.033 H 
BRANCH  11  14
ATOM     14  C   LIG d   1       9.729   3.720  -4.403  0.00  0.00    -0.004 A 
ATOM     15  C   LIG d   1       9.809   4.866  -3.625  0.00  0.00     0.123 A 
ATOM     16  C   LIG d   1       9.866   6.112  -4.235  0.00  0.00    -0.020 A 
ATOM     17  C   LIG d   1       9.836   6.209  -5.612  0.00  0.00    -0.058 A 
ATOM     18  H   LIG d   1       9.932   7.005  -3.631  0.00  0.00     0.065 H 
ATOM     19  C   LIG d   1       9.750   5.065  -6.385  0.00  0.00    -0.061 A 
ATOM     20  H   LIG d   1       9.879   7.178  -6.086  0.00  0.00     0.062 H 
ATOM     21  C   LIG d   1       9.693   3.823  -5.781  0.00  0.00    -0.055 A 
ATOM     22  H   LIG d   1       9.727   5.142  -7.461  0.00  0.00     0.062 H 
ATOM     23  H   LIG d   1       9.626   2.931  -6.386  0.00  0.00     0.062 H 
BRANCH  15  24
ATOM     24  O   LIG d   1       9.839   4.769  -2.271  0.00  0.00    -0.495 OA
BRANCH  24  25
ATOM     25  C   LIG d   1      11.002   5.270  -1.609  0.00  0.00     0.079 C 
ATOM     26  H   LIG d   1      11.689   5.685  -2.346  0.00  0.00     0.066 H 
ATOM     27  H   LIG d   1      10.711   6.049  -0.904  0.00  0.00     0.066 H 
ATOM     28  H   LIG d   1      11.492   4.458  -1.072  0.00  0.00     0.066 H 
ENDBRANCH  24  25
ENDBRANCH  15  24
ENDBRANCH  11  14
ENDBRANCH   8  11
ENDBRANCH   5   8
ENDBRANCH   1   4
BRANCH   1  29
ATOM     29  C   LIG d   1       6.643  -1.974  -5.166  0.00  0.00    -0.018 C 
ATOM     30  H   LIG d   1       7.155  -2.827  -4.719  0.00  0.00     0.029 H 
ATOM     31  H   LIG d   1       6.226  -1.347  -4.378  0.00  0.00     0.029 H 
BRANCH  29  32
ATOM     32  C   LIG d   1       5.514  -2.474  -6.071  0.00  0.00     0.100 C 
ATOM     33  H   LIG d   1       5.936  -3.026  -6.911  0.00  0.00     0.059 H 
ATOM     34  N   LIG d   1       4.746  -1.333  -6.571  0.00  0.00    -0.300 N 
ATOM     35  C   LIG d   1       4.172  -0.465  -5.737  0.00  0.00     0.246 C 
ATOM     36  H   LIG d   1       4.652  -1.209  -7.529  0.00  0.00     0.150 HD
ATOM     37  C   LIG d   1       4.255  -0.536  -4.274  0.00  0.00     0.058 A 
ATOM     38  O   LIG d   1       3.536   0.450  -6.225  0.00  0.00    -0.270 OA
ATOM     39  C   LIG d   1       4.178  -1.734  -3.564  0.00  0.00     0.046 A 
ATOM     40  C   LIG d   1       4.424   0.669  -3.573  0.00  0.00    -0.048 A 
ATOM     41  N   LIG d   1       4.006  -2.967  -4.166  0.00  0.00    -0.283 N 
ATOM     42  C   LIG d   1       4.279  -1.710  -2.170  0.00  0.00    -0.040 A 
ATOM     43  C   LIG d   1       4.599  -3.373  -5.285  0.00  0.00     0.238 C 
ATOM     44  H   LIG d   1       3.400  -3.591  -3.734  0.00  0.00     0.155 HD
ATOM     45  O   LIG d   1       4.397  -4.500  -5.684  0.00  0.00    -0.273 OA
ATOM     46  C   LIG d   1       4.447  -0.520  -1.499  0.00  0.00    -0.060 A 
ATOM     47  H   LIG d   1       4.223  -2.634  -1.614  0.00  0.00     0.064 H 
ATOM     48  C   LIG d   1       4.518   0.672  -2.202  0.00  0.00    -0.061 A 
ATOM     49  H   LIG d   1       4.523  -0.516  -0.421  0.00  0.00     0.062 H 
ATOM     50  H   LIG d   1       4.649   1.605  -1.672  0.00  0.00     0.062 H 
ATOM     51  H   LIG d   1       4.480   1.601  -4.115  0.00  0.00     0.063 H 
ENDBRANCH  29  32
ENDBRANCH   1  29
TORSDOF 8
ENDMDL
MODEL 7
REMARK VINA RESULT:      -6.8      1.940      6.280
REMARK  8 active torsions:
REMARK  status: ('A' for Active; 'I' for Inactive)
REMARK    1  A    between atoms: C_1  and  O_2 
REMARK    2  A    between atoms: O_2  and  C_3 
REMARK    3  A    between atoms: C_8  and  C_9 
REMARK    4  A    between atoms: C_9  and  C_10 
REMARK    5  A    between atoms: C_10  and  N_11 
REMARK       I    between atoms: N_11  and  C_12 
REMARK    6  A    between atoms: C_12  and  C_14 
REMARK    7  A    between atoms: C_14  and  C_15 
REMARK    8  A    between atoms: C_15  and  C_16 
ROOT
ATOM      1  C   LIG d   1       2.699   0.330  -6.316  0.00  0.00     0.026 C 
ATOM      2  H   LIG d   1       1.717  -0.056  -6.591  0.00  0.00     0.036 H 
ATOM      3  H   LIG d   1       2.784   1.368  -6.638  0.00  0.00     0.036 H 
ENDROOT
BRANCH   1   4
ATOM      4  C   LIG d   1       2.868   0.251  -4.821  0.00  0.00     0.213 C 
ATOM      5  N   LIG d   1       2.663  -0.918  -4.181  0.00  0.00    -0.315 N 
ATOM      6  H   LIG d   1       2.407  -1.708  -4.682  0.00  0.00     0.149 HD
ATOM      7  O   LIG d   1       3.188   1.238  -4.194  0.00  0.00    -0.276 OA
BRANCH   5   8
ATOM      8  C   LIG d   1       2.828  -0.994  -2.727  0.00  0.00     0.016 C 
ATOM      9  H   LIG d   1       1.875  -1.252  -2.266  0.00  0.00     0.046 H 
ATOM     10  H   LIG d   1       3.165  -0.030  -2.348  0.00  0.00     0.046 H 
BRANCH   8  11
ATOM     11  C   LIG d   1       3.865  -2.067  -2.387  0.00  0.00    -0.009 C 
ATOM     12  H   LIG d   1       3.438  -3.054  -2.562  0.00  0.00     0.033 H 
ATOM     13  H   LIG d   1       4.151  -1.975  -1.339  0.00  0.00     0.033 H 
BRANCH  11  14
ATOM     14  C   LIG d   1       5.082  -1.883  -3.256  0.00  0.00    -0.004 A 
ATOM     15  C   LIG d   1       5.279  -2.702  -4.358  0.00  0.00     0.123 A 
ATOM     16  C   LIG d   1       6.398  -2.526  -5.159  0.00  0.00    -0.020 A 
ATOM     17  C   LIG d   1       7.316  -1.539  -4.855  0.00  0.00    -0.058 A 
ATOM     18  H   LIG d   1       6.552  -3.160  -6.019  0.00  0.00     0.065 H 
ATOM     19  C   LIG d   1       7.120  -0.727  -3.753  0.00  0.00    -0.061 A 
ATOM     20  H   LIG d   1       8.187  -1.402  -5.479  0.00  0.00     0.062 H 
ATOM     21  C   LIG d   1       6.006  -0.901  -2.953  0.00  0.00    -0.055 A 
ATOM     22  H   LIG d   1       7.838   0.044  -3.517  0.00  0.00     0.062 H 
ATOM     23  H   LIG d   1       5.855  -0.266  -2.093  0.00  0.00     0.062 H 
BRANCH  15  24
ATOM     24  O   LIG d   1       4.375  -3.672  -4.655  0.00  0.00    -0.495 OA
BRANCH  24  25
ATOM     25  C   LIG d   1       4.575  -4.395  -5.871  0.00  0.00     0.079 C 
ATOM     26  H   LIG d   1       3.623  -4.797  -6.216  0.00  0.00     0.066 H 
ATOM     27  H   LIG d   1       4.982  -3.726  -6.629  0.00  0.00     0.066 H 
ATOM     28  H   LIG d   1       5.273  -5.214  -5.696  0.00  0.00     0.066 H 
ENDBRANCH  24  25
ENDBRANCH  15  24
ENDBRANCH  11  14
ENDBRANCH   8  11
ENDBRANCH   5   8
ENDBRANCH   1   4
BRANCH   1  29
ATOM     29  C   LIG d   1       3.783  -0.507  -6.997  0.00  0.00    -0.018 C 
ATOM     30  H   LIG d   1       4.622   0.135  -7.267  0.00  0.00     0.029 H 
ATOM     31  H   LIG d   1       4.126  -1.284  -6.314  0.00  0.00     0.029 H 
BRANCH  29  32
ATOM     32  C   LIG d   1       3.211  -1.154  -8.261  0.00  0.00     0.100 C 
ATOM     33  H   LIG d   1       2.255  -1.625  -8.029  0.00  0.00     0.059 H 
ATOM     34  N   LIG d   1       4.145  -2.164  -8.760  0.00  0.00    -0.300 N 
ATOM     35  C   LIG d   1       5.406  -1.851  -9.064  0.00  0.00     0.246 C 
ATOM     36  H   LIG d   1       3.839  -3.078  -8.873  0.00  0.00     0.150 HD
ATOM     37  C   LIG d   1       5.989  -0.513  -8.921  0.00  0.00     0.058 A 
ATOM     38  O   LIG d   1       6.121  -2.739  -9.489  0.00  0.00    -0.270 OA
ATOM     39  C   LIG d   1       5.301   0.657  -9.243  0.00  0.00     0.046 A 
ATOM     40  C   LIG d   1       7.303  -0.425  -8.431  0.00  0.00    -0.048 A 
ATOM     41  N   LIG d   1       4.009   0.670  -9.737  0.00  0.00    -0.283 N 
ATOM     42  C   LIG d   1       5.931   1.892  -9.064  0.00  0.00    -0.040 A 
ATOM     43  C   LIG d   1       3.012  -0.105  -9.320  0.00  0.00     0.238 C 
ATOM     44  H   LIG d   1       3.813   1.299 -10.449  0.00  0.00     0.155 HD
ATOM     45  O   LIG d   1       1.911   0.039  -9.806  0.00  0.00    -0.273 OA
ATOM     46  C   LIG d   1       7.218   1.959  -8.580  0.00  0.00    -0.060 A 
ATOM     47  H   LIG d   1       5.403   2.801  -9.308  0.00  0.00     0.064 H 
ATOM     48  C   LIG d   1       7.906   0.799  -8.265  0.00  0.00    -0.061 A 
ATOM     49  H   LIG d   1       7.693   2.921  -8.447  0.00  0.00     0.062 H 
ATOM     50  H   LIG d   1       8.917   0.855  -7.886  0.00  0.00     0.062 H 
ATOM     51  H   LIG d   1       7.844  -1.326  -8.184  0.00  0.00     0.063 H 
ENDBRANCH  29  32
ENDBRANCH   1  29
TORSDOF 8
ENDMDL
MODEL 8
REMARK VINA RESULT:      -6.7      1.911      3.250
REMARK  8 active torsions:
REMARK  status: ('A' for Active; 'I' for Inactive)
REMARK    1  A    between atoms: C_1  and  O_2 
REMARK    2  A    between atoms: O_2  and  C_3 
REMARK    3  A    between atoms: C_8  and  C_9 
REMARK    4  A    between atoms: C_9  and  C_10 
REMARK    5  A    between atoms: C_10  and  N_11 
REMARK       I    between atoms: N_11  and  C_12 
REMARK    6  A    between atoms: C_12  and  C_14 
REMARK    7  A    between atoms: C_14  and  C_15 
REMARK    8  A    between atoms: C_15  and  C_16 
ROOT
ATOM      1  C   LIG d   1       6.580   0.193  -7.171  0.00  0.00     0.026 C 
ATOM      2  H   LIG d   1       7.477  -0.361  -7.449  0.00  0.00     0.036 H 
ATOM      3  H   LIG d   1       6.861   1.185  -6.816  0.00  0.00     0.036 H 
ENDROOT
BRANCH   1   4
ATOM      4  C   LIG d   1       5.680   0.325  -8.372  0.00  0.00     0.213 C 
ATOM      5  N   LIG d   1       4.496   0.959  -8.260  0.00  0.00    -0.315 N 
ATOM      6  H   LIG d   1       4.223   1.331  -7.407  0.00  0.00     0.149 HD
ATOM      7  O   LIG d   1       6.020  -0.140  -9.439  0.00  0.00    -0.276 OA
BRANCH   5   8
ATOM      8  C   LIG d   1       3.621   1.087  -9.428  0.00  0.00     0.016 C 
ATOM      9  H   LIG d   1       4.048   0.535 -10.265  0.00  0.00     0.046 H 
ATOM     10  H   LIG d   1       3.525   2.138  -9.698  0.00  0.00     0.046 H 
BRANCH   8  11
ATOM     11  C   LIG d   1       2.239   0.519  -9.095  0.00  0.00    -0.009 C 
ATOM     12  H   LIG d   1       1.476   1.264  -9.321  0.00  0.00     0.033 H 
ATOM     13  H   LIG d   1       2.197   0.266  -8.035  0.00  0.00     0.033 H 
BRANCH  11  14
ATOM     14  C   LIG d   1       1.993  -0.720  -9.917  0.00  0.00    -0.004 A 
ATOM     15  C   LIG d   1       2.505  -1.941  -9.502  0.00  0.00     0.123 A 
ATOM     16  C   LIG d   1       2.271  -3.080 -10.259  0.00  0.00    -0.020 A 
ATOM     17  C   LIG d   1       1.536  -2.995 -11.426  0.00  0.00    -0.058 A 
ATOM     18  H   LIG d   1       2.665  -4.032  -9.937  0.00  0.00     0.065 H 
ATOM     19  C   LIG d   1       1.033  -1.776 -11.840  0.00  0.00    -0.061 A 
ATOM     20  H   LIG d   1       1.355  -3.882 -12.015  0.00  0.00     0.062 H 
ATOM     21  C   LIG d   1       1.264  -0.639 -11.088  0.00  0.00    -0.055 A 
ATOM     22  H   LIG d   1       0.458  -1.711 -12.751  0.00  0.00     0.062 H 
ATOM     23  H   LIG d   1       0.869   0.313 -11.413  0.00  0.00     0.062 H 
BRANCH  15  24
ATOM     24  O   LIG d   1       3.227  -2.022  -8.355  0.00  0.00    -0.495 OA
BRANCH  24  25
ATOM     25  C   LIG d   1       4.122  -3.129  -8.228  0.00  0.00     0.079 C 
ATOM     26  H   LIG d   1       4.323  -3.315  -7.174  0.00  0.00     0.066 H 
ATOM     27  H   LIG d   1       3.670  -4.014  -8.674  0.00  0.00     0.066 H 
ATOM     28  H   LIG d   1       5.057  -2.900  -8.741  0.00  0.00     0.066 H 
ENDBRANCH  24  25
ENDBRANCH  15  24
ENDBRANCH  11  14
ENDBRANCH   8  11
ENDBRANCH   5   8
ENDBRANCH   1   4
BRANCH   1  29
ATOM     29  C   LIG d   1       5.842  -0.557  -6.061  0.00  0.00    -0.018 C 
ATOM     30  H   LIG d   1       5.679   0.113  -5.216  0.00  0.00     0.029 H 
ATOM     31  H   LIG d   1       4.880  -0.908  -6.436  0.00  0.00     0.029 H 
BRANCH  29  32
ATOM     32  C   LIG d   1       6.681  -1.754  -5.608  0.00  0.00     0.100 C 
ATOM     33  H   LIG d   1       7.280  -2.117  -6.444  0.00  0.00     0.059 H 
ATOM     34  N   LIG d   1       5.796  -2.822  -5.140  0.00  0.00    -0.300 N 
ATOM     35  C   LIG d   1       4.919  -2.615  -4.157  0.00  0.00     0.246 C 
ATOM     36  H   LIG d   1       5.852  -3.699  -5.552  0.00  0.00     0.150 HD
ATOM     37  C   LIG d   1       4.729  -1.334  -3.467  0.00  0.00     0.058 A 
ATOM     38  O   LIG d   1       4.228  -3.554  -3.809  0.00  0.00    -0.270 OA
ATOM     39  C   LIG d   1       5.785  -0.495  -3.112  0.00  0.00     0.046 A 
ATOM     40  C   LIG d   1       3.413  -0.948  -3.163  0.00  0.00    -0.048 A 
ATOM     41  N   LIG d   1       7.113  -0.793  -3.365  0.00  0.00    -0.283 N 
ATOM     42  C   LIG d   1       5.512   0.714  -2.467  0.00  0.00    -0.040 A 
ATOM     43  C   LIG d   1       7.586  -1.339  -4.481  0.00  0.00     0.238 C 
ATOM     44  H   LIG d   1       7.755  -0.585  -2.667  0.00  0.00     0.155 HD
ATOM     45  O   LIG d   1       8.781  -1.506  -4.595  0.00  0.00    -0.273 OA
ATOM     46  C   LIG d   1       4.216   1.077  -2.179  0.00  0.00    -0.060 A 
ATOM     47  H   LIG d   1       6.324   1.369  -2.192  0.00  0.00     0.064 H 
ATOM     48  C   LIG d   1       3.165   0.244  -2.525  0.00  0.00    -0.061 A 
ATOM     49  H   LIG d   1       4.018   2.015  -1.679  0.00  0.00     0.062 H 
ATOM     50  H   LIG d   1       2.148   0.532  -2.296  0.00  0.00     0.062 H 
ATOM     51  H   LIG d   1       2.590  -1.594  -3.430  0.00  0.00     0.063 H 
ENDBRANCH  29  32
ENDBRANCH   1  29
TORSDOF 8
ENDMDL
MODEL 9
REMARK VINA RESULT:      -6.7      1.964      6.448
REMARK  8 active torsions:
REMARK  status: ('A' for Active; 'I' for Inactive)
REMARK    1  A    between atoms: C_1  and  O_2 
REMARK    2  A    between atoms: O_2  and  C_3 
REMARK    3  A    between atoms: C_8  and  C_9 
REMARK    4  A    between atoms: C_9  and  C_10 
REMARK    5  A    between atoms: C_10  and  N_11 
REMARK       I    between atoms: N_11  and  C_12 
REMARK    6  A    between atoms: C_12  and  C_14 
REMARK    7  A    between atoms: C_14  and  C_15 
REMARK    8  A    between atoms: C_15  and  C_16 
ROOT
ATOM      1  C   LIG d   1       2.469   0.425  -6.180  0.00  0.00     0.026 C 
ATOM      2  H   LIG d   1       1.699  -0.316  -6.395  0.00  0.00     0.036 H 
ATOM      3  H   LIG d   1       2.060   1.425  -6.325  0.00  0.00     0.036 H 
ENDROOT
BRANCH   1   4
ATOM      4  C   LIG d   1       2.930   0.271  -4.754  0.00  0.00     0.213 C 
ATOM      5  N   LIG d   1       2.604  -0.836  -4.057  0.00  0.00    -0.315 N 
ATOM      6  H   LIG d   1       2.072  -1.532  -4.472  0.00  0.00     0.149 HD
ATOM      7  O   LIG d   1       3.594   1.142  -4.233  0.00  0.00    -0.276 OA
BRANCH   5   8
ATOM      8  C   LIG d   1       3.052  -0.985  -2.670  0.00  0.00     0.016 C 
ATOM      9  H   LIG d   1       2.186  -1.026  -2.010  0.00  0.00     0.046 H 
ATOM     10  H   LIG d   1       3.677  -0.136  -2.396  0.00  0.00     0.046 H 
BRANCH   8  11
ATOM     11  C   LIG d   1       3.859  -2.278  -2.531  0.00  0.00    -0.009 C 
ATOM     12  H   LIG d   1       3.246  -3.124  -2.841  0.00  0.00     0.033 H 
ATOM     13  H   LIG d   1       4.159  -2.408  -1.491  0.00  0.00     0.033 H 
BRANCH  11  14
ATOM     14  C   LIG d   1       5.087  -2.199  -3.401  0.00  0.00    -0.004 A 
ATOM     15  C   LIG d   1       5.255  -3.092  -4.449  0.00  0.00     0.123 A 
ATOM     16  C   LIG d   1       6.384  -3.012  -5.251  0.00  0.00    -0.020 A 
ATOM     17  C   LIG d   1       7.341  -2.048  -5.001  0.00  0.00    -0.058 A 
ATOM     18  H   LIG d   1       6.515  -3.705  -6.069  0.00  0.00     0.065 H 
ATOM     19  C   LIG d   1       7.174  -1.162  -3.952  0.00  0.00    -0.061 A 
ATOM     20  H   LIG d   1       8.221  -1.987  -5.625  0.00  0.00     0.062 H 
ATOM     21  C   LIG d   1       6.050  -1.239  -3.152  0.00  0.00    -0.055 A 
ATOM     22  H   LIG d   1       7.923  -0.409  -3.759  0.00  0.00     0.062 H 
ATOM     23  H   LIG d   1       5.922  -0.546  -2.333  0.00  0.00     0.062 H 
BRANCH  15  24
ATOM     24  O   LIG d   1       4.312  -4.040  -4.692  0.00  0.00    -0.495 OA
BRANCH  24  25
ATOM     25  C   LIG d   1       4.728  -5.198  -5.419  0.00  0.00     0.079 C 
ATOM     26  H   LIG d   1       4.575  -5.032  -6.485  0.00  0.00     0.066 H 
ATOM     27  H   LIG d   1       5.785  -5.385  -5.230  0.00  0.00     0.066 H 
ATOM     28  H   LIG d   1       4.143  -6.058  -5.097  0.00  0.00     0.066 H 
ENDBRANCH  24  25
ENDBRANCH  15  24
ENDBRANCH  11  14
ENDBRANCH   8  11
ENDBRANCH   5   8
ENDBRANCH   1   4
BRANCH   1  29
ATOM     29  C   LIG d   1       3.654   0.218  -7.124  0.00  0.00    -0.018 C 
ATOM     30  H   LIG d   1       4.579   0.477  -6.609  0.00  0.00     0.029 H 
ATOM     31  H   LIG d   1       3.692  -0.826  -7.437  0.00  0.00     0.029 H 
BRANCH  29  32
ATOM     32  C   LIG d   1       3.489   1.112  -8.356  0.00  0.00     0.100 C 
ATOM     33  H   LIG d   1       3.259   2.130  -8.040  0.00  0.00     0.059 H 
ATOM     34  N   LIG d   1       2.400   0.601  -9.189  0.00  0.00    -0.300 N 
ATOM     35  C   LIG d   1       2.414  -0.647  -9.659  0.00  0.00     0.246 C 
ATOM     36  H   LIG d   1       1.655   1.184  -9.404  0.00  0.00     0.150 HD
ATOM     37  C   LIG d   1       3.472  -1.626  -9.391  0.00  0.00     0.058 A 
ATOM     38  O   LIG d   1       1.482  -0.997 -10.359  0.00  0.00    -0.270 OA
ATOM     39  C   LIG d   1       4.827  -1.297  -9.367  0.00  0.00     0.046 A 
ATOM     40  C   LIG d   1       3.083  -2.953  -9.142  0.00  0.00    -0.048 A 
ATOM     41  N   LIG d   1       5.305  -0.020  -9.606  0.00  0.00    -0.283 N 
ATOM     42  C   LIG d   1       5.769  -2.292  -9.091  0.00  0.00    -0.040 A 
ATOM     43  C   LIG d   1       4.761   1.107  -9.157  0.00  0.00     0.238 C 
ATOM     44  H   LIG d   1       6.107   0.059 -10.147  0.00  0.00     0.155 HD
ATOM     45  O   LIG d   1       5.308   2.162  -9.400  0.00  0.00    -0.273 OA
ATOM     46  C   LIG d   1       5.370  -3.587  -8.848  0.00  0.00    -0.060 A 
ATOM     47  H   LIG d   1       6.819  -2.043  -9.069  0.00  0.00     0.064 H 
ATOM     48  C   LIG d   1       4.025  -3.918  -8.875  0.00  0.00    -0.061 A 
ATOM     49  H   LIG d   1       6.108  -4.346  -8.635  0.00  0.00     0.062 H 
ATOM     50  H   LIG d   1       3.715  -4.936  -8.684  0.00  0.00     0.062 H 
ATOM     51  H   LIG d   1       2.037  -3.217  -9.163  0.00  0.00     0.063 H 
ENDBRANCH  29  32
ENDBRANCH   1  29
TORSDOF 8
ENDMDL
