MODEL 1
REMARK VINA RESULT:      -7.1      0.000      0.000
REMARK  5 active torsions:
REMARK  status: ('A' for Active; 'I' for Inactive)
REMARK    1  A    between atoms: C_6  and  N_7 
REMARK       I    between atoms: N_7  and  C_8 
REMARK       I    between atoms: C_8  and  N_10 
REMARK    2  A    between atoms: N_10  and  C_11 
REMARK    3  A    between atoms: C_20  and  N_25 
REMARK    4  A    between atoms: C_22  and  O_24 
REMARK    5  A    between atoms: C_28  and  C_31 
REMARK       I    between atoms: C_31  and  N_33 
ROOT
ATOM      1  C   LIG d   1       3.354  -0.513  -9.057  0.00  0.00     0.084 C 
ATOM      2  H   LIG d   1       3.453   0.565  -8.863  0.00  0.00     0.055 H 
ATOM      3  C   LIG d   1       2.142  -0.809  -9.956  0.00  0.00     0.106 C 
ATOM      4  H   LIG d   1       1.236  -0.314  -9.579  0.00  0.00     0.064 H 
ATOM      5  C   LIG d   1       2.539  -0.460 -11.410  0.00  0.00     0.079 C 
ATOM      6  O   LIG d   1       3.090  -1.676 -11.947  0.00  0.00    -0.344 OA
ATOM      7  C   LIG d   1       3.062  -2.652 -10.888  0.00  0.00     0.206 C 
ATOM      8  H   LIG d   1       2.880  -3.655 -11.301  0.00  0.00     0.097 H 
ATOM      9  O   LIG d   1       1.991  -2.250 -10.007  0.00  0.00    -0.339 OA
ATOM     10  C   LIG d   1       4.376  -2.542 -10.100  0.00  0.00     0.059 C 
ATOM     11  H   LIG d   1       5.219  -2.944 -10.681  0.00  0.00     0.093 H 
ATOM     12  C   LIG d   1       4.614  -1.070  -9.730  0.00  0.00     0.123 C 
ATOM     13  H   LIG d   1       5.500  -0.948  -9.090  0.00  0.00     0.067 H 
ATOM     14  H   LIG d   1       1.646  -0.138 -11.966  0.00  0.00     0.059 H 
ATOM     15  H   LIG d   1       3.279   0.353 -11.403  0.00  0.00     0.059 H 
ENDROOT
BRANCH  10  16
ATOM     16  N   LIG d   1       4.283  -3.347  -8.875  0.00  0.00     0.243 N 
ATOM     17  C   LIG d   1       5.574  -3.392  -8.175  0.00  0.00    -0.031 C 
ATOM     18  C   LIG d   1       5.405  -4.113  -6.836  0.00  0.00    -0.001 C 
ATOM     19  H   LIG d   1       6.307  -3.931  -8.792  0.00  0.00     0.082 H 
ATOM     20  H   LIG d   1       5.929  -2.366  -7.996  0.00  0.00     0.082 H 
ATOM     21  C   LIG d   1       4.892  -5.533  -7.089  0.00  0.00     0.045 C 
ATOM     22  H   LIG d   1       4.683  -3.567  -6.212  0.00  0.00     0.032 H 
ATOM     23  H   LIG d   1       6.375  -4.161  -6.319  0.00  0.00     0.032 H 
ATOM     24  C   LIG d   1       3.572  -5.460  -7.860  0.00  0.00    -0.001 C 
ATOM     25  H   LIG d   1       5.634  -6.107  -7.662  0.00  0.00     0.040 H 
ATOM     26  C   LIG d   1       3.793  -4.700  -9.170  0.00  0.00    -0.031 C 
ATOM     27  H   LIG d   1       2.819  -4.935  -7.255  0.00  0.00     0.032 H 
ATOM     28  H   LIG d   1       3.218  -6.478  -8.083  0.00  0.00     0.032 H 
ATOM     29  H   LIG d   1       2.843  -4.633  -9.720  0.00  0.00     0.082 H 
ATOM     30  H   LIG d   1       4.535  -5.233  -9.782  0.00  0.00     0.082 H 
ATOM     31  H   LIG d   1       3.555  -2.866  -8.205  0.00  0.00     0.204 HD
BRANCH  21  32
ATOM     32  C   LIG d   1       4.668  -6.229  -5.770  0.00  0.00     0.214 C 
ATOM     33  O   LIG d   1       3.941  -5.731  -4.937  0.00  0.00    -0.276 OA
ATOM     34  N   LIG d   1       5.277  -7.405  -5.518  0.00  0.00    -0.329 N 
ATOM     35  H   LIG d   1       5.114  -7.913  -4.555  0.00  0.00     0.145 HD
ATOM     36  H   LIG d   1       5.937  -7.856  -6.273  0.00  0.00     0.145 HD
ENDBRANCH  21  32
ENDBRANCH  10  16
BRANCH  12  37
ATOM     37  O   LIG d   1       4.892  -0.320 -10.914  0.00  0.00    -0.384 OA
ATOM     38  H   LIG d   1       5.841   0.231 -11.006  0.00  0.00     0.210 HD
ENDBRANCH  12  37
BRANCH   1  39
ATOM     39  N   LIG d   1       3.168  -1.155  -7.754  0.00  0.00    -0.291 N 
ATOM     40  C   LIG d   1       3.618  -0.553  -6.635  0.00  0.00     0.304 C 
ATOM     41  N   LIG d   1       3.543  -1.189  -5.450  0.00  0.00    -0.270 N 
ATOM     42  O   LIG d   1       4.091   0.565  -6.696  0.00  0.00    -0.253 OA
ATOM     43  H   LIG d   1       3.185  -2.229  -5.405  0.00  0.00     0.156 HD
ATOM     44  H   LIG d   1       2.661  -2.129  -7.688  0.00  0.00     0.151 HD
BRANCH  41  45
ATOM     45  C   LIG d   1       3.921  -0.528  -4.274  0.00  0.00     0.035 A 
ATOM     46  C   LIG d   1       2.978   0.177  -3.539  0.00  0.00    -0.038 A 
ATOM     47  C   LIG d   1       3.352   0.823  -2.377  0.00  0.00    -0.025 A 
ATOM     48  H   LIG d   1       1.952   0.216  -3.873  0.00  0.00     0.064 H 
ATOM     49  C   LIG d   1       4.670   0.778  -1.952  0.00  0.00     0.123 A 
ATOM     50  H   LIG d   1       2.618   1.368  -1.803  0.00  0.00     0.065 H 
ATOM     51  C   LIG d   1       5.613   0.080  -2.687  0.00  0.00    -0.025 A 
ATOM     52  F   LIG d   1       5.034   1.415  -0.818  0.00  0.00    -0.205 F 
ATOM     53  C   LIG d   1       5.242  -0.573  -3.846  0.00  0.00    -0.038 A 
ATOM     54  H   LIG d   1       6.640   0.045  -2.354  0.00  0.00     0.065 H 
ATOM     55  H   LIG d   1       5.977  -1.118  -4.419  0.00  0.00     0.064 H 
ENDBRANCH  41  45
ENDBRANCH   1  39
TORSDOF 5
ENDMDL
MODEL 2
REMARK VINA RESULT:      -6.6      3.979      5.541
REMARK  5 active torsions:
REMARK  status: ('A' for Active; 'I' for Inactive)
REMARK    1  A    between atoms: C_6  and  N_7 
REMARK       I    between atoms: N_7  and  C_8 
REMARK       I    between atoms: C_8  and  N_10 
REMARK    2  A    between atoms: N_10  and  C_11 
REMARK    3  A    between atoms: C_20  and  N_25 
REMARK    4  A    between atoms: C_22  and  O_24 
REMARK    5  A    between atoms: C_28  and  C_31 
REMARK       I    between atoms: C_31  and  N_33 
ROOT
ATOM      1  C   LIG d   1       5.773   0.726  -8.788  0.00  0.00     0.084 C 
ATOM      2  H   LIG d   1       6.714   0.587  -9.340  0.00  0.00     0.055 H 
ATOM      3  C   LIG d   1       4.914   1.836  -9.416  0.00  0.00     0.106 C 
ATOM      4  H   LIG d   1       5.503   2.750  -9.580  0.00  0.00     0.064 H 
ATOM      5  C   LIG d   1       4.231   1.247 -10.673  0.00  0.00     0.079 C 
ATOM      6  O   LIG d   1       2.984   0.709 -10.200  0.00  0.00    -0.344 OA
ATOM      7  C   LIG d   1       2.948   0.921  -8.776  0.00  0.00     0.206 C 
ATOM      8  H   LIG d   1       1.917   1.111  -8.446  0.00  0.00     0.097 H 
ATOM      9  O   LIG d   1       3.793   2.065  -8.526  0.00  0.00    -0.339 OA
ATOM     10  C   LIG d   1       3.597  -0.293  -8.094  0.00  0.00     0.059 C 
ATOM     11  H   LIG d   1       2.942  -1.174  -8.152  0.00  0.00     0.093 H 
ATOM     12  C   LIG d   1       4.955  -0.571  -8.757  0.00  0.00     0.123 C 
ATOM     13  H   LIG d   1       5.500  -1.379  -8.248  0.00  0.00     0.067 H 
ATOM     14  H   LIG d   1       4.075   2.046 -11.413  0.00  0.00     0.059 H 
ATOM     15  H   LIG d   1       4.872   0.466 -11.107  0.00  0.00     0.059 H 
ENDROOT
BRANCH  10  16
ATOM     16  N   LIG d   1       3.798  -0.006  -6.668  0.00  0.00     0.243 N 
ATOM     17  C   LIG d   1       4.398  -1.155  -5.979  0.00  0.00    -0.031 C 
ATOM     18  C   LIG d   1       4.726  -0.772  -4.534  0.00  0.00    -0.001 C 
ATOM     19  H   LIG d   1       3.690  -1.996  -5.983  0.00  0.00     0.082 H 
ATOM     20  H   LIG d   1       5.323  -1.451  -6.498  0.00  0.00     0.082 H 
ATOM     21  C   LIG d   1       3.441  -0.342  -3.822  0.00  0.00     0.045 C 
ATOM     22  H   LIG d   1       5.446   0.060  -4.527  0.00  0.00     0.032 H 
ATOM     23  H   LIG d   1       5.162  -1.638  -4.013  0.00  0.00     0.032 H 
ATOM     24  C   LIG d   1       2.810   0.825  -4.586  0.00  0.00    -0.001 C 
ATOM     25  H   LIG d   1       2.737  -1.185  -3.770  0.00  0.00     0.040 H 
ATOM     26  C   LIG d   1       2.538   0.396  -6.029  0.00  0.00    -0.031 C 
ATOM     27  H   LIG d   1       3.498   1.683  -4.582  0.00  0.00     0.032 H 
ATOM     28  H   LIG d   1       1.863   1.112  -4.103  0.00  0.00     0.032 H 
ATOM     29  H   LIG d   1       2.098   1.237  -6.585  0.00  0.00     0.082 H 
ATOM     30  H   LIG d   1       1.838  -0.453  -6.033  0.00  0.00     0.082 H 
ATOM     31  H   LIG d   1       4.499   0.838  -6.585  0.00  0.00     0.204 HD
BRANCH  21  32
ATOM     32  C   LIG d   1       3.767   0.093  -2.415  0.00  0.00     0.214 C 
ATOM     33  O   LIG d   1       3.424   1.188  -2.024  0.00  0.00    -0.276 OA
ATOM     34  N   LIG d   1       4.440  -0.737  -1.593  0.00  0.00    -0.329 N 
ATOM     35  H   LIG d   1       4.678  -0.420  -0.566  0.00  0.00     0.145 HD
ATOM     36  H   LIG d   1       4.751  -1.730  -1.948  0.00  0.00     0.145 HD
ENDBRANCH  21  32
ENDBRANCH  10  16
BRANCH  12  37
ATOM     37  O   LIG d   1       4.747  -1.034 -10.094  0.00  0.00    -0.384 OA
ATOM     38  H   LIG d   1       3.880  -0.676 -10.670  0.00  0.00     0.210 HD
ENDBRANCH  12  37
BRANCH   1  39
ATOM     39  N   LIG d   1       6.144   1.105  -7.423  0.00  0.00    -0.291 N 
ATOM     40  C   LIG d   1       7.438   1.315  -7.109  0.00  0.00     0.304 C 
ATOM     41  N   LIG d   1       7.791   1.559  -5.832  0.00  0.00    -0.270 N 
ATOM     42  O   LIG d   1       8.286   1.283  -7.980  0.00  0.00    -0.253 OA
ATOM     43  H   LIG d   1       7.036   1.512  -5.034  0.00  0.00     0.156 HD
ATOM     44  H   LIG d   1       5.366   1.219  -6.653  0.00  0.00     0.151 HD
BRANCH  41  45
ATOM     45  C   LIG d   1       9.121   1.871  -5.520  0.00  0.00     0.035 A 
ATOM     46  C   LIG d   1       9.995   0.869  -5.121  0.00  0.00    -0.038 A 
ATOM     47  C   LIG d   1      11.307   1.179  -4.820  0.00  0.00    -0.025 A 
ATOM     48  H   LIG d   1       9.651  -0.151  -5.052  0.00  0.00     0.064 H 
ATOM     49  C   LIG d   1      11.747   2.489  -4.905  0.00  0.00     0.123 A 
ATOM     50  H   LIG d   1      11.988   0.399  -4.514  0.00  0.00     0.065 H 
ATOM     51  C   LIG d   1      10.875   3.491  -5.297  0.00  0.00    -0.025 A 
ATOM     52  F   LIG d   1      13.029   2.790  -4.604  0.00  0.00    -0.205 F 
ATOM     53  C   LIG d   1       9.564   3.185  -5.604  0.00  0.00    -0.038 A 
ATOM     54  H   LIG d   1      11.221   4.512  -5.363  0.00  0.00     0.065 H 
ATOM     55  H   LIG d   1       8.884   3.966  -5.911  0.00  0.00     0.064 H 
ENDBRANCH  41  45
ENDBRANCH   1  39
TORSDOF 5
ENDMDL
MODEL 3
REMARK VINA RESULT:      -6.6      6.571      9.163
REMARK  5 active torsions:
REMARK  status: ('A' for Active; 'I' for Inactive)
REMARK    1  A    between atoms: C_6  and  N_7 
REMARK       I    between atoms: N_7  and  C_8 
REMARK       I    between atoms: C_8  and  N_10 
REMARK    2  A    between atoms: N_10  and  C_11 
REMARK    3  A    between atoms: C_20  and  N_25 
REMARK    4  A    between atoms: C_22  and  O_24 
REMARK    5  A    between atoms: C_28  and  C_31 
REMARK       I    between atoms: C_31  and  N_33 
ROOT
ATOM      1  C   LIG d   1       9.160   2.617  -6.995  0.00  0.00     0.084 C 
ATOM      2  H   LIG d   1       8.248   2.271  -7.504  0.00  0.00     0.055 H 
ATOM      3  C   LIG d   1      10.370   1.744  -7.362  0.00  0.00     0.106 C 
ATOM      4  H   LIG d   1      10.142   0.675  -7.241  0.00  0.00     0.064 H 
ATOM      5  C   LIG d   1      10.848   2.170  -8.771  0.00  0.00     0.079 C 
ATOM      6  O   LIG d   1      11.814   3.210  -8.537  0.00  0.00    -0.344 OA
ATOM      7  C   LIG d   1      11.874   3.414  -7.112  0.00  0.00     0.206 C 
ATOM      8  H   LIG d   1      12.896   3.685  -6.810  0.00  0.00     0.097 H 
ATOM      9  O   LIG d   1      11.471   2.161  -6.516  0.00  0.00    -0.339 OA
ATOM     10  C   LIG d   1      10.822   4.467  -6.734  0.00  0.00     0.059 C 
ATOM     11  H   LIG d   1      11.132   5.469  -7.064  0.00  0.00     0.093 H 
ATOM     12  C   LIG d   1       9.474   4.073  -7.360  0.00  0.00     0.123 C 
ATOM     13  H   LIG d   1       8.666   4.751  -7.047  0.00  0.00     0.067 H 
ATOM     14  H   LIG d   1      11.296   1.305  -9.282  0.00  0.00     0.059 H 
ATOM     15  H   LIG d   1       9.990   2.536  -9.354  0.00  0.00     0.059 H 
ENDROOT
BRANCH  10  16
ATOM     16  N   LIG d   1      10.686   4.524  -5.273  0.00  0.00     0.243 N 
ATOM     17  C   LIG d   1       9.848   5.659  -4.865  0.00  0.00    -0.031 C 
ATOM     18  C   LIG d   1       9.609   5.603  -3.355  0.00  0.00    -0.001 C 
ATOM     19  H   LIG d   1      10.356   6.600  -5.121  0.00  0.00     0.082 H 
ATOM     20  H   LIG d   1       8.883   5.608  -5.391  0.00  0.00     0.082 H 
ATOM     21  C   LIG d   1      10.956   5.653  -2.628  0.00  0.00     0.045 C 
ATOM     22  H   LIG d   1       9.088   4.669  -3.099  0.00  0.00     0.032 H 
ATOM     23  H   LIG d   1       8.995   6.462  -3.047  0.00  0.00     0.032 H 
ATOM     24  C   LIG d   1      11.828   4.488  -3.106  0.00  0.00    -0.001 C 
ATOM     25  H   LIG d   1      11.460   6.609  -2.831  0.00  0.00     0.040 H 
ATOM     26  C   LIG d   1      12.002   4.576  -4.624  0.00  0.00    -0.031 C 
ATOM     27  H   LIG d   1      11.343   3.535  -2.848  0.00  0.00     0.032 H 
ATOM     28  H   LIG d   1      12.813   4.542  -2.619  0.00  0.00     0.032 H 
ATOM     29  H   LIG d   1      12.616   3.732  -4.971  0.00  0.00     0.082 H 
ATOM     30  H   LIG d   1      12.501   5.522  -4.881  0.00  0.00     0.082 H 
ATOM     31  H   LIG d   1      10.186   3.602  -4.941  0.00  0.00     0.204 HD
BRANCH  21  32
ATOM     32  C   LIG d   1      10.731   5.539  -1.142  0.00  0.00     0.214 C 
ATOM     33  O   LIG d   1       9.991   6.317  -0.580  0.00  0.00    -0.276 OA
ATOM     34  N   LIG d   1      11.353   4.571  -0.439  0.00  0.00    -0.329 N 
ATOM     35  H   LIG d   1      11.189   4.488   0.646  0.00  0.00     0.145 HD
ATOM     36  H   LIG d   1      12.025   3.866  -0.949  0.00  0.00     0.145 HD
ENDBRANCH  21  32
ENDBRANCH  10  16
BRANCH  12  37
ATOM     37  O   LIG d   1       9.553   4.202  -8.781  0.00  0.00    -0.384 OA
ATOM     38  H   LIG d   1       9.387   3.323  -9.422  0.00  0.00     0.210 HD
ENDBRANCH  12  37
BRANCH   1  39
ATOM     39  N   LIG d   1       8.898   2.516  -5.558  0.00  0.00    -0.291 N 
ATOM     40  C   LIG d   1       7.903   1.727  -5.107  0.00  0.00     0.304 C 
ATOM     41  N   LIG d   1       7.592   1.715  -3.796  0.00  0.00    -0.270 N 
ATOM     42  O   LIG d   1       7.284   1.027  -5.885  0.00  0.00    -0.253 OA
ATOM     43  H   LIG d   1       8.099   2.404  -3.105  0.00  0.00     0.156 HD
ATOM     44  H   LIG d   1       9.514   3.084  -4.845  0.00  0.00     0.151 HD
BRANCH  41  45
ATOM     45  C   LIG d   1       6.624   0.826  -3.313  0.00  0.00     0.035 A 
ATOM     46  C   LIG d   1       5.452   1.314  -2.749  0.00  0.00    -0.038 A 
ATOM     47  C   LIG d   1       4.496   0.435  -2.279  0.00  0.00    -0.025 A 
ATOM     48  H   LIG d   1       5.288   2.378  -2.682  0.00  0.00     0.064 H 
ATOM     49  C   LIG d   1       4.710  -0.931  -2.359  0.00  0.00     0.123 A 
ATOM     50  H   LIG d   1       3.584   0.814  -1.843  0.00  0.00     0.065 H 
ATOM     51  C   LIG d   1       5.880  -1.419  -2.917  0.00  0.00    -0.025 A 
ATOM     52  F   LIG d   1       3.775  -1.788  -1.894  0.00  0.00    -0.205 F 
ATOM     53  C   LIG d   1       6.836  -0.544  -3.393  0.00  0.00    -0.038 A 
ATOM     54  H   LIG d   1       6.045  -2.484  -2.979  0.00  0.00     0.065 H 
ATOM     55  H   LIG d   1       7.748  -0.924  -3.829  0.00  0.00     0.064 H 
ENDBRANCH  41  45
ENDBRANCH   1  39
TORSDOF 5
ENDMDL
MODEL 4
REMARK VINA RESULT:      -6.5      4.045      7.819
REMARK  5 active torsions:
REMARK  status: ('A' for Active; 'I' for Inactive)
REMARK    1  A    between atoms: C_6  and  N_7 
REMARK       I    between atoms: N_7  and  C_8 
REMARK       I    between atoms: C_8  and  N_10 
REMARK    2  A    between atoms: N_10  and  C_11 
REMARK    3  A    between atoms: C_20  and  N_25 
REMARK    4  A    between atoms: C_22  and  O_24 
REMARK    5  A    between atoms: C_28  and  C_31 
REMARK       I    between atoms: C_31  and  N_33 
ROOT
ATOM      1  C   LIG d   1       3.776  -0.595  -5.009  0.00  0.00     0.084 C 
ATOM      2  H   LIG d   1       2.999  -1.167  -5.538  0.00  0.00     0.055 H 
ATOM      3  C   LIG d   1       3.171   0.269  -3.891  0.00  0.00     0.106 C 
ATOM      4  H   LIG d   1       2.321   0.861  -4.261  0.00  0.00     0.064 H 
ATOM      5  C   LIG d   1       2.866  -0.660  -2.691  0.00  0.00     0.079 C 
ATOM      6  O   LIG d   1       4.065  -0.645  -1.896  0.00  0.00    -0.344 OA
ATOM      7  C   LIG d   1       5.016   0.187  -2.587  0.00  0.00     0.206 C 
ATOM      8  H   LIG d   1       5.647   0.723  -1.863  0.00  0.00     0.097 H 
ATOM      9  O   LIG d   1       4.234   1.110  -3.377  0.00  0.00    -0.339 OA
ATOM     10  C   LIG d   1       5.810  -0.698  -3.559  0.00  0.00     0.059 C 
ATOM     11  H   LIG d   1       6.513  -1.346  -3.016  0.00  0.00     0.093 H 
ATOM     12  C   LIG d   1       4.826  -1.530  -4.395  0.00  0.00     0.123 C 
ATOM     13  H   LIG d   1       5.342  -2.118  -5.167  0.00  0.00     0.067 H 
ATOM     14  H   LIG d   1       2.003  -0.266  -2.134  0.00  0.00     0.059 H 
ATOM     15  H   LIG d   1       2.635  -1.670  -3.059  0.00  0.00     0.059 H 
ENDROOT
BRANCH  10  16
ATOM     16  N   LIG d   1       6.615   0.149  -4.449  0.00  0.00     0.243 N 
ATOM     17  C   LIG d   1       7.519  -0.663  -5.274  0.00  0.00    -0.031 C 
ATOM     18  C   LIG d   1       8.234   0.235  -6.286  0.00  0.00    -0.001 C 
ATOM     19  H   LIG d   1       8.263  -1.153  -4.629  0.00  0.00     0.082 H 
ATOM     20  H   LIG d   1       6.937  -1.428  -5.809  0.00  0.00     0.082 H 
ATOM     21  C   LIG d   1       9.025   1.310  -5.537  0.00  0.00     0.045 C 
ATOM     22  H   LIG d   1       7.492   0.714  -6.941  0.00  0.00     0.032 H 
ATOM     23  H   LIG d   1       8.923  -0.371  -6.894  0.00  0.00     0.032 H 
ATOM     24  C   LIG d   1       8.069   2.111  -4.649  0.00  0.00    -0.001 C 
ATOM     25  H   LIG d   1       9.810   0.844  -4.923  0.00  0.00     0.040 H 
ATOM     26  C   LIG d   1       7.359   1.159  -3.684  0.00  0.00    -0.031 C 
ATOM     27  H   LIG d   1       7.323   2.620  -5.276  0.00  0.00     0.032 H 
ATOM     28  H   LIG d   1       8.638   2.858  -4.075  0.00  0.00     0.032 H 
ATOM     29  H   LIG d   1       6.660   1.729  -3.055  0.00  0.00     0.082 H 
ATOM     30  H   LIG d   1       8.104   0.661  -3.046  0.00  0.00     0.082 H 
ATOM     31  H   LIG d   1       5.930   0.680  -5.126  0.00  0.00     0.204 HD
BRANCH  21  32
ATOM     32  C   LIG d   1       9.684   2.233  -6.530  0.00  0.00     0.214 C 
ATOM     33  O   LIG d   1      10.311   1.775  -7.461  0.00  0.00    -0.276 OA
ATOM     34  N   LIG d   1       9.576   3.569  -6.382  0.00  0.00    -0.329 N 
ATOM     35  H   LIG d   1      10.058   4.243  -7.107  0.00  0.00     0.145 HD
ATOM     36  H   LIG d   1       9.008   3.985  -5.538  0.00  0.00     0.145 HD
ENDBRANCH  21  32
ENDBRANCH  10  16
BRANCH  12  37
ATOM     37  O   LIG d   1       4.177  -2.487  -3.554  0.00  0.00    -0.384 OA
ATOM     38  H   LIG d   1       3.082  -2.475  -3.451  0.00  0.00     0.210 HD
ENDBRANCH  12  37
BRANCH   1  39
ATOM     39  N   LIG d   1       4.411   0.267  -6.008  0.00  0.00    -0.291 N 
ATOM     40  C   LIG d   1       4.383  -0.078  -7.311  0.00  0.00     0.304 C 
ATOM     41  N   LIG d   1       5.057   0.658  -8.217  0.00  0.00    -0.270 N 
ATOM     42  O   LIG d   1       3.752  -1.053  -7.668  0.00  0.00    -0.253 OA
ATOM     43  H   LIG d   1       5.690   1.494  -7.886  0.00  0.00     0.156 HD
ATOM     44  H   LIG d   1       4.909   1.197  -5.696  0.00  0.00     0.151 HD
BRANCH  41  45
ATOM     45  C   LIG d   1       4.952   0.357  -9.581  0.00  0.00     0.035 A 
ATOM     46  C   LIG d   1       5.877  -0.488 -10.180  0.00  0.00    -0.038 A 
ATOM     47  C   LIG d   1       5.768  -0.787 -11.523  0.00  0.00    -0.025 A 
ATOM     48  H   LIG d   1       6.677  -0.914  -9.594  0.00  0.00     0.064 H 
ATOM     49  C   LIG d   1       4.744  -0.236 -12.276  0.00  0.00     0.123 A 
ATOM     50  H   LIG d   1       6.485  -1.448 -11.989  0.00  0.00     0.065 H 
ATOM     51  C   LIG d   1       3.824   0.611 -11.682  0.00  0.00    -0.025 A 
ATOM     52  F   LIG d   1       4.643  -0.527 -13.591  0.00  0.00    -0.205 F 
ATOM     53  C   LIG d   1       3.926   0.909 -10.337  0.00  0.00    -0.038 A 
ATOM     54  H   LIG d   1       3.026   1.039 -12.271  0.00  0.00     0.065 H 
ATOM     55  H   LIG d   1       3.208   1.569  -9.874  0.00  0.00     0.064 H 
ENDBRANCH  41  45
ENDBRANCH   1  39
TORSDOF 5
ENDMDL
MODEL 5
REMARK VINA RESULT:      -6.2      3.227      7.248
REMARK  5 active torsions:
REMARK  status: ('A' for Active; 'I' for Inactive)
REMARK    1  A    between atoms: C_6  and  N_7 
REMARK       I    between atoms: N_7  and  C_8 
REMARK       I    between atoms: C_8  and  N_10 
REMARK    2  A    between atoms: N_10  and  C_11 
REMARK    3  A    between atoms: C_20  and  N_25 
REMARK    4  A    between atoms: C_22  and  O_24 
REMARK    5  A    between atoms: C_28  and  C_31 
REMARK       I    between atoms: C_31  and  N_33 
ROOT
ATOM      1  C   LIG d   1       4.680  -2.387  -3.740  0.00  0.00     0.084 C 
ATOM      2  H   LIG d   1       5.243  -3.191  -3.244  0.00  0.00     0.055 H 
ATOM      3  C   LIG d   1       3.628  -1.780  -2.798  0.00  0.00     0.106 C 
ATOM      4  H   LIG d   1       3.014  -2.562  -2.328  0.00  0.00     0.064 H 
ATOM      5  C   LIG d   1       4.362  -0.830  -1.822  0.00  0.00     0.079 C 
ATOM      6  O   LIG d   1       4.352   0.453  -2.473  0.00  0.00    -0.344 OA
ATOM      7  C   LIG d   1       3.705   0.271  -3.747  0.00  0.00     0.206 C 
ATOM      8  H   LIG d   1       3.139   1.175  -4.017  0.00  0.00     0.097 H 
ATOM      9  O   LIG d   1       2.826  -0.864  -3.585  0.00  0.00    -0.339 OA
ATOM     10  C   LIG d   1       4.775  -0.114  -4.778  0.00  0.00     0.059 C 
ATOM     11  H   LIG d   1       5.409   0.749  -5.029  0.00  0.00     0.093 H 
ATOM     12  C   LIG d   1       5.617  -1.270  -4.216  0.00  0.00     0.123 C 
ATOM     13  H   LIG d   1       6.345  -1.641  -4.952  0.00  0.00     0.067 H 
ATOM     14  H   LIG d   1       3.825  -0.804  -0.862  0.00  0.00     0.059 H 
ATOM     15  H   LIG d   1       5.387  -1.194  -1.657  0.00  0.00     0.059 H 
ENDROOT
BRANCH  10  16
ATOM     16  N   LIG d   1       4.126  -0.542  -6.024  0.00  0.00     0.243 N 
ATOM     17  C   LIG d   1       5.114  -0.732  -7.095  0.00  0.00    -0.031 C 
ATOM     18  C   LIG d   1       4.424  -1.315  -8.330  0.00  0.00    -0.001 C 
ATOM     19  H   LIG d   1       5.568   0.236  -7.350  0.00  0.00     0.082 H 
ATOM     20  H   LIG d   1       5.896  -1.425  -6.751  0.00  0.00     0.082 H 
ATOM     21  C   LIG d   1       3.323  -0.357  -8.792  0.00  0.00     0.045 C 
ATOM     22  H   LIG d   1       3.982  -2.289  -8.080  0.00  0.00     0.032 H 
ATOM     23  H   LIG d   1       5.161  -1.442  -9.137  0.00  0.00     0.032 H 
ATOM     24  C   LIG d   1       2.334  -0.137  -7.644  0.00  0.00    -0.001 C 
ATOM     25  H   LIG d   1       3.761   0.603  -9.101  0.00  0.00     0.040 H 
ATOM     26  C   LIG d   1       3.084   0.410  -6.428  0.00  0.00    -0.031 C 
ATOM     27  H   LIG d   1       1.857  -1.093  -7.380  0.00  0.00     0.032 H 
ATOM     28  H   LIG d   1       1.562   0.583  -7.955  0.00  0.00     0.032 H 
ATOM     29  H   LIG d   1       2.378   0.555  -5.597  0.00  0.00     0.082 H 
ATOM     30  H   LIG d   1       3.548   1.374  -6.687  0.00  0.00     0.082 H 
ATOM     31  H   LIG d   1       3.641  -1.511  -5.840  0.00  0.00     0.204 HD
BRANCH  21  32
ATOM     32  C   LIG d   1       2.601  -0.952  -9.974  0.00  0.00     0.214 C 
ATOM     33  O   LIG d   1       3.227  -1.321 -10.944  0.00  0.00    -0.276 OA
ATOM     34  N   LIG d   1       1.258  -1.075  -9.951  0.00  0.00    -0.329 N 
ATOM     35  H   LIG d   1       0.731  -1.509 -10.814  0.00  0.00     0.145 HD
ATOM     36  H   LIG d   1       0.690  -0.740  -9.071  0.00  0.00     0.145 HD
ENDBRANCH  21  32
ENDBRANCH  10  16
BRANCH  12  37
ATOM     37  O   LIG d   1       6.396  -0.800  -3.113  0.00  0.00    -0.384 OA
ATOM     38  H   LIG d   1       5.895  -0.435  -2.203  0.00  0.00     0.210 HD
ENDBRANCH  12  37
BRANCH   1  39
ATOM     39  N   LIG d   1       4.014  -2.994  -4.894  0.00  0.00    -0.291 N 
ATOM     40  C   LIG d   1       4.617  -3.992  -5.571  0.00  0.00     0.304 C 
ATOM     41  N   LIG d   1       4.055  -4.479  -6.696  0.00  0.00    -0.270 N 
ATOM     42  O   LIG d   1       5.668  -4.451  -5.169  0.00  0.00    -0.253 OA
ATOM     43  H   LIG d   1       3.145  -4.013  -7.102  0.00  0.00     0.156 HD
ATOM     44  H   LIG d   1       3.022  -2.637  -5.208  0.00  0.00     0.151 HD
BRANCH  41  45
ATOM     45  C   LIG d   1       4.630  -5.578  -7.347  0.00  0.00     0.035 A 
ATOM     46  C   LIG d   1       4.408  -6.863  -6.870  0.00  0.00    -0.038 A 
ATOM     47  C   LIG d   1       4.971  -7.945  -7.517  0.00  0.00    -0.025 A 
ATOM     48  H   LIG d   1       3.792  -7.016  -5.997  0.00  0.00     0.064 H 
ATOM     49  C   LIG d   1       5.766  -7.748  -8.634  0.00  0.00     0.123 A 
ATOM     50  H   LIG d   1       4.796  -8.945  -7.149  0.00  0.00     0.065 H 
ATOM     51  C   LIG d   1       5.993  -6.467  -9.108  0.00  0.00    -0.025 A 
ATOM     52  F   LIG d   1       6.320  -8.808  -9.262  0.00  0.00    -0.205 F 
ATOM     53  C   LIG d   1       5.427  -5.382  -8.467  0.00  0.00    -0.038 A 
ATOM     54  H   LIG d   1       6.612  -6.315  -9.980  0.00  0.00     0.065 H 
ATOM     55  H   LIG d   1       5.603  -4.383  -8.837  0.00  0.00     0.064 H 
ENDBRANCH  41  45
ENDBRANCH   1  39
TORSDOF 5
ENDMDL
MODEL 6
REMARK VINA RESULT:      -6.0     10.866     14.328
REMARK  5 active torsions:
REMARK  status: ('A' for Active; 'I' for Inactive)
REMARK    1  A    between atoms: C_6  and  N_7 
REMARK       I    between atoms: N_7  and  C_8 
REMARK       I    between atoms: C_8  and  N_10 
REMARK    2  A    between atoms: N_10  and  C_11 
REMARK    3  A    between atoms: C_20  and  N_25 
REMARK    4  A    between atoms: C_22  and  O_24 
REMARK    5  A    between atoms: C_28  and  C_31 
REMARK       I    between atoms: C_31  and  N_33 
ROOT
ATOM      1  C   LIG d   1       9.687  10.891  -3.938  0.00  0.00     0.084 C 
ATOM      2  H   LIG d   1       9.229  10.883  -4.938  0.00  0.00     0.055 H 
ATOM      3  C   LIG d   1      10.630  12.093  -3.766  0.00  0.00     0.106 C 
ATOM      4  H   LIG d   1      11.335  12.171  -4.607  0.00  0.00     0.064 H 
ATOM      5  C   LIG d   1       9.757  13.343  -3.508  0.00  0.00     0.079 C 
ATOM      6  O   LIG d   1       9.606  13.403  -2.079  0.00  0.00    -0.344 OA
ATOM      7  C   LIG d   1      10.296  12.261  -1.536  0.00  0.00     0.206 C 
ATOM      8  H   LIG d   1      10.739  12.513  -0.562  0.00  0.00     0.097 H 
ATOM      9  O   LIG d   1      11.316  11.921  -2.500  0.00  0.00    -0.339 OA
ATOM     10  C   LIG d   1       9.306  11.088  -1.475  0.00  0.00     0.059 C 
ATOM     11  H   LIG d   1       8.567  11.237  -0.675  0.00  0.00     0.093 H 
ATOM     12  C   LIG d   1       8.617  10.944  -2.841  0.00  0.00     0.123 C 
ATOM     13  H   LIG d   1       7.961  10.063  -2.876  0.00  0.00     0.067 H 
ATOM     14  H   LIG d   1      10.268  14.234  -3.901  0.00  0.00     0.059 H 
ATOM     15  H   LIG d   1       8.787  13.224  -4.014  0.00  0.00     0.059 H 
ENDROOT
BRANCH  10  16
ATOM     16  N   LIG d   1      10.030   9.850  -1.158  0.00  0.00     0.243 N 
ATOM     17  C   LIG d   1       9.102   8.723  -0.996  0.00  0.00    -0.031 C 
ATOM     18  C   LIG d   1       9.896   7.428  -0.812  0.00  0.00    -0.001 C 
ATOM     19  H   LIG d   1       8.469   8.894  -0.113  0.00  0.00     0.082 H 
ATOM     20  H   LIG d   1       8.468   8.640  -1.891  0.00  0.00     0.082 H 
ATOM     21  C   LIG d   1      10.792   7.556   0.423  0.00  0.00     0.045 C 
ATOM     22  H   LIG d   1      10.518   7.248  -1.700  0.00  0.00     0.032 H 
ATOM     23  H   LIG d   1       9.201   6.586  -0.674  0.00  0.00     0.032 H 
ATOM     24  C   LIG d   1      11.715   8.765   0.250  0.00  0.00    -0.001 C 
ATOM     25  H   LIG d   1      10.176   7.678   1.326  0.00  0.00     0.040 H 
ATOM     26  C   LIG d   1      10.869  10.021   0.035  0.00  0.00    -0.031 C 
ATOM     27  H   LIG d   1      12.368   8.609  -0.622  0.00  0.00     0.032 H 
ATOM     28  H   LIG d   1      12.333   8.888   1.152  0.00  0.00     0.032 H 
ATOM     29  H   LIG d   1      11.530  10.889  -0.104  0.00  0.00     0.082 H 
ATOM     30  H   LIG d   1      10.228  10.186   0.913  0.00  0.00     0.082 H 
ATOM     31  H   LIG d   1      10.694   9.618  -2.004  0.00  0.00     0.204 HD
BRANCH  21  32
ATOM     32  C   LIG d   1      11.620   6.306   0.576  0.00  0.00     0.214 C 
ATOM     33  O   LIG d   1      12.803   6.326   0.313  0.00  0.00    -0.276 OA
ATOM     34  N   LIG d   1      11.043   5.165   1.005  0.00  0.00    -0.329 N 
ATOM     35  H   LIG d   1      11.647   4.252   1.116  0.00  0.00     0.145 HD
ATOM     36  H   LIG d   1       9.970   5.147   1.243  0.00  0.00     0.145 HD
ENDBRANCH  21  32
ENDBRANCH  10  16
BRANCH  12  37
ATOM     37  O   LIG d   1       7.762  12.067  -3.064  0.00  0.00    -0.384 OA
ATOM     38  H   LIG d   1       8.116  13.082  -2.830  0.00  0.00     0.210 HD
ENDBRANCH  12  37
BRANCH   1  39
ATOM     39  N   LIG d   1      10.450   9.647  -3.821  0.00  0.00    -0.291 N 
ATOM     40  C   LIG d   1      10.078   8.559  -4.523  0.00  0.00     0.304 C 
ATOM     41  N   LIG d   1      10.713   7.385  -4.336  0.00  0.00    -0.270 N 
ATOM     42  O   LIG d   1       9.168   8.636  -5.326  0.00  0.00    -0.253 OA
ATOM     43  H   LIG d   1      11.484   7.295  -3.557  0.00  0.00     0.156 HD
ATOM     44  H   LIG d   1      11.328   9.599  -3.159  0.00  0.00     0.151 HD
BRANCH  41  45
ATOM     45  C   LIG d   1      10.391   6.279  -5.133  0.00  0.00     0.035 A 
ATOM     46  C   LIG d   1      10.829   6.219  -6.449  0.00  0.00    -0.038 A 
ATOM     47  C   LIG d   1      10.515   5.125  -7.231  0.00  0.00    -0.025 A 
ATOM     48  H   LIG d   1      11.419   7.025  -6.859  0.00  0.00     0.064 H 
ATOM     49  C   LIG d   1       9.754   4.094  -6.707  0.00  0.00     0.123 A 
ATOM     50  H   LIG d   1      10.859   5.077  -8.254  0.00  0.00     0.065 H 
ATOM     51  C   LIG d   1       9.311   4.154  -5.397  0.00  0.00    -0.025 A 
ATOM     52  F   LIG d   1       9.444   3.027  -7.476  0.00  0.00    -0.205 F 
ATOM     53  C   LIG d   1       9.628   5.243  -4.610  0.00  0.00    -0.038 A 
ATOM     54  H   LIG d   1       8.719   3.348  -4.990  0.00  0.00     0.065 H 
ATOM     55  H   LIG d   1       9.283   5.290  -3.587  0.00  0.00     0.064 H 
ENDBRANCH  41  45
ENDBRANCH   1  39
TORSDOF 5
ENDMDL
MODEL 7
REMARK VINA RESULT:      -6.0      3.478      6.845
REMARK  5 active torsions:
REMARK  status: ('A' for Active; 'I' for Inactive)
REMARK    1  A    between atoms: C_6  and  N_7 
REMARK       I    between atoms: N_7  and  C_8 
REMARK       I    between atoms: C_8  and  N_10 
REMARK    2  A    between atoms: N_10  and  C_11 
REMARK    3  A    between atoms: C_20  and  N_25 
REMARK    4  A    between atoms: C_22  and  O_24 
REMARK    5  A    between atoms: C_28  and  C_31 
REMARK       I    between atoms: C_31  and  N_33 
ROOT
ATOM      1  C   LIG d   1       3.592   0.097  -4.595  0.00  0.00     0.084 C 
ATOM      2  H   LIG d   1       2.622   0.411  -5.008  0.00  0.00     0.055 H 
ATOM      3  C   LIG d   1       4.251   1.230  -3.792  0.00  0.00     0.106 C 
ATOM      4  H   LIG d   1       4.267   2.168  -4.367  0.00  0.00     0.064 H 
ATOM      5  C   LIG d   1       3.549   1.302  -2.415  0.00  0.00     0.079 C 
ATOM      6  O   LIG d   1       4.305   0.417  -1.568  0.00  0.00    -0.344 OA
ATOM      7  C   LIG d   1       5.340  -0.162  -2.383  0.00  0.00     0.206 C 
ATOM      8  H   LIG d   1       6.247  -0.329  -1.784  0.00  0.00     0.097 H 
ATOM      9  O   LIG d   1       5.587   0.787  -3.444  0.00  0.00    -0.339 OA
ATOM     10  C   LIG d   1       4.785  -1.442  -3.026  0.00  0.00     0.059 C 
ATOM     11  H   LIG d   1       4.684  -2.245  -2.282  0.00  0.00     0.093 H 
ATOM     12  C   LIG d   1       3.431  -1.124  -3.681  0.00  0.00     0.123 C 
ATOM     13  H   LIG d   1       3.031  -1.989  -4.231  0.00  0.00     0.067 H 
ATOM     14  H   LIG d   1       3.572   2.337  -2.046  0.00  0.00     0.059 H 
ATOM     15  H   LIG d   1       2.505   0.972  -2.519  0.00  0.00     0.059 H 
ENDROOT
BRANCH  10  16
ATOM     16  N   LIG d   1       5.722  -1.926  -4.048  0.00  0.00     0.243 N 
ATOM     17  C   LIG d   1       5.285  -3.217  -4.595  0.00  0.00    -0.031 C 
ATOM     18  C   LIG d   1       6.201  -3.618  -5.753  0.00  0.00    -0.001 C 
ATOM     19  H   LIG d   1       5.331  -3.983  -3.808  0.00  0.00     0.082 H 
ATOM     20  H   LIG d   1       4.251  -3.127  -4.961  0.00  0.00     0.082 H 
ATOM     21  C   LIG d   1       7.642  -3.721  -5.245  0.00  0.00     0.045 C 
ATOM     22  H   LIG d   1       6.145  -2.860  -6.547  0.00  0.00     0.032 H 
ATOM     23  H   LIG d   1       5.883  -4.593  -6.153  0.00  0.00     0.032 H 
ATOM     24  C   LIG d   1       8.057  -2.379  -4.637  0.00  0.00    -0.001 C 
ATOM     25  H   LIG d   1       7.721  -4.518  -4.491  0.00  0.00     0.040 H 
ATOM     26  C   LIG d   1       7.087  -2.012  -3.512  0.00  0.00    -0.031 C 
ATOM     27  H   LIG d   1       8.030  -1.599  -5.412  0.00  0.00     0.032 H 
ATOM     28  H   LIG d   1       9.077  -2.458  -4.231  0.00  0.00     0.032 H 
ATOM     29  H   LIG d   1       7.374  -1.042  -3.082  0.00  0.00     0.082 H 
ATOM     30  H   LIG d   1       7.125  -2.785  -2.729  0.00  0.00     0.082 H 
ATOM     31  H   LIG d   1       5.733  -1.198  -4.873  0.00  0.00     0.204 HD
BRANCH  21  32
ATOM     32  C   LIG d   1       8.557  -4.060  -6.394  0.00  0.00     0.214 C 
ATOM     33  O   LIG d   1       9.687  -3.619  -6.420  0.00  0.00    -0.276 OA
ATOM     34  N   LIG d   1       8.120  -4.852  -7.393  0.00  0.00    -0.329 N 
ATOM     35  H   LIG d   1       8.788  -5.099  -8.232  0.00  0.00     0.145 HD
ATOM     36  H   LIG d   1       7.095  -5.251  -7.369  0.00  0.00     0.145 HD
ENDBRANCH  21  32
ENDBRANCH  10  16
BRANCH  12  37
ATOM     37  O   LIG d   1       2.467  -0.836  -2.667  0.00  0.00    -0.384 OA
ATOM     38  H   LIG d   1       1.512  -1.382  -2.645  0.00  0.00     0.210 HD
ENDBRANCH  12  37
BRANCH   1  39
ATOM     39  N   LIG d   1       4.438  -0.253  -5.738  0.00  0.00    -0.291 N 
ATOM     40  C   LIG d   1       3.892  -0.394  -6.962  0.00  0.00     0.304 C 
ATOM     41  N   LIG d   1       4.649  -0.819  -7.993  0.00  0.00    -0.270 N 
ATOM     42  O   LIG d   1       2.716  -0.139  -7.136  0.00  0.00    -0.253 OA
ATOM     43  H   LIG d   1       5.692  -1.123  -7.821  0.00  0.00     0.156 HD
ATOM     44  H   LIG d   1       5.519  -0.400  -5.598  0.00  0.00     0.151 HD
BRANCH  41  45
ATOM     45  C   LIG d   1       4.108  -0.875  -9.284  0.00  0.00     0.035 A 
ATOM     46  C   LIG d   1       4.194   0.228 -10.123  0.00  0.00    -0.038 A 
ATOM     47  C   LIG d   1       3.665   0.168 -11.397  0.00  0.00    -0.025 A 
ATOM     48  H   LIG d   1       4.680   1.129  -9.781  0.00  0.00     0.064 H 
ATOM     49  C   LIG d   1       3.038  -0.987 -11.833  0.00  0.00     0.123 A 
ATOM     50  H   LIG d   1       3.736   1.024 -12.051  0.00  0.00     0.065 H 
ATOM     51  C   LIG d   1       2.945  -2.086 -10.997  0.00  0.00    -0.025 A 
ATOM     52  F   LIG d   1       2.516  -1.041 -13.078  0.00  0.00    -0.205 F 
ATOM     53  C   LIG d   1       3.478  -2.032  -9.724  0.00  0.00    -0.038 A 
ATOM     54  H   LIG d   1       2.456  -2.986 -11.339  0.00  0.00     0.065 H 
ATOM     55  H   LIG d   1       3.407  -2.890  -9.071  0.00  0.00     0.064 H 
ENDBRANCH  41  45
ENDBRANCH   1  39
TORSDOF 5
ENDMDL
MODEL 8
REMARK VINA RESULT:      -5.9      5.131      6.853
REMARK  5 active torsions:
REMARK  status: ('A' for Active; 'I' for Inactive)
REMARK    1  A    between atoms: C_6  and  N_7 
REMARK       I    between atoms: N_7  and  C_8 
REMARK       I    between atoms: C_8  and  N_10 
REMARK    2  A    between atoms: N_10  and  C_11 
REMARK    3  A    between atoms: C_20  and  N_25 
REMARK    4  A    between atoms: C_22  and  O_24 
REMARK    5  A    between atoms: C_28  and  C_31 
REMARK       I    between atoms: C_31  and  N_33 
ROOT
ATOM      1  C   LIG d   1       5.584   0.366  -3.798  0.00  0.00     0.084 C 
ATOM      2  H   LIG d   1       5.269   1.416  -3.878  0.00  0.00     0.055 H 
ATOM      3  C   LIG d   1       4.786  -0.376  -2.714  0.00  0.00     0.106 C 
ATOM      4  H   LIG d   1       4.780   0.186  -1.769  0.00  0.00     0.064 H 
ATOM      5  C   LIG d   1       3.394  -0.712  -3.301  0.00  0.00     0.079 C 
ATOM      6  O   LIG d   1       3.550  -2.006  -3.909  0.00  0.00    -0.344 OA
ATOM      7  C   LIG d   1       4.928  -2.388  -3.736  0.00  0.00     0.206 C 
ATOM      8  H   LIG d   1       5.006  -3.477  -3.602  0.00  0.00     0.097 H 
ATOM      9  O   LIG d   1       5.388  -1.686  -2.560  0.00  0.00    -0.339 OA
ATOM     10  C   LIG d   1       5.727  -1.857  -4.935  0.00  0.00     0.059 C 
ATOM     11  H   LIG d   1       5.503  -2.434  -5.844  0.00  0.00     0.093 H 
ATOM     12  C   LIG d   1       5.401  -0.368  -5.132  0.00  0.00     0.123 C 
ATOM     13  H   LIG d   1       6.014   0.082  -5.927  0.00  0.00     0.067 H 
ATOM     14  H   LIG d   1       2.650  -0.729  -2.491  0.00  0.00     0.059 H 
ATOM     15  H   LIG d   1       3.114   0.054  -4.039  0.00  0.00     0.059 H 
ENDROOT
BRANCH  10  16
ATOM     16  N   LIG d   1       7.164  -2.014  -4.676  0.00  0.00     0.243 N 
ATOM     17  C   LIG d   1       7.955  -1.646  -5.858  0.00  0.00    -0.031 C 
ATOM     18  C   LIG d   1       9.445  -1.681  -5.507  0.00  0.00    -0.001 C 
ATOM     19  H   LIG d   1       7.753  -2.357  -6.671  0.00  0.00     0.082 H 
ATOM     20  H   LIG d   1       7.680  -0.630  -6.180  0.00  0.00     0.082 H 
ATOM     21  C   LIG d   1       9.820  -3.090  -5.039  0.00  0.00     0.045 C 
ATOM     22  H   LIG d   1       9.652  -0.960  -4.704  0.00  0.00     0.032 H 
ATOM     23  H   LIG d   1      10.038  -1.421  -6.396  0.00  0.00     0.032 H 
ATOM     24  C   LIG d   1       8.949  -3.469  -3.839  0.00  0.00    -0.001 C 
ATOM     25  H   LIG d   1       9.672  -3.812  -5.855  0.00  0.00     0.040 H 
ATOM     26  C   LIG d   1       7.473  -3.380  -4.236  0.00  0.00    -0.031 C 
ATOM     27  H   LIG d   1       9.145  -2.776  -3.007  0.00  0.00     0.032 H 
ATOM     28  H   LIG d   1       9.183  -4.496  -3.523  0.00  0.00     0.032 H 
ATOM     29  H   LIG d   1       6.845  -3.638  -3.372  0.00  0.00     0.082 H 
ATOM     30  H   LIG d   1       7.273  -4.084  -5.058  0.00  0.00     0.082 H 
ATOM     31  H   LIG d   1       7.441  -1.329  -3.861  0.00  0.00     0.204 HD
BRANCH  21  32
ATOM     32  C   LIG d   1      11.272  -3.116  -4.637  0.00  0.00     0.214 C 
ATOM     33  O   LIG d   1      11.952  -4.090  -4.882  0.00  0.00    -0.276 OA
ATOM     34  N   LIG d   1      11.815  -2.057  -4.005  0.00  0.00    -0.329 N 
ATOM     35  H   LIG d   1      12.876  -2.076  -3.711  0.00  0.00     0.145 HD
ATOM     36  H   LIG d   1      11.199  -1.174  -3.783  0.00  0.00     0.145 HD
ENDBRANCH  21  32
ENDBRANCH  10  16
BRANCH  12  37
ATOM     37  O   LIG d   1       4.047  -0.231  -5.569  0.00  0.00    -0.384 OA
ATOM     38  H   LIG d   1       3.697   0.728  -5.981  0.00  0.00     0.210 HD
ENDBRANCH  12  37
BRANCH   1  39
ATOM     39  N   LIG d   1       7.003   0.383  -3.438  0.00  0.00    -0.291 N 
ATOM     40  C   LIG d   1       7.787   1.405  -3.836  0.00  0.00     0.304 C 
ATOM     41  N   LIG d   1       9.113   1.371  -3.597  0.00  0.00    -0.270 N 
ATOM     42  O   LIG d   1       7.297   2.358  -4.411  0.00  0.00    -0.253 OA
ATOM     43  H   LIG d   1       9.567   0.477  -3.146  0.00  0.00     0.156 HD
ATOM     44  H   LIG d   1       7.431  -0.437  -2.843  0.00  0.00     0.151 HD
BRANCH  41  45
ATOM     45  C   LIG d   1       9.912   2.473  -3.924  0.00  0.00     0.035 A 
ATOM     46  C   LIG d   1      10.076   3.509  -3.013  0.00  0.00    -0.038 A 
ATOM     47  C   LIG d   1      10.869   4.592  -3.335  0.00  0.00    -0.025 A 
ATOM     48  H   LIG d   1       9.586   3.464  -2.052  0.00  0.00     0.064 H 
ATOM     49  C   LIG d   1      11.492   4.652  -4.570  0.00  0.00     0.123 A 
ATOM     50  H   LIG d   1      10.999   5.395  -2.626  0.00  0.00     0.065 H 
ATOM     51  C   LIG d   1      11.326   3.623  -5.483  0.00  0.00    -0.025 A 
ATOM     52  F   LIG d   1      12.264   5.715  -4.885  0.00  0.00    -0.205 F 
ATOM     53  C   LIG d   1      10.538   2.535  -5.162  0.00  0.00    -0.038 A 
ATOM     54  H   LIG d   1      11.814   3.671  -6.445  0.00  0.00     0.065 H 
ATOM     55  H   LIG d   1      10.410   1.733  -5.873  0.00  0.00     0.064 H 
ENDBRANCH  41  45
ENDBRANCH   1  39
TORSDOF 5
ENDMDL
MODEL 9
REMARK VINA RESULT:      -5.9      5.522      8.239
REMARK  5 active torsions:
REMARK  status: ('A' for Active; 'I' for Inactive)
REMARK    1  A    between atoms: C_6  and  N_7 
REMARK       I    between atoms: N_7  and  C_8 
REMARK       I    between atoms: C_8  and  N_10 
REMARK    2  A    between atoms: N_10  and  C_11 
REMARK    3  A    between atoms: C_20  and  N_25 
REMARK    4  A    between atoms: C_22  and  O_24 
REMARK    5  A    between atoms: C_28  and  C_31 
REMARK       I    between atoms: C_31  and  N_33 
ROOT
ATOM      1  C   LIG d   1       9.662  -3.817  -4.276  0.00  0.00     0.084 C 
ATOM      2  H   LIG d   1       8.887  -4.595  -4.336  0.00  0.00     0.055 H 
ATOM      3  C   LIG d   1      10.851  -4.277  -3.417  0.00  0.00     0.106 C 
ATOM      4  H   LIG d   1      10.513  -4.678  -2.450  0.00  0.00     0.064 H 
ATOM      5  C   LIG d   1      11.709  -5.237  -4.275  0.00  0.00     0.079 C 
ATOM      6  O   LIG d   1      12.664  -4.389  -4.938  0.00  0.00    -0.344 OA
ATOM      7  C   LIG d   1      12.371  -3.036  -4.540  0.00  0.00     0.206 C 
ATOM      8  H   LIG d   1      13.299  -2.450  -4.476  0.00  0.00     0.097 H 
ATOM      9  O   LIG d   1      11.727  -3.133  -3.251  0.00  0.00    -0.339 OA
ATOM     10  C   LIG d   1      11.347  -2.457  -5.528  0.00  0.00     0.059 C 
ATOM     11  H   LIG d   1      11.812  -2.252  -6.503  0.00  0.00     0.093 H 
ATOM     12  C   LIG d   1      10.178  -3.446  -5.672  0.00  0.00     0.123 C 
ATOM     13  H   LIG d   1       9.376  -3.039  -6.303  0.00  0.00     0.067 H 
ATOM     14  H   LIG d   1      12.201  -5.971  -3.621  0.00  0.00     0.059 H 
ATOM     15  H   LIG d   1      11.063  -5.761  -4.994  0.00  0.00     0.059 H 
ENDROOT
BRANCH  10  16
ATOM     16  N   LIG d   1      10.844  -1.174  -5.019  0.00  0.00     0.243 N 
ATOM     17  C   LIG d   1       9.882  -0.578  -5.955  0.00  0.00    -0.031 C 
ATOM     18  C   LIG d   1       9.272   0.679  -5.329  0.00  0.00    -0.001 C 
ATOM     19  H   LIG d   1      10.396  -0.310  -6.888  0.00  0.00     0.082 H 
ATOM     20  H   LIG d   1       9.083  -1.304  -6.170  0.00  0.00     0.082 H 
ATOM     21  C   LIG d   1      10.388   1.677  -5.011  0.00  0.00     0.045 C 
ATOM     22  H   LIG d   1       8.744   0.410  -4.402  0.00  0.00     0.032 H 
ATOM     23  H   LIG d   1       8.562   1.135  -6.036  0.00  0.00     0.032 H 
ATOM     24  C   LIG d   1      11.402   1.016  -4.074  0.00  0.00    -0.001 C 
ATOM     25  H   LIG d   1      10.884   1.998  -5.939  0.00  0.00     0.040 H 
ATOM     26  C   LIG d   1      11.950  -0.251  -4.735  0.00  0.00    -0.031 C 
ATOM     27  H   LIG d   1      10.910   0.750  -3.127  0.00  0.00     0.032 H 
ATOM     28  H   LIG d   1      12.229   1.713  -3.875  0.00  0.00     0.032 H 
ATOM     29  H   LIG d   1      12.668  -0.736  -4.059  0.00  0.00     0.082 H 
ATOM     30  H   LIG d   1      12.455   0.016  -5.676  0.00  0.00     0.082 H 
ATOM     31  H   LIG d   1      10.317  -1.366  -4.073  0.00  0.00     0.204 HD
BRANCH  21  32
ATOM     32  C   LIG d   1       9.800   2.893  -4.341  0.00  0.00     0.214 C 
ATOM     33  O   LIG d   1       9.090   3.648  -4.970  0.00  0.00    -0.276 OA
ATOM     34  N   LIG d   1      10.064   3.140  -3.042  0.00  0.00    -0.329 N 
ATOM     35  H   LIG d   1       9.635   4.028  -2.553  0.00  0.00     0.145 HD
ATOM     36  H   LIG d   1      10.708   2.455  -2.472  0.00  0.00     0.145 HD
ENDBRANCH  21  32
ENDBRANCH  10  16
BRANCH  12  37
ATOM     37  O   LIG d   1      10.631  -4.624  -6.341  0.00  0.00    -0.384 OA
ATOM     38  H   LIG d   1      10.340  -5.617  -5.964  0.00  0.00     0.210 HD
ENDBRANCH  12  37
BRANCH   1  39
ATOM     39  N   LIG d   1       9.032  -2.648  -3.658  0.00  0.00    -0.291 N 
ATOM     40  C   LIG d   1       7.708  -2.443  -3.801  0.00  0.00     0.304 C 
ATOM     41  N   LIG d   1       7.145  -1.314  -3.325  0.00  0.00    -0.270 N 
ATOM     42  O   LIG d   1       7.021  -3.275  -4.361  0.00  0.00    -0.253 OA
ATOM     43  H   LIG d   1       7.777  -0.527  -2.887  0.00  0.00     0.156 HD
ATOM     44  H   LIG d   1       9.639  -1.938  -3.078  0.00  0.00     0.151 HD
BRANCH  41  45
ATOM     45  C   LIG d   1       5.756  -1.143  -3.387  0.00  0.00     0.035 A 
ATOM     46  C   LIG d   1       4.940  -1.729  -2.429  0.00  0.00    -0.038 A 
ATOM     47  C   LIG d   1       3.571  -1.554  -2.490  0.00  0.00    -0.025 A 
ATOM     48  H   LIG d   1       5.375  -2.316  -1.635  0.00  0.00     0.064 H 
ATOM     49  C   LIG d   1       3.013  -0.805  -3.512  0.00  0.00     0.123 A 
ATOM     50  H   LIG d   1       2.936  -2.006  -1.742  0.00  0.00     0.065 H 
ATOM     51  C   LIG d   1       3.825  -0.225  -4.472  0.00  0.00    -0.025 A 
ATOM     52  F   LIG d   1       1.673  -0.639  -3.572  0.00  0.00    -0.205 F 
ATOM     53  C   LIG d   1       5.194  -0.392  -4.411  0.00  0.00    -0.038 A 
ATOM     54  H   LIG d   1       3.387   0.360  -5.268  0.00  0.00     0.065 H 
ATOM     55  H   LIG d   1       5.828   0.061  -5.160  0.00  0.00     0.064 H 
ENDBRANCH  41  45
ENDBRANCH   1  39
TORSDOF 5
ENDMDL
