MODEL 1
REMARK VINA RESULT:      -6.8      0.000      0.000
REMARK  9 active torsions:
REMARK  status: ('A' for Active; 'I' for Inactive)
REMARK    1  A    between atoms: C_1  and  C_2 
REMARK    2  A    between atoms: C_3  and  C_25 
REMARK    3  A    between atoms: C_4  and  C_8 
REMARK    4  A    between atoms: C_11  and  O_15 
REMARK    5  A    between atoms: C_13  and  O_14 
REMARK    6  A    between atoms: O_15  and  C_16 
REMARK    7  A    between atoms: C_16  and  C_17 
REMARK    8  A    between atoms: C_20  and  O_23 
REMARK    9  A    between atoms: O_23  and  C_24 
ROOT
ATOM      1  C   LIG d   1       4.406  -3.884  -7.881  0.00  0.00     0.044 A 
ATOM      2  C   LIG d   1       5.590  -3.230  -8.215  0.00  0.00    -0.045 A 
ATOM      3  C   LIG d   1       6.604  -3.124  -7.288  0.00  0.00    -0.019 A 
ATOM      4  C   LIG d   1       6.450  -3.667  -6.019  0.00  0.00     0.124 A 
ATOM      5  C   LIG d   1       5.275  -4.321  -5.678  0.00  0.00     0.022 A 
ATOM      6  C   LIG d   1       4.249  -4.427  -6.602  0.00  0.00     0.130 A 
ATOM      7  H   LIG d   1       5.713  -2.805  -9.201  0.00  0.00     0.063 H 
ATOM      8  H   LIG d   1       7.522  -2.616  -7.549  0.00  0.00     0.065 H 
ATOM      9  H   LIG d   1       5.159  -4.743  -4.691  0.00  0.00     0.069 H 
ENDROOT
BRANCH   1  10
ATOM     10  C   LIG d   1       3.314  -3.999  -8.876  0.00  0.00     0.104 A 
ATOM     11  C   LIG d   1       2.721  -2.930  -9.595  0.00  0.00     0.030 A 
ATOM     12  C   LIG d   1       1.760  -3.461 -10.402  0.00  0.00     0.041 A 
ATOM     13  N   LIG d   1       1.742  -4.795 -10.201  0.00  0.00    -0.281 N 
ATOM     14  N   LIG d   1       2.721  -5.112  -9.251  0.00  0.00    -0.173 NA
ATOM     15  H   LIG d   1       1.153  -5.427 -10.641  0.00  0.00     0.189 HD
BRANCH  11  16
ATOM     16  C   LIG d   1       3.081  -1.495  -9.487  0.00  0.00    -0.014 A 
ATOM     17  C   LIG d   1       3.943  -0.919 -10.419  0.00  0.00    -0.052 A 
ATOM     18  C   LIG d   1       4.272   0.417 -10.318  0.00  0.00    -0.043 A 
ATOM     19  H   LIG d   1       4.350  -1.517 -11.222  0.00  0.00     0.062 H 
ATOM     20  C   LIG d   1       3.755   1.183  -9.287  0.00  0.00     0.041 A 
ATOM     21  H   LIG d   1       4.936   0.866 -11.042  0.00  0.00     0.063 H 
ATOM     22  C   LIG d   1       2.903   0.615  -8.355  0.00  0.00    -0.043 A 
ATOM     23 CL   LIG d   1       4.177   2.863  -9.161  0.00  0.00    -0.084 Cl
ATOM     24  C   LIG d   1       2.565  -0.720  -8.451  0.00  0.00    -0.052 A 
ATOM     25  H   LIG d   1       2.502   1.216  -7.553  0.00  0.00     0.063 H 
ATOM     26  H   LIG d   1       1.900  -1.162  -7.724  0.00  0.00     0.062 H 
ENDBRANCH  11  16
BRANCH  12  27
ATOM     27  C   LIG d   1       0.872  -2.695 -11.348  0.00  0.00    -0.022 C 
ATOM     28  H   LIG d   1       1.127  -2.954 -12.376  0.00  0.00     0.029 H 
ATOM     29  H   LIG d   1      -0.170  -2.953 -11.157  0.00  0.00     0.029 H 
ATOM     30  H   LIG d   1       1.016  -1.625 -11.196  0.00  0.00     0.029 H 
ENDBRANCH  12  27
ENDBRANCH   1  10
BRANCH   6  31
ATOM     31  O   LIG d   1       3.096  -5.062  -6.268  0.00  0.00    -0.506 OA
ATOM     32  H   LIG d   1       3.194  -6.014  -6.138  0.00  0.00     0.292 HD
ENDBRANCH   6  31
BRANCH   4  33
ATOM     33  O   LIG d   1       7.454  -3.560  -5.109  0.00  0.00    -0.487 OA
BRANCH  33  34
ATOM     34  C   LIG d   1       8.145  -2.310  -5.051  0.00  0.00     0.115 C 
ATOM     35  H   LIG d   1       9.113  -2.453  -4.570  0.00  0.00     0.075 H 
ATOM     36  H   LIG d   1       8.294  -1.929  -6.061  0.00  0.00     0.075 H 
BRANCH  34  37
ATOM     37  C   LIG d   1       7.330  -1.323  -4.256  0.00  0.00    -0.010 A 
ATOM     38  C   LIG d   1       7.574   0.032  -4.380  0.00  0.00    -0.052 A 
ATOM     39  C   LIG d   1       6.824   0.940  -3.658  0.00  0.00    -0.020 A 
ATOM     40  H   LIG d   1       8.350   0.382  -5.046  0.00  0.00     0.062 H 
ATOM     41  C   LIG d   1       5.832   0.490  -2.800  0.00  0.00     0.120 A 
ATOM     42  H   LIG d   1       7.013   1.999  -3.760  0.00  0.00     0.065 H 
ATOM     43  C   LIG d   1       5.592  -0.870  -2.672  0.00  0.00    -0.020 A 
ATOM     44  C   LIG d   1       6.342  -1.773  -3.400  0.00  0.00    -0.052 A 
ATOM     45  H   LIG d   1       4.821  -1.223  -2.005  0.00  0.00     0.065 H 
ATOM     46  H   LIG d   1       6.155  -2.832  -3.302  0.00  0.00     0.062 H 
BRANCH  41  47
ATOM     47  O   LIG d   1       5.096   1.380  -2.084  0.00  0.00    -0.495 OA
BRANCH  47  48
ATOM     48  C   LIG d   1       3.682   1.371  -2.296  0.00  0.00     0.079 C 
ATOM     49  H   LIG d   1       3.441   1.980  -3.168  0.00  0.00     0.066 H 
ATOM     50  H   LIG d   1       3.346   0.347  -2.464  0.00  0.00     0.066 H 
ATOM     51  H   LIG d   1       3.180   1.779  -1.418  0.00  0.00     0.066 H 
ENDBRANCH  47  48
ENDBRANCH  41  47
ENDBRANCH  34  37
ENDBRANCH  33  34
ENDBRANCH   4  33
TORSDOF 9
ENDMDL
MODEL 2
REMARK VINA RESULT:      -6.4      1.208      1.822
REMARK  9 active torsions:
REMARK  status: ('A' for Active; 'I' for Inactive)
REMARK    1  A    between atoms: C_1  and  C_2 
REMARK    2  A    between atoms: C_3  and  C_25 
REMARK    3  A    between atoms: C_4  and  C_8 
REMARK    4  A    between atoms: C_11  and  O_15 
REMARK    5  A    between atoms: C_13  and  O_14 
REMARK    6  A    between atoms: O_15  and  C_16 
REMARK    7  A    between atoms: C_16  and  C_17 
REMARK    8  A    between atoms: C_20  and  O_23 
REMARK    9  A    between atoms: O_23  and  C_24 
ROOT
ATOM      1  C   LIG d   1       3.896  -3.500  -9.246  0.00  0.00     0.044 A 
ATOM      2  C   LIG d   1       5.002  -2.657  -9.323  0.00  0.00    -0.045 A 
ATOM      3  C   LIG d   1       6.024  -2.776  -8.405  0.00  0.00    -0.019 A 
ATOM      4  C   LIG d   1       5.954  -3.734  -7.402  0.00  0.00     0.124 A 
ATOM      5  C   LIG d   1       4.856  -4.578  -7.318  0.00  0.00     0.022 A 
ATOM      6  C   LIG d   1       3.824  -4.462  -8.233  0.00  0.00     0.130 A 
ATOM      7  H   LIG d   1       5.059  -1.910 -10.101  0.00  0.00     0.063 H 
ATOM      8  H   LIG d   1       6.881  -2.121  -8.466  0.00  0.00     0.065 H 
ATOM      9  H   LIG d   1       4.806  -5.322  -6.537  0.00  0.00     0.069 H 
ENDROOT
BRANCH   1  10
ATOM     10  C   LIG d   1       2.796  -3.375 -10.231  0.00  0.00     0.104 A 
ATOM     11  C   LIG d   1       2.252  -2.164 -10.728  0.00  0.00     0.030 A 
ATOM     12  C   LIG d   1       1.264  -2.488 -11.609  0.00  0.00     0.041 A 
ATOM     13  N   LIG d   1       1.183  -3.833 -11.663  0.00  0.00    -0.281 N 
ATOM     14  N   LIG d   1       2.149  -4.369 -10.802  0.00  0.00    -0.173 NA
ATOM     15  H   LIG d   1       0.563  -4.343 -12.206  0.00  0.00     0.189 HD
BRANCH  11  16
ATOM     16  C   LIG d   1       2.681  -0.792 -10.357  0.00  0.00    -0.014 A 
ATOM     17  C   LIG d   1       2.268  -0.235  -9.148  0.00  0.00    -0.052 A 
ATOM     18  C   LIG d   1       2.674   1.039  -8.804  0.00  0.00    -0.043 A 
ATOM     19  H   LIG d   1       1.636  -0.800  -8.478  0.00  0.00     0.062 H 
ATOM     20  C   LIG d   1       3.480   1.766  -9.663  0.00  0.00     0.041 A 
ATOM     21  H   LIG d   1       2.359   1.470  -7.865  0.00  0.00     0.063 H 
ATOM     22  C   LIG d   1       3.888   1.219 -10.867  0.00  0.00    -0.043 A 
ATOM     23 CL   LIG d   1       3.982   3.370  -9.228  0.00  0.00    -0.084 Cl
ATOM     24  C   LIG d   1       3.492  -0.057 -11.217  0.00  0.00    -0.052 A 
ATOM     25  H   LIG d   1       4.517   1.790 -11.533  0.00  0.00     0.063 H 
ATOM     26  H   LIG d   1       3.811  -0.483 -12.157  0.00  0.00     0.062 H 
ENDBRANCH  11  16
BRANCH  12  27
ATOM     27  C   LIG d   1       0.410  -1.517 -12.383  0.00  0.00    -0.022 C 
ATOM     28  H   LIG d   1       0.437  -1.774 -13.442  0.00  0.00     0.029 H 
ATOM     29  H   LIG d   1      -0.617  -1.570 -12.023  0.00  0.00     0.029 H 
ATOM     30  H   LIG d   1       0.793  -0.506 -12.244  0.00  0.00     0.029 H 
ENDBRANCH  12  27
ENDBRANCH   1  10
BRANCH   6  31
ATOM     31  O   LIG d   1       2.745  -5.284  -8.149  0.00  0.00    -0.506 OA
ATOM     32  H   LIG d   1       2.955  -6.179  -7.849  0.00  0.00     0.292 HD
ENDBRANCH   6  31
BRANCH   4  33
ATOM     33  O   LIG d   1       6.965  -3.846  -6.500  0.00  0.00    -0.487 OA
BRANCH  33  34
ATOM     34  C   LIG d   1       6.620  -4.313  -5.194  0.00  0.00     0.115 C 
ATOM     35  H   LIG d   1       5.826  -5.056  -5.272  0.00  0.00     0.075 H 
ATOM     36  H   LIG d   1       7.495  -4.764  -4.727  0.00  0.00     0.075 H 
BRANCH  34  37
ATOM     37  C   LIG d   1       6.144  -3.154  -4.356  0.00  0.00    -0.010 A 
ATOM     38  C   LIG d   1       7.029  -2.154  -3.996  0.00  0.00    -0.052 A 
ATOM     39  C   LIG d   1       6.595  -1.087  -3.235  0.00  0.00    -0.020 A 
ATOM     40  H   LIG d   1       8.060  -2.206  -4.315  0.00  0.00     0.062 H 
ATOM     41  C   LIG d   1       5.272  -1.025  -2.822  0.00  0.00     0.120 A 
ATOM     42  H   LIG d   1       7.285  -0.304  -2.958  0.00  0.00     0.065 H 
ATOM     43  C   LIG d   1       4.387  -2.032  -3.179  0.00  0.00    -0.020 A 
ATOM     44  C   LIG d   1       4.826  -3.094  -3.945  0.00  0.00    -0.052 A 
ATOM     45  H   LIG d   1       3.358  -1.986  -2.859  0.00  0.00     0.065 H 
ATOM     46  H   LIG d   1       4.138  -3.878  -4.225  0.00  0.00     0.062 H 
BRANCH  41  47
ATOM     47  O   LIG d   1       4.843   0.021  -2.068  0.00  0.00    -0.495 OA
BRANCH  47  48
ATOM     48  C   LIG d   1       4.919   1.321  -2.658  0.00  0.00     0.079 C 
ATOM     49  H   LIG d   1       4.008   1.877  -2.431  0.00  0.00     0.066 H 
ATOM     50  H   LIG d   1       5.780   1.853  -2.254  0.00  0.00     0.066 H 
ATOM     51  H   LIG d   1       5.025   1.224  -3.738  0.00  0.00     0.066 H 
ENDBRANCH  47  48
ENDBRANCH  41  47
ENDBRANCH  34  37
ENDBRANCH  33  34
ENDBRANCH   4  33
TORSDOF 9
ENDMDL
MODEL 3
REMARK VINA RESULT:      -6.3      7.221     10.577
REMARK  9 active torsions:
REMARK  status: ('A' for Active; 'I' for Inactive)
REMARK    1  A    between atoms: C_1  and  C_2 
REMARK    2  A    between atoms: C_3  and  C_25 
REMARK    3  A    between atoms: C_4  and  C_8 
REMARK    4  A    between atoms: C_11  and  O_15 
REMARK    5  A    between atoms: C_13  and  O_14 
REMARK    6  A    between atoms: O_15  and  C_16 
REMARK    7  A    between atoms: C_16  and  C_17 
REMARK    8  A    between atoms: C_20  and  O_23 
REMARK    9  A    between atoms: O_23  and  C_24 
ROOT
ATOM      1  C   LIG d   1       9.925   5.211  -2.823  0.00  0.00     0.044 A 
ATOM      2  C   LIG d   1       9.196   4.962  -3.984  0.00  0.00    -0.045 A 
ATOM      3  C   LIG d   1       9.149   3.688  -4.509  0.00  0.00    -0.019 A 
ATOM      4  C   LIG d   1       9.827   2.650  -3.883  0.00  0.00     0.124 A 
ATOM      5  C   LIG d   1      10.554   2.888  -2.726  0.00  0.00     0.022 A 
ATOM      6  C   LIG d   1      10.610   4.165  -2.195  0.00  0.00     0.130 A 
ATOM      7  H   LIG d   1       8.669   5.768  -4.474  0.00  0.00     0.063 H 
ATOM      8  H   LIG d   1       8.584   3.497  -5.410  0.00  0.00     0.065 H 
ATOM      9  H   LIG d   1      11.079   2.078  -2.242  0.00  0.00     0.069 H 
ENDROOT
BRANCH   1  10
ATOM     10  C   LIG d   1       9.977   6.579  -2.256  0.00  0.00     0.104 A 
ATOM     11  C   LIG d   1      10.226   7.774  -2.978  0.00  0.00     0.030 A 
ATOM     12  C   LIG d   1      10.189   8.806  -2.089  0.00  0.00     0.041 A 
ATOM     13  N   LIG d   1       9.934   8.291  -0.868  0.00  0.00    -0.281 N 
ATOM     14  N   LIG d   1       9.801   6.903  -0.993  0.00  0.00    -0.173 NA
ATOM     15  H   LIG d   1       9.857   8.796  -0.044  0.00  0.00     0.189 HD
BRANCH  11  16
ATOM     16  C   LIG d   1      10.481   7.881  -4.436  0.00  0.00    -0.014 A 
ATOM     17  C   LIG d   1      11.761   7.659  -4.939  0.00  0.00    -0.052 A 
ATOM     18  C   LIG d   1      11.993   7.754  -6.296  0.00  0.00    -0.043 A 
ATOM     19  H   LIG d   1      12.571   7.408  -4.269  0.00  0.00     0.062 H 
ATOM     20  C   LIG d   1      10.958   8.080  -7.156  0.00  0.00     0.041 A 
ATOM     21  H   LIG d   1      12.984   7.577  -6.689  0.00  0.00     0.063 H 
ATOM     22  C   LIG d   1       9.685   8.307  -6.660  0.00  0.00    -0.043 A 
ATOM     23 CL   LIG d   1      11.256   8.205  -8.862  0.00  0.00    -0.084 Cl
ATOM     24  C   LIG d   1       9.443   8.209  -5.305  0.00  0.00    -0.052 A 
ATOM     25  H   LIG d   1       8.881   8.561  -7.334  0.00  0.00     0.063 H 
ATOM     26  H   LIG d   1       8.450   8.386  -4.919  0.00  0.00     0.062 H 
ENDBRANCH  11  16
BRANCH  12  27
ATOM     27  C   LIG d   1      10.398  10.263  -2.410  0.00  0.00    -0.022 C 
ATOM     28  H   LIG d   1       9.954  10.876  -1.625  0.00  0.00     0.029 H 
ATOM     29  H   LIG d   1      11.466  10.472  -2.473  0.00  0.00     0.029 H 
ATOM     30  H   LIG d   1       9.926  10.496  -3.365  0.00  0.00     0.029 H 
ENDBRANCH  12  27
ENDBRANCH   1  10
BRANCH   6  31
ATOM     31  O   LIG d   1      11.326   4.401  -1.065  0.00  0.00    -0.506 OA
ATOM     32  H   LIG d   1      11.066   5.205  -0.595  0.00  0.00     0.292 HD
ENDBRANCH   6  31
BRANCH   4  33
ATOM     33  O   LIG d   1       9.777   1.396  -4.405  0.00  0.00    -0.487 OA
BRANCH  33  34
ATOM     34  C   LIG d   1       8.633   1.069  -5.197  0.00  0.00     0.115 C 
ATOM     35  H   LIG d   1       8.233   1.976  -5.651  0.00  0.00     0.075 H 
ATOM     36  H   LIG d   1       8.921   0.368  -5.981  0.00  0.00     0.075 H 
BRANCH  34  37
ATOM     37  C   LIG d   1       7.580   0.439  -4.322  0.00  0.00    -0.010 A 
ATOM     38  C   LIG d   1       6.690   1.239  -3.629  0.00  0.00    -0.052 A 
ATOM     39  C   LIG d   1       5.720   0.664  -2.831  0.00  0.00    -0.020 A 
ATOM     40  H   LIG d   1       6.750   2.314  -3.716  0.00  0.00     0.062 H 
ATOM     41  C   LIG d   1       5.646  -0.716  -2.717  0.00  0.00     0.120 A 
ATOM     42  H   LIG d   1       5.022   1.290  -2.294  0.00  0.00     0.065 H 
ATOM     43  C   LIG d   1       6.544  -1.517  -3.408  0.00  0.00    -0.020 A 
ATOM     44  C   LIG d   1       7.509  -0.936  -4.208  0.00  0.00    -0.052 A 
ATOM     45  H   LIG d   1       6.489  -2.591  -3.320  0.00  0.00     0.065 H 
ATOM     46  H   LIG d   1       8.208  -1.559  -4.747  0.00  0.00     0.062 H 
BRANCH  41  47
ATOM     47  O   LIG d   1       4.697  -1.284  -1.928  0.00  0.00    -0.495 OA
BRANCH  47  48
ATOM     48  C   LIG d   1       3.560  -1.849  -2.586  0.00  0.00     0.079 C 
ATOM     49  H   LIG d   1       3.787  -1.994  -3.643  0.00  0.00     0.066 H 
ATOM     50  H   LIG d   1       3.317  -2.809  -2.131  0.00  0.00     0.066 H 
ATOM     51  H   LIG d   1       2.710  -1.174  -2.487  0.00  0.00     0.066 H 
ENDBRANCH  47  48
ENDBRANCH  41  47
ENDBRANCH  34  37
ENDBRANCH  33  34
ENDBRANCH   4  33
TORSDOF 9
ENDMDL
MODEL 4
REMARK VINA RESULT:      -6.3      4.248      6.910
REMARK  9 active torsions:
REMARK  status: ('A' for Active; 'I' for Inactive)
REMARK    1  A    between atoms: C_1  and  C_2 
REMARK    2  A    between atoms: C_3  and  C_25 
REMARK    3  A    between atoms: C_4  and  C_8 
REMARK    4  A    between atoms: C_11  and  O_15 
REMARK    5  A    between atoms: C_13  and  O_14 
REMARK    6  A    between atoms: O_15  and  C_16 
REMARK    7  A    between atoms: C_16  and  C_17 
REMARK    8  A    between atoms: C_20  and  O_23 
REMARK    9  A    between atoms: O_23  and  C_24 
ROOT
ATOM      1  C   LIG d   1       5.797  -2.970  -4.227  0.00  0.00     0.044 A 
ATOM      2  C   LIG d   1       7.127  -2.939  -3.814  0.00  0.00    -0.045 A 
ATOM      3  C   LIG d   1       8.017  -3.880  -4.286  0.00  0.00    -0.019 A 
ATOM      4  C   LIG d   1       7.591  -4.861  -5.173  0.00  0.00     0.124 A 
ATOM      5  C   LIG d   1       6.269  -4.898  -5.590  0.00  0.00     0.022 A 
ATOM      6  C   LIG d   1       5.368  -3.959  -5.117  0.00  0.00     0.130 A 
ATOM      7  H   LIG d   1       7.461  -2.179  -3.123  0.00  0.00     0.063 H 
ATOM      8  H   LIG d   1       9.048  -3.856  -3.965  0.00  0.00     0.065 H 
ATOM      9  H   LIG d   1       5.941  -5.661  -6.280  0.00  0.00     0.069 H 
ENDROOT
BRANCH   1  10
ATOM     10  C   LIG d   1       4.838  -1.959  -3.721  0.00  0.00     0.104 A 
ATOM     11  C   LIG d   1       5.008  -0.552  -3.759  0.00  0.00     0.030 A 
ATOM     12  C   LIG d   1       3.902   0.011  -3.195  0.00  0.00     0.041 A 
ATOM     13  N   LIG d   1       3.079  -0.988  -2.815  0.00  0.00    -0.281 N 
ATOM     14  N   LIG d   1       3.676  -2.207  -3.155  0.00  0.00    -0.173 NA
ATOM     15  H   LIG d   1       2.219  -0.879  -2.381  0.00  0.00     0.189 HD
BRANCH  11  16
ATOM     16  C   LIG d   1       6.177   0.175  -4.314  0.00  0.00    -0.014 A 
ATOM     17  C   LIG d   1       6.460   0.107  -5.676  0.00  0.00    -0.052 A 
ATOM     18  C   LIG d   1       7.545   0.788  -6.188  0.00  0.00    -0.043 A 
ATOM     19  H   LIG d   1       5.828  -0.475  -6.333  0.00  0.00     0.062 H 
ATOM     20  C   LIG d   1       8.358   1.530  -5.349  0.00  0.00     0.041 A 
ATOM     21  H   LIG d   1       7.763   0.741  -7.246  0.00  0.00     0.063 H 
ATOM     22  C   LIG d   1       8.084   1.597  -3.993  0.00  0.00    -0.043 A 
ATOM     23 CL   LIG d   1       9.726   2.381  -5.997  0.00  0.00    -0.084 Cl
ATOM     24  C   LIG d   1       6.998   0.923  -3.473  0.00  0.00    -0.052 A 
ATOM     25  H   LIG d   1       8.721   2.177  -3.342  0.00  0.00     0.063 H 
ATOM     26  H   LIG d   1       6.785   0.975  -2.415  0.00  0.00     0.062 H 
ENDBRANCH  11  16
BRANCH  12  27
ATOM     27  C   LIG d   1       3.647   1.485  -3.023  0.00  0.00    -0.022 C 
ATOM     28  H   LIG d   1       4.356   1.896  -2.304  0.00  0.00     0.029 H 
ATOM     29  H   LIG d   1       3.770   1.990  -3.981  0.00  0.00     0.029 H 
ATOM     30  H   LIG d   1       2.631   1.639  -2.659  0.00  0.00     0.029 H 
ENDBRANCH  12  27
ENDBRANCH   1  10
BRANCH   6  31
ATOM     31  O   LIG d   1       4.071  -3.998  -5.520  0.00  0.00    -0.506 OA
ATOM     32  H   LIG d   1       3.433  -3.942  -4.796  0.00  0.00     0.292 HD
ENDBRANCH   6  31
BRANCH   4  33
ATOM     33  O   LIG d   1       8.473  -5.786  -5.636  0.00  0.00    -0.487 OA
BRANCH  33  34
ATOM     34  C   LIG d   1       7.971  -7.104  -5.865  0.00  0.00     0.115 C 
ATOM     35  H   LIG d   1       6.977  -7.042  -6.308  0.00  0.00     0.075 H 
ATOM     36  H   LIG d   1       8.639  -7.635  -6.542  0.00  0.00     0.075 H 
BRANCH  34  37
ATOM     37  C   LIG d   1       7.891  -7.844  -4.554  0.00  0.00    -0.010 A 
ATOM     38  C   LIG d   1       8.821  -7.593  -3.562  0.00  0.00    -0.052 A 
ATOM     39  C   LIG d   1       8.746  -8.265  -2.358  0.00  0.00    -0.020 A 
ATOM     40  H   LIG d   1       9.604  -6.867  -3.728  0.00  0.00     0.062 H 
ATOM     41  C   LIG d   1       7.744  -9.201  -2.148  0.00  0.00     0.120 A 
ATOM     42  H   LIG d   1       9.470  -8.064  -1.581  0.00  0.00     0.065 H 
ATOM     43  C   LIG d   1       6.815  -9.456  -3.147  0.00  0.00    -0.020 A 
ATOM     44  C   LIG d   1       6.892  -8.777  -4.348  0.00  0.00    -0.052 A 
ATOM     45  H   LIG d   1       6.035 -10.183  -2.986  0.00  0.00     0.065 H 
ATOM     46  H   LIG d   1       6.169  -8.974  -5.125  0.00  0.00     0.062 H 
BRANCH  41  47
ATOM     47  O   LIG d   1       7.671  -9.867  -0.966  0.00  0.00    -0.495 OA
BRANCH  47  48
ATOM     48  C   LIG d   1       6.746 -10.954  -0.890  0.00  0.00     0.079 C 
ATOM     49  H   LIG d   1       6.917 -11.514   0.030  0.00  0.00     0.066 H 
ATOM     50  H   LIG d   1       5.727 -10.565  -0.894  0.00  0.00     0.066 H 
ATOM     51  H   LIG d   1       6.887 -11.613  -1.747  0.00  0.00     0.066 H 
ENDBRANCH  47  48
ENDBRANCH  41  47
ENDBRANCH  34  37
ENDBRANCH  33  34
ENDBRANCH   4  33
TORSDOF 9
ENDMDL
MODEL 5
REMARK VINA RESULT:      -6.3      3.702      7.394
REMARK  9 active torsions:
REMARK  status: ('A' for Active; 'I' for Inactive)
REMARK    1  A    between atoms: C_1  and  C_2 
REMARK    2  A    between atoms: C_3  and  C_25 
REMARK    3  A    between atoms: C_4  and  C_8 
REMARK    4  A    between atoms: C_11  and  O_15 
REMARK    5  A    between atoms: C_13  and  O_14 
REMARK    6  A    between atoms: O_15  and  C_16 
REMARK    7  A    between atoms: C_16  and  C_17 
REMARK    8  A    between atoms: C_20  and  O_23 
REMARK    9  A    between atoms: O_23  and  C_24 
ROOT
ATOM      1  C   LIG d   1       8.339  -0.866  -6.965  0.00  0.00     0.044 A 
ATOM      2  C   LIG d   1       8.185   0.471  -6.606  0.00  0.00    -0.045 A 
ATOM      3  C   LIG d   1       7.554   1.346  -7.464  0.00  0.00    -0.019 A 
ATOM      4  C   LIG d   1       7.073   0.899  -8.688  0.00  0.00     0.124 A 
ATOM      5  C   LIG d   1       7.222  -0.431  -9.053  0.00  0.00     0.022 A 
ATOM      6  C   LIG d   1       7.857  -1.315  -8.199  0.00  0.00     0.130 A 
ATOM      7  H   LIG d   1       8.559   0.822  -5.655  0.00  0.00     0.063 H 
ATOM      8  H   LIG d   1       7.435   2.383  -7.185  0.00  0.00     0.065 H 
ATOM      9  H   LIG d   1       6.845  -0.775 -10.005  0.00  0.00     0.069 H 
ENDROOT
BRANCH   1  10
ATOM     10  C   LIG d   1       9.016  -1.810  -6.044  0.00  0.00     0.104 A 
ATOM     11  C   LIG d   1       8.462  -2.371  -4.866  0.00  0.00     0.030 A 
ATOM     12  C   LIG d   1       9.408  -3.182  -4.313  0.00  0.00     0.041 A 
ATOM     13  N   LIG d   1      10.504  -3.133  -5.098  0.00  0.00    -0.281 N 
ATOM     14  N   LIG d   1      10.240  -2.277  -6.174  0.00  0.00    -0.173 NA
ATOM     15  H   LIG d   1      11.334  -3.609  -4.943  0.00  0.00     0.189 HD
BRANCH  11  16
ATOM     16  C   LIG d   1       7.100  -2.121  -4.332  0.00  0.00    -0.014 A 
ATOM     17  C   LIG d   1       6.877  -1.059  -3.458  0.00  0.00    -0.052 A 
ATOM     18  C   LIG d   1       5.608  -0.827  -2.968  0.00  0.00    -0.043 A 
ATOM     19  H   LIG d   1       7.694  -0.415  -3.168  0.00  0.00     0.062 H 
ATOM     20  C   LIG d   1       4.560  -1.654  -3.335  0.00  0.00     0.041 A 
ATOM     21  H   LIG d   1       5.432  -0.001  -2.294  0.00  0.00     0.063 H 
ATOM     22  C   LIG d   1       4.778  -2.714  -4.199  0.00  0.00    -0.043 A 
ATOM     23 CL   LIG d   1       2.966  -1.361  -2.711  0.00  0.00    -0.084 Cl
ATOM     24  C   LIG d   1       6.043  -2.950  -4.699  0.00  0.00    -0.052 A 
ATOM     25  H   LIG d   1       3.957  -3.356  -4.483  0.00  0.00     0.063 H 
ATOM     26  H   LIG d   1       6.212  -3.777  -5.372  0.00  0.00     0.062 H 
ENDBRANCH  11  16
BRANCH  12  27
ATOM     27  C   LIG d   1       9.257  -3.988  -3.050  0.00  0.00    -0.022 C 
ATOM     28  H   LIG d   1       9.708  -4.971  -3.189  0.00  0.00     0.029 H 
ATOM     29  H   LIG d   1       9.758  -3.474  -2.229  0.00  0.00     0.029 H 
ATOM     30  H   LIG d   1       8.199  -4.103  -2.815  0.00  0.00     0.029 H 
ENDBRANCH  12  27
ENDBRANCH   1  10
BRANCH   6  31
ATOM     31  O   LIG d   1       8.009  -2.617  -8.558  0.00  0.00    -0.506 OA
ATOM     32  H   LIG d   1       7.368  -2.921  -9.214  0.00  0.00     0.292 HD
ENDBRANCH   6  31
BRANCH   4  33
ATOM     33  O   LIG d   1       6.452   1.767  -9.530  0.00  0.00    -0.487 OA
BRANCH  33  34
ATOM     34  C   LIG d   1       5.184   2.280  -9.113  0.00  0.00     0.115 C 
ATOM     35  H   LIG d   1       5.203   2.466  -8.039  0.00  0.00     0.075 H 
ATOM     36  H   LIG d   1       4.979   3.212  -9.639  0.00  0.00     0.075 H 
BRANCH  34  37
ATOM     37  C   LIG d   1       4.107   1.275  -9.431  0.00  0.00    -0.010 A 
ATOM     38  C   LIG d   1       3.316   0.767  -8.417  0.00  0.00    -0.052 A 
ATOM     39  C   LIG d   1       2.324  -0.149  -8.706  0.00  0.00    -0.020 A 
ATOM     40  H   LIG d   1       3.472   1.091  -7.398  0.00  0.00     0.062 H 
ATOM     41  C   LIG d   1       2.128  -0.567 -10.014  0.00  0.00     0.120 A 
ATOM     42  H   LIG d   1       1.704  -0.542  -7.914  0.00  0.00     0.065 H 
ATOM     43  C   LIG d   1       2.927  -0.061 -11.029  0.00  0.00    -0.020 A 
ATOM     44  C   LIG d   1       3.915   0.859 -10.735  0.00  0.00    -0.052 A 
ATOM     45  H   LIG d   1       2.777  -0.385 -12.047  0.00  0.00     0.065 H 
ATOM     46  H   LIG d   1       4.536   1.255 -11.525  0.00  0.00     0.062 H 
BRANCH  41  47
ATOM     47  O   LIG d   1       1.157  -1.473 -10.301  0.00  0.00    -0.495 OA
BRANCH  47  48
ATOM     48  C   LIG d   1       1.520  -2.854 -10.245  0.00  0.00     0.079 C 
ATOM     49  H   LIG d   1       0.871  -3.428 -10.908  0.00  0.00     0.066 H 
ATOM     50  H   LIG d   1       2.557  -2.970 -10.563  0.00  0.00     0.066 H 
ATOM     51  H   LIG d   1       1.410  -3.219  -9.224  0.00  0.00     0.066 H 
ENDBRANCH  47  48
ENDBRANCH  41  47
ENDBRANCH  34  37
ENDBRANCH  33  34
ENDBRANCH   4  33
TORSDOF 9
ENDMDL
MODEL 6
REMARK VINA RESULT:      -6.2      4.301      6.308
REMARK  9 active torsions:
REMARK  status: ('A' for Active; 'I' for Inactive)
REMARK    1  A    between atoms: C_1  and  C_2 
REMARK    2  A    between atoms: C_3  and  C_25 
REMARK    3  A    between atoms: C_4  and  C_8 
REMARK    4  A    between atoms: C_11  and  O_15 
REMARK    5  A    between atoms: C_13  and  O_14 
REMARK    6  A    between atoms: O_15  and  C_16 
REMARK    7  A    between atoms: C_16  and  C_17 
REMARK    8  A    between atoms: C_20  and  O_23 
REMARK    9  A    between atoms: O_23  and  C_24 
ROOT
ATOM      1  C   LIG d   1       5.474  -3.344  -4.645  0.00  0.00     0.044 A 
ATOM      2  C   LIG d   1       6.815  -3.192  -4.299  0.00  0.00    -0.045 A 
ATOM      3  C   LIG d   1       7.733  -4.156  -4.659  0.00  0.00    -0.019 A 
ATOM      4  C   LIG d   1       7.325  -5.280  -5.365  0.00  0.00     0.124 A 
ATOM      5  C   LIG d   1       5.992  -5.439  -5.714  0.00  0.00     0.022 A 
ATOM      6  C   LIG d   1       5.063  -4.478  -5.353  0.00  0.00     0.130 A 
ATOM      7  H   LIG d   1       7.135  -2.319  -3.749  0.00  0.00     0.063 H 
ATOM      8  H   LIG d   1       8.773  -4.037  -4.389  0.00  0.00     0.065 H 
ATOM      9  H   LIG d   1       5.679  -6.314  -6.264  0.00  0.00     0.069 H 
ENDROOT
BRANCH   1  10
ATOM     10  C   LIG d   1       4.485  -2.309  -4.260  0.00  0.00     0.104 A 
ATOM     11  C   LIG d   1       4.127  -1.170  -5.024  0.00  0.00     0.030 A 
ATOM     12  C   LIG d   1       3.190  -0.479  -4.316  0.00  0.00     0.041 A 
ATOM     13  N   LIG d   1       2.969  -1.144  -3.163  0.00  0.00    -0.281 N 
ATOM     14  N   LIG d   1       3.781  -2.284  -3.149  0.00  0.00    -0.173 NA
ATOM     15  H   LIG d   1       2.353  -0.878  -2.464  0.00  0.00     0.189 HD
BRANCH  11  16
ATOM     16  C   LIG d   1       4.675  -0.797  -6.352  0.00  0.00    -0.014 A 
ATOM     17  C   LIG d   1       5.909  -0.157  -6.444  0.00  0.00    -0.052 A 
ATOM     18  C   LIG d   1       6.416   0.183  -7.682  0.00  0.00    -0.043 A 
ATOM     19  H   LIG d   1       6.471   0.068  -5.549  0.00  0.00     0.062 H 
ATOM     20  C   LIG d   1       5.696  -0.100  -8.830  0.00  0.00     0.041 A 
ATOM     21  H   LIG d   1       7.376   0.674  -7.755  0.00  0.00     0.063 H 
ATOM     22  C   LIG d   1       4.467  -0.731  -8.743  0.00  0.00    -0.043 A 
ATOM     23 CL   LIG d   1       6.337   0.336 -10.383  0.00  0.00    -0.084 Cl
ATOM     24  C   LIG d   1       3.954  -1.080  -7.510  0.00  0.00    -0.052 A 
ATOM     25  H   LIG d   1       3.909  -0.950  -9.641  0.00  0.00     0.063 H 
ATOM     26  H   LIG d   1       2.994  -1.571  -7.443  0.00  0.00     0.062 H 
ENDBRANCH  11  16
BRANCH  12  27
ATOM     27  C   LIG d   1       2.521   0.801  -4.743  0.00  0.00    -0.022 C 
ATOM     28  H   LIG d   1       3.138   1.650  -4.448  0.00  0.00     0.029 H 
ATOM     29  H   LIG d   1       2.396   0.803  -5.826  0.00  0.00     0.029 H 
ATOM     30  H   LIG d   1       1.544   0.879  -4.264  0.00  0.00     0.029 H 
ENDBRANCH  12  27
ENDBRANCH   1  10
BRANCH   6  31
ATOM     31  O   LIG d   1       3.756  -4.635  -5.690  0.00  0.00    -0.506 OA
ATOM     32  H   LIG d   1       3.180  -4.844  -4.942  0.00  0.00     0.292 HD
ENDBRANCH   6  31
BRANCH   4  33
ATOM     33  O   LIG d   1       8.235  -6.227  -5.717  0.00  0.00    -0.487 OA
BRANCH  33  34
ATOM     34  C   LIG d   1       7.756  -7.566  -5.857  0.00  0.00     0.115 C 
ATOM     35  H   LIG d   1       6.766  -7.552  -6.313  0.00  0.00     0.075 H 
ATOM     36  H   LIG d   1       8.439  -8.132  -6.490  0.00  0.00     0.075 H 
BRANCH  34  37
ATOM     37  C   LIG d   1       7.676  -8.214  -4.499  0.00  0.00    -0.010 A 
ATOM     38  C   LIG d   1       6.631  -9.071  -4.204  0.00  0.00    -0.052 A 
ATOM     39  C   LIG d   1       6.558  -9.671  -2.962  0.00  0.00    -0.020 A 
ATOM     40  H   LIG d   1       5.873  -9.273  -4.947  0.00  0.00     0.062 H 
ATOM     41  C   LIG d   1       7.529  -9.407  -2.007  0.00  0.00     0.120 A 
ATOM     42  H   LIG d   1       5.744 -10.344  -2.734  0.00  0.00     0.065 H 
ATOM     43  C   LIG d   1       8.573  -8.543  -2.303  0.00  0.00    -0.020 A 
ATOM     44  C   LIG d   1       8.643  -7.949  -3.549  0.00  0.00    -0.052 A 
ATOM     45  H   LIG d   1       9.330  -8.335  -1.563  0.00  0.00     0.065 H 
ATOM     46  H   LIG d   1       9.457  -7.277  -3.780  0.00  0.00     0.062 H 
BRANCH  41  47
ATOM     47  O   LIG d   1       7.457  -9.992  -0.783  0.00  0.00    -0.495 OA
BRANCH  47  48
ATOM     48  C   LIG d   1       7.180 -11.394  -0.750  0.00  0.00     0.079 C 
ATOM     49  H   LIG d   1       6.253 -11.568  -0.201  0.00  0.00     0.066 H 
ATOM     50  H   LIG d   1       7.074 -11.768  -1.769  0.00  0.00     0.066 H 
ATOM     51  H   LIG d   1       7.998 -11.915  -0.255  0.00  0.00     0.066 H 
ENDBRANCH  47  48
ENDBRANCH  41  47
ENDBRANCH  34  37
ENDBRANCH  33  34
ENDBRANCH   4  33
TORSDOF 9
ENDMDL
MODEL 7
REMARK VINA RESULT:      -6.1      6.743      9.602
REMARK  9 active torsions:
REMARK  status: ('A' for Active; 'I' for Inactive)
REMARK    1  A    between atoms: C_1  and  C_2 
REMARK    2  A    between atoms: C_3  and  C_25 
REMARK    3  A    between atoms: C_4  and  C_8 
REMARK    4  A    between atoms: C_11  and  O_15 
REMARK    5  A    between atoms: C_13  and  O_14 
REMARK    6  A    between atoms: O_15  and  C_16 
REMARK    7  A    between atoms: C_16  and  C_17 
REMARK    8  A    between atoms: C_20  and  O_23 
REMARK    9  A    between atoms: O_23  and  C_24 
ROOT
ATOM      1  C   LIG d   1       9.713  -7.292  -2.340  0.00  0.00     0.044 A 
ATOM      2  C   LIG d   1       9.415  -7.525  -3.681  0.00  0.00    -0.045 A 
ATOM      3  C   LIG d   1       9.050  -6.477  -4.498  0.00  0.00    -0.019 A 
ATOM      4  C   LIG d   1       8.978  -5.187  -3.989  0.00  0.00     0.124 A 
ATOM      5  C   LIG d   1       9.274  -4.945  -2.656  0.00  0.00     0.022 A 
ATOM      6  C   LIG d   1       9.637  -5.993  -1.827  0.00  0.00     0.130 A 
ATOM      7  H   LIG d   1       9.469  -8.528  -4.079  0.00  0.00     0.063 H 
ATOM      8  H   LIG d   1       8.819  -6.660  -5.538  0.00  0.00     0.065 H 
ATOM      9  H   LIG d   1       9.218  -3.940  -2.264  0.00  0.00     0.069 H 
ENDROOT
BRANCH   1  10
ATOM     10  C   LIG d   1      10.106  -8.417  -1.459  0.00  0.00     0.104 A 
ATOM     11  C   LIG d   1       9.423  -9.652  -1.324  0.00  0.00     0.030 A 
ATOM     12  C   LIG d   1      10.109 -10.404  -0.418  0.00  0.00     0.041 A 
ATOM     13  N   LIG d   1      11.167  -9.681   0.002  0.00  0.00    -0.281 N 
ATOM     14  N   LIG d   1      11.152  -8.448  -0.660  0.00  0.00    -0.173 NA
ATOM     15  H   LIG d   1      11.827  -9.967   0.653  0.00  0.00     0.189 HD
BRANCH  11  16
ATOM     16  C   LIG d   1       8.186 -10.052  -2.041  0.00  0.00    -0.014 A 
ATOM     17  C   LIG d   1       6.938  -9.774  -1.488  0.00  0.00    -0.052 A 
ATOM     18  C   LIG d   1       5.791 -10.143  -2.160  0.00  0.00    -0.043 A 
ATOM     19  H   LIG d   1       6.867  -9.265  -0.537  0.00  0.00     0.062 H 
ATOM     20  C   LIG d   1       5.879 -10.799  -3.376  0.00  0.00     0.041 A 
ATOM     21  H   LIG d   1       4.822  -9.923  -1.735  0.00  0.00     0.063 H 
ATOM     22  C   LIG d   1       7.117 -11.083  -3.926  0.00  0.00    -0.043 A 
ATOM     23 CL   LIG d   1       4.432 -11.267  -4.214  0.00  0.00    -0.084 Cl
ATOM     24  C   LIG d   1       8.270 -10.712  -3.264  0.00  0.00    -0.052 A 
ATOM     25  H   LIG d   1       7.181 -11.595  -4.875  0.00  0.00     0.063 H 
ATOM     26  H   LIG d   1       9.235 -10.935  -3.694  0.00  0.00     0.062 H 
ENDBRANCH  11  16
BRANCH  12  27
ATOM     27  C   LIG d   1       9.747 -11.794   0.036  0.00  0.00    -0.022 C 
ATOM     28  H   LIG d   1       9.853 -11.861   1.119  0.00  0.00     0.029 H 
ATOM     29  H   LIG d   1       8.716 -12.011  -0.242  0.00  0.00     0.029 H 
ATOM     30  H   LIG d   1      10.411 -12.516  -0.439  0.00  0.00     0.029 H 
ENDBRANCH  12  27
ENDBRANCH   1  10
BRANCH   6  31
ATOM     31  O   LIG d   1       9.922  -5.758  -0.520  0.00  0.00    -0.506 OA
ATOM     32  H   LIG d   1      10.633  -6.309  -0.167  0.00  0.00     0.292 HD
ENDBRANCH   6  31
BRANCH   4  33
ATOM     33  O   LIG d   1       8.618  -4.157  -4.801  0.00  0.00    -0.487 OA
BRANCH  33  34
ATOM     34  C   LIG d   1       7.263  -4.135  -5.257  0.00  0.00     0.115 C 
ATOM     35  H   LIG d   1       7.236  -3.805  -6.296  0.00  0.00     0.075 H 
ATOM     36  H   LIG d   1       6.838  -5.135  -5.182  0.00  0.00     0.075 H 
BRANCH  34  37
ATOM     37  C   LIG d   1       6.464  -3.183  -4.405  0.00  0.00    -0.010 A 
ATOM     38  C   LIG d   1       7.095  -2.131  -3.767  0.00  0.00    -0.052 A 
ATOM     39  C   LIG d   1       6.364  -1.253  -2.991  0.00  0.00    -0.020 A 
ATOM     40  H   LIG d   1       8.161  -1.993  -3.879  0.00  0.00     0.062 H 
ATOM     41  C   LIG d   1       4.996  -1.433  -2.844  0.00  0.00     0.120 A 
ATOM     42  H   LIG d   1       6.857  -0.429  -2.497  0.00  0.00     0.065 H 
ATOM     43  C   LIG d   1       4.365  -2.493  -3.480  0.00  0.00    -0.020 A 
ATOM     44  C   LIG d   1       5.102  -3.365  -4.259  0.00  0.00    -0.052 A 
ATOM     45  H   LIG d   1       3.302  -2.635  -3.367  0.00  0.00     0.065 H 
ATOM     46  H   LIG d   1       4.611  -4.189  -4.755  0.00  0.00     0.062 H 
BRANCH  41  47
ATOM     47  O   LIG d   1       4.275  -0.575  -2.077  0.00  0.00    -0.495 OA
BRANCH  47  48
ATOM     48  C   LIG d   1       3.483   0.398  -2.762  0.00  0.00     0.079 C 
ATOM     49  H   LIG d   1       2.426   0.207  -2.569  0.00  0.00     0.066 H 
ATOM     50  H   LIG d   1       3.743   1.395  -2.405  0.00  0.00     0.066 H 
ATOM     51  H   LIG d   1       3.673   0.334  -3.833  0.00  0.00     0.066 H 
ENDBRANCH  47  48
ENDBRANCH  41  47
ENDBRANCH  34  37
ENDBRANCH  33  34
ENDBRANCH   4  33
TORSDOF 9
ENDMDL
MODEL 8
REMARK VINA RESULT:      -6.0      2.596      4.107
REMARK  9 active torsions:
REMARK  status: ('A' for Active; 'I' for Inactive)
REMARK    1  A    between atoms: C_1  and  C_2 
REMARK    2  A    between atoms: C_3  and  C_25 
REMARK    3  A    between atoms: C_4  and  C_8 
REMARK    4  A    between atoms: C_11  and  O_15 
REMARK    5  A    between atoms: C_13  and  O_14 
REMARK    6  A    between atoms: O_15  and  C_16 
REMARK    7  A    between atoms: C_16  and  C_17 
REMARK    8  A    between atoms: C_20  and  O_23 
REMARK    9  A    between atoms: O_23  and  C_24 
ROOT
ATOM      1  C   LIG d   1       4.474  -3.668  -7.540  0.00  0.00     0.044 A 
ATOM      2  C   LIG d   1       5.570  -2.826  -7.714  0.00  0.00    -0.045 A 
ATOM      3  C   LIG d   1       6.444  -2.609  -6.671  0.00  0.00    -0.019 A 
ATOM      4  C   LIG d   1       6.236  -3.227  -5.445  0.00  0.00     0.124 A 
ATOM      5  C   LIG d   1       5.148  -4.068  -5.263  0.00  0.00     0.022 A 
ATOM      6  C   LIG d   1       4.262  -4.287  -6.304  0.00  0.00     0.130 A 
ATOM      7  H   LIG d   1       5.734  -2.342  -8.666  0.00  0.00     0.063 H 
ATOM      8  H   LIG d   1       7.294  -1.955  -6.807  0.00  0.00     0.065 H 
ATOM      9  H   LIG d   1       4.990  -4.548  -4.309  0.00  0.00     0.069 H 
ENDROOT
BRANCH   1  10
ATOM     10  C   LIG d   1       3.532  -3.903  -8.660  0.00  0.00     0.104 A 
ATOM     11  C   LIG d   1       2.969  -2.911  -9.502  0.00  0.00     0.030 A 
ATOM     12  C   LIG d   1       2.160  -3.543 -10.398  0.00  0.00     0.041 A 
ATOM     13  N   LIG d   1       2.204  -4.865 -10.133  0.00  0.00    -0.281 N 
ATOM     14  N   LIG d   1       3.068  -5.071  -9.051  0.00  0.00    -0.173 NA
ATOM     15  H   LIG d   1       1.720  -5.555 -10.612  0.00  0.00     0.189 HD
BRANCH  11  16
ATOM     16  C   LIG d   1       3.217  -1.449  -9.422  0.00  0.00    -0.014 A 
ATOM     17  C   LIG d   1       2.559  -0.681  -8.463  0.00  0.00    -0.052 A 
ATOM     18  C   LIG d   1       2.796   0.676  -8.389  0.00  0.00    -0.043 A 
ATOM     19  H   LIG d   1       1.868  -1.148  -7.775  0.00  0.00     0.062 H 
ATOM     20  C   LIG d   1       3.677   1.277  -9.272  0.00  0.00     0.041 A 
ATOM     21  H   LIG d   1       2.291   1.272  -7.643  0.00  0.00     0.063 H 
ATOM     22  C   LIG d   1       4.329   0.518 -10.230  0.00  0.00    -0.043 A 
ATOM     23 CL   LIG d   1       3.967   2.986  -9.178  0.00  0.00    -0.084 Cl
ATOM     24  C   LIG d   1       4.102  -0.841 -10.308  0.00  0.00    -0.052 A 
ATOM     25  H   LIG d   1       5.015   0.991 -10.916  0.00  0.00     0.063 H 
ATOM     26  H   LIG d   1       4.611  -1.431 -11.056  0.00  0.00     0.062 H 
ENDBRANCH  11  16
BRANCH  12  27
ATOM     27  C   LIG d   1       1.355  -2.883 -11.487  0.00  0.00    -0.022 C 
ATOM     28  H   LIG d   1       1.378  -3.504 -12.383  0.00  0.00     0.029 H 
ATOM     29  H   LIG d   1       0.324  -2.763 -11.155  0.00  0.00     0.029 H 
ATOM     30  H   LIG d   1       1.780  -1.905 -11.712  0.00  0.00     0.029 H 
ENDBRANCH  12  27
ENDBRANCH   1  10
BRANCH   6  31
ATOM     31  O   LIG d   1       3.193  -5.106  -6.126  0.00  0.00    -0.506 OA
ATOM     32  H   LIG d   1       3.327  -6.005  -6.454  0.00  0.00     0.292 HD
ENDBRANCH   6  31
BRANCH   4  33
ATOM     33  O   LIG d   1       7.103  -3.010  -4.420  0.00  0.00    -0.487 OA
BRANCH  33  34
ATOM     34  C   LIG d   1       8.483  -3.288  -4.668  0.00  0.00     0.115 C 
ATOM     35  H   LIG d   1       8.631  -3.473  -5.732  0.00  0.00     0.075 H 
ATOM     36  H   LIG d   1       9.087  -2.435  -4.359  0.00  0.00     0.075 H 
BRANCH  34  37
ATOM     37  C   LIG d   1       8.896  -4.507  -3.883  0.00  0.00    -0.010 A 
ATOM     38  C   LIG d   1       9.480  -4.360  -2.638  0.00  0.00    -0.052 A 
ATOM     39  C   LIG d   1       9.854  -5.475  -1.914  0.00  0.00    -0.020 A 
ATOM     40  H   LIG d   1       9.639  -3.373  -2.230  0.00  0.00     0.062 H 
ATOM     41  C   LIG d   1       9.653  -6.743  -2.442  0.00  0.00     0.120 A 
ATOM     42  H   LIG d   1      10.305  -5.360  -0.939  0.00  0.00     0.065 H 
ATOM     43  C   LIG d   1       9.073  -6.887  -3.693  0.00  0.00    -0.020 A 
ATOM     44  C   LIG d   1       8.697  -5.768  -4.411  0.00  0.00    -0.052 A 
ATOM     45  H   LIG d   1       8.917  -7.872  -4.106  0.00  0.00     0.065 H 
ATOM     46  H   LIG d   1       8.244  -5.880  -5.385  0.00  0.00     0.062 H 
BRANCH  41  47
ATOM     47  O   LIG d   1      10.025  -7.841  -1.734  0.00  0.00    -0.495 OA
BRANCH  47  48
ATOM     48  C   LIG d   1      10.969  -7.644  -0.678  0.00  0.00     0.079 C 
ATOM     49  H   LIG d   1      11.885  -8.191  -0.903  0.00  0.00     0.066 H 
ATOM     50  H   LIG d   1      11.193  -6.581  -0.586  0.00  0.00     0.066 H 
ATOM     51  H   LIG d   1      10.549  -8.010   0.258  0.00  0.00     0.066 H 
ENDBRANCH  47  48
ENDBRANCH  41  47
ENDBRANCH  34  37
ENDBRANCH  33  34
ENDBRANCH   4  33
TORSDOF 9
ENDMDL
MODEL 9
REMARK VINA RESULT:      -6.0      4.272      6.500
REMARK  9 active torsions:
REMARK  status: ('A' for Active; 'I' for Inactive)
REMARK    1  A    between atoms: C_1  and  C_2 
REMARK    2  A    between atoms: C_3  and  C_25 
REMARK    3  A    between atoms: C_4  and  C_8 
REMARK    4  A    between atoms: C_11  and  O_15 
REMARK    5  A    between atoms: C_13  and  O_14 
REMARK    6  A    between atoms: O_15  and  C_16 
REMARK    7  A    between atoms: C_16  and  C_17 
REMARK    8  A    between atoms: C_20  and  O_23 
REMARK    9  A    between atoms: O_23  and  C_24 
ROOT
ATOM      1  C   LIG d   1       5.236  -3.543  -6.941  0.00  0.00     0.044 A 
ATOM      2  C   LIG d   1       6.611  -3.426  -6.750  0.00  0.00    -0.045 A 
ATOM      3  C   LIG d   1       7.298  -4.408  -6.070  0.00  0.00    -0.019 A 
ATOM      4  C   LIG d   1       6.623  -5.517  -5.574  0.00  0.00     0.124 A 
ATOM      5  C   LIG d   1       5.255  -5.642  -5.760  0.00  0.00     0.022 A 
ATOM      6  C   LIG d   1       4.556  -4.657  -6.437  0.00  0.00     0.130 A 
ATOM      7  H   LIG d   1       7.138  -2.564  -7.134  0.00  0.00     0.063 H 
ATOM      8  H   LIG d   1       8.365  -4.316  -5.923  0.00  0.00     0.065 H 
ATOM      9  H   LIG d   1       4.734  -6.505  -5.374  0.00  0.00     0.069 H 
ENDROOT
BRANCH   1  10
ATOM     10  C   LIG d   1       4.494  -2.488  -7.671  0.00  0.00     0.104 A 
ATOM     11  C   LIG d   1       4.041  -1.258  -7.131  0.00  0.00     0.030 A 
ATOM     12  C   LIG d   1       3.407  -0.579  -8.128  0.00  0.00     0.041 A 
ATOM     13  N   LIG d   1       3.452  -1.342  -9.240  0.00  0.00    -0.281 N 
ATOM     14  N   LIG d   1       4.137  -2.525  -8.937  0.00  0.00    -0.173 NA
ATOM     15  H   LIG d   1       3.075  -1.111 -10.103  0.00  0.00     0.189 HD
BRANCH  11  16
ATOM     16  C   LIG d   1       4.224  -0.793  -5.733  0.00  0.00    -0.014 A 
ATOM     17  C   LIG d   1       3.139  -0.765  -4.859  0.00  0.00    -0.052 A 
ATOM     18  C   LIG d   1       3.314  -0.337  -3.559  0.00  0.00    -0.043 A 
ATOM     19  H   LIG d   1       2.162  -1.081  -5.197  0.00  0.00     0.062 H 
ATOM     20  C   LIG d   1       4.563   0.073  -3.125  0.00  0.00     0.041 A 
ATOM     21  H   LIG d   1       2.475  -0.319  -2.879  0.00  0.00     0.063 H 
ATOM     22  C   LIG d   1       5.643   0.052  -3.991  0.00  0.00    -0.043 A 
ATOM     23 CL   LIG d   1       4.777   0.616  -1.490  0.00  0.00    -0.084 Cl
ATOM     24  C   LIG d   1       5.478  -0.380  -5.292  0.00  0.00    -0.052 A 
ATOM     25  H   LIG d   1       6.616   0.372  -3.649  0.00  0.00     0.063 H 
ATOM     26  H   LIG d   1       6.321  -0.396  -5.967  0.00  0.00     0.062 H 
ENDBRANCH  11  16
BRANCH  12  27
ATOM     27  C   LIG d   1       2.766   0.779  -8.011  0.00  0.00    -0.022 C 
ATOM     28  H   LIG d   1       1.845   0.697  -7.433  0.00  0.00     0.029 H 
ATOM     29  H   LIG d   1       3.451   1.461  -7.507  0.00  0.00     0.029 H 
ATOM     30  H   LIG d   1       2.539   1.161  -9.006  0.00  0.00     0.029 H 
ENDBRANCH  12  27
ENDBRANCH   1  10
BRANCH   6  31
ATOM     31  O   LIG d   1       3.215  -4.775  -6.616  0.00  0.00    -0.506 OA
ATOM     32  H   LIG d   1       2.789  -5.386  -6.000  0.00  0.00     0.292 HD
ENDBRANCH   6  31
BRANCH   4  33
ATOM     33  O   LIG d   1       7.307  -6.483  -4.905  0.00  0.00    -0.487 OA
BRANCH  33  34
ATOM     34  C   LIG d   1       7.172  -7.823  -5.384  0.00  0.00     0.115 C 
ATOM     35  H   LIG d   1       6.380  -7.863  -6.132  0.00  0.00     0.075 H 
ATOM     36  H   LIG d   1       8.112  -8.145  -5.832  0.00  0.00     0.075 H 
BRANCH  34  37
ATOM     37  C   LIG d   1       6.826  -8.733  -4.234  0.00  0.00    -0.010 A 
ATOM     38  C   LIG d   1       5.614  -9.401  -4.224  0.00  0.00    -0.052 A 
ATOM     39  C   LIG d   1       5.296 -10.241  -3.174  0.00  0.00    -0.020 A 
ATOM     40  H   LIG d   1       4.918  -9.268  -5.039  0.00  0.00     0.062 H 
ATOM     41  C   LIG d   1       6.189 -10.407  -2.126  0.00  0.00     0.120 A 
ATOM     42  H   LIG d   1       4.352 -10.765  -3.169  0.00  0.00     0.065 H 
ATOM     43  C   LIG d   1       7.401  -9.732  -2.135  0.00  0.00    -0.020 A 
ATOM     44  C   LIG d   1       7.716  -8.896  -3.190  0.00  0.00    -0.052 A 
ATOM     45  H   LIG d   1       8.097  -9.859  -1.321  0.00  0.00     0.065 H 
ATOM     46  H   LIG d   1       8.660  -8.372  -3.199  0.00  0.00     0.062 H 
BRANCH  41  47
ATOM     47  O   LIG d   1       5.877 -11.228  -1.090  0.00  0.00    -0.495 OA
BRANCH  47  48
ATOM     48  C   LIG d   1       6.897 -12.126  -0.644  0.00  0.00     0.079 C 
ATOM     49  H   LIG d   1       6.461 -13.110  -0.463  0.00  0.00     0.066 H 
ATOM     50  H   LIG d   1       7.670 -12.206  -1.409  0.00  0.00     0.066 H 
ATOM     51  H   LIG d   1       7.336 -11.749   0.279  0.00  0.00     0.066 H 
ENDBRANCH  47  48
ENDBRANCH  41  47
ENDBRANCH  34  37
ENDBRANCH  33  34
ENDBRANCH   4  33
TORSDOF 9
ENDMDL
