MODEL 1
REMARK VINA RESULT:      -8.0      0.000      0.000
REMARK  4 active torsions:
REMARK  status: ('A' for Active; 'I' for Inactive)
REMARK    1  A    between atoms: C_1  and  C_2 
REMARK    2  A    between atoms: C_6  and  C_29 
REMARK    3  A    between atoms: N_19  and  C_22 
REMARK    4  A    between atoms: C_22  and  C_23 
ROOT
ATOM      1  C   LIG d   1       3.567  -1.441 -10.352  0.00  0.00     0.080 C 
ATOM      2  C   LIG d   1       2.639  -1.620  -9.142  0.00  0.00    -0.016 C 
ATOM      3  N   LIG d   1       3.254  -1.034  -7.948  0.00  0.00     0.262 N 
ATOM      4  C   LIG d   1       3.441   0.412  -8.095  0.00  0.00    -0.016 C 
ATOM      5  C   LIG d   1       4.414   0.700  -9.249  0.00  0.00     0.080 C 
ATOM      6  C   LIG d   1       3.814   0.058 -10.495  0.00  0.00     0.158 C 
ATOM      7  O   LIG d   1       3.541   0.679 -11.494  0.00  0.00    -0.296 OA
ATOM      8  C   LIG d   1       5.733  -0.036  -8.968  0.00  0.00     0.022 C 
ATOM      9  N   LIG d   1       5.459  -1.470  -8.794  0.00  0.00    -0.245 N 
ATOM     10  C   LIG d   1       4.931  -2.081 -10.048  0.00  0.00     0.022 C 
ATOM     11  C   LIG d   1       4.536  -1.683  -7.673  0.00  0.00     0.153 A 
ATOM     12  C   LIG d   1       4.354  -3.143  -7.401  0.00  0.00     0.050 A 
ATOM     13  C   LIG d   1       3.851  -4.162  -8.181  0.00  0.00    -0.049 A 
ATOM     14  C   LIG d   1       3.818  -5.432  -7.616  0.00  0.00    -0.061 A 
ATOM     15  C   LIG d   1       4.268  -5.658  -6.331  0.00  0.00    -0.060 A 
ATOM     16  C   LIG d   1       4.775  -4.640  -5.540  0.00  0.00    -0.040 A 
ATOM     17  C   LIG d   1       4.814  -3.359  -6.096  0.00  0.00     0.048 A 
ATOM     18  N   LIG d   1       5.263  -2.174  -5.541  0.00  0.00    -0.260 N 
ATOM     19  C   LIG d   1       5.137  -1.137  -6.396  0.00  0.00     0.292 A 
ATOM     20  O   LIG d   1       5.449   0.016  -6.181  0.00  0.00    -0.267 OA
ATOM     21  H   LIG d   1       1.688  -1.124  -9.339  0.00  0.00     0.083 H 
ATOM     22  H   LIG d   1       2.464  -2.683  -8.974  0.00  0.00     0.083 H 
ATOM     23  H   LIG d   1       2.481   0.882  -8.306  0.00  0.00     0.083 H 
ATOM     24  H   LIG d   1       3.847   0.820  -7.170  0.00  0.00     0.083 H 
ATOM     25  H   LIG d   1       6.415   0.104  -9.807  0.00  0.00     0.044 H 
ATOM     26  H   LIG d   1       6.185   0.360  -8.059  0.00  0.00     0.044 H 
ATOM     27  H   LIG d   1       4.805  -3.154  -9.898  0.00  0.00     0.044 H 
ATOM     28  H   LIG d   1       5.611  -1.906 -10.882  0.00  0.00     0.044 H 
ATOM     29  H   LIG d   1       3.499  -3.983  -9.186  0.00  0.00     0.062 H 
ATOM     30  H   LIG d   1       3.430  -6.258  -8.193  0.00  0.00     0.062 H 
ATOM     31  H   LIG d   1       4.224  -6.660  -5.929  0.00  0.00     0.062 H 
ATOM     32  H   LIG d   1       5.125  -4.827  -4.537  0.00  0.00     0.064 H 
ATOM     33  H   LIG d   1       2.641  -1.187  -7.162  0.00  0.00     0.206 HD
ENDROOT
BRANCH  18  34
ATOM     34  C   LIG d   1       5.809  -2.058  -4.188  0.00  0.00     0.045 C 
ATOM     35  H   LIG d   1       5.726  -3.018  -3.677  0.00  0.00     0.052 H 
ATOM     36  H   LIG d   1       6.858  -1.766  -4.244  0.00  0.00     0.052 H 
BRANCH  34  37
ATOM     37  C   LIG d   1       5.038  -1.013  -3.423  0.00  0.00    -0.030 A 
ATOM     38  C   LIG d   1       5.708   0.032  -2.814  0.00  0.00    -0.057 A 
ATOM     39  C   LIG d   1       5.002   0.993  -2.116  0.00  0.00    -0.061 A 
ATOM     40  H   LIG d   1       6.784   0.100  -2.888  0.00  0.00     0.062 H 
ATOM     41  C   LIG d   1       3.625   0.904  -2.018  0.00  0.00    -0.062 A 
ATOM     42  H   LIG d   1       5.525   1.811  -1.644  0.00  0.00     0.062 H 
ATOM     43  C   LIG d   1       2.956  -0.143  -2.622  0.00  0.00    -0.061 A 
ATOM     44  H   LIG d   1       3.074   1.653  -1.470  0.00  0.00     0.062 H 
ATOM     45  C   LIG d   1       3.662  -1.102  -3.325  0.00  0.00    -0.057 A 
ATOM     46  H   LIG d   1       1.881  -0.212  -2.546  0.00  0.00     0.062 H 
ATOM     47  H   LIG d   1       3.140  -1.920  -3.797  0.00  0.00     0.062 H 
ENDBRANCH  34  37
ENDBRANCH  18  34
BRANCH   1  48
ATOM     48  C   LIG d   1       2.947  -2.029 -11.622  0.00  0.00    -0.047 C 
ATOM     49  H   LIG d   1       3.673  -1.987 -12.434  0.00  0.00     0.024 H 
ATOM     50  H   LIG d   1       2.663  -3.066 -11.441  0.00  0.00     0.024 H 
ATOM     51  H   LIG d   1       2.063  -1.453 -11.894  0.00  0.00     0.024 H 
ENDBRANCH   1  48
BRANCH   5  52
ATOM     52  C   LIG d   1       4.621   2.205  -9.440  0.00  0.00    -0.047 C 
ATOM     53  H   LIG d   1       5.105   2.385 -10.400  0.00  0.00     0.024 H 
ATOM     54  H   LIG d   1       3.656   2.710  -9.418  0.00  0.00     0.024 H 
ATOM     55  H   LIG d   1       5.252   2.589  -8.638  0.00  0.00     0.024 H 
ENDBRANCH   5  52
TORSDOF 4
ENDMDL
MODEL 2
REMARK VINA RESULT:      -7.3      2.879      4.884
REMARK  4 active torsions:
REMARK  status: ('A' for Active; 'I' for Inactive)
REMARK    1  A    between atoms: C_1  and  C_2 
REMARK    2  A    between atoms: C_6  and  C_29 
REMARK    3  A    between atoms: N_19  and  C_22 
REMARK    4  A    between atoms: C_22  and  C_23 
ROOT
ATOM      1  C   LIG d   1       8.726   1.297  -9.109  0.00  0.00     0.080 C 
ATOM      2  C   LIG d   1       8.007   2.121  -8.030  0.00  0.00    -0.016 C 
ATOM      3  N   LIG d   1       7.481   1.234  -6.989  0.00  0.00     0.262 N 
ATOM      4  C   LIG d   1       8.559   0.526  -6.294  0.00  0.00    -0.016 C 
ATOM      5  C   LIG d   1       9.308  -0.386  -7.278  0.00  0.00     0.080 C 
ATOM      6  C   LIG d   1       9.825   0.513  -8.397  0.00  0.00     0.158 C 
ATOM      7  O   LIG d   1      10.994   0.610  -8.681  0.00  0.00    -0.296 OA
ATOM      8  C   LIG d   1       8.294  -1.346  -7.919  0.00  0.00     0.022 C 
ATOM      9  N   LIG d   1       7.227  -0.563  -8.560  0.00  0.00    -0.245 N 
ATOM     10  C   LIG d   1       7.753   0.257  -9.689  0.00  0.00     0.022 C 
ATOM     11  C   LIG d   1       6.541   0.276  -7.571  0.00  0.00     0.153 A 
ATOM     12  C   LIG d   1       5.369   0.975  -8.184  0.00  0.00     0.050 A 
ATOM     13  C   LIG d   1       5.285   1.889  -9.212  0.00  0.00    -0.049 A 
ATOM     14  C   LIG d   1       4.017   2.355  -9.540  0.00  0.00    -0.061 A 
ATOM     15  C   LIG d   1       2.895   1.920  -8.865  0.00  0.00    -0.060 A 
ATOM     16  C   LIG d   1       2.970   1.002  -7.830  0.00  0.00    -0.040 A 
ATOM     17  C   LIG d   1       4.239   0.526  -7.490  0.00  0.00     0.048 A 
ATOM     18  N   LIG d   1       4.603  -0.382  -6.512  0.00  0.00    -0.260 N 
ATOM     19  C   LIG d   1       5.936  -0.590  -6.487  0.00  0.00     0.292 A 
ATOM     20  O   LIG d   1       6.537  -1.331  -5.737  0.00  0.00    -0.267 OA
ATOM     21  H   LIG d   1       8.709   2.825  -7.586  0.00  0.00     0.083 H 
ATOM     22  H   LIG d   1       7.183   2.671  -8.485  0.00  0.00     0.083 H 
ATOM     23  H   LIG d   1       9.255   1.250  -5.871  0.00  0.00     0.083 H 
ATOM     24  H   LIG d   1       8.136  -0.079  -5.492  0.00  0.00     0.083 H 
ATOM     25  H   LIG d   1       8.795  -1.958  -8.668  0.00  0.00     0.044 H 
ATOM     26  H   LIG d   1       7.863  -1.987  -7.151  0.00  0.00     0.044 H 
ATOM     27  H   LIG d   1       6.924   0.768 -10.178  0.00  0.00     0.044 H 
ATOM     28  H   LIG d   1       8.276  -0.368 -10.413  0.00  0.00     0.044 H 
ATOM     29  H   LIG d   1       6.165   2.228  -9.740  0.00  0.00     0.062 H 
ATOM     30  H   LIG d   1       3.908   3.073 -10.340  0.00  0.00     0.062 H 
ATOM     31  H   LIG d   1       1.928   2.308  -9.151  0.00  0.00     0.062 H 
ATOM     32  H   LIG d   1       2.087   0.668  -7.308  0.00  0.00     0.064 H 
ATOM     33  H   LIG d   1       6.991   1.793  -6.307  0.00  0.00     0.206 HD
ENDROOT
BRANCH  18  34
ATOM     34  C   LIG d   1       3.655  -1.040  -5.611  0.00  0.00     0.045 C 
ATOM     35  H   LIG d   1       2.636  -0.822  -5.931  0.00  0.00     0.052 H 
ATOM     36  H   LIG d   1       3.820  -2.118  -5.635  0.00  0.00     0.052 H 
BRANCH  34  37
ATOM     37  C   LIG d   1       3.861  -0.533  -4.206  0.00  0.00    -0.030 A 
ATOM     38  C   LIG d   1       3.654   0.803  -3.917  0.00  0.00    -0.057 A 
ATOM     39  C   LIG d   1       3.838   1.268  -2.629  0.00  0.00    -0.061 A 
ATOM     40  H   LIG d   1       3.343   1.483  -4.698  0.00  0.00     0.062 H 
ATOM     41  C   LIG d   1       4.240   0.399  -1.631  0.00  0.00    -0.062 A 
ATOM     42  H   LIG d   1       3.672   2.310  -2.402  0.00  0.00     0.062 H 
ATOM     43  C   LIG d   1       4.453  -0.936  -1.922  0.00  0.00    -0.061 A 
ATOM     44  H   LIG d   1       4.387   0.763  -0.626  0.00  0.00     0.062 H 
ATOM     45  C   LIG d   1       4.263  -1.402  -3.209  0.00  0.00    -0.057 A 
ATOM     46  H   LIG d   1       4.766  -1.614  -1.143  0.00  0.00     0.062 H 
ATOM     47  H   LIG d   1       4.429  -2.444  -3.437  0.00  0.00     0.062 H 
ENDBRANCH  34  37
ENDBRANCH  18  34
BRANCH   1  48
ATOM     48  C   LIG d   1       9.300   2.195 -10.206  0.00  0.00    -0.047 C 
ATOM     49  H   LIG d   1      10.237   2.635  -9.861  0.00  0.00     0.024 H 
ATOM     50  H   LIG d   1       9.484   1.603 -11.102  0.00  0.00     0.024 H 
ATOM     51  H   LIG d   1       8.589   2.989 -10.434  0.00  0.00     0.024 H 
ENDBRANCH   1  48
BRANCH   5  52
ATOM     52  C   LIG d   1      10.453  -1.132  -6.587  0.00  0.00    -0.047 C 
ATOM     53  H   LIG d   1      10.753  -0.587  -5.693  0.00  0.00     0.024 H 
ATOM     54  H   LIG d   1      10.119  -2.131  -6.310  0.00  0.00     0.024 H 
ATOM     55  H   LIG d   1      11.300  -1.207  -7.269  0.00  0.00     0.024 H 
ENDBRANCH   5  52
TORSDOF 4
ENDMDL
MODEL 3
REMARK VINA RESULT:      -7.2      1.841      3.882
REMARK  4 active torsions:
REMARK  status: ('A' for Active; 'I' for Inactive)
REMARK    1  A    between atoms: C_1  and  C_2 
REMARK    2  A    between atoms: C_6  and  C_29 
REMARK    3  A    between atoms: N_19  and  C_22 
REMARK    4  A    between atoms: C_22  and  C_23 
ROOT
ATOM      1  C   LIG d   1       4.498  -0.528 -10.594  0.00  0.00     0.080 C 
ATOM      2  C   LIG d   1       5.946  -1.000 -10.390  0.00  0.00    -0.016 C 
ATOM      3  N   LIG d   1       6.065  -1.710  -9.114  0.00  0.00     0.262 N 
ATOM      4  C   LIG d   1       5.246  -2.925  -9.097  0.00  0.00    -0.016 C 
ATOM      5  C   LIG d   1       3.760  -2.557  -9.231  0.00  0.00     0.080 C 
ATOM      6  C   LIG d   1       3.620  -1.774 -10.533  0.00  0.00     0.158 C 
ATOM      7  O   LIG d   1       2.900  -2.119 -11.438  0.00  0.00    -0.296 OA
ATOM      8  C   LIG d   1       3.395  -1.588  -8.096  0.00  0.00     0.022 C 
ATOM      9  N   LIG d   1       4.283  -0.418  -8.155  0.00  0.00    -0.245 N 
ATOM     10  C   LIG d   1       4.079   0.360  -9.412  0.00  0.00     0.022 C 
ATOM     11  C   LIG d   1       5.684  -0.829  -8.010  0.00  0.00     0.153 A 
ATOM     12  C   LIG d   1       6.586   0.362  -7.934  0.00  0.00     0.050 A 
ATOM     13  C   LIG d   1       6.839   1.375  -8.834  0.00  0.00    -0.049 A 
ATOM     14  C   LIG d   1       7.753   2.349  -8.447  0.00  0.00    -0.061 A 
ATOM     15  C   LIG d   1       8.377   2.300  -7.217  0.00  0.00    -0.060 A 
ATOM     16  C   LIG d   1       8.128   1.286  -6.307  0.00  0.00    -0.040 A 
ATOM     17  C   LIG d   1       7.212   0.301  -6.683  0.00  0.00     0.048 A 
ATOM     18  N   LIG d   1       6.781  -0.811  -5.983  0.00  0.00    -0.260 N 
ATOM     19  C   LIG d   1       5.882  -1.534  -6.685  0.00  0.00     0.292 A 
ATOM     20  O   LIG d   1       5.336  -2.554  -6.322  0.00  0.00    -0.267 OA
ATOM     21  H   LIG d   1       6.227  -1.667 -11.204  0.00  0.00     0.083 H 
ATOM     22  H   LIG d   1       6.611  -0.135 -10.386  0.00  0.00     0.083 H 
ATOM     23  H   LIG d   1       5.535  -3.568  -9.928  0.00  0.00     0.083 H 
ATOM     24  H   LIG d   1       5.403  -3.454  -8.158  0.00  0.00     0.083 H 
ATOM     25  H   LIG d   1       2.360  -1.265  -8.211  0.00  0.00     0.044 H 
ATOM     26  H   LIG d   1       3.517  -2.089  -7.136  0.00  0.00     0.044 H 
ATOM     27  H   LIG d   1       4.705   1.253  -9.386  0.00  0.00     0.044 H 
ATOM     28  H   LIG d   1       3.034   0.650  -9.524  0.00  0.00     0.044 H 
ATOM     29  H   LIG d   1       6.350   1.411  -9.796  0.00  0.00     0.062 H 
ATOM     30  H   LIG d   1       7.980   3.160  -9.124  0.00  0.00     0.062 H 
ATOM     31  H   LIG d   1       9.080   3.077  -6.955  0.00  0.00     0.062 H 
ATOM     32  H   LIG d   1       8.620   1.257  -5.347  0.00  0.00     0.064 H 
ATOM     33  H   LIG d   1       7.027  -1.986  -8.988  0.00  0.00     0.206 HD
ENDROOT
BRANCH  18  34
ATOM     34  C   LIG d   1       7.243  -1.163  -4.639  0.00  0.00     0.045 C 
ATOM     35  H   LIG d   1       7.358  -2.245  -4.565  0.00  0.00     0.052 H 
ATOM     36  H   LIG d   1       8.203  -0.683  -4.447  0.00  0.00     0.052 H 
BRANCH  34  37
ATOM     37  C   LIG d   1       6.235  -0.694  -3.621  0.00  0.00    -0.030 A 
ATOM     38  C   LIG d   1       6.124   0.653  -3.330  0.00  0.00    -0.057 A 
ATOM     39  C   LIG d   1       5.197   1.084  -2.400  0.00  0.00    -0.061 A 
ATOM     40  H   LIG d   1       6.758   1.368  -3.832  0.00  0.00     0.062 H 
ATOM     41  C   LIG d   1       4.388   0.168  -1.754  0.00  0.00    -0.062 A 
ATOM     42  H   LIG d   1       5.107   2.136  -2.175  0.00  0.00     0.062 H 
ATOM     43  C   LIG d   1       4.503  -1.179  -2.041  0.00  0.00    -0.061 A 
ATOM     44  H   LIG d   1       3.666   0.505  -1.025  0.00  0.00     0.062 H 
ATOM     45  C   LIG d   1       5.426  -1.610  -2.975  0.00  0.00    -0.057 A 
ATOM     46  H   LIG d   1       3.870  -1.894  -1.537  0.00  0.00     0.062 H 
ATOM     47  H   LIG d   1       5.517  -2.662  -3.200  0.00  0.00     0.062 H 
ENDBRANCH  34  37
ENDBRANCH  18  34
BRANCH   1  48
ATOM     48  C   LIG d   1       4.335   0.206 -11.927  0.00  0.00    -0.047 C 
ATOM     49  H   LIG d   1       3.554  -0.277 -12.514  0.00  0.00     0.024 H 
ATOM     50  H   LIG d   1       4.059   1.244 -11.739  0.00  0.00     0.024 H 
ATOM     51  H   LIG d   1       5.275   0.174 -12.477  0.00  0.00     0.024 H 
ENDBRANCH   1  48
BRANCH   5  52
ATOM     52  C   LIG d   1       2.874  -3.805  -9.233  0.00  0.00    -0.047 C 
ATOM     53  H   LIG d   1       1.842  -3.518  -9.428  0.00  0.00     0.024 H 
ATOM     54  H   LIG d   1       3.215  -4.491 -10.008  0.00  0.00     0.024 H 
ATOM     55  H   LIG d   1       2.938  -4.296  -8.260  0.00  0.00     0.024 H 
ENDBRANCH   5  52
TORSDOF 4
ENDMDL
MODEL 4
REMARK VINA RESULT:      -6.9      2.260      6.110
REMARK  4 active torsions:
REMARK  status: ('A' for Active; 'I' for Inactive)
REMARK    1  A    between atoms: C_1  and  C_2 
REMARK    2  A    between atoms: C_6  and  C_29 
REMARK    3  A    between atoms: N_19  and  C_22 
REMARK    4  A    between atoms: C_22  and  C_23 
ROOT
ATOM      1  C   LIG d   1       7.672  -2.385  -4.475  0.00  0.00     0.080 C 
ATOM      2  C   LIG d   1       6.441  -3.032  -5.126  0.00  0.00    -0.016 C 
ATOM      3  N   LIG d   1       6.052  -2.278  -6.321  0.00  0.00     0.262 N 
ATOM      4  C   LIG d   1       7.103  -2.310  -7.341  0.00  0.00    -0.016 C 
ATOM      5  C   LIG d   1       8.371  -1.623  -6.810  0.00  0.00     0.080 C 
ATOM      6  C   LIG d   1       8.767  -2.365  -5.537  0.00  0.00     0.158 C 
ATOM      7  O   LIG d   1       9.838  -2.903  -5.392  0.00  0.00    -0.296 OA
ATOM      8  C   LIG d   1       8.007  -0.191  -6.388  0.00  0.00     0.022 C 
ATOM      9  N   LIG d   1       6.923  -0.240  -5.396  0.00  0.00    -0.245 N 
ATOM     10  C   LIG d   1       7.361  -0.917  -4.141  0.00  0.00     0.022 C 
ATOM     11  C   LIG d   1       5.738  -0.895  -5.963  0.00  0.00     0.153 A 
ATOM     12  C   LIG d   1       4.585  -0.832  -5.011  0.00  0.00     0.050 A 
ATOM     13  C   LIG d   1       4.422  -1.341  -3.741  0.00  0.00    -0.049 A 
ATOM     14  C   LIG d   1       3.202  -1.101  -3.118  0.00  0.00    -0.061 A 
ATOM     15  C   LIG d   1       2.202  -0.386  -3.747  0.00  0.00    -0.060 A 
ATOM     16  C   LIG d   1       2.360   0.129  -5.023  0.00  0.00    -0.040 A 
ATOM     17  C   LIG d   1       3.580  -0.105  -5.660  0.00  0.00     0.048 A 
ATOM     18  N   LIG d   1       4.004   0.286  -6.917  0.00  0.00    -0.260 N 
ATOM     19  C   LIG d   1       5.260  -0.134  -7.181  0.00  0.00     0.292 A 
ATOM     20  O   LIG d   1       5.886   0.063  -8.201  0.00  0.00    -0.267 OA
ATOM     21  H   LIG d   1       6.677  -4.058  -5.406  0.00  0.00     0.083 H 
ATOM     22  H   LIG d   1       5.614  -3.033  -4.415  0.00  0.00     0.083 H 
ATOM     23  H   LIG d   1       7.331  -3.345  -7.594  0.00  0.00     0.083 H 
ATOM     24  H   LIG d   1       6.757  -1.789  -8.233  0.00  0.00     0.083 H 
ATOM     25  H   LIG d   1       8.880   0.292  -5.948  0.00  0.00     0.044 H 
ATOM     26  H   LIG d   1       7.677   0.373  -7.259  0.00  0.00     0.044 H 
ATOM     27  H   LIG d   1       6.554  -0.873  -3.409  0.00  0.00     0.044 H 
ATOM     28  H   LIG d   1       8.251  -0.439  -3.732  0.00  0.00     0.044 H 
ATOM     29  H   LIG d   1       5.205  -1.900  -3.251  0.00  0.00     0.062 H 
ATOM     30  H   LIG d   1       3.032  -1.484  -2.122  0.00  0.00     0.062 H 
ATOM     31  H   LIG d   1       1.269  -0.223  -3.228  0.00  0.00     0.062 H 
ATOM     32  H   LIG d   1       1.572   0.687  -5.506  0.00  0.00     0.064 H 
ATOM     33  H   LIG d   1       5.227  -2.703  -6.716  0.00  0.00     0.206 HD
ENDROOT
BRANCH  18  34
ATOM     34  C   LIG d   1       3.188   1.064  -7.852  0.00  0.00     0.045 C 
ATOM     35  H   LIG d   1       2.274   1.390  -7.355  0.00  0.00     0.052 H 
ATOM     36  H   LIG d   1       3.751   1.937  -8.186  0.00  0.00     0.052 H 
BRANCH  34  37
ATOM     37  C   LIG d   1       2.836   0.210  -9.043  0.00  0.00    -0.030 A 
ATOM     38  C   LIG d   1       3.314   0.541 -10.297  0.00  0.00    -0.057 A 
ATOM     39  C   LIG d   1       2.994  -0.244 -11.388  0.00  0.00    -0.061 A 
ATOM     40  H   LIG d   1       3.940   1.412 -10.423  0.00  0.00     0.062 H 
ATOM     41  C   LIG d   1       2.189  -1.356 -11.227  0.00  0.00    -0.062 A 
ATOM     42  H   LIG d   1       3.371   0.013 -12.367  0.00  0.00     0.062 H 
ATOM     43  C   LIG d   1       1.707  -1.685  -9.975  0.00  0.00    -0.061 A 
ATOM     44  H   LIG d   1       1.937  -1.968 -12.080  0.00  0.00     0.062 H 
ATOM     45  C   LIG d   1       2.030  -0.902  -8.882  0.00  0.00    -0.057 A 
ATOM     46  H   LIG d   1       1.078  -2.554  -9.849  0.00  0.00     0.062 H 
ATOM     47  H   LIG d   1       1.654  -1.158  -7.903  0.00  0.00     0.062 H 
ENDBRANCH  34  37
ENDBRANCH  18  34
BRANCH   1  48
ATOM     48  C   LIG d   1       8.115  -3.158  -3.231  0.00  0.00    -0.047 C 
ATOM     49  H   LIG d   1       9.203  -3.213  -3.206  0.00  0.00     0.024 H 
ATOM     50  H   LIG d   1       7.756  -2.646  -2.338  0.00  0.00     0.024 H 
ATOM     51  H   LIG d   1       7.701  -4.165  -3.263  0.00  0.00     0.024 H 
ENDBRANCH   1  48
BRANCH   5  52
ATOM     52  C   LIG d   1       9.497  -1.652  -7.847  0.00  0.00    -0.047 C 
ATOM     53  H   LIG d   1       9.101  -1.994  -8.802  0.00  0.00     0.024 H 
ATOM     54  H   LIG d   1       9.910  -0.650  -7.961  0.00  0.00     0.024 H 
ATOM     55  H   LIG d   1      10.280  -2.332  -7.513  0.00  0.00     0.024 H 
ENDBRANCH   5  52
TORSDOF 4
ENDMDL
MODEL 5
REMARK VINA RESULT:      -6.8      2.579      4.948
REMARK  4 active torsions:
REMARK  status: ('A' for Active; 'I' for Inactive)
REMARK    1  A    between atoms: C_1  and  C_2 
REMARK    2  A    between atoms: C_6  and  C_29 
REMARK    3  A    between atoms: N_19  and  C_22 
REMARK    4  A    between atoms: C_22  and  C_23 
ROOT
ATOM      1  C   LIG d   1       4.378  -5.838  -8.217  0.00  0.00     0.080 C 
ATOM      2  C   LIG d   1       5.669  -5.103  -8.608  0.00  0.00    -0.016 C 
ATOM      3  N   LIG d   1       6.417  -4.728  -7.405  0.00  0.00     0.262 N 
ATOM      4  C   LIG d   1       6.845  -5.909  -6.650  0.00  0.00    -0.016 C 
ATOM      5  C   LIG d   1       5.618  -6.687  -6.152  0.00  0.00     0.080 C 
ATOM      6  C   LIG d   1       4.799  -7.047  -7.387  0.00  0.00     0.158 C 
ATOM      7  O   LIG d   1       4.528  -8.184  -7.692  0.00  0.00    -0.296 OA
ATOM      8  C   LIG d   1       4.749  -5.738  -5.312  0.00  0.00     0.022 C 
ATOM      9  N   LIG d   1       4.394  -4.563  -6.123  0.00  0.00    -0.245 N 
ATOM     10  C   LIG d   1       3.543  -4.941  -7.288  0.00  0.00     0.022 C 
ATOM     11  C   LIG d   1       5.603  -3.856  -6.558  0.00  0.00     0.153 A 
ATOM     12  C   LIG d   1       5.253  -2.587  -7.270  0.00  0.00     0.050 A 
ATOM     13  C   LIG d   1       4.541  -2.355  -8.427  0.00  0.00    -0.049 A 
ATOM     14  C   LIG d   1       4.396  -1.031  -8.824  0.00  0.00    -0.061 A 
ATOM     15  C   LIG d   1       4.943   0.003  -8.090  0.00  0.00    -0.060 A 
ATOM     16  C   LIG d   1       5.660  -0.222  -6.927  0.00  0.00    -0.040 A 
ATOM     17  C   LIG d   1       5.813  -1.548  -6.516  0.00  0.00     0.048 A 
ATOM     18  N   LIG d   1       6.471  -2.055  -5.411  0.00  0.00    -0.260 N 
ATOM     19  C   LIG d   1       6.400  -3.402  -5.354  0.00  0.00     0.292 A 
ATOM     20  O   LIG d   1       6.883  -4.114  -4.499  0.00  0.00    -0.267 OA
ATOM     21  H   LIG d   1       6.283  -5.757  -9.227  0.00  0.00     0.083 H 
ATOM     22  H   LIG d   1       5.417  -4.204  -9.172  0.00  0.00     0.083 H 
ATOM     23  H   LIG d   1       7.445  -6.552  -7.294  0.00  0.00     0.083 H 
ATOM     24  H   LIG d   1       7.445  -5.594  -5.797  0.00  0.00     0.083 H 
ATOM     25  H   LIG d   1       3.840  -6.253  -5.002  0.00  0.00     0.044 H 
ATOM     26  H   LIG d   1       5.306  -5.417  -4.432  0.00  0.00     0.044 H 
ATOM     27  H   LIG d   1       3.246  -4.039  -7.823  0.00  0.00     0.044 H 
ATOM     28  H   LIG d   1       2.654  -5.481  -6.962  0.00  0.00     0.044 H 
ATOM     29  H   LIG d   1       4.114  -3.166  -9.000  0.00  0.00     0.062 H 
ATOM     30  H   LIG d   1       3.846  -0.806  -9.726  0.00  0.00     0.062 H 
ATOM     31  H   LIG d   1       4.808   1.018  -8.434  0.00  0.00     0.062 H 
ATOM     32  H   LIG d   1       6.083   0.594  -6.360  0.00  0.00     0.064 H 
ATOM     33  H   LIG d   1       7.245  -4.224  -7.685  0.00  0.00     0.206 HD
ENDROOT
BRANCH  18  34
ATOM     34  C   LIG d   1       7.163  -1.230  -4.419  0.00  0.00     0.045 C 
ATOM     35  H   LIG d   1       7.828  -1.857  -3.823  0.00  0.00     0.052 H 
ATOM     36  H   LIG d   1       7.747  -0.463  -4.928  0.00  0.00     0.052 H 
BRANCH  34  37
ATOM     37  C   LIG d   1       6.150  -0.573  -3.516  0.00  0.00    -0.030 A 
ATOM     38  C   LIG d   1       6.087   0.806  -3.437  0.00  0.00    -0.057 A 
ATOM     39  C   LIG d   1       5.156   1.409  -2.613  0.00  0.00    -0.061 A 
ATOM     40  H   LIG d   1       6.764   1.412  -4.022  0.00  0.00     0.062 H 
ATOM     41  C   LIG d   1       4.293   0.633  -1.861  0.00  0.00    -0.062 A 
ATOM     42  H   LIG d   1       5.104   2.486  -2.554  0.00  0.00     0.062 H 
ATOM     43  C   LIG d   1       4.358  -0.745  -1.937  0.00  0.00    -0.061 A 
ATOM     44  H   LIG d   1       3.567   1.105  -1.216  0.00  0.00     0.062 H 
ATOM     45  C   LIG d   1       5.287  -1.349  -2.765  0.00  0.00    -0.057 A 
ATOM     46  H   LIG d   1       3.684  -1.351  -1.350  0.00  0.00     0.062 H 
ATOM     47  H   LIG d   1       5.339  -2.425  -2.824  0.00  0.00     0.062 H 
ENDBRANCH  34  37
ENDBRANCH  18  34
BRANCH   1  48
ATOM     48  C   LIG d   1       3.579  -6.257  -9.452  0.00  0.00    -0.047 C 
ATOM     49  H   LIG d   1       2.684  -6.796  -9.140  0.00  0.00     0.024 H 
ATOM     50  H   LIG d   1       3.292  -5.371 -10.018  0.00  0.00     0.024 H 
ATOM     51  H   LIG d   1       4.193  -6.906 -10.078  0.00  0.00     0.024 H 
ENDBRANCH   1  48
BRANCH   5  52
ATOM     52  C   LIG d   1       6.030  -7.937  -5.370  0.00  0.00    -0.047 C 
ATOM     53  H   LIG d   1       5.833  -7.783  -4.310  0.00  0.00     0.024 H 
ATOM     54  H   LIG d   1       5.457  -8.792  -5.727  0.00  0.00     0.024 H 
ATOM     55  H   LIG d   1       7.094  -8.123  -5.519  0.00  0.00     0.024 H 
ENDBRANCH   5  52
TORSDOF 4
ENDMDL
MODEL 6
REMARK VINA RESULT:      -6.8      1.943      4.131
REMARK  4 active torsions:
REMARK  status: ('A' for Active; 'I' for Inactive)
REMARK    1  A    between atoms: C_1  and  C_2 
REMARK    2  A    between atoms: C_6  and  C_29 
REMARK    3  A    between atoms: N_19  and  C_22 
REMARK    4  A    between atoms: C_22  and  C_23 
ROOT
ATOM      1  C   LIG d   1       3.496   0.892  -8.885  0.00  0.00     0.080 C 
ATOM      2  C   LIG d   1       4.704   0.947  -7.937  0.00  0.00    -0.016 C 
ATOM      3  N   LIG d   1       5.293  -0.387  -7.798  0.00  0.00     0.262 N 
ATOM      4  C   LIG d   1       5.814  -0.879  -9.077  0.00  0.00    -0.016 C 
ATOM      5  C   LIG d   1       4.666  -1.033 -10.086  0.00  0.00     0.080 C 
ATOM      6  C   LIG d   1       4.008   0.337 -10.211  0.00  0.00     0.158 C 
ATOM      7  O   LIG d   1       3.918   0.935 -11.256  0.00  0.00    -0.296 OA
ATOM      8  C   LIG d   1       3.612  -1.974  -9.483  0.00  0.00     0.022 C 
ATOM      9  N   LIG d   1       3.168  -1.435  -8.188  0.00  0.00    -0.245 N 
ATOM     10  C   LIG d   1       2.475  -0.124  -8.351  0.00  0.00     0.022 C 
ATOM     11  C   LIG d   1       4.303  -1.322  -7.264  0.00  0.00     0.153 A 
ATOM     12  C   LIG d   1       3.844  -0.901  -5.903  0.00  0.00     0.050 A 
ATOM     13  C   LIG d   1       3.204   0.238  -5.467  0.00  0.00    -0.049 A 
ATOM     14  C   LIG d   1       2.915   0.318  -4.109  0.00  0.00    -0.061 A 
ATOM     15  C   LIG d   1       3.255  -0.699  -3.241  0.00  0.00    -0.060 A 
ATOM     16  C   LIG d   1       3.898  -1.848  -3.672  0.00  0.00    -0.040 A 
ATOM     17  C   LIG d   1       4.195  -1.942  -5.034  0.00  0.00     0.048 A 
ATOM     18  N   LIG d   1       4.822  -2.959  -5.728  0.00  0.00    -0.260 N 
ATOM     19  C   LIG d   1       4.930  -2.681  -7.045  0.00  0.00     0.292 A 
ATOM     20  O   LIG d   1       5.433  -3.389  -7.892  0.00  0.00    -0.267 OA
ATOM     21  H   LIG d   1       5.449   1.632  -8.341  0.00  0.00     0.083 H 
ATOM     22  H   LIG d   1       4.379   1.303  -6.958  0.00  0.00     0.083 H 
ATOM     23  H   LIG d   1       6.546  -0.171  -9.466  0.00  0.00     0.083 H 
ATOM     24  H   LIG d   1       6.293  -1.845  -8.924  0.00  0.00     0.083 H 
ATOM     25  H   LIG d   1       2.759  -2.045 -10.157  0.00  0.00     0.044 H 
ATOM     26  H   LIG d   1       4.046  -2.962  -9.335  0.00  0.00     0.044 H 
ATOM     27  H   LIG d   1       2.103   0.207  -7.381  0.00  0.00     0.044 H 
ATOM     28  H   LIG d   1       1.643  -0.208  -9.051  0.00  0.00     0.044 H 
ATOM     29  H   LIG d   1       2.939   1.034  -6.148  0.00  0.00     0.062 H 
ATOM     30  H   LIG d   1       2.414   1.196  -3.725  0.00  0.00     0.062 H 
ATOM     31  H   LIG d   1       3.012  -0.597  -2.193  0.00  0.00     0.062 H 
ATOM     32  H   LIG d   1       4.159  -2.639  -2.985  0.00  0.00     0.064 H 
ATOM     33  H   LIG d   1       6.065  -0.332  -7.152  0.00  0.00     0.206 HD
ENDROOT
BRANCH  18  34
ATOM     34  C   LIG d   1       5.313  -4.192  -5.110  0.00  0.00     0.045 C 
ATOM     35  H   LIG d   1       4.841  -4.325  -4.136  0.00  0.00     0.052 H 
ATOM     36  H   LIG d   1       5.069  -5.042  -5.750  0.00  0.00     0.052 H 
BRANCH  34  37
ATOM     37  C   LIG d   1       6.808  -4.108  -4.937  0.00  0.00    -0.030 A 
ATOM     38  C   LIG d   1       7.360  -3.086  -4.187  0.00  0.00    -0.057 A 
ATOM     39  C   LIG d   1       8.730  -3.010  -4.025  0.00  0.00    -0.061 A 
ATOM     40  H   LIG d   1       6.719  -2.348  -3.725  0.00  0.00     0.062 H 
ATOM     41  C   LIG d   1       9.550  -3.952  -4.620  0.00  0.00    -0.062 A 
ATOM     42  H   LIG d   1       9.161  -2.215  -3.436  0.00  0.00     0.062 H 
ATOM     43  C   LIG d   1       8.998  -4.970  -5.373  0.00  0.00    -0.061 A 
ATOM     44  H   LIG d   1      10.620  -3.891  -4.495  0.00  0.00     0.062 H 
ATOM     45  C   LIG d   1       7.627  -5.049  -5.532  0.00  0.00    -0.057 A 
ATOM     46  H   LIG d   1       9.638  -5.706  -5.838  0.00  0.00     0.062 H 
ATOM     47  H   LIG d   1       7.196  -5.844  -6.121  0.00  0.00     0.062 H 
ENDBRANCH  34  37
ENDBRANCH  18  34
BRANCH   1  48
ATOM     48  C   LIG d   1       2.865   2.275  -9.064  0.00  0.00    -0.047 C 
ATOM     49  H   LIG d   1       2.706   2.466 -10.125  0.00  0.00     0.024 H 
ATOM     50  H   LIG d   1       1.910   2.309  -8.540  0.00  0.00     0.024 H 
ATOM     51  H   LIG d   1       3.532   3.034  -8.655  0.00  0.00     0.024 H 
ENDBRANCH   1  48
BRANCH   5  52
ATOM     52  C   LIG d   1       5.178  -1.532 -11.440  0.00  0.00    -0.047 C 
ATOM     53  H   LIG d   1       4.713  -0.956 -12.239  0.00  0.00     0.024 H 
ATOM     54  H   LIG d   1       6.260  -1.411 -11.486  0.00  0.00     0.024 H 
ATOM     55  H   LIG d   1       4.924  -2.586 -11.557  0.00  0.00     0.024 H 
ENDBRANCH   5  52
TORSDOF 4
ENDMDL
MODEL 7
REMARK VINA RESULT:      -6.7      4.324      6.901
REMARK  4 active torsions:
REMARK  status: ('A' for Active; 'I' for Inactive)
REMARK    1  A    between atoms: C_1  and  C_2 
REMARK    2  A    between atoms: C_6  and  C_29 
REMARK    3  A    between atoms: N_19  and  C_22 
REMARK    4  A    between atoms: C_22  and  C_23 
ROOT
ATOM      1  C   LIG d   1      10.518  -6.506  -4.363  0.00  0.00     0.080 C 
ATOM      2  C   LIG d   1      10.023  -6.169  -5.778  0.00  0.00    -0.016 C 
ATOM      3  N   LIG d   1       9.561  -4.780  -5.830  0.00  0.00     0.262 N 
ATOM      4  C   LIG d   1      10.654  -3.841  -5.558  0.00  0.00    -0.016 C 
ATOM      5  C   LIG d   1      11.183  -4.051  -4.131  0.00  0.00     0.080 C 
ATOM      6  C   LIG d   1      11.626  -5.508  -4.041  0.00  0.00     0.158 C 
ATOM      7  O   LIG d   1      12.753  -5.840  -3.761  0.00  0.00    -0.296 OA
ATOM      8  C   LIG d   1      10.012  -3.887  -3.150  0.00  0.00     0.022 C 
ATOM      9  N   LIG d   1       8.944  -4.832  -3.510  0.00  0.00    -0.245 N 
ATOM     10  C   LIG d   1       9.389  -6.246  -3.353  0.00  0.00     0.022 C 
ATOM     11  C   LIG d   1       8.472  -4.575  -4.876  0.00  0.00     0.153 A 
ATOM     12  C   LIG d   1       7.296  -5.440  -5.206  0.00  0.00     0.050 A 
ATOM     13  C   LIG d   1       7.160  -6.809  -5.275  0.00  0.00    -0.049 A 
ATOM     14  C   LIG d   1       5.906  -7.302  -5.619  0.00  0.00    -0.061 A 
ATOM     15  C   LIG d   1       4.848  -6.455  -5.879  0.00  0.00    -0.060 A 
ATOM     16  C   LIG d   1       4.977  -5.078  -5.812  0.00  0.00    -0.040 A 
ATOM     17  C   LIG d   1       6.231  -4.569  -5.468  0.00  0.00     0.048 A 
ATOM     18  N   LIG d   1       6.638  -3.255  -5.328  0.00  0.00    -0.260 N 
ATOM     19  C   LIG d   1       7.939  -3.162  -4.983  0.00  0.00     0.292 A 
ATOM     20  O   LIG d   1       8.564  -2.140  -4.792  0.00  0.00    -0.267 OA
ATOM     21  H   LIG d   1      10.837  -6.308  -6.488  0.00  0.00     0.083 H 
ATOM     22  H   LIG d   1       9.198  -6.834  -6.040  0.00  0.00     0.083 H 
ATOM     23  H   LIG d   1      11.461  -4.009  -6.272  0.00  0.00     0.083 H 
ATOM     24  H   LIG d   1      10.287  -2.821  -5.661  0.00  0.00     0.083 H 
ATOM     25  H   LIG d   1      10.354  -4.096  -2.136  0.00  0.00     0.044 H 
ATOM     26  H   LIG d   1       9.630  -2.869  -3.205  0.00  0.00     0.044 H 
ATOM     27  H   LIG d   1       8.551  -6.911  -3.563  0.00  0.00     0.044 H 
ATOM     28  H   LIG d   1       9.755  -6.429  -2.342  0.00  0.00     0.044 H 
ATOM     29  H   LIG d   1       7.990  -7.470  -5.071  0.00  0.00     0.062 H 
ATOM     30  H   LIG d   1       5.758  -8.370  -5.685  0.00  0.00     0.062 H 
ATOM     31  H   LIG d   1       3.891  -6.879  -6.144  0.00  0.00     0.062 H 
ATOM     32  H   LIG d   1       4.143  -4.424  -6.017  0.00  0.00     0.064 H 
ATOM     33  H   LIG d   1       9.216  -4.590  -6.758  0.00  0.00     0.206 HD
ENDROOT
BRANCH  18  34
ATOM     34  C   LIG d   1       5.762  -2.099  -5.532  0.00  0.00     0.045 C 
ATOM     35  H   LIG d   1       6.314  -1.308  -6.039  0.00  0.00     0.052 H 
ATOM     36  H   LIG d   1       4.908  -2.395  -6.143  0.00  0.00     0.052 H 
BRANCH  34  37
ATOM     37  C   LIG d   1       5.274  -1.597  -4.197  0.00  0.00    -0.030 A 
ATOM     38  C   LIG d   1       4.420  -2.375  -3.436  0.00  0.00    -0.057 A 
ATOM     39  C   LIG d   1       3.976  -1.917  -2.211  0.00  0.00    -0.061 A 
ATOM     40  H   LIG d   1       4.105  -3.342  -3.799  0.00  0.00     0.062 H 
ATOM     41  C   LIG d   1       4.377  -0.676  -1.750  0.00  0.00    -0.062 A 
ATOM     42  H   LIG d   1       3.313  -2.526  -1.615  0.00  0.00     0.062 H 
ATOM     43  C   LIG d   1       5.226   0.103  -2.513  0.00  0.00    -0.061 A 
ATOM     44  H   LIG d   1       4.027  -0.317  -0.794  0.00  0.00     0.062 H 
ATOM     45  C   LIG d   1       5.674  -0.357  -3.737  0.00  0.00    -0.057 A 
ATOM     46  H   LIG d   1       5.539   1.072  -2.152  0.00  0.00     0.062 H 
ATOM     47  H   LIG d   1       6.337   0.252  -4.333  0.00  0.00     0.062 H 
ENDBRANCH  34  37
ENDBRANCH  18  34
BRANCH   1  48
ATOM     48  C   LIG d   1      11.022  -7.948  -4.278  0.00  0.00    -0.047 C 
ATOM     49  H   LIG d   1      10.396  -8.589  -4.899  0.00  0.00     0.024 H 
ATOM     50  H   LIG d   1      12.052  -7.995  -4.629  0.00  0.00     0.024 H 
ATOM     51  H   LIG d   1      10.975  -8.288  -3.243  0.00  0.00     0.024 H 
ENDBRANCH   1  48
BRANCH   5  52
ATOM     52  C   LIG d   1      12.337  -3.096  -3.818  0.00  0.00    -0.047 C 
ATOM     53  H   LIG d   1      12.023  -2.386  -3.054  0.00  0.00     0.024 H 
ATOM     54  H   LIG d   1      13.192  -3.666  -3.457  0.00  0.00     0.024 H 
ATOM     55  H   LIG d   1      12.616  -2.556  -4.724  0.00  0.00     0.024 H 
ENDBRANCH   5  52
TORSDOF 4
ENDMDL
MODEL 8
REMARK VINA RESULT:      -6.7      2.450      3.859
REMARK  4 active torsions:
REMARK  status: ('A' for Active; 'I' for Inactive)
REMARK    1  A    between atoms: C_1  and  C_2 
REMARK    2  A    between atoms: C_6  and  C_29 
REMARK    3  A    between atoms: N_19  and  C_22 
REMARK    4  A    between atoms: C_22  and  C_23 
ROOT
ATOM      1  C   LIG d   1       3.114  -0.148  -9.294  0.00  0.00     0.080 C 
ATOM      2  C   LIG d   1       3.638   1.061  -8.505  0.00  0.00    -0.016 C 
ATOM      3  N   LIG d   1       5.009   0.809  -8.055  0.00  0.00     0.262 N 
ATOM      4  C   LIG d   1       5.925   0.647  -9.187  0.00  0.00    -0.016 C 
ATOM      5  C   LIG d   1       5.524  -0.586 -10.013  0.00  0.00     0.080 C 
ATOM      6  C   LIG d   1       4.081  -0.365 -10.453  0.00  0.00     0.158 C 
ATOM      7  O   LIG d   1       3.739  -0.343 -11.611  0.00  0.00    -0.296 OA
ATOM      8  C   LIG d   1       5.517  -1.810  -9.085  0.00  0.00     0.022 C 
ATOM      9  N   LIG d   1       4.609  -1.556  -7.956  0.00  0.00    -0.245 N 
ATOM     10  C   LIG d   1       3.198  -1.406  -8.414  0.00  0.00     0.022 C 
ATOM     11  C   LIG d   1       5.048  -0.378  -7.200  0.00  0.00     0.153 A 
ATOM     12  C   LIG d   1       4.212  -0.187  -5.974  0.00  0.00     0.050 A 
ATOM     13  C   LIG d   1       2.863   0.049  -5.816  0.00  0.00    -0.049 A 
ATOM     14  C   LIG d   1       2.395   0.182  -4.513  0.00  0.00    -0.061 A 
ATOM     15  C   LIG d   1       3.245   0.081  -3.431  0.00  0.00    -0.060 A 
ATOM     16  C   LIG d   1       4.601  -0.157  -3.581  0.00  0.00    -0.040 A 
ATOM     17  C   LIG d   1       5.085  -0.292  -4.884  0.00  0.00     0.048 A 
ATOM     18  N   LIG d   1       6.375  -0.529  -5.322  0.00  0.00    -0.260 N 
ATOM     19  C   LIG d   1       6.448  -0.595  -6.668  0.00  0.00     0.292 A 
ATOM     20  O   LIG d   1       7.447  -0.793  -7.328  0.00  0.00    -0.267 OA
ATOM     21  H   LIG d   1       3.623   1.943  -9.144  0.00  0.00     0.083 H 
ATOM     22  H   LIG d   1       2.998   1.232  -7.638  0.00  0.00     0.083 H 
ATOM     23  H   LIG d   1       5.881   1.535  -9.818  0.00  0.00     0.083 H 
ATOM     24  H   LIG d   1       6.940   0.518  -8.815  0.00  0.00     0.083 H 
ATOM     25  H   LIG d   1       5.174  -2.684  -9.637  0.00  0.00     0.044 H 
ATOM     26  H   LIG d   1       6.524  -1.988  -8.708  0.00  0.00     0.044 H 
ATOM     27  H   LIG d   1       2.550  -1.287  -7.545  0.00  0.00     0.044 H 
ATOM     28  H   LIG d   1       2.881  -2.276  -8.989  0.00  0.00     0.044 H 
ATOM     29  H   LIG d   1       2.200   0.128  -6.665  0.00  0.00     0.062 H 
ATOM     30  H   LIG d   1       1.344   0.369  -4.345  0.00  0.00     0.062 H 
ATOM     31  H   LIG d   1       2.840   0.191  -2.435  0.00  0.00     0.062 H 
ATOM     32  H   LIG d   1       5.257  -0.234  -2.728  0.00  0.00     0.064 H 
ATOM     33  H   LIG d   1       5.322   1.603  -7.517  0.00  0.00     0.206 HD
ENDROOT
BRANCH  18  34
ATOM     34  C   LIG d   1       7.526  -0.691  -4.432  0.00  0.00     0.045 C 
ATOM     35  H   LIG d   1       7.178  -0.880  -3.416  0.00  0.00     0.052 H 
ATOM     36  H   LIG d   1       8.132  -1.532  -4.770  0.00  0.00     0.052 H 
BRANCH  34  37
ATOM     37  C   LIG d   1       8.358   0.566  -4.452  0.00  0.00    -0.030 A 
ATOM     38  C   LIG d   1       9.607   0.559  -5.046  0.00  0.00    -0.057 A 
ATOM     39  C   LIG d   1      10.368   1.711  -5.069  0.00  0.00    -0.061 A 
ATOM     40  H   LIG d   1       9.986  -0.348  -5.495  0.00  0.00     0.062 H 
ATOM     41  C   LIG d   1       9.885   2.871  -4.490  0.00  0.00    -0.062 A 
ATOM     42  H   LIG d   1      11.342   1.707  -5.536  0.00  0.00     0.062 H 
ATOM     43  C   LIG d   1       8.639   2.877  -3.892  0.00  0.00    -0.061 A 
ATOM     44  H   LIG d   1      10.481   3.770  -4.505  0.00  0.00     0.062 H 
ATOM     45  C   LIG d   1       7.875   1.725  -3.873  0.00  0.00    -0.057 A 
ATOM     46  H   LIG d   1       8.261   3.782  -3.440  0.00  0.00     0.062 H 
ATOM     47  H   LIG d   1       6.902   1.729  -3.407  0.00  0.00     0.062 H 
ENDBRANCH  34  37
ENDBRANCH  18  34
BRANCH   1  48
ATOM     48  C   LIG d   1       1.686   0.088  -9.793  0.00  0.00    -0.047 C 
ATOM     49  H   LIG d   1       1.417   1.134  -9.641  0.00  0.00     0.024 H 
ATOM     50  H   LIG d   1       1.628  -0.152 -10.854  0.00  0.00     0.024 H 
ATOM     51  H   LIG d   1       0.998  -0.548  -9.237  0.00  0.00     0.024 H 
ENDBRANCH   1  48
BRANCH   5  52
ATOM     52  C   LIG d   1       6.453  -0.777 -11.215  0.00  0.00    -0.047 C 
ATOM     53  H   LIG d   1       7.489  -0.760 -10.879  0.00  0.00     0.024 H 
ATOM     54  H   LIG d   1       6.239  -1.734 -11.689  0.00  0.00     0.024 H 
ATOM     55  H   LIG d   1       6.289   0.029 -11.931  0.00  0.00     0.024 H 
ENDBRANCH   5  52
TORSDOF 4
ENDMDL
MODEL 9
REMARK VINA RESULT:      -6.6      2.290      4.361
REMARK  4 active torsions:
REMARK  status: ('A' for Active; 'I' for Inactive)
REMARK    1  A    between atoms: C_1  and  C_2 
REMARK    2  A    between atoms: C_6  and  C_29 
REMARK    3  A    between atoms: N_19  and  C_22 
REMARK    4  A    between atoms: C_22  and  C_23 
ROOT
ATOM      1  C   LIG d   1       3.636  -4.634 -10.650  0.00  0.00     0.080 C 
ATOM      2  C   LIG d   1       4.595  -3.461 -10.903  0.00  0.00    -0.016 C 
ATOM      3  N   LIG d   1       5.357  -3.165  -9.687  0.00  0.00     0.262 N 
ATOM      4  C   LIG d   1       6.205  -4.295  -9.296  0.00  0.00    -0.016 C 
ATOM      5  C   LIG d   1       5.332  -5.513  -8.955  0.00  0.00     0.080 C 
ATOM      6  C   LIG d   1       4.495  -5.810 -10.195  0.00  0.00     0.158 C 
ATOM      7  O   LIG d   1       4.525  -6.869 -10.775  0.00  0.00    -0.296 OA
ATOM      8  C   LIG d   1       4.347  -5.109  -7.848  0.00  0.00     0.022 C 
ATOM      9  N   LIG d   1       3.563  -3.950  -8.297  0.00  0.00    -0.245 N 
ATOM     10  C   LIG d   1       2.710  -4.289  -9.473  0.00  0.00     0.022 C 
ATOM     11  C   LIG d   1       4.447  -2.817  -8.596  0.00  0.00     0.153 A 
ATOM     12  C   LIG d   1       3.654  -1.592  -8.925  0.00  0.00     0.050 A 
ATOM     13  C   LIG d   1       2.757  -1.330  -9.938  0.00  0.00    -0.049 A 
ATOM     14  C   LIG d   1       2.185  -0.063  -9.961  0.00  0.00    -0.061 A 
ATOM     15  C   LIG d   1       2.502   0.887  -9.011  0.00  0.00    -0.060 A 
ATOM     16  C   LIG d   1       3.402   0.631  -7.990  0.00  0.00    -0.040 A 
ATOM     17  C   LIG d   1       3.985  -0.638  -7.955  0.00  0.00     0.048 A 
ATOM     18  N   LIG d   1       4.903  -1.159  -7.061  0.00  0.00    -0.260 N 
ATOM     19  C   LIG d   1       5.232  -2.434  -7.360  0.00  0.00     0.292 A 
ATOM     20  O   LIG d   1       6.010  -3.139  -6.752  0.00  0.00    -0.267 OA
ATOM     21  H   LIG d   1       5.284  -3.725 -11.706  0.00  0.00     0.083 H 
ATOM     22  H   LIG d   1       4.022  -2.581 -11.193  0.00  0.00     0.083 H 
ATOM     23  H   LIG d   1       6.873  -4.548 -10.120  0.00  0.00     0.083 H 
ATOM     24  H   LIG d   1       6.796  -4.019  -8.424  0.00  0.00     0.083 H 
ATOM     25  H   LIG d   1       3.676  -5.941  -7.636  0.00  0.00     0.044 H 
ATOM     26  H   LIG d   1       4.900  -4.847  -6.946  0.00  0.00     0.044 H 
ATOM     27  H   LIG d   1       2.096  -3.426  -9.732  0.00  0.00     0.044 H 
ATOM     28  H   LIG d   1       2.066  -5.142  -9.253  0.00  0.00     0.044 H 
ATOM     29  H   LIG d   1       2.510  -2.074 -10.681  0.00  0.00     0.062 H 
ATOM     30  H   LIG d   1       1.477   0.184 -10.740  0.00  0.00     0.062 H 
ATOM     31  H   LIG d   1       2.035   1.859  -9.066  0.00  0.00     0.062 H 
ATOM     32  H   LIG d   1       3.644   1.380  -7.251  0.00  0.00     0.064 H 
ATOM     33  H   LIG d   1       5.959  -2.377  -9.868  0.00  0.00     0.206 HD
ENDROOT
BRANCH  18  34
ATOM     34  C   LIG d   1       5.453  -0.417  -5.926  0.00  0.00     0.045 C 
ATOM     35  H   LIG d   1       6.509  -0.663  -5.806  0.00  0.00     0.052 H 
ATOM     36  H   LIG d   1       5.349   0.654  -6.107  0.00  0.00     0.052 H 
BRANCH  34  37
ATOM     37  C   LIG d   1       4.705  -0.788  -4.671  0.00  0.00    -0.030 A 
ATOM     38  C   LIG d   1       3.403  -0.357  -4.490  0.00  0.00    -0.057 A 
ATOM     39  C   LIG d   1       2.715  -0.701  -3.343  0.00  0.00    -0.061 A 
ATOM     40  H   LIG d   1       2.924   0.246  -5.248  0.00  0.00     0.062 H 
ATOM     41  C   LIG d   1       3.330  -1.469  -2.371  0.00  0.00    -0.062 A 
ATOM     42  H   LIG d   1       1.698  -0.367  -3.203  0.00  0.00     0.062 H 
ATOM     43  C   LIG d   1       4.632  -1.896  -2.550  0.00  0.00    -0.061 A 
ATOM     44  H   LIG d   1       2.793  -1.735  -1.474  0.00  0.00     0.062 H 
ATOM     45  C   LIG d   1       5.320  -1.556  -3.701  0.00  0.00    -0.057 A 
ATOM     46  H   LIG d   1       5.113  -2.496  -1.792  0.00  0.00     0.062 H 
ATOM     47  H   LIG d   1       6.337  -1.889  -3.841  0.00  0.00     0.062 H 
ENDBRANCH  34  37
ENDBRANCH  18  34
BRANCH   1  48
ATOM     48  C   LIG d   1       2.835  -4.979 -11.907  0.00  0.00    -0.047 C 
ATOM     49  H   LIG d   1       1.837  -4.546 -11.832  0.00  0.00     0.024 H 
ATOM     50  H   LIG d   1       3.342  -4.577 -12.783  0.00  0.00     0.024 H 
ATOM     51  H   LIG d   1       2.754  -6.062 -11.999  0.00  0.00     0.024 H 
ENDBRANCH   1  48
BRANCH   5  52
ATOM     52  C   LIG d   1       6.188  -6.718  -8.557  0.00  0.00    -0.047 C 
ATOM     53  H   LIG d   1       7.241  -6.480  -8.705  0.00  0.00     0.024 H 
ATOM     54  H   LIG d   1       6.012  -6.957  -7.509  0.00  0.00     0.024 H 
ATOM     55  H   LIG d   1       5.918  -7.574  -9.175  0.00  0.00     0.024 H 
ENDBRANCH   5  52
TORSDOF 4
ENDMDL
MODEL 10
REMARK VINA RESULT:      -6.6      3.026      5.199
REMARK  4 active torsions:
REMARK  status: ('A' for Active; 'I' for Inactive)
REMARK    1  A    between atoms: C_1  and  C_2 
REMARK    2  A    between atoms: C_6  and  C_29 
REMARK    3  A    between atoms: N_19  and  C_22 
REMARK    4  A    between atoms: C_22  and  C_23 
ROOT
ATOM      1  C   LIG d   1       8.573   1.149  -9.327  0.00  0.00     0.080 C 
ATOM      2  C   LIG d   1       9.588   0.548  -8.343  0.00  0.00    -0.016 C 
ATOM      3  N   LIG d   1       8.921  -0.412  -7.460  0.00  0.00     0.262 N 
ATOM      4  C   LIG d   1       8.378  -1.546  -8.212  0.00  0.00    -0.016 C 
ATOM      5  C   LIG d   1       7.297  -1.058  -9.189  0.00  0.00     0.080 C 
ATOM      6  C   LIG d   1       7.960  -0.021 -10.090  0.00  0.00     0.158 C 
ATOM      7  O   LIG d   1       8.013  -0.126 -11.292  0.00  0.00    -0.296 OA
ATOM      8  C   LIG d   1       6.217  -0.316  -8.387  0.00  0.00     0.022 C 
ATOM      9  N   LIG d   1       6.843   0.779  -7.631  0.00  0.00    -0.245 N 
ATOM     10  C   LIG d   1       7.428   1.806  -8.541  0.00  0.00     0.022 C 
ATOM     11  C   LIG d   1       7.855   0.251  -6.709  0.00  0.00     0.153 A 
ATOM     12  C   LIG d   1       8.404   1.339  -5.839  0.00  0.00     0.050 A 
ATOM     13  C   LIG d   1       9.093   2.492  -6.145  0.00  0.00    -0.049 A 
ATOM     14  C   LIG d   1       9.469   3.303  -5.080  0.00  0.00    -0.061 A 
ATOM     15  C   LIG d   1       9.165   2.965  -3.777  0.00  0.00    -0.060 A 
ATOM     16  C   LIG d   1       8.473   1.807  -3.462  0.00  0.00    -0.040 A 
ATOM     17  C   LIG d   1       8.089   0.983  -4.522  0.00  0.00     0.048 A 
ATOM     18  N   LIG d   1       7.399  -0.215  -4.498  0.00  0.00    -0.260 N 
ATOM     19  C   LIG d   1       7.216  -0.718  -5.738  0.00  0.00     0.292 A 
ATOM     20  O   LIG d   1       6.646  -1.751  -6.020  0.00  0.00    -0.267 OA
ATOM     21  H   LIG d   1      10.375   0.041  -8.900  0.00  0.00     0.083 H 
ATOM     22  H   LIG d   1      10.027   1.346  -7.743  0.00  0.00     0.083 H 
ATOM     23  H   LIG d   1       9.180  -2.027  -8.772  0.00  0.00     0.083 H 
ATOM     24  H   LIG d   1       7.941  -2.264  -7.519  0.00  0.00     0.083 H 
ATOM     25  H   LIG d   1       5.473   0.094  -9.070  0.00  0.00     0.044 H 
ATOM     26  H   LIG d   1       5.736  -1.007  -7.696  0.00  0.00     0.044 H 
ATOM     27  H   LIG d   1       7.820   2.630  -7.945  0.00  0.00     0.044 H 
ATOM     28  H   LIG d   1       6.677   2.184  -9.235  0.00  0.00     0.044 H 
ATOM     29  H   LIG d   1       9.330   2.755  -7.166  0.00  0.00     0.062 H 
ATOM     30  H   LIG d   1      10.011   4.217  -5.277  0.00  0.00     0.062 H 
ATOM     31  H   LIG d   1       9.476   3.623  -2.979  0.00  0.00     0.062 H 
ATOM     32  H   LIG d   1       8.239   1.552  -2.439  0.00  0.00     0.064 H 
ATOM     33  H   LIG d   1       9.598  -0.773  -6.806  0.00  0.00     0.206 HD
ENDROOT
BRANCH  18  34
ATOM     34  C   LIG d   1       6.922  -0.862  -3.274  0.00  0.00     0.045 C 
ATOM     35  H   LIG d   1       7.045  -1.942  -3.362  0.00  0.00     0.052 H 
ATOM     36  H   LIG d   1       7.500  -0.499  -2.423  0.00  0.00     0.052 H 
BRANCH  34  37
ATOM     37  C   LIG d   1       5.465  -0.537  -3.068  0.00  0.00    -0.030 A 
ATOM     38  C   LIG d   1       5.091   0.734  -2.672  0.00  0.00    -0.057 A 
ATOM     39  C   LIG d   1       3.755   1.035  -2.486  0.00  0.00    -0.061 A 
ATOM     40  H   LIG d   1       5.843   1.493  -2.512  0.00  0.00     0.062 H 
ATOM     41  C   LIG d   1       2.793   0.061  -2.687  0.00  0.00    -0.062 A 
ATOM     42  H   LIG d   1       3.462   2.028  -2.182  0.00  0.00     0.062 H 
ATOM     43  C   LIG d   1       3.168  -1.210  -3.077  0.00  0.00    -0.061 A 
ATOM     44  H   LIG d   1       1.750   0.296  -2.539  0.00  0.00     0.062 H 
ATOM     45  C   LIG d   1       4.504  -1.510  -3.268  0.00  0.00    -0.057 A 
ATOM     46  H   LIG d   1       2.417  -1.970  -3.234  0.00  0.00     0.062 H 
ATOM     47  H   LIG d   1       4.797  -2.503  -3.572  0.00  0.00     0.062 H 
ENDBRANCH  34  37
ENDBRANCH  18  34
BRANCH   1  48
ATOM     48  C   LIG d   1       9.241   2.147 -10.276  0.00  0.00    -0.047 C 
ATOM     49  H   LIG d   1      10.316   2.156 -10.095  0.00  0.00     0.024 H 
ATOM     50  H   LIG d   1       9.048   1.853 -11.307  0.00  0.00     0.024 H 
ATOM     51  H   LIG d   1       8.835   3.143 -10.099  0.00  0.00     0.024 H 
ENDBRANCH   1  48
BRANCH   5  52
ATOM     52  C   LIG d   1       6.717  -2.217 -10.004  0.00  0.00    -0.047 C 
ATOM     53  H   LIG d   1       6.937  -3.158  -9.502  0.00  0.00     0.024 H 
ATOM     54  H   LIG d   1       5.639  -2.094 -10.093  0.00  0.00     0.024 H 
ATOM     55  H   LIG d   1       7.166  -2.221 -10.998  0.00  0.00     0.024 H 
ENDBRANCH   5  52
TORSDOF 4
ENDMDL
