MODEL 1
REMARK VINA RESULT:      -6.9      0.000      0.000
REMARK  6 active torsions:
REMARK  status: ('A' for Active; 'I' for Inactive)
REMARK    1  A    between atoms: C_2  and  C_3 
REMARK    2  A    between atoms: N_6  and  C_27 
REMARK    3  A    between atoms: C_12  and  C_14 
REMARK    4  A    between atoms: C_14  and  C_16 
REMARK    5  A    between atoms: C_14  and  O_26 
REMARK    6  A    between atoms: C_27  and  C_28 
ROOT
ATOM      1  C   LIG d   1       4.891  -4.488  -8.144  0.00  0.00     0.020 C 
ATOM      2  H   LIG d   1       4.207  -5.017  -8.807  0.00  0.00     0.040 H 
ATOM      3  C   LIG d   1       4.147  -3.354  -7.438  0.00  0.00    -0.023 C 
ATOM      4  N   LIG d   1       4.765  -2.067  -7.766  0.00  0.00     0.251 N 
ATOM      5  C   LIG d   1       4.691  -1.812  -9.206  0.00  0.00    -0.029 C 
ATOM      6  C   LIG d   1       5.454  -2.896  -9.971  0.00  0.00    -0.009 C 
ATOM      7  C   LIG d   1       6.043  -3.891  -8.963  0.00  0.00    -0.020 C 
ATOM      8  H   LIG d   1       6.585  -4.680  -9.484  0.00  0.00     0.031 H 
ATOM      9  C   LIG d   1       6.965  -3.125  -8.009  0.00  0.00    -0.003 C 
ATOM     10  C   LIG d   1       6.156  -2.031  -7.307  0.00  0.00     0.012 C 
ATOM     11  H   LIG d   1       6.588  -1.058  -7.537  0.00  0.00     0.088 H 
ATOM     12  H   LIG d   1       4.189  -3.510  -6.359  0.00  0.00     0.082 H 
ATOM     13  H   LIG d   1       3.106  -3.347  -7.761  0.00  0.00     0.082 H 
ATOM     14  H   LIG d   1       3.647  -1.814  -9.520  0.00  0.00     0.082 H 
ATOM     15  H   LIG d   1       5.130  -0.839  -9.424  0.00  0.00     0.082 H 
ATOM     16  H   LIG d   1       6.259  -2.440 -10.547  0.00  0.00     0.032 H 
ATOM     17  H   LIG d   1       4.774  -3.418 -10.644  0.00  0.00     0.032 H 
ATOM     18  H   LIG d   1       7.778  -2.671  -8.576  0.00  0.00     0.032 H 
ATOM     19  H   LIG d   1       7.373  -3.811  -7.267  0.00  0.00     0.032 H 
ENDROOT
BRANCH  10  20
ATOM     20  C   LIG d   1       6.198  -2.261  -5.795  0.00  0.00     0.123 C 
ATOM     21  H   LIG d   1       5.245  -2.675  -5.464  0.00  0.00     0.070 H 
BRANCH  20  22
ATOM     22  C   LIG d   1       6.446  -0.950  -5.095  0.00  0.00    -0.003 A 
ATOM     23  C   LIG d   1       5.693  -0.579  -3.965  0.00  0.00     0.006 A 
ATOM     24  C   LIG d   1       5.962   0.664  -3.338  0.00  0.00     0.071 A 
ATOM     25  C   LIG d   1       4.690  -1.415  -3.448  0.00  0.00    -0.052 A 
ATOM     26  N   LIG d   1       6.919   1.460  -3.824  0.00  0.00    -0.255 NA
ATOM     27  C   LIG d   1       5.211   1.036  -2.210  0.00  0.00    -0.036 A 
ATOM     28  C   LIG d   1       7.623   1.118  -4.875  0.00  0.00     0.029 A 
ATOM     29  C   LIG d   1       7.410  -0.089  -5.538  0.00  0.00    -0.037 A 
ATOM     30  H   LIG d   1       8.389   1.788  -5.237  0.00  0.00     0.083 H 
ATOM     31  H   LIG d   1       8.006  -0.344  -6.402  0.00  0.00     0.064 H 
ATOM     32  C   LIG d   1       4.243   0.204  -1.739  0.00  0.00    -0.060 A 
ATOM     33  H   LIG d   1       5.401   1.979  -1.720  0.00  0.00     0.064 H 
ATOM     34  C   LIG d   1       3.981  -1.017  -2.356  0.00  0.00    -0.061 A 
ATOM     35  H   LIG d   1       3.669   0.495  -0.871  0.00  0.00     0.062 H 
ATOM     36  H   LIG d   1       3.207  -1.659  -1.961  0.00  0.00     0.062 H 
ATOM     37  H   LIG d   1       4.481  -2.366  -3.915  0.00  0.00     0.062 H 
ENDBRANCH  20  22
BRANCH  20  38
ATOM     38  O   LIG d   1       7.249  -3.176  -5.480  0.00  0.00    -0.382 OA
ATOM     39  H   LIG d   1       8.088  -2.750  -5.256  0.00  0.00     0.210 HD
ENDBRANCH  20  38
ENDBRANCH  10  20
BRANCH   4  40
ATOM     40  C   LIG d   1       4.022  -1.004  -7.077  0.00  0.00    -0.004 C 
ATOM     41  H   LIG d   1       2.991  -1.324  -6.921  0.00  0.00     0.087 H 
ATOM     42  H   LIG d   1       4.488  -0.799  -6.114  0.00  0.00     0.087 H 
BRANCH  40  43
ATOM     43  C   LIG d   1       4.036   0.245  -7.920  0.00  0.00    -0.003 A 
ATOM     44  C   LIG d   1       2.847   0.825  -8.319  0.00  0.00    -0.053 A 
ATOM     45  C   LIG d   1       2.860   1.970  -9.092  0.00  0.00    -0.061 A 
ATOM     46  H   LIG d   1       1.905   0.381  -8.027  0.00  0.00     0.062 H 
ATOM     47  C   LIG d   1       4.065   2.537  -9.466  0.00  0.00    -0.062 A 
ATOM     48  H   LIG d   1       1.931   2.422  -9.404  0.00  0.00     0.062 H 
ATOM     49  C   LIG d   1       5.255   1.959  -9.066  0.00  0.00    -0.061 A 
ATOM     50  H   LIG d   1       4.075   3.432 -10.070  0.00  0.00     0.062 H 
ATOM     51  C   LIG d   1       5.240   0.816  -8.289  0.00  0.00    -0.053 A 
ATOM     52  H   LIG d   1       6.195   2.402  -9.358  0.00  0.00     0.062 H 
ATOM     53  H   LIG d   1       6.170   0.365  -7.974  0.00  0.00     0.062 H 
ENDBRANCH  40  43
ENDBRANCH   4  40
BRANCH   1  54
ATOM     54  C   LIG d   1       5.441  -5.447  -7.118  0.00  0.00    -0.083 C 
ATOM     55  C   LIG d   1       4.760  -5.701  -6.028  0.00  0.00    -0.102 C 
ATOM     56  H   LIG d   1       3.806  -5.224  -5.864  0.00  0.00     0.053 H 
ATOM     57  H   LIG d   1       5.155  -6.388  -5.293  0.00  0.00     0.053 H 
ATOM     58  H   LIG d   1       6.396  -5.924  -7.283  0.00  0.00     0.057 H 
ENDBRANCH   1  54
TORSDOF 6
ENDMDL
MODEL 2
REMARK VINA RESULT:      -6.7      2.120      6.290
REMARK  6 active torsions:
REMARK  status: ('A' for Active; 'I' for Inactive)
REMARK    1  A    between atoms: C_2  and  C_3 
REMARK    2  A    between atoms: N_6  and  C_27 
REMARK    3  A    between atoms: C_12  and  C_14 
REMARK    4  A    between atoms: C_14  and  C_16 
REMARK    5  A    between atoms: C_14  and  O_26 
REMARK    6  A    between atoms: C_27  and  C_28 
ROOT
ATOM      1  C   LIG d   1       4.802  -1.773  -2.966  0.00  0.00     0.020 C 
ATOM      2  H   LIG d   1       4.803  -2.432  -2.097  0.00  0.00     0.040 H 
ATOM      3  C   LIG d   1       4.532  -2.591  -4.230  0.00  0.00    -0.023 C 
ATOM      4  N   LIG d   1       5.658  -2.467  -5.158  0.00  0.00     0.251 N 
ATOM      5  C   LIG d   1       6.886  -2.987  -4.552  0.00  0.00    -0.029 C 
ATOM      6  C   LIG d   1       7.234  -2.182  -3.298  0.00  0.00    -0.009 C 
ATOM      7  C   LIG d   1       6.171  -1.093  -3.098  0.00  0.00    -0.020 C 
ATOM      8  H   LIG d   1       6.391  -0.510  -2.204  0.00  0.00     0.031 H 
ATOM      9  C   LIG d   1       6.149  -0.205  -4.346  0.00  0.00    -0.003 C 
ATOM     10  C   LIG d   1       5.837  -1.072  -5.568  0.00  0.00     0.012 C 
ATOM     11  H   LIG d   1       6.662  -1.006  -6.277  0.00  0.00     0.088 H 
ATOM     12  H   LIG d   1       3.625  -2.224  -4.711  0.00  0.00     0.082 H 
ATOM     13  H   LIG d   1       4.399  -3.639  -3.961  0.00  0.00     0.082 H 
ATOM     14  H   LIG d   1       6.740  -4.033  -4.281  0.00  0.00     0.082 H 
ATOM     15  H   LIG d   1       7.703  -2.911  -5.268  0.00  0.00     0.082 H 
ATOM     16  H   LIG d   1       8.212  -1.718  -3.420  0.00  0.00     0.032 H 
ATOM     17  H   LIG d   1       7.249  -2.841  -2.430  0.00  0.00     0.032 H 
ATOM     18  H   LIG d   1       7.122   0.269  -4.472  0.00  0.00     0.032 H 
ATOM     19  H   LIG d   1       5.380   0.560  -4.235  0.00  0.00     0.032 H 
ENDROOT
BRANCH  10  20
ATOM     20  C   LIG d   1       4.554  -0.570  -6.233  0.00  0.00     0.123 C 
ATOM     21  H   LIG d   1       3.819  -1.375  -6.258  0.00  0.00     0.070 H 
BRANCH  20  22
ATOM     22  C   LIG d   1       4.859  -0.123  -7.639  0.00  0.00    -0.003 A 
ATOM     23  C   LIG d   1       3.902  -0.251  -8.663  0.00  0.00     0.006 A 
ATOM     24  C   LIG d   1       4.232   0.183  -9.971  0.00  0.00     0.071 A 
ATOM     25  C   LIG d   1       2.631  -0.794  -8.412  0.00  0.00    -0.052 A 
ATOM     26  N   LIG d   1       5.439   0.705 -10.214  0.00  0.00    -0.255 NA
ATOM     27  C   LIG d   1       3.277   0.055 -10.995  0.00  0.00    -0.036 A 
ATOM     28  C   LIG d   1       6.333   0.827  -9.263  0.00  0.00     0.029 A 
ATOM     29  C   LIG d   1       6.072   0.420  -7.956  0.00  0.00    -0.037 A 
ATOM     30  H   LIG d   1       7.296   1.254  -9.498  0.00  0.00     0.083 H 
ATOM     31  H   LIG d   1       6.829   0.533  -7.193  0.00  0.00     0.064 H 
ATOM     32  C   LIG d   1       2.057  -0.480 -10.718  0.00  0.00    -0.060 A 
ATOM     33  H   LIG d   1       3.511   0.380 -11.998  0.00  0.00     0.064 H 
ATOM     34  C   LIG d   1       1.734  -0.906  -9.431  0.00  0.00    -0.061 A 
ATOM     35  H   LIG d   1       1.327  -0.576 -11.508  0.00  0.00     0.062 H 
ATOM     36  H   LIG d   1       0.759  -1.326  -9.237  0.00  0.00     0.062 H 
ATOM     37  H   LIG d   1       2.367  -1.123  -7.418  0.00  0.00     0.062 H 
ENDBRANCH  20  22
BRANCH  20  38
ATOM     38  O   LIG d   1       4.029   0.530  -5.486  0.00  0.00    -0.382 OA
ATOM     39  H   LIG d   1       4.671   1.235  -5.319  0.00  0.00     0.210 HD
ENDBRANCH  20  38
ENDBRANCH  10  20
BRANCH   4  40
ATOM     40  C   LIG d   1       5.367  -3.268  -6.353  0.00  0.00    -0.004 C 
ATOM     41  H   LIG d   1       4.320  -3.141  -6.630  0.00  0.00     0.087 H 
ATOM     42  H   LIG d   1       6.002  -2.940  -7.175  0.00  0.00     0.087 H 
BRANCH  40  43
ATOM     43  C   LIG d   1       5.634  -4.722  -6.061  0.00  0.00    -0.003 A 
ATOM     44  C   LIG d   1       4.592  -5.563  -5.720  0.00  0.00    -0.053 A 
ATOM     45  C   LIG d   1       4.837  -6.896  -5.452  0.00  0.00    -0.061 A 
ATOM     46  H   LIG d   1       3.583  -5.177  -5.665  0.00  0.00     0.062 H 
ATOM     47  C   LIG d   1       6.127  -7.389  -5.523  0.00  0.00    -0.062 A 
ATOM     48  H   LIG d   1       4.022  -7.553  -5.185  0.00  0.00     0.062 H 
ATOM     49  C   LIG d   1       7.170  -6.549  -5.864  0.00  0.00    -0.061 A 
ATOM     50  H   LIG d   1       6.318  -8.431  -5.312  0.00  0.00     0.062 H 
ATOM     51  C   LIG d   1       6.923  -5.217  -6.137  0.00  0.00    -0.053 A 
ATOM     52  H   LIG d   1       8.177  -6.935  -5.920  0.00  0.00     0.062 H 
ATOM     53  H   LIG d   1       7.738  -4.561  -6.407  0.00  0.00     0.062 H 
ENDBRANCH  40  43
ENDBRANCH   4  40
BRANCH   1  54
ATOM     54  C   LIG d   1       3.729  -0.726  -2.802  0.00  0.00    -0.083 C 
ATOM     55  C   LIG d   1       2.478  -1.028  -3.047  0.00  0.00    -0.102 C 
ATOM     56  H   LIG d   1       2.215  -2.026  -3.365  0.00  0.00     0.053 H 
ATOM     57  H   LIG d   1       1.709  -0.277  -2.930  0.00  0.00     0.053 H 
ATOM     58  H   LIG d   1       3.993   0.271  -2.484  0.00  0.00     0.057 H 
ENDBRANCH   1  54
TORSDOF 6
ENDMDL
MODEL 3
REMARK VINA RESULT:      -6.7      1.650      2.315
REMARK  6 active torsions:
REMARK  status: ('A' for Active; 'I' for Inactive)
REMARK    1  A    between atoms: C_2  and  C_3 
REMARK    2  A    between atoms: N_6  and  C_27 
REMARK    3  A    between atoms: C_12  and  C_14 
REMARK    4  A    between atoms: C_14  and  C_16 
REMARK    5  A    between atoms: C_14  and  O_26 
REMARK    6  A    between atoms: C_27  and  C_28 
ROOT
ATOM      1  C   LIG d   1       4.132  -2.969  -9.855  0.00  0.00     0.020 C 
ATOM      2  H   LIG d   1       3.982  -2.722 -10.906  0.00  0.00     0.040 H 
ATOM      3  C   LIG d   1       4.409  -1.690  -9.062  0.00  0.00    -0.023 C 
ATOM      4  N   LIG d   1       5.726  -1.768  -8.427  0.00  0.00     0.251 N 
ATOM      5  C   LIG d   1       6.779  -1.896  -9.437  0.00  0.00    -0.029 C 
ATOM      6  C   LIG d   1       6.581  -3.182 -10.241  0.00  0.00    -0.009 C 
ATOM      7  C   LIG d   1       5.337  -3.909  -9.714  0.00  0.00    -0.020 C 
ATOM      8  H   LIG d   1       5.168  -4.826 -10.278  0.00  0.00     0.031 H 
ATOM      9  C   LIG d   1       5.545  -4.206  -8.226  0.00  0.00    -0.003 C 
ATOM     10  C   LIG d   1       5.778  -2.888  -7.483  0.00  0.00     0.012 C 
ATOM     11  H   LIG d   1       6.756  -2.912  -7.004  0.00  0.00     0.088 H 
ATOM     12  H   LIG d   1       3.644  -1.568  -8.295  0.00  0.00     0.082 H 
ATOM     13  H   LIG d   1       4.384  -0.834  -9.737  0.00  0.00     0.082 H 
ATOM     14  H   LIG d   1       6.741  -1.039 -10.109  0.00  0.00     0.082 H 
ATOM     15  H   LIG d   1       7.751  -1.924  -8.944  0.00  0.00     0.082 H 
ATOM     16  H   LIG d   1       7.454  -3.824 -10.127  0.00  0.00     0.032 H 
ATOM     17  H   LIG d   1       6.443  -2.939 -11.295  0.00  0.00     0.032 H 
ATOM     18  H   LIG d   1       6.412  -4.854  -8.103  0.00  0.00     0.032 H 
ATOM     19  H   LIG d   1       4.659  -4.699  -7.825  0.00  0.00     0.032 H 
ENDROOT
BRANCH  10  20
ATOM     20  C   LIG d   1       4.694  -2.706  -6.420  0.00  0.00     0.123 C 
ATOM     21  H   LIG d   1       3.994  -1.934  -6.743  0.00  0.00     0.070 H 
BRANCH  20  22
ATOM     22  C   LIG d   1       5.332  -2.293  -5.119  0.00  0.00    -0.003 A 
ATOM     23  C   LIG d   1       4.670  -1.424  -4.232  0.00  0.00     0.006 A 
ATOM     24  C   LIG d   1       5.308  -1.063  -3.019  0.00  0.00     0.071 A 
ATOM     25  C   LIG d   1       3.393  -0.916  -4.522  0.00  0.00    -0.052 A 
ATOM     26  N   LIG d   1       6.521  -1.548  -2.735  0.00  0.00    -0.255 NA
ATOM     27  C   LIG d   1       4.648  -0.195  -2.131  0.00  0.00    -0.036 A 
ATOM     28  C   LIG d   1       7.141  -2.358  -3.559  0.00  0.00     0.029 A 
ATOM     29  C   LIG d   1       6.570  -2.752  -4.767  0.00  0.00    -0.037 A 
ATOM     30  H   LIG d   1       8.120  -2.729  -3.294  0.00  0.00     0.083 H 
ATOM     31  H   LIG d   1       7.105  -3.421  -5.425  0.00  0.00     0.064 H 
ATOM     32  C   LIG d   1       3.413   0.283  -2.447  0.00  0.00    -0.060 A 
ATOM     33  H   LIG d   1       5.119   0.092  -1.203  0.00  0.00     0.064 H 
ATOM     34  C   LIG d   1       2.787  -0.074  -3.640  0.00  0.00    -0.061 A 
ATOM     35  H   LIG d   1       2.910   0.949  -1.762  0.00  0.00     0.062 H 
ATOM     36  H   LIG d   1       1.807   0.319  -3.866  0.00  0.00     0.062 H 
ATOM     37  H   LIG d   1       2.896  -1.189  -5.441  0.00  0.00     0.062 H 
ENDBRANCH  20  22
BRANCH  20  38
ATOM     38  O   LIG d   1       3.993  -3.938  -6.237  0.00  0.00    -0.382 OA
ATOM     39  H   LIG d   1       3.535  -4.008  -5.388  0.00  0.00     0.210 HD
ENDBRANCH  20  38
ENDBRANCH  10  20
BRANCH   4  40
ATOM     40  C   LIG d   1       5.959  -0.524  -7.683  0.00  0.00    -0.004 C 
ATOM     41  H   LIG d   1       5.812  -0.705  -6.618  0.00  0.00     0.087 H 
ATOM     42  H   LIG d   1       6.979  -0.181  -7.856  0.00  0.00     0.087 H 
BRANCH  40  43
ATOM     43  C   LIG d   1       4.989   0.530  -8.150  0.00  0.00    -0.003 A 
ATOM     44  C   LIG d   1       5.400   1.503  -9.042  0.00  0.00    -0.053 A 
ATOM     45  C   LIG d   1       4.510   2.470  -9.471  0.00  0.00    -0.061 A 
ATOM     46  H   LIG d   1       6.419   1.507  -9.404  0.00  0.00     0.062 H 
ATOM     47  C   LIG d   1       3.207   2.463  -9.007  0.00  0.00    -0.062 A 
ATOM     48  H   LIG d   1       4.832   3.229 -10.167  0.00  0.00     0.062 H 
ATOM     49  C   LIG d   1       2.795   1.490  -8.117  0.00  0.00    -0.061 A 
ATOM     50  H   LIG d   1       2.512   3.219  -9.342  0.00  0.00     0.062 H 
ATOM     51  C   LIG d   1       3.685   0.521  -7.692  0.00  0.00    -0.053 A 
ATOM     52  H   LIG d   1       1.778   1.485  -7.755  0.00  0.00     0.062 H 
ATOM     53  H   LIG d   1       3.362  -0.241  -6.998  0.00  0.00     0.062 H 
ENDBRANCH  40  43
ENDBRANCH   4  40
BRANCH   1  54
ATOM     54  C   LIG d   1       2.897  -3.642  -9.313  0.00  0.00    -0.083 C 
ATOM     55  C   LIG d   1       2.231  -4.487 -10.060  0.00  0.00    -0.102 C 
ATOM     56  H   LIG d   1       2.566  -4.701 -11.064  0.00  0.00     0.053 H 
ATOM     57  H   LIG d   1       1.345  -4.969  -9.671  0.00  0.00     0.053 H 
ATOM     58  H   LIG d   1       2.562  -3.427  -8.309  0.00  0.00     0.057 H 
ENDBRANCH   1  54
TORSDOF 6
ENDMDL
MODEL 4
REMARK VINA RESULT:      -6.5      1.890      5.921
REMARK  6 active torsions:
REMARK  status: ('A' for Active; 'I' for Inactive)
REMARK    1  A    between atoms: C_2  and  C_3 
REMARK    2  A    between atoms: N_6  and  C_27 
REMARK    3  A    between atoms: C_12  and  C_14 
REMARK    4  A    between atoms: C_14  and  C_16 
REMARK    5  A    between atoms: C_14  and  O_26 
REMARK    6  A    between atoms: C_27  and  C_28 
ROOT
ATOM      1  C   LIG d   1       8.228  -0.523  -4.917  0.00  0.00     0.020 C 
ATOM      2  H   LIG d   1       8.711  -0.196  -3.996  0.00  0.00     0.040 H 
ATOM      3  C   LIG d   1       6.731  -0.713  -4.673  0.00  0.00    -0.023 C 
ATOM      4  N   LIG d   1       6.350  -2.101  -4.943  0.00  0.00     0.251 N 
ATOM      5  C   LIG d   1       7.061  -3.015  -4.045  0.00  0.00    -0.029 C 
ATOM      6  C   LIG d   1       8.570  -2.901  -4.269  0.00  0.00    -0.009 C 
ATOM      7  C   LIG d   1       8.831  -1.861  -5.366  0.00  0.00    -0.020 C 
ATOM      8  H   LIG d   1       9.902  -1.754  -5.539  0.00  0.00     0.031 H 
ATOM      9  C   LIG d   1       8.108  -2.310  -6.640  0.00  0.00    -0.003 C 
ATOM     10  C   LIG d   1       6.613  -2.445  -6.343  0.00  0.00     0.012 C 
ATOM     11  H   LIG d   1       6.299  -3.472  -6.528  0.00  0.00     0.088 H 
ATOM     12  H   LIG d   1       6.170  -0.050  -5.332  0.00  0.00     0.082 H 
ATOM     13  H   LIG d   1       6.499  -0.470  -3.635  0.00  0.00     0.082 H 
ATOM     14  H   LIG d   1       6.828  -2.759  -3.012  0.00  0.00     0.082 H 
ATOM     15  H   LIG d   1       6.742  -4.037  -4.244  0.00  0.00     0.082 H 
ATOM     16  H   LIG d   1       8.968  -3.867  -4.580  0.00  0.00     0.032 H 
ATOM     17  H   LIG d   1       9.056  -2.587  -3.345  0.00  0.00     0.032 H 
ATOM     18  H   LIG d   1       8.505  -3.272  -6.963  0.00  0.00     0.032 H 
ATOM     19  H   LIG d   1       8.259  -1.569  -7.426  0.00  0.00     0.032 H 
ENDROOT
BRANCH  10  20
ATOM     20  C   LIG d   1       5.827  -1.500  -7.254  0.00  0.00     0.123 C 
ATOM     21  H   LIG d   1       5.318  -0.751  -6.647  0.00  0.00     0.070 H 
BRANCH  20  22
ATOM     22  C   LIG d   1       4.808  -2.290  -8.035  0.00  0.00    -0.003 A 
ATOM     23  C   LIG d   1       3.700  -1.655  -8.627  0.00  0.00     0.006 A 
ATOM     24  C   LIG d   1       2.767  -2.437  -9.353  0.00  0.00     0.071 A 
ATOM     25  C   LIG d   1       3.506  -0.269  -8.516  0.00  0.00    -0.052 A 
ATOM     26  N   LIG d   1       2.951  -3.756  -9.466  0.00  0.00    -0.255 NA
ATOM     27  C   LIG d   1       1.660  -1.805  -9.945  0.00  0.00    -0.036 A 
ATOM     28  C   LIG d   1       3.982  -4.351  -8.917  0.00  0.00     0.029 A 
ATOM     29  C   LIG d   1       4.935  -3.641  -8.190  0.00  0.00    -0.037 A 
ATOM     30  H   LIG d   1       4.096  -5.419  -9.031  0.00  0.00     0.083 H 
ATOM     31  H   LIG d   1       5.775  -4.159  -7.749  0.00  0.00     0.064 H 
ATOM     32  C   LIG d   1       1.500  -0.460  -9.813  0.00  0.00    -0.060 A 
ATOM     33  H   LIG d   1       0.939  -2.384 -10.501  0.00  0.00     0.064 H 
ATOM     34  C   LIG d   1       2.418   0.307  -9.099  0.00  0.00    -0.061 A 
ATOM     35  H   LIG d   1       0.647   0.021 -10.269  0.00  0.00     0.062 H 
ATOM     36  H   LIG d   1       2.268   1.373  -9.009  0.00  0.00     0.062 H 
ATOM     37  H   LIG d   1       4.213   0.337  -7.968  0.00  0.00     0.062 H 
ENDBRANCH  20  22
BRANCH  20  38
ATOM     38  O   LIG d   1       6.724  -0.854  -8.158  0.00  0.00    -0.382 OA
ATOM     39  H   LIG d   1       7.361  -0.266  -7.728  0.00  0.00     0.210 HD
ENDBRANCH  20  38
ENDBRANCH  10  20
BRANCH   4  40
ATOM     40  C   LIG d   1       4.910  -2.247  -4.692  0.00  0.00    -0.004 C 
ATOM     41  H   LIG d   1       4.375  -2.253  -5.642  0.00  0.00     0.087 H 
ATOM     42  H   LIG d   1       4.725  -3.182  -4.164  0.00  0.00     0.087 H 
BRANCH  40  43
ATOM     43  C   LIG d   1       4.427  -1.092  -3.853  0.00  0.00    -0.003 A 
ATOM     44  C   LIG d   1       3.675  -0.085  -4.428  0.00  0.00    -0.053 A 
ATOM     45  C   LIG d   1       3.232   0.974  -3.659  0.00  0.00    -0.061 A 
ATOM     46  H   LIG d   1       3.433  -0.127  -5.481  0.00  0.00     0.062 H 
ATOM     47  C   LIG d   1       3.543   1.027  -2.312  0.00  0.00    -0.062 A 
ATOM     48  H   LIG d   1       2.646   1.761  -4.109  0.00  0.00     0.062 H 
ATOM     49  C   LIG d   1       4.294   0.020  -1.736  0.00  0.00    -0.061 A 
ATOM     50  H   LIG d   1       3.198   1.855  -1.711  0.00  0.00     0.062 H 
ATOM     51  C   LIG d   1       4.733  -1.041  -2.505  0.00  0.00    -0.053 A 
ATOM     52  H   LIG d   1       4.537   0.062  -0.685  0.00  0.00     0.062 H 
ATOM     53  H   LIG d   1       5.317  -1.830  -2.055  0.00  0.00     0.062 H 
ENDBRANCH  40  43
ENDBRANCH   4  40
BRANCH   1  54
ATOM     54  C   LIG d   1       8.438   0.515  -5.991  0.00  0.00    -0.083 C 
ATOM     55  C   LIG d   1       8.414   1.788  -5.684  0.00  0.00    -0.102 C 
ATOM     56  H   LIG d   1       8.244   2.095  -4.663  0.00  0.00     0.053 H 
ATOM     57  H   LIG d   1       8.564   2.531  -6.454  0.00  0.00     0.053 H 
ATOM     58  H   LIG d   1       8.608   0.207  -7.012  0.00  0.00     0.057 H 
ENDBRANCH   1  54
TORSDOF 6
ENDMDL
MODEL 5
REMARK VINA RESULT:      -6.5      2.255      4.898
REMARK  6 active torsions:
REMARK  status: ('A' for Active; 'I' for Inactive)
REMARK    1  A    between atoms: C_2  and  C_3 
REMARK    2  A    between atoms: N_6  and  C_27 
REMARK    3  A    between atoms: C_12  and  C_14 
REMARK    4  A    between atoms: C_14  and  C_16 
REMARK    5  A    between atoms: C_14  and  O_26 
REMARK    6  A    between atoms: C_27  and  C_28 
ROOT
ATOM      1  C   LIG d   1       3.984  -0.920  -3.176  0.00  0.00     0.020 C 
ATOM      2  H   LIG d   1       2.920  -1.153  -3.131  0.00  0.00     0.040 H 
ATOM      3  C   LIG d   1       4.322  -0.320  -4.542  0.00  0.00    -0.023 C 
ATOM      4  N   LIG d   1       5.308  -1.157  -5.228  0.00  0.00     0.251 N 
ATOM      5  C   LIG d   1       4.773  -2.501  -5.459  0.00  0.00    -0.029 C 
ATOM      6  C   LIG d   1       4.450  -3.174  -4.123  0.00  0.00    -0.009 C 
ATOM      7  C   LIG d   1       4.800  -2.206  -2.985  0.00  0.00    -0.020 C 
ATOM      8  H   LIG d   1       4.570  -2.659  -2.020  0.00  0.00     0.031 H 
ATOM      9  C   LIG d   1       6.286  -1.853  -3.089  0.00  0.00    -0.003 C 
ATOM     10  C   LIG d   1       6.553  -1.223  -4.459  0.00  0.00     0.012 C 
ATOM     11  H   LIG d   1       7.281  -1.829  -4.999  0.00  0.00     0.088 H 
ATOM     12  H   LIG d   1       4.730   0.682  -4.405  0.00  0.00     0.082 H 
ATOM     13  H   LIG d   1       3.415  -0.261  -5.145  0.00  0.00     0.082 H 
ATOM     14  H   LIG d   1       3.865  -2.430  -6.057  0.00  0.00     0.082 H 
ATOM     15  H   LIG d   1       5.511  -3.097  -5.995  0.00  0.00     0.082 H 
ATOM     16  H   LIG d   1       5.039  -4.085  -4.021  0.00  0.00     0.032 H 
ATOM     17  H   LIG d   1       3.389  -3.418  -4.081  0.00  0.00     0.032 H 
ATOM     18  H   LIG d   1       6.883  -2.758  -2.980  0.00  0.00     0.032 H 
ATOM     19  H   LIG d   1       6.549  -1.144  -2.304  0.00  0.00     0.032 H 
ENDROOT
BRANCH  10  20
ATOM     20  C   LIG d   1       7.108   0.190  -4.268  0.00  0.00     0.123 C 
ATOM     21  H   LIG d   1       6.402   0.915  -4.674  0.00  0.00     0.070 H 
BRANCH  20  22
ATOM     22  C   LIG d   1       8.425   0.313  -4.990  0.00  0.00    -0.003 A 
ATOM     23  C   LIG d   1       9.042   1.566  -5.160  0.00  0.00     0.006 A 
ATOM     24  C   LIG d   1      10.281   1.635  -5.845  0.00  0.00     0.071 A 
ATOM     25  C   LIG d   1       8.459   2.743  -4.661  0.00  0.00    -0.052 A 
ATOM     26  N   LIG d   1      10.842   0.517  -6.318  0.00  0.00    -0.255 NA
ATOM     27  C   LIG d   1      10.899   2.886  -6.016  0.00  0.00    -0.036 A 
ATOM     28  C   LIG d   1      10.271  -0.652  -6.161  0.00  0.00     0.029 A 
ATOM     29  C   LIG d   1       9.053  -0.789  -5.497  0.00  0.00    -0.037 A 
ATOM     30  H   LIG d   1      10.756  -1.532  -6.557  0.00  0.00     0.083 H 
ATOM     31  H   LIG d   1       8.606  -1.766  -5.383  0.00  0.00     0.064 H 
ATOM     32  C   LIG d   1      10.304   4.006  -5.524  0.00  0.00    -0.060 A 
ATOM     33  H   LIG d   1      11.843   2.958  -6.536  0.00  0.00     0.064 H 
ATOM     34  C   LIG d   1       9.086   3.937  -4.850  0.00  0.00    -0.061 A 
ATOM     35  H   LIG d   1      10.783   4.964  -5.658  0.00  0.00     0.062 H 
ATOM     36  H   LIG d   1       8.635   4.841  -4.469  0.00  0.00     0.062 H 
ATOM     37  H   LIG d   1       7.518   2.700  -4.133  0.00  0.00     0.062 H 
ENDBRANCH  20  22
BRANCH  20  38
ATOM     38  O   LIG d   1       7.303   0.442  -2.875  0.00  0.00    -0.382 OA
ATOM     39  H   LIG d   1       7.259  -0.350  -2.322  0.00  0.00     0.210 HD
ENDBRANCH  20  38
ENDBRANCH  10  20
BRANCH   4  40
ATOM     40  C   LIG d   1       5.602  -0.554  -6.535  0.00  0.00    -0.004 C 
ATOM     41  H   LIG d   1       5.773   0.515  -6.411  0.00  0.00     0.087 H 
ATOM     42  H   LIG d   1       6.493  -1.018  -6.957  0.00  0.00     0.087 H 
BRANCH  40  43
ATOM     43  C   LIG d   1       4.434  -0.772  -7.462  0.00  0.00    -0.003 A 
ATOM     44  C   LIG d   1       4.337  -1.942  -8.190  0.00  0.00    -0.053 A 
ATOM     45  C   LIG d   1       3.266  -2.141  -9.041  0.00  0.00    -0.061 A 
ATOM     46  H   LIG d   1       5.099  -2.702  -8.095  0.00  0.00     0.062 H 
ATOM     47  C   LIG d   1       2.290  -1.168  -9.163  0.00  0.00    -0.062 A 
ATOM     48  H   LIG d   1       3.190  -3.055  -9.610  0.00  0.00     0.062 H 
ATOM     49  C   LIG d   1       2.387   0.002  -8.434  0.00  0.00    -0.061 A 
ATOM     50  H   LIG d   1       1.454  -1.324  -9.828  0.00  0.00     0.062 H 
ATOM     51  C   LIG d   1       3.456   0.198  -7.580  0.00  0.00    -0.053 A 
ATOM     52  H   LIG d   1       1.625   0.761  -8.529  0.00  0.00     0.062 H 
ATOM     53  H   LIG d   1       3.530   1.111  -7.008  0.00  0.00     0.062 H 
ENDBRANCH  40  43
ENDBRANCH   4  40
BRANCH   1  54
ATOM     54  C   LIG d   1       4.331   0.067  -2.090  0.00  0.00    -0.083 C 
ATOM     55  C   LIG d   1       3.900   1.302  -2.167  0.00  0.00    -0.102 C 
ATOM     56  H   LIG d   1       3.298   1.613  -3.008  0.00  0.00     0.053 H 
ATOM     57  H   LIG d   1       4.149   2.009  -1.389  0.00  0.00     0.053 H 
ATOM     58  H   LIG d   1       4.933  -0.245  -1.250  0.00  0.00     0.057 H 
ENDBRANCH   1  54
TORSDOF 6
ENDMDL
MODEL 6
REMARK VINA RESULT:      -6.5      2.235      3.291
REMARK  6 active torsions:
REMARK  status: ('A' for Active; 'I' for Inactive)
REMARK    1  A    between atoms: C_2  and  C_3 
REMARK    2  A    between atoms: N_6  and  C_27 
REMARK    3  A    between atoms: C_12  and  C_14 
REMARK    4  A    between atoms: C_14  and  C_16 
REMARK    5  A    between atoms: C_14  and  O_26 
REMARK    6  A    between atoms: C_27  and  C_28 
ROOT
ATOM      1  C   LIG d   1       8.806  -5.320  -5.400  0.00  0.00     0.020 C 
ATOM      2  H   LIG d   1       8.943  -6.307  -5.842  0.00  0.00     0.040 H 
ATOM      3  C   LIG d   1       7.323  -5.092  -5.102  0.00  0.00    -0.023 C 
ATOM      4  N   LIG d   1       6.834  -3.930  -5.846  0.00  0.00     0.251 N 
ATOM      5  C   LIG d   1       6.964  -4.148  -7.288  0.00  0.00    -0.029 C 
ATOM      6  C   LIG d   1       8.436  -4.344  -7.659  0.00  0.00    -0.009 C 
ATOM      7  C   LIG d   1       9.284  -4.245  -6.384  0.00  0.00    -0.020 C 
ATOM      8  H   LIG d   1      10.338  -4.390  -6.620  0.00  0.00     0.031 H 
ATOM      9  C   LIG d   1       9.045  -2.871  -5.750  0.00  0.00    -0.003 C 
ATOM     10  C   LIG d   1       7.553  -2.719  -5.441  0.00  0.00     0.012 C 
ATOM     11  H   LIG d   1       7.157  -1.863  -5.987  0.00  0.00     0.088 H 
ATOM     12  H   LIG d   1       7.191  -4.920  -4.034  0.00  0.00     0.082 H 
ATOM     13  H   LIG d   1       6.755  -5.975  -5.397  0.00  0.00     0.082 H 
ATOM     14  H   LIG d   1       6.398  -5.035  -7.572  0.00  0.00     0.082 H 
ATOM     15  H   LIG d   1       6.569  -3.284  -7.822  0.00  0.00     0.082 H 
ATOM     16  H   LIG d   1       8.742  -3.571  -8.363  0.00  0.00     0.032 H 
ATOM     17  H   LIG d   1       8.573  -5.325  -8.113  0.00  0.00     0.032 H 
ATOM     18  H   LIG d   1       9.356  -2.091  -6.444  0.00  0.00     0.032 H 
ATOM     19  H   LIG d   1       9.619  -2.791  -4.827  0.00  0.00     0.032 H 
ENDROOT
BRANCH  10  20
ATOM     20  C   LIG d   1       7.366  -2.496  -3.939  0.00  0.00     0.123 C 
ATOM     21  H   LIG d   1       6.636  -3.208  -3.555  0.00  0.00     0.070 H 
BRANCH  20  22
ATOM     22  C   LIG d   1       6.874  -1.092  -3.698  0.00  0.00    -0.003 A 
ATOM     23  C   LIG d   1       5.561  -0.852  -3.253  0.00  0.00     0.006 A 
ATOM     24  C   LIG d   1       5.142   0.485  -3.039  0.00  0.00     0.071 A 
ATOM     25  C   LIG d   1       4.666  -1.907  -3.013  0.00  0.00    -0.052 A 
ATOM     26  N   LIG d   1       5.992   1.493  -3.261  0.00  0.00    -0.255 NA
ATOM     27  C   LIG d   1       3.830   0.727  -2.594  0.00  0.00    -0.036 A 
ATOM     28  C   LIG d   1       7.216   1.273  -3.675  0.00  0.00     0.029 A 
ATOM     29  C   LIG d   1       7.691  -0.016  -3.905  0.00  0.00    -0.037 A 
ATOM     30  H   LIG d   1       7.873   2.113  -3.842  0.00  0.00     0.083 H 
ATOM     31  H   LIG d   1       8.705  -0.166  -4.246  0.00  0.00     0.064 H 
ATOM     32  C   LIG d   1       2.987  -0.319  -2.377  0.00  0.00    -0.060 A 
ATOM     33  H   LIG d   1       3.492   1.739  -2.426  0.00  0.00     0.064 H 
ATOM     34  C   LIG d   1       3.402  -1.633  -2.587  0.00  0.00    -0.061 A 
ATOM     35  H   LIG d   1       1.981  -0.128  -2.035  0.00  0.00     0.062 H 
ATOM     36  H   LIG d   1       2.713  -2.445  -2.407  0.00  0.00     0.062 H 
ATOM     37  H   LIG d   1       4.977  -2.929  -3.168  0.00  0.00     0.062 H 
ENDBRANCH  20  22
BRANCH  20  38
ATOM     38  O   LIG d   1       8.614  -2.685  -3.270  0.00  0.00    -0.382 OA
ATOM     39  H   LIG d   1       9.137  -1.876  -3.175  0.00  0.00     0.210 HD
ENDBRANCH  20  38
ENDBRANCH  10  20
BRANCH   4  40
ATOM     40  C   LIG d   1       5.409  -3.746  -5.541  0.00  0.00    -0.004 C 
ATOM     41  H   LIG d   1       4.944  -4.720  -5.384  0.00  0.00     0.087 H 
ATOM     42  H   LIG d   1       5.304  -3.144  -4.639  0.00  0.00     0.087 H 
BRANCH  40  43
ATOM     43  C   LIG d   1       4.735  -3.048  -6.693  0.00  0.00    -0.003 A 
ATOM     44  C   LIG d   1       4.108  -3.787  -7.679  0.00  0.00    -0.053 A 
ATOM     45  C   LIG d   1       3.490  -3.147  -8.736  0.00  0.00    -0.061 A 
ATOM     46  H   LIG d   1       4.102  -4.866  -7.623  0.00  0.00     0.062 H 
ATOM     47  C   LIG d   1       3.498  -1.765  -8.808  0.00  0.00    -0.062 A 
ATOM     48  H   LIG d   1       3.001  -3.724  -9.507  0.00  0.00     0.062 H 
ATOM     49  C   LIG d   1       4.123  -1.026  -7.821  0.00  0.00    -0.061 A 
ATOM     50  H   LIG d   1       3.015  -1.266  -9.634  0.00  0.00     0.062 H 
ATOM     51  C   LIG d   1       4.738  -1.667  -6.762  0.00  0.00    -0.053 A 
ATOM     52  H   LIG d   1       4.130   0.052  -7.878  0.00  0.00     0.062 H 
ATOM     53  H   LIG d   1       5.224  -1.090  -5.990  0.00  0.00     0.062 H 
ENDBRANCH  40  43
ENDBRANCH   4  40
BRANCH   1  54
ATOM     54  C   LIG d   1       9.599  -5.226  -4.121  0.00  0.00    -0.083 C 
ATOM     55  C   LIG d   1       9.410  -6.106  -3.168  0.00  0.00    -0.102 C 
ATOM     56  H   LIG d   1       8.687  -6.897  -3.299  0.00  0.00     0.053 H 
ATOM     57  H   LIG d   1       9.978  -6.038  -2.251  0.00  0.00     0.053 H 
ATOM     58  H   LIG d   1      10.321  -4.435  -3.991  0.00  0.00     0.057 H 
ENDBRANCH   1  54
TORSDOF 6
ENDMDL
MODEL 7
REMARK VINA RESULT:      -6.3      1.896      5.614
REMARK  6 active torsions:
REMARK  status: ('A' for Active; 'I' for Inactive)
REMARK    1  A    between atoms: C_2  and  C_3 
REMARK    2  A    between atoms: N_6  and  C_27 
REMARK    3  A    between atoms: C_12  and  C_14 
REMARK    4  A    between atoms: C_14  and  C_16 
REMARK    5  A    between atoms: C_14  and  O_26 
REMARK    6  A    between atoms: C_27  and  C_28 
ROOT
ATOM      1  C   LIG d   1       9.470  -2.133  -5.413  0.00  0.00     0.020 C 
ATOM      2  H   LIG d   1      10.267  -2.036  -4.676  0.00  0.00     0.040 H 
ATOM      3  C   LIG d   1       8.655  -0.840  -5.462  0.00  0.00    -0.023 C 
ATOM      4  N   LIG d   1       7.258  -1.112  -5.117  0.00  0.00     0.251 N 
ATOM      5  C   LIG d   1       7.157  -1.644  -3.756  0.00  0.00    -0.029 C 
ATOM      6  C   LIG d   1       7.923  -2.965  -3.651  0.00  0.00    -0.009 C 
ATOM      7  C   LIG d   1       8.541  -3.289  -5.017  0.00  0.00    -0.020 C 
ATOM      8  H   LIG d   1       9.100  -4.223  -4.967  0.00  0.00     0.031 H 
ATOM      9  C   LIG d   1       7.413  -3.375  -6.050  0.00  0.00    -0.003 C 
ATOM     10  C   LIG d   1       6.661  -2.042  -6.079  0.00  0.00     0.012 C 
ATOM     11  H   LIG d   1       5.616  -2.211  -5.819  0.00  0.00     0.088 H 
ATOM     12  H   LIG d   1       8.704  -0.419  -6.467  0.00  0.00     0.082 H 
ATOM     13  H   LIG d   1       9.069  -0.124  -4.751  0.00  0.00     0.082 H 
ATOM     14  H   LIG d   1       7.580  -0.924  -3.055  0.00  0.00     0.082 H 
ATOM     15  H   LIG d   1       6.109  -1.813  -3.510  0.00  0.00     0.082 H 
ATOM     16  H   LIG d   1       7.238  -3.762  -3.362  0.00  0.00     0.032 H 
ATOM     17  H   LIG d   1       8.712  -2.874  -2.905  0.00  0.00     0.032 H 
ATOM     18  H   LIG d   1       6.727  -4.176  -5.773  0.00  0.00     0.032 H 
ATOM     19  H   LIG d   1       7.835  -3.578  -7.035  0.00  0.00     0.032 H 
ENDROOT
BRANCH  10  20
ATOM     20  C   LIG d   1       6.745  -1.443  -7.484  0.00  0.00     0.123 C 
ATOM     21  H   LIG d   1       7.250  -0.477  -7.437  0.00  0.00     0.070 H 
BRANCH  20  22
ATOM     22  C   LIG d   1       5.355  -1.256  -8.034  0.00  0.00    -0.003 A 
ATOM     23  C   LIG d   1       4.943  -0.016  -8.555  0.00  0.00     0.006 A 
ATOM     24  C   LIG d   1       3.626   0.114  -9.063  0.00  0.00     0.071 A 
ATOM     25  C   LIG d   1       5.811   1.089  -8.587  0.00  0.00    -0.052 A 
ATOM     26  N   LIG d   1       2.798  -0.936  -9.039  0.00  0.00    -0.255 NA
ATOM     27  C   LIG d   1       3.213   1.353  -9.584  0.00  0.00    -0.036 A 
ATOM     28  C   LIG d   1       3.178  -2.093  -8.555  0.00  0.00     0.029 A 
ATOM     29  C   LIG d   1       4.459  -2.288  -8.041  0.00  0.00    -0.037 A 
ATOM     30  H   LIG d   1       2.481  -2.917  -8.554  0.00  0.00     0.083 H 
ATOM     31  H   LIG d   1       4.743  -3.253  -7.649  0.00  0.00     0.064 H 
ATOM     32  C   LIG d   1       4.078   2.403  -9.594  0.00  0.00    -0.060 A 
ATOM     33  H   LIG d   1       2.214   1.470  -9.974  0.00  0.00     0.064 H 
ATOM     34  C   LIG d   1       5.373   2.273  -9.095  0.00  0.00    -0.061 A 
ATOM     35  H   LIG d   1       3.756   3.352  -9.996  0.00  0.00     0.062 H 
ATOM     36  H   LIG d   1       6.040   3.123  -9.116  0.00  0.00     0.062 H 
ATOM     37  H   LIG d   1       6.818   0.999  -8.207  0.00  0.00     0.062 H 
ENDBRANCH  20  22
BRANCH  20  38
ATOM     38  O   LIG d   1       7.481  -2.324  -8.335  0.00  0.00    -0.382 OA
ATOM     39  H   LIG d   1       8.425  -2.122  -8.389  0.00  0.00     0.210 HD
ENDBRANCH  20  38
ENDBRANCH  10  20
BRANCH   4  40
ATOM     40  C   LIG d   1       6.510   0.151  -5.167  0.00  0.00    -0.004 C 
ATOM     41  H   LIG d   1       7.179   0.978  -4.928  0.00  0.00     0.087 H 
ATOM     42  H   LIG d   1       6.101   0.291  -6.167  0.00  0.00     0.087 H 
BRANCH  40  43
ATOM     43  C   LIG d   1       5.386   0.109  -4.165  0.00  0.00    -0.003 A 
ATOM     44  C   LIG d   1       5.542   0.698  -2.924  0.00  0.00    -0.053 A 
ATOM     45  C   LIG d   1       4.511   0.660  -2.005  0.00  0.00    -0.061 A 
ATOM     46  H   LIG d   1       6.472   1.189  -2.674  0.00  0.00     0.062 H 
ATOM     47  C   LIG d   1       3.322   0.031  -2.327  0.00  0.00    -0.062 A 
ATOM     48  H   LIG d   1       4.634   1.119  -1.036  0.00  0.00     0.062 H 
ATOM     49  C   LIG d   1       3.165  -0.557  -3.567  0.00  0.00    -0.061 A 
ATOM     50  H   LIG d   1       2.517   0.001  -1.608  0.00  0.00     0.062 H 
ATOM     51  C   LIG d   1       4.195  -0.515  -4.488  0.00  0.00    -0.053 A 
ATOM     52  H   LIG d   1       2.236  -1.048  -3.818  0.00  0.00     0.062 H 
ATOM     53  H   LIG d   1       4.071  -0.972  -5.458  0.00  0.00     0.062 H 
ENDBRANCH  40  43
ENDBRANCH   4  40
BRANCH   1  54
ATOM     54  C   LIG d   1      10.068  -2.405  -6.770  0.00  0.00    -0.083 C 
ATOM     55  C   LIG d   1      11.076  -3.234  -6.887  0.00  0.00    -0.102 C 
ATOM     56  H   LIG d   1      11.478  -3.722  -6.011  0.00  0.00     0.053 H 
ATOM     57  H   LIG d   1      11.505  -3.428  -7.860  0.00  0.00     0.053 H 
ATOM     58  H   LIG d   1       9.665  -1.917  -7.645  0.00  0.00     0.057 H 
ENDBRANCH   1  54
TORSDOF 6
ENDMDL
MODEL 8
REMARK VINA RESULT:      -6.2      2.912      5.086
REMARK  6 active torsions:
REMARK  status: ('A' for Active; 'I' for Inactive)
REMARK    1  A    between atoms: C_2  and  C_3 
REMARK    2  A    between atoms: N_6  and  C_27 
REMARK    3  A    between atoms: C_12  and  C_14 
REMARK    4  A    between atoms: C_14  and  C_16 
REMARK    5  A    between atoms: C_14  and  O_26 
REMARK    6  A    between atoms: C_27  and  C_28 
ROOT
ATOM      1  C   LIG d   1       7.678  -3.313  -3.870  0.00  0.00     0.020 C 
ATOM      2  H   LIG d   1       6.963  -3.985  -3.396  0.00  0.00     0.040 H 
ATOM      3  C   LIG d   1       7.092  -1.902  -3.934  0.00  0.00    -0.023 C 
ATOM      4  N   LIG d   1       6.992  -1.462  -5.327  0.00  0.00     0.251 N 
ATOM      5  C   LIG d   1       6.099  -2.342  -6.083  0.00  0.00    -0.029 C 
ATOM      6  C   LIG d   1       6.653  -3.769  -6.092  0.00  0.00    -0.009 C 
ATOM      7  C   LIG d   1       7.966  -3.794  -5.299  0.00  0.00    -0.020 C 
ATOM      8  H   LIG d   1       8.378  -4.804  -5.281  0.00  0.00     0.031 H 
ATOM      9  C   LIG d   1       8.943  -2.811  -5.950  0.00  0.00    -0.003 C 
ATOM     10  C   LIG d   1       8.318  -1.414  -5.949  0.00  0.00     0.012 C 
ATOM     11  H   LIG d   1       8.223  -1.060  -6.975  0.00  0.00     0.088 H 
ATOM     12  H   LIG d   1       7.738  -1.217  -3.384  0.00  0.00     0.082 H 
ATOM     13  H   LIG d   1       6.099  -1.901  -3.483  0.00  0.00     0.082 H 
ATOM     14  H   LIG d   1       5.112  -2.340  -5.621  0.00  0.00     0.082 H 
ATOM     15  H   LIG d   1       6.018  -1.980  -7.108  0.00  0.00     0.082 H 
ATOM     16  H   LIG d   1       6.840  -4.083  -7.118  0.00  0.00     0.032 H 
ATOM     17  H   LIG d   1       5.934  -4.445  -5.629  0.00  0.00     0.032 H 
ATOM     18  H   LIG d   1       9.143  -3.122  -6.975  0.00  0.00     0.032 H 
ATOM     19  H   LIG d   1       9.875  -2.794  -5.384  0.00  0.00     0.032 H 
ENDROOT
BRANCH  10  20
ATOM     20  C   LIG d   1       9.214  -0.457  -5.161  0.00  0.00     0.123 C 
ATOM     21  H   LIG d   1       8.737  -0.211  -4.212  0.00  0.00     0.070 H 
BRANCH  20  22
ATOM     22  C   LIG d   1       9.426   0.804  -5.959  0.00  0.00    -0.003 A 
ATOM     23  C   LIG d   1       9.482   2.060  -5.326  0.00  0.00     0.006 A 
ATOM     24  C   LIG d   1       9.684   3.219  -6.117  0.00  0.00     0.071 A 
ATOM     25  C   LIG d   1       9.349   2.184  -3.934  0.00  0.00    -0.052 A 
ATOM     26  N   LIG d   1       9.816   3.105  -7.442  0.00  0.00    -0.255 NA
ATOM     27  C   LIG d   1       9.740   4.474  -5.486  0.00  0.00    -0.036 A 
ATOM     28  C   LIG d   1       9.765   1.937  -8.035  0.00  0.00     0.029 A 
ATOM     29  C   LIG d   1       9.570   0.759  -7.317  0.00  0.00    -0.037 A 
ATOM     30  H   LIG d   1       9.877   1.887  -9.108  0.00  0.00     0.083 H 
ATOM     31  H   LIG d   1       9.532  -0.189  -7.833  0.00  0.00     0.064 H 
ATOM     32  C   LIG d   1       9.602   4.558  -4.135  0.00  0.00    -0.060 A 
ATOM     33  H   LIG d   1       9.892   5.368  -6.072  0.00  0.00     0.064 H 
ATOM     34  C   LIG d   1       9.405   3.418  -3.360  0.00  0.00    -0.061 A 
ATOM     35  H   LIG d   1       9.647   5.525  -3.656  0.00  0.00     0.062 H 
ATOM     36  H   LIG d   1       9.299   3.512  -2.289  0.00  0.00     0.062 H 
ATOM     37  H   LIG d   1       9.200   1.306  -3.322  0.00  0.00     0.062 H 
ENDBRANCH  20  22
BRANCH  20  38
ATOM     38  O   LIG d   1      10.475  -1.081  -4.912  0.00  0.00    -0.382 OA
ATOM     39  H   LIG d   1      11.199  -0.736  -5.453  0.00  0.00     0.210 HD
ENDBRANCH  20  38
ENDBRANCH  10  20
BRANCH   4  40
ATOM     40  C   LIG d   1       6.421  -0.109  -5.348  0.00  0.00    -0.004 C 
ATOM     41  H   LIG d   1       7.219   0.624  -5.231  0.00  0.00     0.087 H 
ATOM     42  H   LIG d   1       5.913   0.057  -6.298  0.00  0.00     0.087 H 
BRANCH  40  43
ATOM     43  C   LIG d   1       5.435   0.038  -4.218  0.00  0.00    -0.003 A 
ATOM     44  C   LIG d   1       5.800   0.705  -3.064  0.00  0.00    -0.053 A 
ATOM     45  C   LIG d   1       4.896   0.839  -2.027  0.00  0.00    -0.061 A 
ATOM     46  H   LIG d   1       6.793   1.121  -2.972  0.00  0.00     0.062 H 
ATOM     47  C   LIG d   1       3.625   0.305  -2.145  0.00  0.00    -0.062 A 
ATOM     48  H   LIG d   1       5.181   1.359  -1.125  0.00  0.00     0.062 H 
ATOM     49  C   LIG d   1       3.260  -0.360  -3.300  0.00  0.00    -0.061 A 
ATOM     50  H   LIG d   1       2.919   0.410  -1.335  0.00  0.00     0.062 H 
ATOM     51  C   LIG d   1       4.163  -0.490  -4.338  0.00  0.00    -0.053 A 
ATOM     52  H   LIG d   1       2.267  -0.777  -3.391  0.00  0.00     0.062 H 
ATOM     53  H   LIG d   1       3.877  -1.008  -5.241  0.00  0.00     0.062 H 
ENDBRANCH  40  43
ENDBRANCH   4  40
BRANCH   1  54
ATOM     54  C   LIG d   1       8.958  -3.294  -3.073  0.00  0.00    -0.083 C 
ATOM     55  C   LIG d   1       9.514  -4.420  -2.702  0.00  0.00    -0.102 C 
ATOM     56  H   LIG d   1       9.057  -5.362  -2.967  0.00  0.00     0.053 H 
ATOM     57  H   LIG d   1      10.432  -4.406  -2.130  0.00  0.00     0.053 H 
ATOM     58  H   LIG d   1       9.414  -2.352  -2.809  0.00  0.00     0.057 H 
ENDBRANCH   1  54
TORSDOF 6
ENDMDL
MODEL 9
REMARK VINA RESULT:      -6.2      2.669      7.007
REMARK  6 active torsions:
REMARK  status: ('A' for Active; 'I' for Inactive)
REMARK    1  A    between atoms: C_2  and  C_3 
REMARK    2  A    between atoms: N_6  and  C_27 
REMARK    3  A    between atoms: C_12  and  C_14 
REMARK    4  A    between atoms: C_14  and  C_16 
REMARK    5  A    between atoms: C_14  and  O_26 
REMARK    6  A    between atoms: C_27  and  C_28 
ROOT
ATOM      1  C   LIG d   1       6.287  -0.846  -3.118  0.00  0.00     0.020 C 
ATOM      2  H   LIG d   1       6.968  -0.341  -2.434  0.00  0.00     0.040 H 
ATOM      3  C   LIG d   1       6.956  -2.106  -3.671  0.00  0.00    -0.023 C 
ATOM      4  N   LIG d   1       7.059  -2.022  -5.129  0.00  0.00     0.251 N 
ATOM      5  C   LIG d   1       7.884  -0.877  -5.523  0.00  0.00    -0.029 C 
ATOM      6  C   LIG d   1       7.245   0.423  -5.032  0.00  0.00    -0.009 C 
ATOM      7  C   LIG d   1       5.946   0.087  -4.288  0.00  0.00    -0.020 C 
ATOM      8  H   LIG d   1       5.475   0.998  -3.919  0.00  0.00     0.031 H 
ATOM      9  C   LIG d   1       5.019  -0.664  -5.248  0.00  0.00    -0.003 C 
ATOM     10  C   LIG d   1       5.728  -1.931  -5.735  0.00  0.00     0.012 C 
ATOM     11  H   LIG d   1       5.826  -1.895  -6.820  0.00  0.00     0.088 H 
ATOM     12  H   LIG d   1       6.362  -2.979  -3.400  0.00  0.00     0.082 H 
ATOM     13  H   LIG d   1       7.955  -2.203  -3.243  0.00  0.00     0.082 H 
ATOM     14  H   LIG d   1       8.877  -0.981  -5.086  0.00  0.00     0.082 H 
ATOM     15  H   LIG d   1       7.970  -0.851  -6.609  0.00  0.00     0.082 H 
ATOM     16  H   LIG d   1       7.021   1.066  -5.884  0.00  0.00     0.032 H 
ATOM     17  H   LIG d   1       7.929   0.937  -4.357  0.00  0.00     0.032 H 
ATOM     18  H   LIG d   1       4.784  -0.027  -6.100  0.00  0.00     0.032 H 
ATOM     19  H   LIG d   1       4.100  -0.937  -4.729  0.00  0.00     0.032 H 
ENDROOT
BRANCH  10  20
ATOM     20  C   LIG d   1       4.904  -3.158  -5.339  0.00  0.00     0.123 C 
ATOM     21  H   LIG d   1       5.489  -3.785  -4.665  0.00  0.00     0.070 H 
BRANCH  20  22
ATOM     22  C   LIG d   1       4.549  -3.944  -6.574  0.00  0.00    -0.003 A 
ATOM     23  C   LIG d   1       4.608  -5.350  -6.579  0.00  0.00     0.006 A 
ATOM     24  C   LIG d   1       4.263  -6.048  -7.763  0.00  0.00     0.071 A 
ATOM     25  C   LIG d   1       4.993  -6.070  -5.436  0.00  0.00    -0.052 A 
ATOM     26  N   LIG d   1       3.891  -5.368  -8.852  0.00  0.00    -0.255 NA
ATOM     27  C   LIG d   1       4.321  -7.453  -7.770  0.00  0.00    -0.036 A 
ATOM     28  C   LIG d   1       3.834  -4.058  -8.851  0.00  0.00     0.029 A 
ATOM     29  C   LIG d   1       4.159  -3.311  -7.721  0.00  0.00    -0.037 A 
ATOM     30  H   LIG d   1       3.528  -3.544  -9.751  0.00  0.00     0.083 H 
ATOM     31  H   LIG d   1       4.103  -2.233  -7.750  0.00  0.00     0.064 H 
ATOM     32  C   LIG d   1       4.705  -8.118  -6.646  0.00  0.00    -0.060 A 
ATOM     33  H   LIG d   1       4.064  -8.002  -8.663  0.00  0.00     0.064 H 
ATOM     34  C   LIG d   1       5.042  -7.430  -5.483  0.00  0.00    -0.061 A 
ATOM     35  H   LIG d   1       4.747  -9.197  -6.657  0.00  0.00     0.062 H 
ATOM     36  H   LIG d   1       5.342  -7.982  -4.604  0.00  0.00     0.062 H 
ATOM     37  H   LIG d   1       5.252  -5.547  -4.527  0.00  0.00     0.062 H 
ENDBRANCH  20  22
BRANCH  20  38
ATOM     38  O   LIG d   1       3.708  -2.737  -4.681  0.00  0.00    -0.382 OA
ATOM     39  H   LIG d   1       3.704  -2.902  -3.728  0.00  0.00     0.210 HD
ENDBRANCH  20  38
ENDBRANCH  10  20
BRANCH   4  40
ATOM     40  C   LIG d   1       7.710  -3.242  -5.622  0.00  0.00    -0.004 C 
ATOM     41  H   LIG d   1       6.990  -4.061  -5.629  0.00  0.00     0.087 H 
ATOM     42  H   LIG d   1       8.080  -3.075  -6.633  0.00  0.00     0.087 H 
BRANCH  40  43
ATOM     43  C   LIG d   1       8.862  -3.597  -4.717  0.00  0.00    -0.003 A 
ATOM     44  C   LIG d   1      10.070  -2.938  -4.843  0.00  0.00    -0.053 A 
ATOM     45  C   LIG d   1      11.127  -3.263  -4.014  0.00  0.00    -0.061 A 
ATOM     46  H   LIG d   1      10.189  -2.167  -5.592  0.00  0.00     0.062 H 
ATOM     47  C   LIG d   1      10.974  -4.249  -3.056  0.00  0.00    -0.062 A 
ATOM     48  H   LIG d   1      12.070  -2.749  -4.114  0.00  0.00     0.062 H 
ATOM     49  C   LIG d   1       9.766  -4.908  -2.928  0.00  0.00    -0.061 A 
ATOM     50  H   LIG d   1      11.800  -4.503  -2.408  0.00  0.00     0.062 H 
ATOM     51  C   LIG d   1       8.708  -4.579  -3.755  0.00  0.00    -0.053 A 
ATOM     52  H   LIG d   1       9.647  -5.678  -2.180  0.00  0.00     0.062 H 
ATOM     53  H   LIG d   1       7.763  -5.091  -3.654  0.00  0.00     0.062 H 
ENDBRANCH  40  43
ENDBRANCH   4  40
BRANCH   1  54
ATOM     54  C   LIG d   1       5.025  -1.224  -2.386  0.00  0.00    -0.083 C 
ATOM     55  C   LIG d   1       4.330  -0.305  -1.763  0.00  0.00    -0.102 C 
ATOM     56  H   LIG d   1       4.660   0.723  -1.774  0.00  0.00     0.053 H 
ATOM     57  H   LIG d   1       3.425  -0.576  -1.237  0.00  0.00     0.053 H 
ATOM     58  H   LIG d   1       4.695  -2.252  -2.375  0.00  0.00     0.057 H 
ENDBRANCH   1  54
TORSDOF 6
ENDMDL
MODEL 10
REMARK VINA RESULT:      -6.2      2.045      4.713
REMARK  6 active torsions:
REMARK  status: ('A' for Active; 'I' for Inactive)
REMARK    1  A    between atoms: C_2  and  C_3 
REMARK    2  A    between atoms: N_6  and  C_27 
REMARK    3  A    between atoms: C_12  and  C_14 
REMARK    4  A    between atoms: C_14  and  C_16 
REMARK    5  A    between atoms: C_14  and  O_26 
REMARK    6  A    between atoms: C_27  and  C_28 
ROOT
ATOM      1  C   LIG d   1       3.111  -0.365  -9.290  0.00  0.00     0.020 C 
ATOM      2  H   LIG d   1       2.045  -0.352  -9.520  0.00  0.00     0.040 H 
ATOM      3  C   LIG d   1       3.365  -1.272  -8.085  0.00  0.00    -0.023 C 
ATOM      4  N   LIG d   1       3.971  -0.502  -6.996  0.00  0.00     0.251 N 
ATOM      5  C   LIG d   1       3.072   0.568  -6.558  0.00  0.00    -0.029 C 
ATOM      6  C   LIG d   1       2.808   1.536  -7.713  0.00  0.00    -0.009 C 
ATOM      7  C   LIG d   1       3.580   1.056  -8.948  0.00  0.00    -0.020 C 
ATOM      8  H   LIG d   1       3.402   1.725  -9.790  0.00  0.00     0.031 H 
ATOM      9  C   LIG d   1       5.070   0.998  -8.595  0.00  0.00    -0.003 C 
ATOM     10  C   LIG d   1       5.264   0.048  -7.411  0.00  0.00     0.012 C 
ATOM     11  H   LIG d   1       5.709   0.594  -6.579  0.00  0.00     0.088 H 
ATOM     12  H   LIG d   1       4.039  -2.079  -8.376  0.00  0.00     0.082 H 
ATOM     13  H   LIG d   1       2.420  -1.696  -7.745  0.00  0.00     0.082 H 
ATOM     14  H   LIG d   1       2.129   0.134  -6.227  0.00  0.00     0.082 H 
ATOM     15  H   LIG d   1       3.530   1.108  -5.731  0.00  0.00     0.082 H 
ATOM     16  H   LIG d   1       3.145   2.535  -7.438  0.00  0.00     0.032 H 
ATOM     17  H   LIG d   1       1.742   1.560  -7.936  0.00  0.00     0.032 H 
ATOM     18  H   LIG d   1       5.418   1.995  -8.326  0.00  0.00     0.032 H 
ATOM     19  H   LIG d   1       5.634   0.632  -9.453  0.00  0.00     0.032 H 
ENDROOT
BRANCH  10  20
ATOM     20  C   LIG d   1       6.193  -1.095  -7.824  0.00  0.00     0.123 C 
ATOM     21  H   LIG d   1       5.650  -2.039  -7.778  0.00  0.00     0.070 H 
BRANCH  20  22
ATOM     22  C   LIG d   1       7.372  -1.146  -6.887  0.00  0.00    -0.003 A 
ATOM     23  C   LIG d   1       7.667  -2.314  -6.159  0.00  0.00     0.006 A 
ATOM     24  C   LIG d   1       8.787  -2.318  -5.290  0.00  0.00     0.071 A 
ATOM     25  C   LIG d   1       6.881  -3.471  -6.283  0.00  0.00    -0.052 A 
ATOM     26  N   LIG d   1       9.541  -1.221  -5.172  0.00  0.00    -0.255 NA
ATOM     27  C   LIG d   1       9.083  -3.484  -4.562  0.00  0.00    -0.036 A 
ATOM     28  C   LIG d   1       9.270  -0.131  -5.849  0.00  0.00     0.029 A 
ATOM     29  C   LIG d   1       8.185  -0.061  -6.720  0.00  0.00    -0.037 A 
ATOM     30  H   LIG d   1       9.904   0.735  -5.727  0.00  0.00     0.083 H 
ATOM     31  H   LIG d   1       7.986   0.851  -7.264  0.00  0.00     0.064 H 
ATOM     32  C   LIG d   1       8.296  -4.585  -4.702  0.00  0.00    -0.060 A 
ATOM     33  H   LIG d   1       9.931  -3.505  -3.894  0.00  0.00     0.064 H 
ATOM     34  C   LIG d   1       7.197  -4.580  -5.558  0.00  0.00    -0.061 A 
ATOM     35  H   LIG d   1       8.529  -5.478  -4.141  0.00  0.00     0.062 H 
ATOM     36  H   LIG d   1       6.589  -5.468  -5.651  0.00  0.00     0.062 H 
ATOM     37  H   LIG d   1       6.029  -3.481  -6.947  0.00  0.00     0.062 H 
ENDBRANCH  20  22
BRANCH  20  38
ATOM     38  O   LIG d   1       6.655  -0.875  -9.159  0.00  0.00    -0.382 OA
ATOM     39  H   LIG d   1       6.269  -0.098  -9.586  0.00  0.00     0.210 HD
ENDBRANCH  20  38
ENDBRANCH  10  20
BRANCH   4  40
ATOM     40  C   LIG d   1       4.194  -1.403  -5.857  0.00  0.00    -0.004 C 
ATOM     41  H   LIG d   1       3.384  -2.130  -5.806  0.00  0.00     0.087 H 
ATOM     42  H   LIG d   1       5.143  -1.923  -5.985  0.00  0.00     0.087 H 
BRANCH  40  43
ATOM     43  C   LIG d   1       4.230  -0.600  -4.583  0.00  0.00    -0.003 A 
ATOM     44  C   LIG d   1       3.080  -0.443  -3.831  0.00  0.00    -0.053 A 
ATOM     45  C   LIG d   1       3.113   0.294  -2.662  0.00  0.00    -0.061 A 
ATOM     46  H   LIG d   1       2.155  -0.896  -4.159  0.00  0.00     0.062 H 
ATOM     47  C   LIG d   1       4.297   0.873  -2.244  0.00  0.00    -0.062 A 
ATOM     48  H   LIG d   1       2.215   0.417  -2.076  0.00  0.00     0.062 H 
ATOM     49  C   LIG d   1       5.446   0.715  -2.994  0.00  0.00    -0.061 A 
ATOM     50  H   LIG d   1       4.321   1.449  -1.331  0.00  0.00     0.062 H 
ATOM     51  C   LIG d   1       5.414  -0.025  -4.161  0.00  0.00    -0.053 A 
ATOM     52  H   LIG d   1       6.371   1.169  -2.667  0.00  0.00     0.062 H 
ATOM     53  H   LIG d   1       6.313  -0.151  -4.746  0.00  0.00     0.062 H 
ENDBRANCH  40  43
ENDBRANCH   4  40
BRANCH   1  54
ATOM     54  C   LIG d   1       3.877  -0.880 -10.482  0.00  0.00    -0.083 C 
ATOM     55  C   LIG d   1       3.579  -0.456 -11.685  0.00  0.00    -0.102 C 
ATOM     56  H   LIG d   1       2.784   0.262 -11.823  0.00  0.00     0.053 H 
ATOM     57  H   LIG d   1       4.128  -0.826 -12.539  0.00  0.00     0.053 H 
ATOM     58  H   LIG d   1       4.671  -1.598 -10.342  0.00  0.00     0.057 H 
ENDBRANCH   1  54
TORSDOF 6
ENDMDL
