MODEL 1
REMARK VINA RESULT:      -5.9      0.000      0.000
REMARK  7 active torsions:
REMARK  status: ('A' for Active; 'I' for Inactive)
REMARK    1  A    between atoms: C_1  and  C_2 
REMARK    2  A    between atoms: C_2  and  C_4 
REMARK    3  A    between atoms: C_10  and  C_31 
REMARK    4  A    between atoms: C_20  and  C_30 
REMARK    5  A    between atoms: C_23  and  O_26 
REMARK    6  A    between atoms: O_26  and  C_27 
REMARK    7  A    between atoms: C_27  and  C_29 
ROOT
ATOM      1  C   LIG d   1       3.834  -1.344  -3.958  0.00  0.00     0.023 C 
ATOM      2  H   LIG d   1       3.510  -2.287  -4.028  0.00  0.00     0.038 H 
ATOM      3  C   LIG d   1       2.645  -0.354  -3.884  0.00  0.00    -0.043 C 
ATOM      4  C   LIG d   1       2.647   0.441  -5.219  0.00  0.00    -0.049 C 
ATOM      5  C   LIG d   1       3.466  -0.462  -6.148  0.00  0.00    -0.032 C 
ATOM      6  H   LIG d   1       2.843  -1.320  -6.434  0.00  0.00     0.031 H 
ATOM      7  C   LIG d   1       4.610  -0.928  -5.216  0.00  0.00    -0.019 C 
ATOM      8  C   LIG d   1       5.393  -2.022  -5.897  0.00  0.00    -0.046 C 
ATOM      9  C   LIG d   1       5.847  -1.617  -7.295  0.00  0.00    -0.049 C 
ATOM     10  C   LIG d   1       4.822  -0.898  -8.160  0.00  0.00    -0.029 C 
ATOM     11  H   LIG d   1       5.418  -0.336  -8.925  0.00  0.00     0.031 H 
ATOM     12  C   LIG d   1       4.066   0.172  -7.374  0.00  0.00    -0.031 C 
ATOM     13  H   LIG d   1       4.791   0.948  -7.078  0.00  0.00     0.031 H 
ATOM     14  C   LIG d   1       3.026   0.876  -8.234  0.00  0.00    -0.031 C 
ATOM     15  C   LIG d   1       2.178  -0.111  -8.973  0.00  0.00    -0.084 C 
ATOM     16  C   LIG d   1       2.596  -1.293  -9.303  0.00  0.00    -0.064 C 
ATOM     17  C   LIG d   1       3.948  -1.842  -8.951  0.00  0.00    -0.008 C 
ATOM     18  C   LIG d   1       4.657  -2.210 -10.267  0.00  0.00    -0.040 C 
ATOM     19  C   LIG d   1       3.789  -3.134 -11.115  0.00  0.00    -0.015 C 
ATOM     20  C   LIG d   1       2.442  -2.497 -11.442  0.00  0.00     0.107 C 
ATOM     21  H   LIG d   1       1.846  -3.193 -12.037  0.00  0.00     0.074 H 
ATOM     22  C   LIG d   1       1.686  -2.168 -10.150  0.00  0.00     0.006 C 
ATOM     23  H   LIG d   1       2.772   0.326  -3.042  0.00  0.00     0.027 H 
ATOM     24  H   LIG d   1       1.709  -0.904  -3.781  0.00  0.00     0.027 H 
ATOM     25  H   LIG d   1       3.108   1.417  -5.099  0.00  0.00     0.027 H 
ATOM     26  H   LIG d   1       1.627   0.548  -5.597  0.00  0.00     0.027 H 
ATOM     27  H   LIG d   1       4.814  -2.946  -5.906  0.00  0.00     0.027 H 
ATOM     28  H   LIG d   1       6.292  -2.230  -5.285  0.00  0.00     0.027 H 
ATOM     29  H   LIG d   1       6.228  -2.498  -7.827  0.00  0.00     0.027 H 
ATOM     30  H   LIG d   1       6.724  -0.951  -7.192  0.00  0.00     0.027 H 
ATOM     31  H   LIG d   1       2.392   1.499  -7.600  0.00  0.00     0.031 H 
ATOM     32  H   LIG d   1       3.536   1.522  -8.954  0.00  0.00     0.031 H 
ATOM     33  H   LIG d   1       1.169   0.174  -9.242  0.00  0.00     0.057 H 
ATOM     34  H   LIG d   1       4.870  -1.294 -10.820  0.00  0.00     0.028 H 
ATOM     35  H   LIG d   1       5.600  -2.709 -10.031  0.00  0.00     0.028 H 
ATOM     36  H   LIG d   1       4.315  -3.335 -12.059  0.00  0.00     0.030 H 
ATOM     37  H   LIG d   1       3.636  -4.090 -10.617  0.00  0.00     0.030 H 
ATOM     38  H   LIG d   1       1.431  -3.082  -9.622  0.00  0.00     0.035 H 
ATOM     39  H   LIG d   1       0.774  -1.619 -10.392  0.00  0.00     0.035 H 
ENDROOT
BRANCH  20  40
ATOM     40  O   LIG d   1       2.649  -1.277 -12.201  0.00  0.00    -0.461 OA
BRANCH  40  41
ATOM     41  C   LIG d   1       3.036  -1.413 -13.480  0.00  0.00     0.304 C 
ATOM     42  O   LIG d   1       2.397  -2.110 -14.233  0.00  0.00    -0.251 OA
BRANCH  41  43
ATOM     43  C   LIG d   1       4.265  -0.696 -13.976  0.00  0.00     0.033 C 
ATOM     44  H   LIG d   1       4.784  -0.240 -13.134  0.00  0.00     0.034 H 
ATOM     45  H   LIG d   1       4.926  -1.409 -14.468  0.00  0.00     0.034 H 
ATOM     46  H   LIG d   1       3.973   0.077 -14.686  0.00  0.00     0.034 H 
ENDBRANCH  41  43
ENDBRANCH  40  41
ENDBRANCH  20  40
BRANCH  17  47
ATOM     47  C   LIG d   1       3.726  -3.144  -8.182  0.00  0.00    -0.056 C 
ATOM     48  H   LIG d   1       2.781  -3.589  -8.488  0.00  0.00     0.024 H 
ATOM     49  H   LIG d   1       4.541  -3.835  -8.395  0.00  0.00     0.024 H 
ATOM     50  H   LIG d   1       3.698  -2.933  -7.113  0.00  0.00     0.024 H 
ENDBRANCH  17  47
BRANCH   7  51
ATOM     51  C   LIG d   1       5.543   0.222  -4.834  0.00  0.00    -0.059 C 
ATOM     52  H   LIG d   1       6.329  -0.151  -4.178  0.00  0.00     0.024 H 
ATOM     53  H   LIG d   1       5.991   0.639  -5.736  0.00  0.00     0.024 H 
ATOM     54  H   LIG d   1       4.975   0.995  -4.318  0.00  0.00     0.024 H 
ENDBRANCH   7  51
BRANCH   1  55
ATOM     55  C   LIG d   1       4.712  -1.203  -2.743  0.00  0.00     0.134 C 
ATOM     56  O   LIG d   1       5.628  -1.972  -2.568  0.00  0.00    -0.297 OA
BRANCH  55  57
ATOM     57  C   LIG d   1       4.451  -0.103  -1.748  0.00  0.00    -0.006 C 
ATOM     58  H   LIG d   1       3.944   0.636  -2.193  0.00  0.00     0.031 H 
ATOM     59  H   LIG d   1       3.866  -0.496  -0.916  0.00  0.00     0.031 H 
ATOM     60  H   LIG d   1       5.400   0.283  -1.374  0.00  0.00     0.031 H 
ENDBRANCH  55  57
ENDBRANCH   1  55
TORSDOF 7
ENDMDL
MODEL 2
REMARK VINA RESULT:      -5.6      4.689      6.088
REMARK  7 active torsions:
REMARK  status: ('A' for Active; 'I' for Inactive)
REMARK    1  A    between atoms: C_1  and  C_2 
REMARK    2  A    between atoms: C_2  and  C_4 
REMARK    3  A    between atoms: C_10  and  C_31 
REMARK    4  A    between atoms: C_20  and  C_30 
REMARK    5  A    between atoms: C_23  and  O_26 
REMARK    6  A    between atoms: O_26  and  C_27 
REMARK    7  A    between atoms: C_27  and  C_29 
ROOT
ATOM      1  C   LIG d   1       5.568  -0.852  -2.717  0.00  0.00     0.023 C 
ATOM      2  H   LIG d   1       6.417  -1.080  -2.241  0.00  0.00     0.038 H 
ATOM      3  C   LIG d   1       4.394  -1.722  -2.204  0.00  0.00    -0.043 C 
ATOM      4  C   LIG d   1       4.014  -2.682  -3.365  0.00  0.00    -0.049 C 
ATOM      5  C   LIG d   1       5.273  -2.671  -4.239  0.00  0.00    -0.032 C 
ATOM      6  H   LIG d   1       6.046  -3.270  -3.738  0.00  0.00     0.031 H 
ATOM      7  C   LIG d   1       5.666  -1.175  -4.215  0.00  0.00    -0.019 C 
ATOM      8  C   LIG d   1       7.032  -1.009  -4.834  0.00  0.00    -0.046 C 
ATOM      9  C   LIG d   1       7.119  -1.660  -6.210  0.00  0.00    -0.049 C 
ATOM     10  C   LIG d   1       6.491  -3.040  -6.350  0.00  0.00    -0.029 C 
ATOM     11  H   LIG d   1       6.283  -3.164  -7.444  0.00  0.00     0.031 H 
ATOM     12  C   LIG d   1       5.126  -3.113  -5.669  0.00  0.00    -0.031 C 
ATOM     13  H   LIG d   1       4.445  -2.429  -6.204  0.00  0.00     0.031 H 
ATOM     14  C   LIG d   1       4.507  -4.498  -5.791  0.00  0.00    -0.031 C 
ATOM     15  C   LIG d   1       5.485  -5.562  -5.404  0.00  0.00    -0.084 C 
ATOM     16  C   LIG d   1       6.768  -5.416  -5.517  0.00  0.00    -0.064 C 
ATOM     17  C   LIG d   1       7.440  -4.161  -5.995  0.00  0.00    -0.008 C 
ATOM     18  C   LIG d   1       8.281  -4.526  -7.231  0.00  0.00    -0.040 C 
ATOM     19  C   LIG d   1       9.226  -5.683  -6.925  0.00  0.00    -0.015 C 
ATOM     20  C   LIG d   1       8.467  -6.923  -6.462  0.00  0.00     0.107 C 
ATOM     21  H   LIG d   1       9.178  -7.722  -6.241  0.00  0.00     0.074 H 
ATOM     22  C   LIG d   1       7.660  -6.605  -5.198  0.00  0.00     0.006 C 
ATOM     23  H   LIG d   1       3.543  -1.093  -1.944  0.00  0.00     0.027 H 
ATOM     24  H   LIG d   1       4.711  -2.299  -1.334  0.00  0.00     0.027 H 
ATOM     25  H   LIG d   1       3.145  -2.323  -3.909  0.00  0.00     0.027 H 
ATOM     26  H   LIG d   1       3.829  -3.688  -2.980  0.00  0.00     0.027 H 
ATOM     27  H   LIG d   1       7.799  -1.381  -4.155  0.00  0.00     0.027 H 
ATOM     28  H   LIG d   1       7.225   0.076  -4.950  0.00  0.00     0.027 H 
ATOM     29  H   LIG d   1       8.168  -1.697  -6.533  0.00  0.00     0.027 H 
ATOM     30  H   LIG d   1       6.625  -0.992  -6.940  0.00  0.00     0.027 H 
ATOM     31  H   LIG d   1       3.627  -4.561  -5.147  0.00  0.00     0.031 H 
ATOM     32  H   LIG d   1       4.191  -4.659  -6.826  0.00  0.00     0.031 H 
ATOM     33  H   LIG d   1       5.104  -6.496  -5.010  0.00  0.00     0.057 H 
ATOM     34  H   LIG d   1       7.609  -4.804  -8.045  0.00  0.00     0.028 H 
ATOM     35  H   LIG d   1       8.860  -3.650  -7.533  0.00  0.00     0.028 H 
ATOM     36  H   LIG d   1       9.774  -5.936  -7.844  0.00  0.00     0.030 H 
ATOM     37  H   LIG d   1       9.962  -5.397  -6.176  0.00  0.00     0.030 H 
ATOM     38  H   LIG d   1       8.329  -6.376  -4.374  0.00  0.00     0.035 H 
ATOM     39  H   LIG d   1       7.041  -7.465  -4.937  0.00  0.00     0.035 H 
ENDROOT
BRANCH  20  40
ATOM     40  O   LIG d   1       7.565  -7.363  -7.510  0.00  0.00    -0.461 OA
BRANCH  40  41
ATOM     41  C   LIG d   1       7.018  -8.582  -7.372  0.00  0.00     0.304 C 
ATOM     42  O   LIG d   1       7.727  -9.549  -7.221  0.00  0.00    -0.251 OA
BRANCH  41  43
ATOM     43  C   LIG d   1       5.520  -8.743  -7.404  0.00  0.00     0.033 C 
ATOM     44  H   LIG d   1       5.190  -8.874  -8.434  0.00  0.00     0.034 H 
ATOM     45  H   LIG d   1       5.237  -9.618  -6.818  0.00  0.00     0.034 H 
ATOM     46  H   LIG d   1       5.049  -7.856  -6.981  0.00  0.00     0.034 H 
ENDBRANCH  41  43
ENDBRANCH  40  41
ENDBRANCH  20  40
BRANCH  17  47
ATOM     47  C   LIG d   1       8.413  -3.719  -4.903  0.00  0.00    -0.056 C 
ATOM     48  H   LIG d   1       9.091  -4.538  -4.669  0.00  0.00     0.024 H 
ATOM     49  H   LIG d   1       8.985  -2.860  -5.253  0.00  0.00     0.024 H 
ATOM     50  H   LIG d   1       7.854  -3.443  -4.009  0.00  0.00     0.024 H 
ENDBRANCH  17  47
BRANCH   7  51
ATOM     51  C   LIG d   1       4.649  -0.303  -4.952  0.00  0.00    -0.059 C 
ATOM     52  H   LIG d   1       4.999   0.729  -4.968  0.00  0.00     0.024 H 
ATOM     53  H   LIG d   1       4.537  -0.664  -5.975  0.00  0.00     0.024 H 
ATOM     54  H   LIG d   1       3.689  -0.354  -4.440  0.00  0.00     0.024 H 
ENDBRANCH   7  51
BRANCH   1  55
ATOM     55  C   LIG d   1       5.262   0.610  -2.526  0.00  0.00     0.134 C 
ATOM     56  O   LIG d   1       6.105   1.440  -2.770  0.00  0.00    -0.297 OA
BRANCH  55  57
ATOM     57  C   LIG d   1       3.903   1.037  -2.034  0.00  0.00    -0.006 C 
ATOM     58  H   LIG d   1       3.257   1.035  -2.797  0.00  0.00     0.031 H 
ATOM     59  H   LIG d   1       3.561   0.343  -1.265  0.00  0.00     0.031 H 
ATOM     60  H   LIG d   1       3.967   2.041  -1.614  0.00  0.00     0.031 H 
ENDBRANCH  55  57
ENDBRANCH   1  55
TORSDOF 7
ENDMDL
MODEL 3
REMARK VINA RESULT:      -5.6      5.103      6.796
REMARK  7 active torsions:
REMARK  status: ('A' for Active; 'I' for Inactive)
REMARK    1  A    between atoms: C_1  and  C_2 
REMARK    2  A    between atoms: C_2  and  C_4 
REMARK    3  A    between atoms: C_10  and  C_31 
REMARK    4  A    between atoms: C_20  and  C_30 
REMARK    5  A    between atoms: C_23  and  O_26 
REMARK    6  A    between atoms: O_26  and  C_27 
REMARK    7  A    between atoms: C_27  and  C_29 
ROOT
ATOM      1  C   LIG d   1       5.409  -0.934  -2.586  0.00  0.00     0.023 C 
ATOM      2  H   LIG d   1       6.090  -1.126  -1.881  0.00  0.00     0.038 H 
ATOM      3  C   LIG d   1       4.218  -1.920  -2.489  0.00  0.00    -0.043 C 
ATOM      4  C   LIG d   1       4.297  -2.833  -3.744  0.00  0.00    -0.049 C 
ATOM      5  C   LIG d   1       5.755  -2.674  -4.188  0.00  0.00    -0.032 C 
ATOM      6  H   LIG d   1       6.391  -3.242  -3.495  0.00  0.00     0.031 H 
ATOM      7  C   LIG d   1       5.985  -1.157  -3.992  0.00  0.00    -0.019 C 
ATOM      8  C   LIG d   1       7.453  -0.851  -4.156  0.00  0.00    -0.046 C 
ATOM      9  C   LIG d   1       8.012  -1.409  -5.460  0.00  0.00    -0.049 C 
ATOM     10  C   LIG d   1       7.583  -2.821  -5.834  0.00  0.00    -0.029 C 
ATOM     11  H   LIG d   1       7.729  -2.893  -6.943  0.00  0.00     0.031 H 
ATOM     12  C   LIG d   1       6.088  -3.038  -5.609  0.00  0.00    -0.031 C 
ATOM     13  H   LIG d   1       5.543  -2.376  -6.302  0.00  0.00     0.031 H 
ATOM     14  C   LIG d   1       5.664  -4.456  -5.963  0.00  0.00    -0.031 C 
ATOM     15  C   LIG d   1       6.570  -5.465  -5.332  0.00  0.00    -0.084 C 
ATOM     16  C   LIG d   1       7.808  -5.216  -5.040  0.00  0.00    -0.064 C 
ATOM     17  C   LIG d   1       8.477  -3.886  -5.245  0.00  0.00    -0.008 C 
ATOM     18  C   LIG d   1       9.682  -4.111  -6.174  0.00  0.00    -0.040 C 
ATOM     19  C   LIG d   1      10.591  -5.210  -5.634  0.00  0.00    -0.015 C 
ATOM     20  C   LIG d   1       9.842  -6.530  -5.469  0.00  0.00     0.107 C 
ATOM     21  H   LIG d   1      10.522  -7.285  -5.069  0.00  0.00     0.074 H 
ATOM     22  C   LIG d   1       8.666  -6.351  -4.504  0.00  0.00     0.006 C 
ATOM     23  H   LIG d   1       3.276  -1.374  -2.481  0.00  0.00     0.027 H 
ATOM     24  H   LIG d   1       4.308  -2.523  -1.585  0.00  0.00     0.027 H 
ATOM     25  H   LIG d   1       3.605  -2.508  -4.516  0.00  0.00     0.027 H 
ATOM     26  H   LIG d   1       4.095  -3.872  -3.469  0.00  0.00     0.027 H 
ATOM     27  H   LIG d   1       8.009  -1.205  -3.287  0.00  0.00     0.027 H 
ATOM     28  H   LIG d   1       7.573   0.251  -4.168  0.00  0.00     0.027 H 
ATOM     29  H   LIG d   1       9.108  -1.347  -5.446  0.00  0.00     0.027 H 
ATOM     30  H   LIG d   1       7.704  -0.736  -6.282  0.00  0.00     0.027 H 
ATOM     31  H   LIG d   1       4.640  -4.624  -5.623  0.00  0.00     0.031 H 
ATOM     32  H   LIG d   1       5.692  -4.577  -7.050  0.00  0.00     0.031 H 
ATOM     33  H   LIG d   1       6.174  -6.447  -5.107  0.00  0.00     0.057 H 
ATOM     34  H   LIG d   1       9.317  -4.389  -7.164  0.00  0.00     0.028 H 
ATOM     35  H   LIG d   1      10.244  -3.178  -6.253  0.00  0.00     0.028 H 
ATOM     36  H   LIG d   1      11.413  -5.365  -6.348  0.00  0.00     0.030 H 
ATOM     37  H   LIG d   1      11.036  -4.916  -4.685  0.00  0.00     0.030 H 
ATOM     38  H   LIG d   1       9.030  -6.122  -3.507  0.00  0.00     0.035 H 
ATOM     39  H   LIG d   1       8.076  -7.270  -4.476  0.00  0.00     0.035 H 
ENDROOT
BRANCH  20  40
ATOM     40  O   LIG d   1       9.344  -6.972  -6.759  0.00  0.00    -0.461 OA
BRANCH  40  41
ATOM     41  C   LIG d   1       8.914  -8.241  -6.843  0.00  0.00     0.304 C 
ATOM     42  O   LIG d   1       9.643  -9.149  -6.521  0.00  0.00    -0.251 OA
BRANCH  41  43
ATOM     43  C   LIG d   1       7.520  -8.533  -7.339  0.00  0.00     0.033 C 
ATOM     44  H   LIG d   1       7.534  -9.432  -7.954  0.00  0.00     0.034 H 
ATOM     45  H   LIG d   1       6.857  -8.684  -6.488  0.00  0.00     0.034 H 
ATOM     46  H   LIG d   1       7.163  -7.692  -7.933  0.00  0.00     0.034 H 
ENDBRANCH  41  43
ENDBRANCH  40  41
ENDBRANCH  20  40
BRANCH  17  47
ATOM     47  C   LIG d   1       9.030  -3.440  -3.892  0.00  0.00    -0.056 C 
ATOM     48  H   LIG d   1       8.355  -3.763  -3.100  0.00  0.00     0.024 H 
ATOM     49  H   LIG d   1      10.013  -3.883  -3.737  0.00  0.00     0.024 H 
ATOM     50  H   LIG d   1       9.114  -2.353  -3.876  0.00  0.00     0.024 H 
ENDBRANCH  17  47
BRANCH   7  51
ATOM     51  C   LIG d   1       5.165  -0.320  -4.975  0.00  0.00    -0.059 C 
ATOM     52  H   LIG d   1       5.346   0.738  -4.791  0.00  0.00     0.024 H 
ATOM     53  H   LIG d   1       5.461  -0.567  -5.995  0.00  0.00     0.024 H 
ATOM     54  H   LIG d   1       4.106  -0.538  -4.841  0.00  0.00     0.024 H 
ENDBRANCH   7  51
BRANCH   1  55
ATOM     55  C   LIG d   1       4.929   0.486  -2.448  0.00  0.00     0.134 C 
ATOM     56  O   LIG d   1       5.727   1.391  -2.390  0.00  0.00    -0.297 OA
BRANCH  55  57
ATOM     57  C   LIG d   1       3.452   0.779  -2.384  0.00  0.00    -0.006 C 
ATOM     58  H   LIG d   1       3.171   0.871  -1.429  0.00  0.00     0.031 H 
ATOM     59  H   LIG d   1       3.243   1.708  -2.915  0.00  0.00     0.031 H 
ATOM     60  H   LIG d   1       2.898  -0.037  -2.848  0.00  0.00     0.031 H 
ENDBRANCH  55  57
ENDBRANCH   1  55
TORSDOF 7
ENDMDL
MODEL 4
REMARK VINA RESULT:      -5.3      3.410      4.470
REMARK  7 active torsions:
REMARK  status: ('A' for Active; 'I' for Inactive)
REMARK    1  A    between atoms: C_1  and  C_2 
REMARK    2  A    between atoms: C_2  and  C_4 
REMARK    3  A    between atoms: C_10  and  C_31 
REMARK    4  A    between atoms: C_20  and  C_30 
REMARK    5  A    between atoms: C_23  and  O_26 
REMARK    6  A    between atoms: O_26  and  C_27 
REMARK    7  A    between atoms: C_27  and  C_29 
ROOT
ATOM      1  C   LIG d   1       3.597  -0.144  -3.892  0.00  0.00     0.023 C 
ATOM      2  H   LIG d   1       3.039  -0.817  -3.409  0.00  0.00     0.038 H 
ATOM      3  C   LIG d   1       2.882   0.352  -5.173  0.00  0.00    -0.043 C 
ATOM      4  C   LIG d   1       3.691  -0.208  -6.376  0.00  0.00    -0.049 C 
ATOM      5  C   LIG d   1       4.469  -1.370  -5.749  0.00  0.00    -0.032 C 
ATOM      6  H   LIG d   1       3.771  -2.202  -5.581  0.00  0.00     0.031 H 
ATOM      7  C   LIG d   1       4.908  -0.767  -4.394  0.00  0.00    -0.019 C 
ATOM      8  C   LIG d   1       5.490  -1.857  -3.529  0.00  0.00    -0.046 C 
ATOM      9  C   LIG d   1       6.580  -2.640  -4.251  0.00  0.00    -0.049 C 
ATOM     10  C   LIG d   1       6.298  -3.021  -5.698  0.00  0.00    -0.029 C 
ATOM     11  H   LIG d   1       7.303  -3.195  -6.163  0.00  0.00     0.031 H 
ATOM     12  C   LIG d   1       5.688  -1.860  -6.481  0.00  0.00    -0.031 C 
ATOM     13  H   LIG d   1       6.441  -1.056  -6.535  0.00  0.00     0.031 H 
ATOM     14  C   LIG d   1       5.387  -2.248  -7.922  0.00  0.00    -0.031 C 
ATOM     15  C   LIG d   1       4.639  -3.542  -7.988  0.00  0.00    -0.084 C 
ATOM     16  C   LIG d   1       4.739  -4.462  -7.080  0.00  0.00    -0.064 C 
ATOM     17  C   LIG d   1       5.565  -4.335  -5.832  0.00  0.00    -0.008 C 
ATOM     18  C   LIG d   1       6.583  -5.488  -5.829  0.00  0.00    -0.040 C 
ATOM     19  C   LIG d   1       5.885  -6.833  -6.002  0.00  0.00    -0.015 C 
ATOM     20  C   LIG d   1       5.082  -6.888  -7.298  0.00  0.00     0.107 C 
ATOM     21  H   LIG d   1       4.587  -7.858  -7.379  0.00  0.00     0.074 H 
ATOM     22  C   LIG d   1       4.021  -5.782  -7.308  0.00  0.00     0.006 C 
ATOM     23  H   LIG d   1       2.872   1.441  -5.202  0.00  0.00     0.027 H 
ATOM     24  H   LIG d   1       1.861  -0.032  -5.202  0.00  0.00     0.027 H 
ATOM     25  H   LIG d   1       4.357   0.543  -6.791  0.00  0.00     0.027 H 
ATOM     26  H   LIG d   1       3.012  -0.580  -7.149  0.00  0.00     0.027 H 
ATOM     27  H   LIG d   1       4.696  -2.506  -3.159  0.00  0.00     0.027 H 
ATOM     28  H   LIG d   1       5.938  -1.381  -2.634  0.00  0.00     0.027 H 
ATOM     29  H   LIG d   1       6.831  -3.540  -3.674  0.00  0.00     0.027 H 
ATOM     30  H   LIG d   1       7.506  -2.033  -4.239  0.00  0.00     0.027 H 
ATOM     31  H   LIG d   1       4.794  -1.461  -8.393  0.00  0.00     0.031 H 
ATOM     32  H   LIG d   1       6.328  -2.347  -8.470  0.00  0.00     0.031 H 
ATOM     33  H   LIG d   1       3.984  -3.719  -8.832  0.00  0.00     0.057 H 
ATOM     34  H   LIG d   1       7.293  -5.334  -6.644  0.00  0.00     0.028 H 
ATOM     35  H   LIG d   1       7.125  -5.477  -4.880  0.00  0.00     0.028 H 
ATOM     36  H   LIG d   1       6.651  -7.621  -6.036  0.00  0.00     0.030 H 
ATOM     37  H   LIG d   1       5.236  -7.047  -5.155  0.00  0.00     0.030 H 
ATOM     38  H   LIG d   1       3.286  -5.961  -6.528  0.00  0.00     0.035 H 
ATOM     39  H   LIG d   1       3.524  -5.763  -8.280  0.00  0.00     0.035 H 
ENDROOT
BRANCH  20  40
ATOM     40  O   LIG d   1       5.971  -6.710  -8.432  0.00  0.00    -0.461 OA
BRANCH  40  41
ATOM     41  C   LIG d   1       5.483  -7.020  -9.644  0.00  0.00     0.304 C 
ATOM     42  O   LIG d   1       5.031  -8.121  -9.849  0.00  0.00    -0.251 OA
BRANCH  41  43
ATOM     43  C   LIG d   1       5.500  -5.993 -10.747  0.00  0.00     0.033 C 
ATOM     44  H   LIG d   1       6.234  -6.280 -11.499  0.00  0.00     0.034 H 
ATOM     45  H   LIG d   1       4.512  -5.938 -11.205  0.00  0.00     0.034 H 
ATOM     46  H   LIG d   1       5.763  -5.020 -10.334  0.00  0.00     0.034 H 
ENDBRANCH  41  43
ENDBRANCH  40  41
ENDBRANCH  20  40
BRANCH  17  47
ATOM     47  C   LIG d   1       4.632  -4.555  -4.642  0.00  0.00    -0.056 C 
ATOM     48  H   LIG d   1       3.942  -5.366  -4.869  0.00  0.00     0.024 H 
ATOM     49  H   LIG d   1       5.221  -4.813  -3.762  0.00  0.00     0.024 H 
ATOM     50  H   LIG d   1       4.069  -3.642  -4.449  0.00  0.00     0.024 H 
ENDBRANCH  17  47
BRANCH   7  51
ATOM     51  C   LIG d   1       5.927   0.359  -4.570  0.00  0.00    -0.059 C 
ATOM     52  H   LIG d   1       6.044   0.895  -3.628  0.00  0.00     0.024 H 
ATOM     53  H   LIG d   1       6.886  -0.064  -4.869  0.00  0.00     0.024 H 
ATOM     54  H   LIG d   1       5.578   1.048  -5.339  0.00  0.00     0.024 H 
ENDBRANCH   7  51
BRANCH   1  55
ATOM     55  C   LIG d   1       3.896   1.012  -2.975  0.00  0.00     0.134 C 
ATOM     56  O   LIG d   1       3.673   2.143  -3.337  0.00  0.00    -0.297 OA
BRANCH  55  57
ATOM     57  C   LIG d   1       4.472   0.758  -1.606  0.00  0.00    -0.006 C 
ATOM     58  H   LIG d   1       5.206   1.413  -1.426  0.00  0.00     0.031 H 
ATOM     59  H   LIG d   1       3.689   0.874  -0.856  0.00  0.00     0.031 H 
ATOM     60  H   LIG d   1       4.871  -0.255  -1.561  0.00  0.00     0.031 H 
ENDBRANCH  55  57
ENDBRANCH   1  55
TORSDOF 7
ENDMDL
MODEL 5
REMARK VINA RESULT:      -5.2      9.214     11.190
REMARK  7 active torsions:
REMARK  status: ('A' for Active; 'I' for Inactive)
REMARK    1  A    between atoms: C_1  and  C_2 
REMARK    2  A    between atoms: C_2  and  C_4 
REMARK    3  A    between atoms: C_10  and  C_31 
REMARK    4  A    between atoms: C_20  and  C_30 
REMARK    5  A    between atoms: C_23  and  O_26 
REMARK    6  A    between atoms: O_26  and  C_27 
REMARK    7  A    between atoms: C_27  and  C_29 
ROOT
ATOM      1  C   LIG d   1      12.448   6.707  -1.636  0.00  0.00     0.023 C 
ATOM      2  H   LIG d   1      13.231   7.085  -2.128  0.00  0.00     0.038 H 
ATOM      3  C   LIG d   1      12.408   5.164  -1.760  0.00  0.00    -0.043 C 
ATOM      4  C   LIG d   1      11.177   4.823  -2.646  0.00  0.00    -0.049 C 
ATOM      5  C   LIG d   1      10.911   6.143  -3.377  0.00  0.00    -0.032 C 
ATOM      6  H   LIG d   1      11.679   6.269  -4.152  0.00  0.00     0.031 H 
ATOM      7  C   LIG d   1      11.124   7.182  -2.250  0.00  0.00    -0.019 C 
ATOM      8  C   LIG d   1      11.136   8.568  -2.846  0.00  0.00    -0.046 C 
ATOM      9  C   LIG d   1       9.912   8.826  -3.717  0.00  0.00    -0.049 C 
ATOM     10  C   LIG d   1       9.498   7.704  -4.658  0.00  0.00    -0.029 C 
ATOM     11  H   LIG d   1       8.415   7.886  -4.882  0.00  0.00     0.031 H 
ATOM     12  C   LIG d   1       9.543   6.341  -3.970  0.00  0.00    -0.031 C 
ATOM     13  H   LIG d   1       8.785   6.342  -3.168  0.00  0.00     0.031 H 
ATOM     14  C   LIG d   1       9.149   5.217  -4.917  0.00  0.00    -0.031 C 
ATOM     15  C   LIG d   1       9.891   5.316  -6.212  0.00  0.00    -0.084 C 
ATOM     16  C   LIG d   1      10.328   6.439  -6.690  0.00  0.00    -0.064 C 
ATOM     17  C   LIG d   1      10.197   7.764  -5.996  0.00  0.00    -0.008 C 
ATOM     18  C   LIG d   1       9.420   8.705  -6.934  0.00  0.00    -0.040 C 
ATOM     19  C   LIG d   1      10.073   8.763  -8.311  0.00  0.00    -0.015 C 
ATOM     20  C   LIG d   1      10.155   7.382  -8.955  0.00  0.00     0.107 C 
ATOM     21  H   LIG d   1      10.639   7.464  -9.930  0.00  0.00     0.074 H 
ATOM     22  C   LIG d   1      10.970   6.435  -8.068  0.00  0.00     0.006 C 
ATOM     23  H   LIG d   1      12.299   4.709  -0.776  0.00  0.00     0.027 H 
ATOM     24  H   LIG d   1      13.320   4.805  -2.238  0.00  0.00     0.027 H 
ATOM     25  H   LIG d   1      10.326   4.520  -2.043  0.00  0.00     0.027 H 
ATOM     26  H   LIG d   1      11.432   4.038  -3.362  0.00  0.00     0.027 H 
ATOM     27  H   LIG d   1      12.066   8.734  -3.387  0.00  0.00     0.027 H 
ATOM     28  H   LIG d   1      11.131   9.298  -2.013  0.00  0.00     0.027 H 
ATOM     29  H   LIG d   1      10.056   9.753  -4.288  0.00  0.00     0.027 H 
ATOM     30  H   LIG d   1       9.054   9.039  -3.052  0.00  0.00     0.027 H 
ATOM     31  H   LIG d   1       9.364   4.254  -4.447  0.00  0.00     0.031 H 
ATOM     32  H   LIG d   1       8.075   5.273  -5.112  0.00  0.00     0.031 H 
ATOM     33  H   LIG d   1      10.073   4.409  -6.774  0.00  0.00     0.057 H 
ATOM     34  H   LIG d   1       8.395   8.342  -7.027  0.00  0.00     0.028 H 
ATOM     35  H   LIG d   1       9.404   9.705  -6.494  0.00  0.00     0.028 H 
ATOM     36  H   LIG d   1       9.464   9.411  -8.958  0.00  0.00     0.030 H 
ATOM     37  H   LIG d   1      11.067   9.204  -8.253  0.00  0.00     0.030 H 
ATOM     38  H   LIG d   1      12.002   6.768  -8.014  0.00  0.00     0.035 H 
ATOM     39  H   LIG d   1      10.933   5.426  -8.484  0.00  0.00     0.035 H 
ENDROOT
BRANCH  20  40
ATOM     40  O   LIG d   1       8.817   6.845  -9.130  0.00  0.00    -0.461 OA
BRANCH  40  41
ATOM     41  C   LIG d   1       8.658   5.898 -10.068  0.00  0.00     0.304 C 
ATOM     42  O   LIG d   1       8.157   4.838  -9.777  0.00  0.00    -0.251 OA
BRANCH  41  43
ATOM     43  C   LIG d   1       9.105   6.158 -11.484  0.00  0.00     0.033 C 
ATOM     44  H   LIG d   1       8.297   5.911 -12.171  0.00  0.00     0.034 H 
ATOM     45  H   LIG d   1       9.367   7.210 -11.594  0.00  0.00     0.034 H 
ATOM     46  H   LIG d   1       9.976   5.542 -11.709  0.00  0.00     0.034 H 
ENDBRANCH  41  43
ENDBRANCH  40  41
ENDBRANCH  20  40
BRANCH  17  47
ATOM     47  C   LIG d   1      11.603   8.342  -5.844  0.00  0.00    -0.056 C 
ATOM     48  H   LIG d   1      12.280   7.832  -6.527  0.00  0.00     0.024 H 
ATOM     49  H   LIG d   1      11.585   9.406  -6.075  0.00  0.00     0.024 H 
ATOM     50  H   LIG d   1      11.945   8.198  -4.818  0.00  0.00     0.024 H 
ENDBRANCH  17  47
BRANCH   7  51
ATOM     51  C   LIG d   1      10.043   7.087  -1.171  0.00  0.00    -0.059 C 
ATOM     52  H   LIG d   1      10.312   6.311  -0.455  0.00  0.00     0.024 H 
ATOM     53  H   LIG d   1       9.961   8.044  -0.656  0.00  0.00     0.024 H 
ATOM     54  H   LIG d   1       9.089   6.840  -1.635  0.00  0.00     0.024 H 
ENDBRANCH   7  51
BRANCH   1  55
ATOM     55  C   LIG d   1      12.519   7.117  -0.189  0.00  0.00     0.134 C 
ATOM     56  O   LIG d   1      12.274   6.313   0.679  0.00  0.00    -0.297 OA
BRANCH  55  57
ATOM     57  C   LIG d   1      12.898   8.529   0.176  0.00  0.00    -0.006 C 
ATOM     58  H   LIG d   1      12.170   9.153  -0.108  0.00  0.00     0.031 H 
ATOM     59  H   LIG d   1      13.038   8.600   1.255  0.00  0.00     0.031 H 
ATOM     60  H   LIG d   1      13.825   8.799  -0.329  0.00  0.00     0.031 H 
ENDBRANCH  55  57
ENDBRANCH   1  55
TORSDOF 7
ENDMDL
MODEL 6
REMARK VINA RESULT:      -5.1     10.100     13.615
REMARK  7 active torsions:
REMARK  status: ('A' for Active; 'I' for Inactive)
REMARK    1  A    between atoms: C_1  and  C_2 
REMARK    2  A    between atoms: C_2  and  C_4 
REMARK    3  A    between atoms: C_10  and  C_31 
REMARK    4  A    between atoms: C_20  and  C_30 
REMARK    5  A    between atoms: C_23  and  O_26 
REMARK    6  A    between atoms: O_26  and  C_27 
REMARK    7  A    between atoms: C_27  and  C_29 
ROOT
ATOM      1  C   LIG d   1      11.599   8.173  -8.152  0.00  0.00     0.023 C 
ATOM      2  H   LIG d   1      12.374   7.544  -8.110  0.00  0.00     0.038 H 
ATOM      3  C   LIG d   1      12.000   9.581  -7.649  0.00  0.00    -0.043 C 
ATOM      4  C   LIG d   1      11.256   9.798  -6.301  0.00  0.00    -0.049 C 
ATOM      5  C   LIG d   1      10.912   8.368  -5.872  0.00  0.00    -0.032 C 
ATOM      6  H   LIG d   1      11.830   7.885  -5.510  0.00  0.00     0.031 H 
ATOM      7  C   LIG d   1      10.471   7.728  -7.210  0.00  0.00    -0.019 C 
ATOM      8  C   LIG d   1      10.319   6.239  -7.024  0.00  0.00    -0.046 C 
ATOM      9  C   LIG d   1       9.423   5.898  -5.839  0.00  0.00    -0.049 C 
ATOM     10  C   LIG d   1       9.641   6.706  -4.567  0.00  0.00    -0.029 C 
ATOM     11  H   LIG d   1       8.681   6.626  -3.994  0.00  0.00     0.031 H 
ATOM     12  C   LIG d   1       9.809   8.196  -4.863  0.00  0.00    -0.031 C 
ATOM     13  H   LIG d   1       8.858   8.566  -5.283  0.00  0.00     0.031 H 
ATOM     14  C   LIG d   1      10.048   9.000  -3.594  0.00  0.00    -0.031 C 
ATOM     15  C   LIG d   1      11.119   8.379  -2.754  0.00  0.00    -0.084 C 
ATOM     16  C   LIG d   1      11.383   7.110  -2.773  0.00  0.00    -0.064 C 
ATOM     17  C   LIG d   1      10.696   6.115  -3.664  0.00  0.00    -0.008 C 
ATOM     18  C   LIG d   1      10.053   5.049  -2.759  0.00  0.00    -0.040 C 
ATOM     19  C   LIG d   1      11.080   4.453  -1.802  0.00  0.00    -0.015 C 
ATOM     20  C   LIG d   1      11.719   5.525  -0.923  0.00  0.00     0.107 C 
ATOM     21  H   LIG d   1      12.456   5.061  -0.264  0.00  0.00     0.074 H 
ATOM     22  C   LIG d   1      12.416   6.574  -1.795  0.00  0.00     0.006 C 
ATOM     23  H   LIG d   1      11.698  10.340  -8.370  0.00  0.00     0.027 H 
ATOM     24  H   LIG d   1      13.078   9.626  -7.489  0.00  0.00     0.027 H 
ATOM     25  H   LIG d   1      10.363  10.402  -6.433  0.00  0.00     0.027 H 
ATOM     26  H   LIG d   1      11.923  10.263  -5.571  0.00  0.00     0.027 H 
ATOM     27  H   LIG d   1      11.300   5.770  -6.944  0.00  0.00     0.027 H 
ATOM     28  H   LIG d   1       9.856   5.826  -7.942  0.00  0.00     0.027 H 
ATOM     29  H   LIG d   1       9.502   4.827  -5.614  0.00  0.00     0.027 H 
ATOM     30  H   LIG d   1       8.371   6.042  -6.150  0.00  0.00     0.027 H 
ATOM     31  H   LIG d   1      10.338  10.019  -3.860  0.00  0.00     0.031 H 
ATOM     32  H   LIG d   1       9.119   9.045  -3.018  0.00  0.00     0.031 H 
ATOM     33  H   LIG d   1      11.700   9.018  -2.102  0.00  0.00     0.057 H 
ATOM     34  H   LIG d   1       9.244   5.511  -2.191  0.00  0.00     0.028 H 
ATOM     35  H   LIG d   1       9.638   4.258  -3.389  0.00  0.00     0.028 H 
ATOM     36  H   LIG d   1      10.569   3.730  -1.150  0.00  0.00     0.030 H 
ATOM     37  H   LIG d   1      11.852   3.912  -2.347  0.00  0.00     0.030 H 
ATOM     38  H   LIG d   1      13.252   6.127  -2.325  0.00  0.00     0.035 H 
ATOM     39  H   LIG d   1      12.777   7.389  -1.165  0.00  0.00     0.035 H 
ENDROOT
BRANCH  20  40
ATOM     40  O   LIG d   1      10.697   6.169  -0.119  0.00  0.00    -0.461 OA
BRANCH  40  41
ATOM     41  C   LIG d   1      11.071   6.633   1.085  0.00  0.00     0.304 C 
ATOM     42  O   LIG d   1      11.154   5.877   2.024  0.00  0.00    -0.251 OA
BRANCH  41  43
ATOM     43  C   LIG d   1      11.389   8.096   1.263  0.00  0.00     0.033 C 
ATOM     44  H   LIG d   1      11.320   8.602   0.301  0.00  0.00     0.034 H 
ATOM     45  H   LIG d   1      10.677   8.539   1.959  0.00  0.00     0.034 H 
ATOM     46  H   LIG d   1      12.399   8.202   1.659  0.00  0.00     0.034 H 
ENDBRANCH  41  43
ENDBRANCH  40  41
ENDBRANCH  20  40
BRANCH  17  47
ATOM     47  C   LIG d   1      11.778   5.414  -4.485  0.00  0.00    -0.056 C 
ATOM     48  H   LIG d   1      11.645   4.335  -4.414  0.00  0.00     0.024 H 
ATOM     49  H   LIG d   1      11.700   5.723  -5.526  0.00  0.00     0.024 H 
ATOM     50  H   LIG d   1      12.760   5.685  -4.097  0.00  0.00     0.024 H 
ENDBRANCH  17  47
BRANCH   7  51
ATOM     51  C   LIG d   1       9.162   8.325  -7.727  0.00  0.00    -0.059 C 
ATOM     52  H   LIG d   1       8.950   7.931  -8.721  0.00  0.00     0.024 H 
ATOM     53  H   LIG d   1       8.350   8.059  -7.051  0.00  0.00     0.024 H 
ATOM     54  H   LIG d   1       9.253   9.410  -7.778  0.00  0.00     0.024 H 
ENDBRANCH   7  51
BRANCH   1  55
ATOM     55  C   LIG d   1      11.087   8.245  -9.566  0.00  0.00     0.134 C 
ATOM     56  O   LIG d   1      10.730   9.304 -10.026  0.00  0.00    -0.297 OA
BRANCH  55  57
ATOM     57  C   LIG d   1      11.023   6.997 -10.409  0.00  0.00    -0.006 C 
ATOM     58  H   LIG d   1      11.917   6.549 -10.409  0.00  0.00     0.031 H 
ATOM     59  H   LIG d   1      10.276   6.319  -9.996  0.00  0.00     0.031 H 
ATOM     60  H   LIG d   1      10.748   7.261 -11.430  0.00  0.00     0.031 H 
ENDBRANCH  55  57
ENDBRANCH   1  55
TORSDOF 7
ENDMDL
MODEL 7
REMARK VINA RESULT:      -5.1      7.979     12.119
REMARK  7 active torsions:
REMARK  status: ('A' for Active; 'I' for Inactive)
REMARK    1  A    between atoms: C_1  and  C_2 
REMARK    2  A    between atoms: C_2  and  C_4 
REMARK    3  A    between atoms: C_10  and  C_31 
REMARK    4  A    between atoms: C_20  and  C_30 
REMARK    5  A    between atoms: C_23  and  O_26 
REMARK    6  A    between atoms: O_26  and  C_27 
REMARK    7  A    between atoms: C_27  and  C_29 
ROOT
ATOM      1  C   LIG d   1       8.461   2.460  -5.812  0.00  0.00     0.023 C 
ATOM      2  H   LIG d   1       7.677   3.063  -5.957  0.00  0.00     0.038 H 
ATOM      3  C   LIG d   1       8.303   1.650  -4.502  0.00  0.00    -0.043 C 
ATOM      4  C   LIG d   1       9.374   2.192  -3.515  0.00  0.00    -0.049 C 
ATOM      5  C   LIG d   1       9.709   3.567  -4.101  0.00  0.00    -0.032 C 
ATOM      6  H   LIG d   1       8.877   4.250  -3.879  0.00  0.00     0.031 H 
ATOM      7  C   LIG d   1       9.753   3.267  -5.618  0.00  0.00    -0.019 C 
ATOM      8  C   LIG d   1       9.838   4.565  -6.381  0.00  0.00    -0.046 C 
ATOM      9  C   LIG d   1      10.975   5.449  -5.881  0.00  0.00    -0.049 C 
ATOM     10  C   LIG d   1      11.141   5.555  -4.372  0.00  0.00    -0.029 C 
ATOM     11  H   LIG d   1      12.205   5.868  -4.210  0.00  0.00     0.031 H 
ATOM     12  C   LIG d   1      11.014   4.194  -3.691  0.00  0.00    -0.031 C 
ATOM     13  H   LIG d   1      11.854   3.565  -4.032  0.00  0.00     0.031 H 
ATOM     14  C   LIG d   1      11.159   4.303  -2.180  0.00  0.00    -0.031 C 
ATOM     15  C   LIG d   1      10.289   5.389  -1.631  0.00  0.00    -0.084 C 
ATOM     16  C   LIG d   1       9.937   6.428  -2.322  0.00  0.00    -0.064 C 
ATOM     17  C   LIG d   1      10.305   6.654  -3.760  0.00  0.00    -0.008 C 
ATOM     18  C   LIG d   1      11.074   7.983  -3.840  0.00  0.00    -0.040 C 
ATOM     19  C   LIG d   1      10.279   9.114  -3.196  0.00  0.00    -0.015 C 
ATOM     20  C   LIG d   1       9.960   8.816  -1.734  0.00  0.00     0.107 C 
ATOM     21  H   LIG d   1       9.380   9.641  -1.313  0.00  0.00     0.074 H 
ATOM     22  C   LIG d   1       9.145   7.523  -1.625  0.00  0.00     0.006 C 
ATOM     23  H   LIG d   1       8.469   0.590  -4.691  0.00  0.00     0.027 H 
ATOM     24  H   LIG d   1       7.305   1.803  -4.088  0.00  0.00     0.027 H 
ATOM     25  H   LIG d   1      10.246   1.546  -3.482  0.00  0.00     0.027 H 
ATOM     26  H   LIG d   1       8.945   2.300  -2.514  0.00  0.00     0.027 H 
ATOM     27  H   LIG d   1       8.877   5.079  -6.353  0.00  0.00     0.027 H 
ATOM     28  H   LIG d   1      10.026   4.324  -7.446  0.00  0.00     0.027 H 
ATOM     29  H   LIG d   1      10.877   6.453  -6.314  0.00  0.00     0.027 H 
ATOM     30  H   LIG d   1      11.924   5.057  -6.296  0.00  0.00     0.027 H 
ATOM     31  H   LIG d   1      10.886   3.351  -1.719  0.00  0.00     0.031 H 
ATOM     32  H   LIG d   1      12.202   4.518  -1.935  0.00  0.00     0.031 H 
ATOM     33  H   LIG d   1       9.937   5.304  -0.611  0.00  0.00     0.057 H 
ATOM     34  H   LIG d   1      12.031   7.868  -3.328  0.00  0.00     0.028 H 
ATOM     35  H   LIG d   1      11.261   8.220  -4.890  0.00  0.00     0.028 H 
ATOM     36  H   LIG d   1      10.883  10.032  -3.238  0.00  0.00     0.030 H 
ATOM     37  H   LIG d   1       9.358   9.304  -3.745  0.00  0.00     0.030 H 
ATOM     38  H   LIG d   1       8.173   7.652  -2.092  0.00  0.00     0.035 H 
ATOM     39  H   LIG d   1       9.013   7.263  -0.573  0.00  0.00     0.035 H 
ENDROOT
BRANCH  20  40
ATOM     40  O   LIG d   1      11.194   8.671  -0.984  0.00  0.00    -0.461 OA
BRANCH  40  41
ATOM     41  C   LIG d   1      11.112   8.773   0.352  0.00  0.00     0.304 C 
ATOM     42  O   LIG d   1      10.806   9.825   0.860  0.00  0.00    -0.251 OA
BRANCH  41  43
ATOM     43  C   LIG d   1      11.400   7.573   1.218  0.00  0.00     0.033 C 
ATOM     44  H   LIG d   1      10.968   7.726   2.207  0.00  0.00     0.034 H 
ATOM     45  H   LIG d   1      10.961   6.685   0.764  0.00  0.00     0.034 H 
ATOM     46  H   LIG d   1      12.478   7.440   1.308  0.00  0.00     0.034 H 
ENDBRANCH  41  43
ENDBRANCH  40  41
ENDBRANCH  20  40
BRANCH  17  47
ATOM     47  C   LIG d   1       9.004   6.840  -4.540  0.00  0.00    -0.056 C 
ATOM     48  H   LIG d   1       8.758   5.915  -5.061  0.00  0.00     0.024 H 
ATOM     49  H   LIG d   1       8.201   7.094  -3.851  0.00  0.00     0.024 H 
ATOM     50  H   LIG d   1       9.129   7.643  -5.267  0.00  0.00     0.024 H 
ENDBRANCH  17  47
BRANCH   7  51
ATOM     51  C   LIG d   1      10.931   2.365  -5.990  0.00  0.00    -0.059 C 
ATOM     52  H   LIG d   1      11.685   2.410  -5.204  0.00  0.00     0.024 H 
ATOM     53  H   LIG d   1      10.581   1.338  -6.099  0.00  0.00     0.024 H 
ATOM     54  H   LIG d   1      11.365   2.704  -6.930  0.00  0.00     0.024 H 
ENDBRANCH   7  51
BRANCH   1  55
ATOM     55  C   LIG d   1       8.607   1.533  -6.990  0.00  0.00     0.134 C 
ATOM     56  O   LIG d   1       8.883   0.371  -6.812  0.00  0.00    -0.297 OA
BRANCH  55  57
ATOM     57  C   LIG d   1       8.407   2.055  -8.389  0.00  0.00    -0.006 C 
ATOM     58  H   LIG d   1       7.885   1.389  -8.922  0.00  0.00     0.031 H 
ATOM     59  H   LIG d   1       7.860   2.998  -8.350  0.00  0.00     0.031 H 
ATOM     60  H   LIG d   1       9.376   2.217  -8.860  0.00  0.00     0.031 H 
ENDBRANCH  55  57
ENDBRANCH   1  55
TORSDOF 7
ENDMDL
MODEL 8
REMARK VINA RESULT:      -5.1      4.976      7.186
REMARK  7 active torsions:
REMARK  status: ('A' for Active; 'I' for Inactive)
REMARK    1  A    between atoms: C_1  and  C_2 
REMARK    2  A    between atoms: C_2  and  C_4 
REMARK    3  A    between atoms: C_10  and  C_31 
REMARK    4  A    between atoms: C_20  and  C_30 
REMARK    5  A    between atoms: C_23  and  O_26 
REMARK    6  A    between atoms: O_26  and  C_27 
REMARK    7  A    between atoms: C_27  and  C_29 
ROOT
ATOM      1  C   LIG d   1       4.905  -0.822  -4.335  0.00  0.00     0.023 C 
ATOM      2  H   LIG d   1       4.543  -0.670  -5.254  0.00  0.00     0.038 H 
ATOM      3  C   LIG d   1       4.626   0.396  -3.420  0.00  0.00    -0.043 C 
ATOM      4  C   LIG d   1       6.002   1.062  -3.138  0.00  0.00    -0.049 C 
ATOM      5  C   LIG d   1       6.875   0.531  -4.280  0.00  0.00    -0.032 C 
ATOM      6  H   LIG d   1       6.592   1.053  -5.204  0.00  0.00     0.031 H 
ATOM      7  C   LIG d   1       6.435  -0.951  -4.356  0.00  0.00    -0.019 C 
ATOM      8  C   LIG d   1       7.024  -1.582  -5.593  0.00  0.00    -0.046 C 
ATOM      9  C   LIG d   1       8.531  -1.368  -5.683  0.00  0.00    -0.049 C 
ATOM     10  C   LIG d   1       9.040   0.026  -5.343  0.00  0.00    -0.029 C 
ATOM     11  H   LIG d   1      10.117  -0.110  -5.062  0.00  0.00     0.031 H 
ATOM     12  C   LIG d   1       8.366   0.587  -4.092  0.00  0.00    -0.031 C 
ATOM     13  H   LIG d   1       8.660  -0.046  -3.238  0.00  0.00     0.031 H 
ATOM     14  C   LIG d   1       8.861   1.988  -3.765  0.00  0.00    -0.031 C 
ATOM     15  C   LIG d   1       8.827   2.869  -4.973  0.00  0.00    -0.084 C 
ATOM     16  C   LIG d   1       8.934   2.414  -6.182  0.00  0.00    -0.064 C 
ATOM     17  C   LIG d   1       9.053   0.958  -6.531  0.00  0.00    -0.008 C 
ATOM     18  C   LIG d   1      10.368   0.773  -7.309  0.00  0.00    -0.040 C 
ATOM     19  C   LIG d   1      10.437   1.726  -8.497  0.00  0.00    -0.015 C 
ATOM     20  C   LIG d   1      10.325   3.183  -8.058  0.00  0.00     0.107 C 
ATOM     21  H   LIG d   1      10.366   3.832  -8.936  0.00  0.00     0.074 H 
ATOM     22  C   LIG d   1       8.999   3.412  -7.326  0.00  0.00     0.006 C 
ATOM     23  H   LIG d   1       4.169   0.069  -2.486  0.00  0.00     0.027 H 
ATOM     24  H   LIG d   1       3.969   1.101  -3.930  0.00  0.00     0.027 H 
ATOM     25  H   LIG d   1       6.392   0.773  -2.167  0.00  0.00     0.027 H 
ATOM     26  H   LIG d   1       5.915   2.150  -3.203  0.00  0.00     0.027 H 
ATOM     27  H   LIG d   1       6.505  -1.221  -6.481  0.00  0.00     0.027 H 
ATOM     28  H   LIG d   1       6.830  -2.672  -5.546  0.00  0.00     0.027 H 
ATOM     29  H   LIG d   1       8.884  -1.657  -6.681  0.00  0.00     0.027 H 
ATOM     30  H   LIG d   1       9.022  -2.081  -4.994  0.00  0.00     0.027 H 
ATOM     31  H   LIG d   1       8.234   2.420  -2.981  0.00  0.00     0.031 H 
ATOM     32  H   LIG d   1       9.887   1.927  -3.392  0.00  0.00     0.031 H 
ATOM     33  H   LIG d   1       8.706   3.936  -4.832  0.00  0.00     0.057 H 
ATOM     34  H   LIG d   1      11.205   0.962  -6.636  0.00  0.00     0.028 H 
ATOM     35  H   LIG d   1      10.424  -0.259  -7.664  0.00  0.00     0.028 H 
ATOM     36  H   LIG d   1      11.408   1.589  -8.997  0.00  0.00     0.030 H 
ATOM     37  H   LIG d   1       9.661   1.498  -9.226  0.00  0.00     0.030 H 
ATOM     38  H   LIG d   1       8.165   3.272  -8.008  0.00  0.00     0.035 H 
ATOM     39  H   LIG d   1       8.975   4.427  -6.925  0.00  0.00     0.035 H 
ENDROOT
BRANCH  20  40
ATOM     40  O   LIG d   1      11.427   3.512  -7.171  0.00  0.00    -0.461 OA
BRANCH  40  41
ATOM     41  C   LIG d   1      11.618   4.812  -6.893  0.00  0.00     0.304 C 
ATOM     42  O   LIG d   1      11.646   5.185  -5.744  0.00  0.00    -0.251 OA
BRANCH  41  43
ATOM     43  C   LIG d   1      11.798   5.804  -8.013  0.00  0.00     0.033 C 
ATOM     44  H   LIG d   1      12.523   5.416  -8.729  0.00  0.00     0.034 H 
ATOM     45  H   LIG d   1      10.843   5.963  -8.513  0.00  0.00     0.034 H 
ATOM     46  H   LIG d   1      12.158   6.749  -7.607  0.00  0.00     0.034 H 
ENDBRANCH  41  43
ENDBRANCH  40  41
ENDBRANCH  20  40
BRANCH  17  47
ATOM     47  C   LIG d   1       7.912   0.623  -7.491  0.00  0.00    -0.056 C 
ATOM     48  H   LIG d   1       7.937   1.310  -8.336  0.00  0.00     0.024 H 
ATOM     49  H   LIG d   1       8.027  -0.399  -7.849  0.00  0.00     0.024 H 
ATOM     50  H   LIG d   1       6.960   0.722  -6.970  0.00  0.00     0.024 H 
ENDBRANCH  17  47
BRANCH   7  51
ATOM     51  C   LIG d   1       6.859  -1.739  -3.116  0.00  0.00    -0.059 C 
ATOM     52  H   LIG d   1       5.975  -2.011  -2.539  0.00  0.00     0.024 H 
ATOM     53  H   LIG d   1       7.384  -2.644  -3.423  0.00  0.00     0.024 H 
ATOM     54  H   LIG d   1       7.519  -1.126  -2.503  0.00  0.00     0.024 H 
ENDBRANCH   7  51
BRANCH   1  55
ATOM     55  C   LIG d   1       4.294  -2.069  -3.753  0.00  0.00     0.134 C 
ATOM     56  O   LIG d   1       4.254  -3.084  -4.407  0.00  0.00    -0.297 OA
BRANCH  55  57
ATOM     57  C   LIG d   1       3.733  -2.051  -2.354  0.00  0.00    -0.006 C 
ATOM     58  H   LIG d   1       4.078  -1.248  -1.867  0.00  0.00     0.031 H 
ATOM     59  H   LIG d   1       2.645  -2.008  -2.400  0.00  0.00     0.031 H 
ATOM     60  H   LIG d   1       4.040  -2.954  -1.828  0.00  0.00     0.031 H 
ENDBRANCH  55  57
ENDBRANCH   1  55
TORSDOF 7
ENDMDL
MODEL 9
REMARK VINA RESULT:      -5.0      1.663      7.453
REMARK  7 active torsions:
REMARK  status: ('A' for Active; 'I' for Inactive)
REMARK    1  A    between atoms: C_1  and  C_2 
REMARK    2  A    between atoms: C_2  and  C_4 
REMARK    3  A    between atoms: C_10  and  C_31 
REMARK    4  A    between atoms: C_20  and  C_30 
REMARK    5  A    between atoms: C_23  and  O_26 
REMARK    6  A    between atoms: O_26  and  C_27 
REMARK    7  A    between atoms: C_27  and  C_29 
ROOT
ATOM      1  C   LIG d   1       4.252  -1.962 -12.548  0.00  0.00     0.023 C 
ATOM      2  H   LIG d   1       5.173  -2.331 -12.429  0.00  0.00     0.038 H 
ATOM      3  C   LIG d   1       4.299  -0.449 -12.873  0.00  0.00    -0.043 C 
ATOM      4  C   LIG d   1       3.722   0.288 -11.632  0.00  0.00    -0.049 C 
ATOM      5  C   LIG d   1       3.867  -0.757 -10.521  0.00  0.00    -0.032 C 
ATOM      6  H   LIG d   1       4.926  -0.815 -10.236  0.00  0.00     0.031 H 
ATOM      7  C   LIG d   1       3.444  -2.057 -11.246  0.00  0.00    -0.019 C 
ATOM      8  C   LIG d   1       3.753  -3.242 -10.366  0.00  0.00    -0.046 C 
ATOM      9  C   LIG d   1       3.168  -3.084  -8.967  0.00  0.00    -0.049 C 
ATOM     10  C   LIG d   1       3.322  -1.717  -8.316  0.00  0.00    -0.029 C 
ATOM     11  H   LIG d   1       2.517  -1.663  -7.538  0.00  0.00     0.031 H 
ATOM     12  C   LIG d   1       3.012  -0.585  -9.294  0.00  0.00    -0.031 C 
ATOM     13  H   LIG d   1       1.946  -0.658  -9.568  0.00  0.00     0.031 H 
ATOM     14  C   LIG d   1       3.187   0.782  -8.649  0.00  0.00    -0.031 C 
ATOM     15  C   LIG d   1       4.498   0.880  -7.936  0.00  0.00    -0.084 C 
ATOM     16  C   LIG d   1       5.110  -0.150  -7.440  0.00  0.00    -0.064 C 
ATOM     17  C   LIG d   1       4.619  -1.565  -7.558  0.00  0.00    -0.008 C 
ATOM     18  C   LIG d   1       4.443  -2.115  -6.132  0.00  0.00    -0.040 C 
ATOM     19  C   LIG d   1       5.721  -1.944  -5.319  0.00  0.00    -0.015 C 
ATOM     20  C   LIG d   1       6.143  -0.480  -5.233  0.00  0.00     0.107 C 
ATOM     21  H   LIG d   1       7.067  -0.402  -4.656  0.00  0.00     0.074 H 
ATOM     22  C   LIG d   1       6.380   0.083  -6.638  0.00  0.00     0.006 C 
ATOM     23  H   LIG d   1       3.694  -0.232 -13.752  0.00  0.00     0.027 H 
ATOM     24  H   LIG d   1       5.330  -0.136 -13.043  0.00  0.00     0.027 H 
ATOM     25  H   LIG d   1       2.684   0.570 -11.785  0.00  0.00     0.027 H 
ATOM     26  H   LIG d   1       4.324   1.171 -11.402  0.00  0.00     0.027 H 
ATOM     27  H   LIG d   1       4.828  -3.421 -10.342  0.00  0.00     0.027 H 
ATOM     28  H   LIG d   1       3.303  -4.141 -10.832  0.00  0.00     0.027 H 
ATOM     29  H   LIG d   1       3.582  -3.857  -8.306  0.00  0.00     0.027 H 
ATOM     30  H   LIG d   1       2.086  -3.310  -9.019  0.00  0.00     0.027 H 
ATOM     31  H   LIG d   1       3.133   1.556  -9.419  0.00  0.00     0.031 H 
ATOM     32  H   LIG d   1       2.375   0.947  -7.935  0.00  0.00     0.031 H 
ATOM     33  H   LIG d   1       4.958   1.854  -7.830  0.00  0.00     0.057 H 
ATOM     34  H   LIG d   1       3.624  -1.581  -5.647  0.00  0.00     0.028 H 
ATOM     35  H   LIG d   1       4.187  -3.175  -6.193  0.00  0.00     0.028 H 
ATOM     36  H   LIG d   1       5.537  -2.311  -4.298  0.00  0.00     0.030 H 
ATOM     37  H   LIG d   1       6.531  -2.540  -5.737  0.00  0.00     0.030 H 
ATOM     38  H   LIG d   1       7.226  -0.415  -7.104  0.00  0.00     0.035 H 
ATOM     39  H   LIG d   1       6.578   1.154  -6.572  0.00  0.00     0.035 H 
ENDROOT
BRANCH  20  40
ATOM     40  O   LIG d   1       5.103   0.290  -4.575  0.00  0.00    -0.461 OA
BRANCH  40  41
ATOM     41  C   LIG d   1       5.331   0.662  -3.305  0.00  0.00     0.304 C 
ATOM     42  O   LIG d   1       6.168   1.499  -3.062  0.00  0.00    -0.251 OA
BRANCH  41  43
ATOM     43  C   LIG d   1       4.541   0.037  -2.184  0.00  0.00     0.033 C 
ATOM     44  H   LIG d   1       4.427  -1.030  -2.371  0.00  0.00     0.034 H 
ATOM     45  H   LIG d   1       5.069   0.186  -1.242  0.00  0.00     0.034 H 
ATOM     46  H   LIG d   1       3.558   0.504  -2.127  0.00  0.00     0.034 H 
ENDBRANCH  41  43
ENDBRANCH  40  41
ENDBRANCH  20  40
BRANCH  17  47
ATOM     47  C   LIG d   1       5.730  -2.380  -8.220  0.00  0.00    -0.056 C 
ATOM     48  H   LIG d   1       5.288  -3.150  -8.850  0.00  0.00     0.024 H 
ATOM     49  H   LIG d   1       6.349  -1.722  -8.829  0.00  0.00     0.024 H 
ATOM     50  H   LIG d   1       6.344  -2.848  -7.450  0.00  0.00     0.024 H 
ENDBRANCH  17  47
BRANCH   7  51
ATOM     51  C   LIG d   1       1.959  -2.053 -11.613  0.00  0.00    -0.059 C 
ATOM     52  H   LIG d   1       1.404  -1.477 -10.872  0.00  0.00     0.024 H 
ATOM     53  H   LIG d   1       1.830  -1.600 -12.596  0.00  0.00     0.024 H 
ATOM     54  H   LIG d   1       1.587  -3.076 -11.631  0.00  0.00     0.024 H 
ENDBRANCH   7  51
BRANCH   1  55
ATOM     55  C   LIG d   1       3.548  -2.714 -13.646  0.00  0.00     0.134 C 
ATOM     56  O   LIG d   1       3.554  -3.922 -13.650  0.00  0.00    -0.297 OA
BRANCH  55  57
ATOM     57  C   LIG d   1       2.832  -1.960 -14.737  0.00  0.00    -0.006 C 
ATOM     58  H   LIG d   1       2.282  -1.230 -14.331  0.00  0.00     0.031 H 
ATOM     59  H   LIG d   1       3.565  -1.527 -15.419  0.00  0.00     0.031 H 
ATOM     60  H   LIG d   1       2.183  -2.642 -15.286  0.00  0.00     0.031 H 
ENDBRANCH  55  57
ENDBRANCH   1  55
TORSDOF 7
ENDMDL
