MODEL 1
REMARK VINA RESULT:      -5.4      0.000      0.000
REMARK  8 active torsions:
REMARK  status: ('A' for Active; 'I' for Inactive)
REMARK    1  A    between atoms: C_1  and  C_2 
REMARK    2  A    between atoms: C_2  and  O_3 
REMARK    3  A    between atoms: O_3  and  C_4 
REMARK    4  A    between atoms: C_9  and  C_15 
REMARK    5  A    between atoms: C_18  and  O_23 
REMARK    6  A    between atoms: C_19  and  O_21 
REMARK    7  A    between atoms: O_21  and  C_22 
REMARK    8  A    between atoms: O_23  and  C_24 
ROOT
ATOM      1  C   LIG d   1       3.129  -1.207 -13.046  0.00  0.00     0.124 A 
ATOM      2  C   LIG d   1       2.262  -2.085 -12.397  0.00  0.00    -0.019 A 
ATOM      3  C   LIG d   1       2.181  -2.093 -11.036  0.00  0.00    -0.048 A 
ATOM      4  C   LIG d   1       2.973  -1.214 -10.281  0.00  0.00     0.018 A 
ATOM      5  C   LIG d   1       2.892  -1.219  -8.865  0.00  0.00    -0.036 A 
ATOM      6  C   LIG d   1       3.677  -0.351  -8.155  0.00  0.00     0.067 A 
ATOM      7  C   LIG d   1       4.574   0.553  -8.880  0.00  0.00     0.345 A 
ATOM      8  O   LIG d   1       5.278   1.332  -8.265  0.00  0.00    -0.244 OA
ATOM      9  O   LIG d   1       4.620   0.526 -10.222  0.00  0.00    -0.422 OA
ATOM     10  C   LIG d   1       3.849  -0.328 -10.932  0.00  0.00     0.143 A 
ATOM     11  C   LIG d   1       3.919  -0.334 -12.318  0.00  0.00     0.023 A 
ATOM     12  H   LIG d   1       1.650  -2.761 -12.975  0.00  0.00     0.065 H 
ATOM     13  H   LIG d   1       1.506  -2.775 -10.538  0.00  0.00     0.063 H 
ATOM     14  H   LIG d   1       2.223  -1.896  -8.355  0.00  0.00     0.063 H 
ATOM     15  H   LIG d   1       4.588   0.342 -12.830  0.00  0.00     0.069 H 
ENDROOT
BRANCH   6  16
ATOM     16  C   LIG d   1       3.622  -0.326  -6.675  0.00  0.00    -0.007 A 
ATOM     17  C   LIG d   1       4.495  -1.116  -5.930  0.00  0.00    -0.008 A 
ATOM     18  C   LIG d   1       4.444  -1.086  -4.548  0.00  0.00     0.162 A 
ATOM     19  H   LIG d   1       5.214  -1.748  -6.430  0.00  0.00     0.066 H 
ATOM     20  C   LIG d   1       3.511  -0.275  -3.904  0.00  0.00     0.162 A 
ATOM     21  C   LIG d   1       2.639   0.506  -4.646  0.00  0.00    -0.016 A 
ATOM     22  C   LIG d   1       2.690   0.484  -6.024  0.00  0.00    -0.050 A 
ATOM     23  H   LIG d   1       1.917   1.133  -4.143  0.00  0.00     0.066 H 
ATOM     24  H   LIG d   1       2.009   1.093  -6.600  0.00  0.00     0.062 H 
BRANCH  18  25
ATOM     25  O   LIG d   1       5.298  -1.853  -3.817  0.00  0.00    -0.491 OA
BRANCH  25  26
ATOM     26  C   LIG d   1       6.612  -1.336  -3.605  0.00  0.00     0.079 C 
ATOM     27  H   LIG d   1       7.007  -1.720  -2.665  0.00  0.00     0.066 H 
ATOM     28  H   LIG d   1       7.262  -1.645  -4.425  0.00  0.00     0.066 H 
ATOM     29  H   LIG d   1       6.573  -0.247  -3.564  0.00  0.00     0.066 H 
ENDBRANCH  25  26
ENDBRANCH  18  25
BRANCH  20  30
ATOM     30  O   LIG d   1       3.458  -0.251  -2.545  0.00  0.00    -0.491 OA
BRANCH  30  31
ATOM     31  C   LIG d   1       4.111   0.839  -1.890  0.00  0.00     0.079 C 
ATOM     32  H   LIG d   1       4.198   1.678  -2.581  0.00  0.00     0.066 H 
ATOM     33  H   LIG d   1       3.528   1.143  -1.021  0.00  0.00     0.066 H 
ATOM     34  H   LIG d   1       5.105   0.527  -1.570  0.00  0.00     0.066 H 
ENDBRANCH  30  31
ENDBRANCH  20  30
ENDBRANCH   6  16
BRANCH   1  35
ATOM     35  O   LIG d   1       3.200  -1.211 -14.402  0.00  0.00    -0.492 OA
BRANCH  35  36
ATOM     36  C   LIG d   1       4.304  -0.523 -14.995  0.00  0.00     0.087 C 
ATOM     37  H   LIG d   1       4.640   0.269 -14.327  0.00  0.00     0.069 H 
ATOM     38  H   LIG d   1       5.120  -1.225 -15.165  0.00  0.00     0.069 H 
BRANCH  36  39
ATOM     39  C   LIG d   1       3.868   0.085 -16.329  0.00  0.00    -0.031 C 
ATOM     40  H   LIG d   1       4.448   0.987 -16.524  0.00  0.00     0.026 H 
ATOM     41  H   LIG d   1       4.037  -0.635 -17.130  0.00  0.00     0.026 H 
ATOM     42  H   LIG d   1       2.808   0.336 -16.286  0.00  0.00     0.026 H 
ENDBRANCH  36  39
ENDBRANCH  35  36
ENDBRANCH   1  35
TORSDOF 8
ENDMDL
MODEL 2
REMARK VINA RESULT:      -5.1      1.274      8.354
REMARK  8 active torsions:
REMARK  status: ('A' for Active; 'I' for Inactive)
REMARK    1  A    between atoms: C_1  and  C_2 
REMARK    2  A    between atoms: C_2  and  O_3 
REMARK    3  A    between atoms: O_3  and  C_4 
REMARK    4  A    between atoms: C_9  and  C_15 
REMARK    5  A    between atoms: C_18  and  O_23 
REMARK    6  A    between atoms: C_19  and  O_21 
REMARK    7  A    between atoms: O_21  and  C_22 
REMARK    8  A    between atoms: O_23  and  C_24 
ROOT
ATOM      1  C   LIG d   1       4.070  -1.073  -4.211  0.00  0.00     0.124 A 
ATOM      2  C   LIG d   1       4.613  -2.223  -4.782  0.00  0.00    -0.019 A 
ATOM      3  C   LIG d   1       4.619  -2.384  -6.136  0.00  0.00    -0.048 A 
ATOM      4  C   LIG d   1       4.078  -1.388  -6.963  0.00  0.00     0.018 A 
ATOM      5  C   LIG d   1       4.082  -1.551  -8.372  0.00  0.00    -0.036 A 
ATOM      6  C   LIG d   1       3.547  -0.562  -9.154  0.00  0.00     0.067 A 
ATOM      7  C   LIG d   1       2.988   0.629  -8.509  0.00  0.00     0.345 A 
ATOM      8  O   LIG d   1       2.508   1.518  -9.189  0.00  0.00    -0.244 OA
ATOM      9  O   LIG d   1       3.004   0.744  -7.171  0.00  0.00    -0.422 OA
ATOM     10  C   LIG d   1       3.530  -0.226  -6.391  0.00  0.00     0.143 A 
ATOM     11  C   LIG d   1       3.531  -0.080  -5.011  0.00  0.00     0.023 A 
ATOM     12  H   LIG d   1       5.031  -2.991  -4.148  0.00  0.00     0.065 H 
ATOM     13  H   LIG d   1       5.041  -3.277  -6.572  0.00  0.00     0.063 H 
ATOM     14  H   LIG d   1       4.501  -2.439  -8.820  0.00  0.00     0.063 H 
ATOM     15  H   LIG d   1       3.112   0.808  -4.560  0.00  0.00     0.069 H 
ENDROOT
BRANCH   6  16
ATOM     16  C   LIG d   1       3.533  -0.696 -10.629  0.00  0.00    -0.007 A 
ATOM     17  C   LIG d   1       2.499  -1.387 -11.258  0.00  0.00    -0.008 A 
ATOM     18  C   LIG d   1       2.487  -1.505 -12.636  0.00  0.00     0.162 A 
ATOM     19  H   LIG d   1       1.706  -1.827 -10.670  0.00  0.00     0.066 H 
ATOM     20  C   LIG d   1       3.513  -0.943 -13.391  0.00  0.00     0.162 A 
ATOM     21  C   LIG d   1       4.544  -0.260 -12.765  0.00  0.00    -0.016 A 
ATOM     22  C   LIG d   1       4.558  -0.134 -11.391  0.00  0.00    -0.050 A 
ATOM     23  H   LIG d   1       5.339   0.174 -13.353  0.00  0.00     0.066 H 
ATOM     24  H   LIG d   1       5.363   0.397 -10.905  0.00  0.00     0.062 H 
BRANCH  18  25
ATOM     25  O   LIG d   1       1.477  -2.176 -13.253  0.00  0.00    -0.491 OA
BRANCH  25  26
ATOM     26  C   LIG d   1       0.153  -1.943 -12.768  0.00  0.00     0.079 C 
ATOM     27  H   LIG d   1       0.195  -1.669 -11.714  0.00  0.00     0.066 H 
ATOM     28  H   LIG d   1      -0.305  -1.133 -13.336  0.00  0.00     0.066 H 
ATOM     29  H   LIG d   1      -0.441  -2.849 -12.885  0.00  0.00     0.066 H 
ENDBRANCH  25  26
ENDBRANCH  18  25
BRANCH  20  30
ATOM     30  O   LIG d   1       3.503  -1.064 -14.746  0.00  0.00    -0.491 OA
BRANCH  30  31
ATOM     31  C   LIG d   1       4.561  -0.423 -15.462  0.00  0.00     0.079 C 
ATOM     32  H   LIG d   1       4.395   0.654 -15.468  0.00  0.00     0.066 H 
ATOM     33  H   LIG d   1       5.512  -0.643 -14.978  0.00  0.00     0.066 H 
ATOM     34  H   LIG d   1       4.581  -0.793 -16.487  0.00  0.00     0.066 H 
ENDBRANCH  30  31
ENDBRANCH  20  30
ENDBRANCH   6  16
BRANCH   1  35
ATOM     35  O   LIG d   1       4.069  -0.927  -2.862  0.00  0.00    -0.492 OA
BRANCH  35  36
ATOM     36  C   LIG d   1       3.544   0.297  -2.343  0.00  0.00     0.087 C 
ATOM     37  H   LIG d   1       3.164   0.906  -3.162  0.00  0.00     0.069 H 
ATOM     38  H   LIG d   1       2.734   0.080  -1.646  0.00  0.00     0.069 H 
BRANCH  36  39
ATOM     39  C   LIG d   1       4.652   1.058  -1.612  0.00  0.00    -0.031 C 
ATOM     40  H   LIG d   1       4.941   1.931  -2.198  0.00  0.00     0.026 H 
ATOM     41  H   LIG d   1       4.290   1.380  -0.635  0.00  0.00     0.026 H 
ATOM     42  H   LIG d   1       5.516   0.406  -1.482  0.00  0.00     0.026 H 
ENDBRANCH  36  39
ENDBRANCH  35  36
ENDBRANCH   1  35
TORSDOF 8
ENDMDL
MODEL 3
REMARK VINA RESULT:      -5.1      5.940      9.426
REMARK  8 active torsions:
REMARK  status: ('A' for Active; 'I' for Inactive)
REMARK    1  A    between atoms: C_1  and  C_2 
REMARK    2  A    between atoms: C_2  and  O_3 
REMARK    3  A    between atoms: O_3  and  C_4 
REMARK    4  A    between atoms: C_9  and  C_15 
REMARK    5  A    between atoms: C_18  and  O_23 
REMARK    6  A    between atoms: C_19  and  O_21 
REMARK    7  A    between atoms: O_21  and  C_22 
REMARK    8  A    between atoms: O_23  and  C_24 
ROOT
ATOM      1  C   LIG d   1       6.006  -0.971  -3.427  0.00  0.00     0.124 A 
ATOM      2  C   LIG d   1       7.315  -1.450  -3.448  0.00  0.00    -0.019 A 
ATOM      3  C   LIG d   1       7.597  -2.663  -4.006  0.00  0.00    -0.048 A 
ATOM      4  C   LIG d   1       6.565  -3.435  -4.562  0.00  0.00     0.018 A 
ATOM      5  C   LIG d   1       6.853  -4.697  -5.143  0.00  0.00    -0.036 A 
ATOM      6  C   LIG d   1       5.827  -5.428  -5.678  0.00  0.00     0.067 A 
ATOM      7  C   LIG d   1       4.467  -4.884  -5.632  0.00  0.00     0.345 A 
ATOM      8  O   LIG d   1       3.543  -5.521  -6.104  0.00  0.00    -0.244 OA
ATOM      9  O   LIG d   1       4.238  -3.685  -5.073  0.00  0.00    -0.422 OA
ATOM     10  C   LIG d   1       5.244  -2.955  -4.543  0.00  0.00     0.143 A 
ATOM     11  C   LIG d   1       4.976  -1.719  -3.970  0.00  0.00     0.023 A 
ATOM     12  H   LIG d   1       8.111  -0.858  -3.022  0.00  0.00     0.065 H 
ATOM     13  H   LIG d   1       8.613  -3.028  -4.020  0.00  0.00     0.063 H 
ATOM     14  H   LIG d   1       7.865  -5.074  -5.163  0.00  0.00     0.063 H 
ATOM     15  H   LIG d   1       3.964  -1.341  -3.949  0.00  0.00     0.069 H 
ENDROOT
BRANCH   6  16
ATOM     16  C   LIG d   1       6.087  -6.750  -6.293  0.00  0.00    -0.007 A 
ATOM     17  C   LIG d   1       5.916  -7.914  -5.545  0.00  0.00    -0.008 A 
ATOM     18  C   LIG d   1       6.156  -9.147  -6.125  0.00  0.00     0.162 A 
ATOM     19  H   LIG d   1       5.594  -7.854  -4.516  0.00  0.00     0.066 H 
ATOM     20  C   LIG d   1       6.577  -9.222  -7.451  0.00  0.00     0.162 A 
ATOM     21  C   LIG d   1       6.752  -8.064  -8.192  0.00  0.00    -0.016 A 
ATOM     22  C   LIG d   1       6.510  -6.832  -7.620  0.00  0.00    -0.050 A 
ATOM     23  H   LIG d   1       7.080  -8.126  -9.219  0.00  0.00     0.066 H 
ATOM     24  H   LIG d   1       6.648  -5.931  -8.199  0.00  0.00     0.062 H 
BRANCH  18  25
ATOM     25  O   LIG d   1       5.986 -10.285  -5.400  0.00  0.00    -0.491 OA
BRANCH  25  26
ATOM     26  C   LIG d   1       4.645 -10.647  -5.067  0.00  0.00     0.079 C 
ATOM     27  H   LIG d   1       4.546 -11.733  -5.085  0.00  0.00     0.066 H 
ATOM     28  H   LIG d   1       4.405 -10.278  -4.069  0.00  0.00     0.066 H 
ATOM     29  H   LIG d   1       3.959 -10.207  -5.790  0.00  0.00     0.066 H 
ENDBRANCH  25  26
ENDBRANCH  18  25
BRANCH  20  30
ATOM     30  O   LIG d   1       6.818 -10.435  -8.018  0.00  0.00    -0.491 OA
BRANCH  30  31
ATOM     31  C   LIG d   1       5.815 -10.949  -8.897  0.00  0.00     0.079 C 
ATOM     32  H   LIG d   1       5.820 -12.039  -8.856  0.00  0.00     0.066 H 
ATOM     33  H   LIG d   1       4.838 -10.578  -8.590  0.00  0.00     0.066 H 
ATOM     34  H   LIG d   1       6.024 -10.624  -9.916  0.00  0.00     0.066 H 
ENDBRANCH  30  31
ENDBRANCH  20  30
ENDBRANCH   6  16
BRANCH   1  35
ATOM     35  O   LIG d   1       5.740   0.237  -2.868  0.00  0.00    -0.492 OA
BRANCH  35  36
ATOM     36  C   LIG d   1       4.668   0.293  -1.925  0.00  0.00     0.087 C 
ATOM     37  H   LIG d   1       4.137  -0.658  -1.921  0.00  0.00     0.069 H 
ATOM     38  H   LIG d   1       5.068   0.489  -0.930  0.00  0.00     0.069 H 
BRANCH  36  39
ATOM     39  C   LIG d   1       3.703   1.415  -2.315  0.00  0.00    -0.031 C 
ATOM     40  H   LIG d   1       3.498   2.037  -1.444  0.00  0.00     0.026 H 
ATOM     41  H   LIG d   1       4.152   2.025  -3.100  0.00  0.00     0.026 H 
ATOM     42  H   LIG d   1       2.772   0.982  -2.681  0.00  0.00     0.026 H 
ENDBRANCH  36  39
ENDBRANCH  35  36
ENDBRANCH   1  35
TORSDOF 8
ENDMDL
MODEL 4
REMARK VINA RESULT:      -5.0      8.112      9.756
REMARK  8 active torsions:
REMARK  status: ('A' for Active; 'I' for Inactive)
REMARK    1  A    between atoms: C_1  and  C_2 
REMARK    2  A    between atoms: C_2  and  O_3 
REMARK    3  A    between atoms: O_3  and  C_4 
REMARK    4  A    between atoms: C_9  and  C_15 
REMARK    5  A    between atoms: C_18  and  O_23 
REMARK    6  A    between atoms: C_19  and  O_21 
REMARK    7  A    between atoms: O_21  and  C_22 
REMARK    8  A    between atoms: O_23  and  C_24 
ROOT
ATOM      1  C   LIG d   1       9.313   5.684 -10.039  0.00  0.00     0.124 A 
ATOM      2  C   LIG d   1       9.558   7.010  -9.687  0.00  0.00    -0.019 A 
ATOM      3  C   LIG d   1       9.803   7.344  -8.387  0.00  0.00    -0.048 A 
ATOM      4  C   LIG d   1       9.810   6.351  -7.397  0.00  0.00     0.018 A 
ATOM      5  C   LIG d   1      10.065   6.694  -6.044  0.00  0.00    -0.036 A 
ATOM      6  C   LIG d   1      10.065   5.703  -5.099  0.00  0.00     0.067 A 
ATOM      7  C   LIG d   1       9.803   4.323  -5.516  0.00  0.00     0.345 A 
ATOM      8  O   LIG d   1       9.800   3.430  -4.689  0.00  0.00    -0.244 OA
ATOM      9  O   LIG d   1       9.566   4.041  -6.808  0.00  0.00    -0.422 OA
ATOM     10  C   LIG d   1       9.564   5.012  -7.748  0.00  0.00     0.143 A 
ATOM     11  C   LIG d   1       9.315   4.690  -9.075  0.00  0.00     0.023 A 
ATOM     12  H   LIG d   1       9.554   7.777 -10.447  0.00  0.00     0.065 H 
ATOM     13  H   LIG d   1       9.992   8.374  -8.121  0.00  0.00     0.063 H 
ATOM     14  H   LIG d   1      10.255   7.719  -5.765  0.00  0.00     0.063 H 
ATOM     15  H   LIG d   1       9.124   3.664  -9.356  0.00  0.00     0.069 H 
ENDROOT
BRANCH   6  16
ATOM     16  C   LIG d   1      10.327   6.022  -3.677  0.00  0.00    -0.007 A 
ATOM     17  C   LIG d   1       9.378   6.720  -2.931  0.00  0.00    -0.008 A 
ATOM     18  C   LIG d   1       9.623   7.011  -1.602  0.00  0.00     0.162 A 
ATOM     19  H   LIG d   1       8.450   7.029  -3.390  0.00  0.00     0.066 H 
ATOM     20  C   LIG d   1      10.823   6.616  -1.013  0.00  0.00     0.162 A 
ATOM     21  C   LIG d   1      11.769   5.927  -1.757  0.00  0.00    -0.016 A 
ATOM     22  C   LIG d   1      11.526   5.629  -3.081  0.00  0.00    -0.050 A 
ATOM     23  H   LIG d   1      12.698   5.623  -1.298  0.00  0.00     0.066 H 
ATOM     24  H   LIG d   1      12.265   5.093  -3.659  0.00  0.00     0.062 H 
BRANCH  18  25
ATOM     25  O   LIG d   1       8.698   7.688  -0.870  0.00  0.00    -0.491 OA
BRANCH  25  26
ATOM     26  C   LIG d   1       8.761   9.114  -0.906  0.00  0.00     0.079 C 
ATOM     27  H   LIG d   1       9.384   9.472  -0.087  0.00  0.00     0.066 H 
ATOM     28  H   LIG d   1       9.190   9.436  -1.856  0.00  0.00     0.066 H 
ATOM     29  H   LIG d   1       7.756   9.525  -0.805  0.00  0.00     0.066 H 
ENDBRANCH  25  26
ENDBRANCH  18  25
BRANCH  20  30
ATOM     30  O   LIG d   1      11.066   6.908   0.293  0.00  0.00    -0.491 OA
BRANCH  30  31
ATOM     31  C   LIG d   1      11.097   5.809   1.207  0.00  0.00     0.079 C 
ATOM     32  H   LIG d   1      11.794   6.030   2.016  0.00  0.00     0.066 H 
ATOM     33  H   LIG d   1      10.101   5.650   1.618  0.00  0.00     0.066 H 
ATOM     34  H   LIG d   1      11.422   4.910   0.683  0.00  0.00     0.066 H 
ENDBRANCH  30  31
ENDBRANCH  20  30
ENDBRANCH   6  16
BRANCH   1  35
ATOM     35  O   LIG d   1       9.069   5.365 -11.335  0.00  0.00    -0.492 OA
BRANCH  35  36
ATOM     36  C   LIG d   1       8.988   6.447 -12.265  0.00  0.00     0.087 C 
ATOM     37  H   LIG d   1       8.142   7.084 -12.010  0.00  0.00     0.069 H 
ATOM     38  H   LIG d   1       9.908   7.032 -12.224  0.00  0.00     0.069 H 
BRANCH  36  39
ATOM     39  C   LIG d   1       8.801   5.893 -13.679  0.00  0.00    -0.031 C 
ATOM     40  H   LIG d   1       9.773   5.642 -14.102  0.00  0.00     0.026 H 
ATOM     41  H   LIG d   1       8.180   4.997 -13.640  0.00  0.00     0.026 H 
ATOM     42  H   LIG d   1       8.316   6.644 -14.302  0.00  0.00     0.026 H 
ENDBRANCH  36  39
ENDBRANCH  35  36
ENDBRANCH   1  35
TORSDOF 8
ENDMDL
MODEL 5
REMARK VINA RESULT:      -5.0      1.555      8.227
REMARK  8 active torsions:
REMARK  status: ('A' for Active; 'I' for Inactive)
REMARK    1  A    between atoms: C_1  and  C_2 
REMARK    2  A    between atoms: C_2  and  O_3 
REMARK    3  A    between atoms: O_3  and  C_4 
REMARK    4  A    between atoms: C_9  and  C_15 
REMARK    5  A    between atoms: C_18  and  O_23 
REMARK    6  A    between atoms: C_19  and  O_21 
REMARK    7  A    between atoms: O_21  and  C_22 
REMARK    8  A    between atoms: O_23  and  C_24 
ROOT
ATOM      1  C   LIG d   1       5.019  -1.261  -4.117  0.00  0.00     0.124 A 
ATOM      2  C   LIG d   1       5.239  -2.516  -4.683  0.00  0.00    -0.019 A 
ATOM      3  C   LIG d   1       4.856  -2.770  -5.967  0.00  0.00    -0.048 A 
ATOM      4  C   LIG d   1       4.236  -1.766  -6.726  0.00  0.00     0.018 A 
ATOM      5  C   LIG d   1       3.836  -2.026  -8.062  0.00  0.00    -0.036 A 
ATOM      6  C   LIG d   1       3.234  -1.026  -8.778  0.00  0.00     0.067 A 
ATOM      7  C   LIG d   1       3.023   0.277  -8.142  0.00  0.00     0.345 A 
ATOM      8  O   LIG d   1       2.490   1.177  -8.765  0.00  0.00    -0.244 OA
ATOM      9  O   LIG d   1       3.418   0.481  -6.875  0.00  0.00    -0.422 OA
ATOM     10  C   LIG d   1       4.013  -0.498  -6.159  0.00  0.00     0.143 A 
ATOM     11  C   LIG d   1       4.408  -0.258  -4.851  0.00  0.00     0.023 A 
ATOM     12  H   LIG d   1       5.716  -3.291  -4.102  0.00  0.00     0.065 H 
ATOM     13  H   LIG d   1       5.030  -3.745  -6.400  0.00  0.00     0.063 H 
ATOM     14  H   LIG d   1       4.004  -2.995  -8.506  0.00  0.00     0.063 H 
ATOM     15  H   LIG d   1       4.241   0.712  -4.404  0.00  0.00     0.069 H 
ENDROOT
BRANCH   6  16
ATOM     16  C   LIG d   1       2.802  -1.259 -10.176  0.00  0.00    -0.007 A 
ATOM     17  C   LIG d   1       3.649  -0.928 -11.233  0.00  0.00    -0.008 A 
ATOM     18  C   LIG d   1       3.244  -1.151 -12.536  0.00  0.00     0.162 A 
ATOM     19  H   LIG d   1       4.621  -0.502 -11.034  0.00  0.00     0.066 H 
ATOM     20  C   LIG d   1       1.987  -1.695 -12.791  0.00  0.00     0.162 A 
ATOM     21  C   LIG d   1       1.143  -2.019 -11.739  0.00  0.00    -0.016 A 
ATOM     22  C   LIG d   1       1.544  -1.803 -10.437  0.00  0.00    -0.050 A 
ATOM     23  H   LIG d   1       0.169  -2.439 -11.940  0.00  0.00     0.066 H 
ATOM     24  H   LIG d   1       0.885  -2.055  -9.620  0.00  0.00     0.062 H 
BRANCH  18  25
ATOM     25  O   LIG d   1       4.069  -0.834 -13.570  0.00  0.00    -0.491 OA
BRANCH  25  26
ATOM     26  C   LIG d   1       5.474  -0.911 -13.325  0.00  0.00     0.079 C 
ATOM     27  H   LIG d   1       5.977  -1.298 -14.211  0.00  0.00     0.066 H 
ATOM     28  H   LIG d   1       5.859   0.082 -13.093  0.00  0.00     0.066 H 
ATOM     29  H   LIG d   1       5.660  -1.578 -12.482  0.00  0.00     0.066 H 
ENDBRANCH  25  26
ENDBRANCH  18  25
BRANCH  20  30
ATOM     30  O   LIG d   1       1.587  -1.909 -14.073  0.00  0.00    -0.491 OA
BRANCH  30  31
ATOM     31  C   LIG d   1       1.380  -3.266 -14.469  0.00  0.00     0.079 C 
ATOM     32  H   LIG d   1       0.693  -3.747 -13.773  0.00  0.00     0.066 H 
ATOM     33  H   LIG d   1       0.957  -3.291 -15.473  0.00  0.00     0.066 H 
ATOM     34  H   LIG d   1       2.332  -3.796 -14.463  0.00  0.00     0.066 H 
ENDBRANCH  30  31
ENDBRANCH  20  30
ENDBRANCH   6  16
BRANCH   1  35
ATOM     35  O   LIG d   1       5.404  -1.022  -2.838  0.00  0.00    -0.492 OA
BRANCH  35  36
ATOM     36  C   LIG d   1       4.391  -0.594  -1.925  0.00  0.00     0.087 C 
ATOM     37  H   LIG d   1       3.410  -0.740  -2.376  0.00  0.00     0.069 H 
ATOM     38  H   LIG d   1       4.458  -1.178  -1.007  0.00  0.00     0.069 H 
BRANCH  36  39
ATOM     39  C   LIG d   1       4.589   0.888  -1.602  0.00  0.00    -0.031 C 
ATOM     40  H   LIG d   1       4.640   1.459  -2.529  0.00  0.00     0.026 H 
ATOM     41  H   LIG d   1       3.751   1.245  -1.002  0.00  0.00     0.026 H 
ATOM     42  H   LIG d   1       5.516   1.018  -1.043  0.00  0.00     0.026 H 
ENDBRANCH  36  39
ENDBRANCH  35  36
ENDBRANCH   1  35
TORSDOF 8
ENDMDL
MODEL 6
REMARK VINA RESULT:      -5.0      5.244      7.431
REMARK  8 active torsions:
REMARK  status: ('A' for Active; 'I' for Inactive)
REMARK    1  A    between atoms: C_1  and  C_2 
REMARK    2  A    between atoms: C_2  and  O_3 
REMARK    3  A    between atoms: O_3  and  C_4 
REMARK    4  A    between atoms: C_9  and  C_15 
REMARK    5  A    between atoms: C_18  and  O_23 
REMARK    6  A    between atoms: C_19  and  O_21 
REMARK    7  A    between atoms: O_21  and  C_22 
REMARK    8  A    between atoms: O_23  and  C_24 
ROOT
ATOM      1  C   LIG d   1       6.735  -8.750  -6.419  0.00  0.00     0.124 A 
ATOM      2  C   LIG d   1       5.343  -8.692  -6.437  0.00  0.00    -0.019 A 
ATOM      3  C   LIG d   1       4.696  -7.541  -6.095  0.00  0.00    -0.048 A 
ATOM      4  C   LIG d   1       5.433  -6.407  -5.721  0.00  0.00     0.018 A 
ATOM      5  C   LIG d   1       4.765  -5.208  -5.364  0.00  0.00    -0.036 A 
ATOM      6  C   LIG d   1       5.511  -4.117  -5.004  0.00  0.00     0.067 A 
ATOM      7  C   LIG d   1       6.972  -4.225  -5.000  0.00  0.00     0.345 A 
ATOM      8  O   LIG d   1       7.650  -3.265  -4.684  0.00  0.00    -0.244 OA
ATOM      9  O   LIG d   1       7.565  -5.379  -5.346  0.00  0.00    -0.422 OA
ATOM     10  C   LIG d   1       6.838  -6.461  -5.702  0.00  0.00     0.143 A 
ATOM     11  C   LIG d   1       7.480  -7.641  -6.053  0.00  0.00     0.023 A 
ATOM     12  H   LIG d   1       4.773  -9.563  -6.724  0.00  0.00     0.065 H 
ATOM     13  H   LIG d   1       3.617  -7.502  -6.111  0.00  0.00     0.063 H 
ATOM     14  H   LIG d   1       3.687  -5.156  -5.376  0.00  0.00     0.063 H 
ATOM     15  H   LIG d   1       8.559  -7.695  -6.042  0.00  0.00     0.069 H 
ENDROOT
BRANCH   6  16
ATOM     16  C   LIG d   1       4.850  -2.847  -4.625  0.00  0.00    -0.007 A 
ATOM     17  C   LIG d   1       4.693  -1.833  -5.568  0.00  0.00    -0.008 A 
ATOM     18  C   LIG d   1       4.070  -0.650  -5.211  0.00  0.00     0.162 A 
ATOM     19  H   LIG d   1       5.052  -1.971  -6.577  0.00  0.00     0.066 H 
ATOM     20  C   LIG d   1       3.613  -0.470  -3.907  0.00  0.00     0.162 A 
ATOM     21  C   LIG d   1       3.775  -1.478  -2.968  0.00  0.00    -0.016 A 
ATOM     22  C   LIG d   1       4.390  -2.661  -3.321  0.00  0.00    -0.050 A 
ATOM     23  H   LIG d   1       3.421  -1.335  -1.958  0.00  0.00     0.066 H 
ATOM     24  H   LIG d   1       4.516  -3.444  -2.587  0.00  0.00     0.062 H 
BRANCH  18  25
ATOM     25  O   LIG d   1       3.911   0.340  -6.130  0.00  0.00    -0.491 OA
BRANCH  25  26
ATOM     26  C   LIG d   1       2.899   0.149  -7.120  0.00  0.00     0.079 C 
ATOM     27  H   LIG d   1       1.979   0.635  -6.798  0.00  0.00     0.066 H 
ATOM     28  H   LIG d   1       3.228   0.583  -8.064  0.00  0.00     0.066 H 
ATOM     29  H   LIG d   1       2.719  -0.918  -7.254  0.00  0.00     0.066 H 
ENDBRANCH  25  26
ENDBRANCH  18  25
BRANCH  20  30
ATOM     30  O   LIG d   1       3.007   0.695  -3.556  0.00  0.00    -0.491 OA
BRANCH  30  31
ATOM     31  C   LIG d   1       3.648   1.482  -2.549  0.00  0.00     0.079 C 
ATOM     32  H   LIG d   1       3.141   1.335  -1.596  0.00  0.00     0.066 H 
ATOM     33  H   LIG d   1       4.690   1.176  -2.458  0.00  0.00     0.066 H 
ATOM     34  H   LIG d   1       3.601   2.535  -2.827  0.00  0.00     0.066 H 
ENDBRANCH  30  31
ENDBRANCH  20  30
ENDBRANCH   6  16
BRANCH   1  35
ATOM     35  O   LIG d   1       7.366  -9.902  -6.762  0.00  0.00    -0.492 OA
BRANCH  35  36
ATOM     36  C   LIG d   1       6.972 -10.517  -7.990  0.00  0.00     0.087 C 
ATOM     37  H   LIG d   1       6.113  -9.989  -8.402  0.00  0.00     0.069 H 
ATOM     38  H   LIG d   1       7.798 -10.474  -8.700  0.00  0.00     0.069 H 
BRANCH  36  39
ATOM     39  C   LIG d   1       6.598 -11.978  -7.732  0.00  0.00    -0.031 C 
ATOM     40  H   LIG d   1       5.970 -12.341  -8.546  0.00  0.00     0.026 H 
ATOM     41  H   LIG d   1       7.504 -12.581  -7.675  0.00  0.00     0.026 H 
ATOM     42  H   LIG d   1       6.052 -12.053  -6.792  0.00  0.00     0.026 H 
ENDBRANCH  36  39
ENDBRANCH  35  36
ENDBRANCH   1  35
TORSDOF 8
ENDMDL
MODEL 7
REMARK VINA RESULT:      -4.9      4.988      7.675
REMARK  8 active torsions:
REMARK  status: ('A' for Active; 'I' for Inactive)
REMARK    1  A    between atoms: C_1  and  C_2 
REMARK    2  A    between atoms: C_2  and  O_3 
REMARK    3  A    between atoms: O_3  and  C_4 
REMARK    4  A    between atoms: C_9  and  C_15 
REMARK    5  A    between atoms: C_18  and  O_23 
REMARK    6  A    between atoms: C_19  and  O_21 
REMARK    7  A    between atoms: O_21  and  C_22 
REMARK    8  A    between atoms: O_23  and  C_24 
ROOT
ATOM      1  C   LIG d   1       8.603  -8.044  -6.010  0.00  0.00     0.124 A 
ATOM      2  C   LIG d   1       9.392  -7.020  -5.489  0.00  0.00    -0.019 A 
ATOM      3  C   LIG d   1       8.829  -5.828  -5.136  0.00  0.00    -0.048 A 
ATOM      4  C   LIG d   1       7.449  -5.629  -5.297  0.00  0.00     0.018 A 
ATOM      5  C   LIG d   1       6.860  -4.392  -4.932  0.00  0.00    -0.036 A 
ATOM      6  C   LIG d   1       5.511  -4.227  -5.100  0.00  0.00     0.067 A 
ATOM      7  C   LIG d   1       4.723  -5.332  -5.652  0.00  0.00     0.345 A 
ATOM      8  O   LIG d   1       3.523  -5.202  -5.808  0.00  0.00    -0.244 OA
ATOM      9  O   LIG d   1       5.321  -6.488  -5.985  0.00  0.00    -0.422 OA
ATOM     10  C   LIG d   1       6.651  -6.661  -5.823  0.00  0.00     0.143 A 
ATOM     11  C   LIG d   1       7.241  -7.866  -6.177  0.00  0.00     0.023 A 
ATOM     12  H   LIG d   1      10.453  -7.170  -5.364  0.00  0.00     0.065 H 
ATOM     13  H   LIG d   1       9.445  -5.038  -4.733  0.00  0.00     0.063 H 
ATOM     14  H   LIG d   1       7.465  -3.594  -4.528  0.00  0.00     0.063 H 
ATOM     15  H   LIG d   1       6.637  -8.666  -6.582  0.00  0.00     0.069 H 
ENDROOT
BRANCH   6  16
ATOM     16  C   LIG d   1       4.859  -2.949  -4.731  0.00  0.00    -0.007 A 
ATOM     17  C   LIG d   1       4.702  -1.944  -5.684  0.00  0.00    -0.008 A 
ATOM     18  C   LIG d   1       4.088  -0.754  -5.336  0.00  0.00     0.162 A 
ATOM     19  H   LIG d   1       5.056  -2.095  -6.693  0.00  0.00     0.066 H 
ATOM     20  C   LIG d   1       3.638  -0.559  -4.032  0.00  0.00     0.162 A 
ATOM     21  C   LIG d   1       3.799  -1.557  -3.084  0.00  0.00    -0.016 A 
ATOM     22  C   LIG d   1       4.406  -2.747  -3.427  0.00  0.00    -0.050 A 
ATOM     23  H   LIG d   1       3.450  -1.402  -2.074  0.00  0.00     0.066 H 
ATOM     24  H   LIG d   1       4.531  -3.523  -2.686  0.00  0.00     0.062 H 
BRANCH  18  25
ATOM     25  O   LIG d   1       3.929   0.227  -6.265  0.00  0.00    -0.491 OA
BRANCH  25  26
ATOM     26  C   LIG d   1       4.249  -0.103  -7.617  0.00  0.00     0.079 C 
ATOM     27  H   LIG d   1       3.905  -1.114  -7.836  0.00  0.00     0.066 H 
ATOM     28  H   LIG d   1       3.759   0.601  -8.289  0.00  0.00     0.066 H 
ATOM     29  H   LIG d   1       5.329  -0.047  -7.759  0.00  0.00     0.066 H 
ENDBRANCH  25  26
ENDBRANCH  18  25
BRANCH  20  30
ATOM     30  O   LIG d   1       3.039   0.613  -3.690  0.00  0.00    -0.491 OA
BRANCH  30  31
ATOM     31  C   LIG d   1       3.635   1.359  -2.627  0.00  0.00     0.079 C 
ATOM     32  H   LIG d   1       2.866   1.645  -1.908  0.00  0.00     0.066 H 
ATOM     33  H   LIG d   1       4.386   0.747  -2.130  0.00  0.00     0.066 H 
ATOM     34  H   LIG d   1       4.105   2.256  -3.031  0.00  0.00     0.066 H 
ENDBRANCH  30  31
ENDBRANCH  20  30
ENDBRANCH   6  16
BRANCH   1  35
ATOM     35  O   LIG d   1       9.176  -9.224  -6.358  0.00  0.00    -0.492 OA
BRANCH  35  36
ATOM     36  C   LIG d   1      10.320  -9.163  -7.213  0.00  0.00     0.087 C 
ATOM     37  H   LIG d   1      10.939  -8.312  -6.933  0.00  0.00     0.069 H 
ATOM     38  H   LIG d   1      10.899 -10.081  -7.113  0.00  0.00     0.069 H 
BRANCH  36  39
ATOM     39  C   LIG d   1       9.863  -9.005  -8.665  0.00  0.00    -0.031 C 
ATOM     40  H   LIG d   1      10.568  -8.369  -9.201  0.00  0.00     0.026 H 
ATOM     41  H   LIG d   1       9.822  -9.985  -9.143  0.00  0.00     0.026 H 
ATOM     42  H   LIG d   1       8.873  -8.550  -8.687  0.00  0.00     0.026 H 
ENDBRANCH  36  39
ENDBRANCH  35  36
ENDBRANCH   1  35
TORSDOF 8
ENDMDL
MODEL 8
REMARK VINA RESULT:      -4.9      7.650     12.324
REMARK  8 active torsions:
REMARK  status: ('A' for Active; 'I' for Inactive)
REMARK    1  A    between atoms: C_1  and  C_2 
REMARK    2  A    between atoms: C_2  and  O_3 
REMARK    3  A    between atoms: O_3  and  C_4 
REMARK    4  A    between atoms: C_9  and  C_15 
REMARK    5  A    between atoms: C_18  and  O_23 
REMARK    6  A    between atoms: C_19  and  O_21 
REMARK    7  A    between atoms: O_21  and  C_22 
REMARK    8  A    between atoms: O_23  and  C_24 
ROOT
ATOM      1  C   LIG d   1      10.806   7.584   0.188  0.00  0.00     0.124 A 
ATOM      2  C   LIG d   1       9.902   8.200  -0.676  0.00  0.00    -0.019 A 
ATOM      3  C   LIG d   1       9.450   7.545  -1.784  0.00  0.00    -0.048 A 
ATOM      4  C   LIG d   1       9.896   6.243  -2.059  0.00  0.00     0.018 A 
ATOM      5  C   LIG d   1       9.428   5.558  -3.210  0.00  0.00    -0.036 A 
ATOM      6  C   LIG d   1       9.880   4.288  -3.452  0.00  0.00     0.067 A 
ATOM      7  C   LIG d   1      10.830   3.681  -2.516  0.00  0.00     0.345 A 
ATOM      8  O   LIG d   1      11.241   2.552  -2.716  0.00  0.00    -0.244 OA
ATOM      9  O   LIG d   1      11.247   4.364  -1.438  0.00  0.00    -0.422 OA
ATOM     10  C   LIG d   1      10.807   5.617  -1.189  0.00  0.00     0.143 A 
ATOM     11  C   LIG d   1      11.257   6.300  -0.068  0.00  0.00     0.023 A 
ATOM     12  H   LIG d   1       9.558   9.202  -0.467  0.00  0.00     0.065 H 
ATOM     13  H   LIG d   1       8.750   8.028  -2.449  0.00  0.00     0.063 H 
ATOM     14  H   LIG d   1       8.728   6.029  -3.882  0.00  0.00     0.063 H 
ATOM     15  H   LIG d   1      11.958   5.829   0.607  0.00  0.00     0.069 H 
ENDROOT
BRANCH   6  16
ATOM     16  C   LIG d   1       9.416   3.540  -4.643  0.00  0.00    -0.007 A 
ATOM     17  C   LIG d   1       8.450   2.543  -4.509  0.00  0.00    -0.008 A 
ATOM     18  C   LIG d   1       8.016   1.850  -5.624  0.00  0.00     0.162 A 
ATOM     19  H   LIG d   1       8.039   2.315  -3.536  0.00  0.00     0.066 H 
ATOM     20  C   LIG d   1       8.552   2.141  -6.877  0.00  0.00     0.162 A 
ATOM     21  C   LIG d   1       9.516   3.129  -7.008  0.00  0.00    -0.016 A 
ATOM     22  C   LIG d   1       9.948   3.827  -5.900  0.00  0.00    -0.050 A 
ATOM     23  H   LIG d   1       9.930   3.351  -7.981  0.00  0.00     0.066 H 
ATOM     24  H   LIG d   1      10.700   4.595  -6.005  0.00  0.00     0.062 H 
BRANCH  18  25
ATOM     25  O   LIG d   1       7.070   0.880  -5.498  0.00  0.00    -0.491 OA
BRANCH  25  26
ATOM     26  C   LIG d   1       6.976   0.229  -4.230  0.00  0.00     0.079 C 
ATOM     27  H   LIG d   1       7.464  -0.745  -4.284  0.00  0.00     0.066 H 
ATOM     28  H   LIG d   1       7.466   0.839  -3.470  0.00  0.00     0.066 H 
ATOM     29  H   LIG d   1       5.927   0.095  -3.967  0.00  0.00     0.066 H 
ENDBRANCH  25  26
ENDBRANCH  18  25
BRANCH  20  30
ATOM     30  O   LIG d   1       8.127   1.455  -7.972  0.00  0.00    -0.491 OA
BRANCH  30  31
ATOM     31  C   LIG d   1       7.157   2.096  -8.802  0.00  0.00     0.079 C 
ATOM     32  H   LIG d   1       6.799   1.392  -9.553  0.00  0.00     0.066 H 
ATOM     33  H   LIG d   1       6.321   2.433  -8.191  0.00  0.00     0.066 H 
ATOM     34  H   LIG d   1       7.613   2.953  -9.298  0.00  0.00     0.066 H 
ENDBRANCH  30  31
ENDBRANCH  20  30
ENDBRANCH   6  16
BRANCH   1  35
ATOM     35  O   LIG d   1      11.248   8.247   1.285  0.00  0.00    -0.492 OA
BRANCH  35  36
ATOM     36  C   LIG d   1      12.265   9.231   1.083  0.00  0.00     0.087 C 
ATOM     37  H   LIG d   1      13.143   8.974   1.676  0.00  0.00     0.069 H 
ATOM     38  H   LIG d   1      12.537   9.261   0.028  0.00  0.00     0.069 H 
BRANCH  36  39
ATOM     39  C   LIG d   1      11.742  10.603   1.513  0.00  0.00    -0.031 C 
ATOM     40  H   LIG d   1      11.841  11.305   0.686  0.00  0.00     0.026 H 
ATOM     41  H   LIG d   1      10.692  10.520   1.796  0.00  0.00     0.026 H 
ATOM     42  H   LIG d   1      12.320  10.961   2.366  0.00  0.00     0.026 H 
ENDBRANCH  36  39
ENDBRANCH  35  36
ENDBRANCH   1  35
TORSDOF 8
ENDMDL
MODEL 9
REMARK VINA RESULT:      -4.8      5.419      7.593
REMARK  8 active torsions:
REMARK  status: ('A' for Active; 'I' for Inactive)
REMARK    1  A    between atoms: C_1  and  C_2 
REMARK    2  A    between atoms: C_2  and  O_3 
REMARK    3  A    between atoms: O_3  and  C_4 
REMARK    4  A    between atoms: C_9  and  C_15 
REMARK    5  A    between atoms: C_18  and  O_23 
REMARK    6  A    between atoms: C_19  and  O_21 
REMARK    7  A    between atoms: O_21  and  C_22 
REMARK    8  A    between atoms: O_23  and  C_24 
ROOT
ATOM      1  C   LIG d   1       3.922  -0.446  -6.390  0.00  0.00     0.124 A 
ATOM      2  C   LIG d   1       4.013  -0.710  -5.024  0.00  0.00    -0.019 A 
ATOM      3  C   LIG d   1       4.378  -1.948  -4.583  0.00  0.00    -0.048 A 
ATOM      4  C   LIG d   1       4.664  -2.965  -5.507  0.00  0.00     0.018 A 
ATOM      5  C   LIG d   1       5.044  -4.254  -5.053  0.00  0.00    -0.036 A 
ATOM      6  C   LIG d   1       5.317  -5.226  -5.977  0.00  0.00     0.067 A 
ATOM      7  C   LIG d   1       5.207  -4.903  -7.402  0.00  0.00     0.345 A 
ATOM      8  O   LIG d   1       5.447  -5.756  -8.238  0.00  0.00    -0.244 OA
ATOM      9  O   LIG d   1       4.845  -3.670  -7.790  0.00  0.00    -0.422 OA
ATOM     10  C   LIG d   1       4.573  -2.703  -6.886  0.00  0.00     0.143 A 
ATOM     11  C   LIG d   1       4.199  -1.438  -7.316  0.00  0.00     0.023 A 
ATOM     12  H   LIG d   1       3.794   0.071  -4.311  0.00  0.00     0.065 H 
ATOM     13  H   LIG d   1       4.447  -2.145  -3.524  0.00  0.00     0.063 H 
ATOM     14  H   LIG d   1       5.117  -4.464  -3.997  0.00  0.00     0.063 H 
ATOM     15  H   LIG d   1       4.126  -1.225  -8.373  0.00  0.00     0.069 H 
ENDROOT
BRANCH   6  16
ATOM     16  C   LIG d   1       5.717  -6.585  -5.543  0.00  0.00    -0.007 A 
ATOM     17  C   LIG d   1       4.747  -7.565  -5.337  0.00  0.00    -0.008 A 
ATOM     18  C   LIG d   1       5.125  -8.834  -4.936  0.00  0.00     0.162 A 
ATOM     19  H   LIG d   1       3.704  -7.336  -5.493  0.00  0.00     0.066 H 
ATOM     20  C   LIG d   1       6.472  -9.126  -4.729  0.00  0.00     0.162 A 
ATOM     21  C   LIG d   1       7.435  -8.149  -4.929  0.00  0.00    -0.016 A 
ATOM     22  C   LIG d   1       7.063  -6.884  -5.334  0.00  0.00    -0.050 A 
ATOM     23  H   LIG d   1       8.477  -8.378  -4.765  0.00  0.00     0.066 H 
ATOM     24  H   LIG d   1       7.815  -6.124  -5.488  0.00  0.00     0.062 H 
BRANCH  18  25
ATOM     25  O   LIG d   1       4.183  -9.795  -4.738  0.00  0.00    -0.491 OA
BRANCH  25  26
ATOM     26  C   LIG d   1       3.599  -9.871  -3.437  0.00  0.00     0.079 C 
ATOM     27  H   LIG d   1       3.441 -10.916  -3.170  0.00  0.00     0.066 H 
ATOM     28  H   LIG d   1       4.266  -9.407  -2.711  0.00  0.00     0.066 H 
ATOM     29  H   LIG d   1       2.642  -9.348  -3.436  0.00  0.00     0.066 H 
ENDBRANCH  25  26
ENDBRANCH  18  25
BRANCH  20  30
ATOM     30  O   LIG d   1       6.841 -10.373  -4.329  0.00  0.00    -0.491 OA
BRANCH  30  31
ATOM     31  C   LIG d   1       7.566 -10.471  -3.102  0.00  0.00     0.079 C 
ATOM     32  H   LIG d   1       7.799  -9.471  -2.736  0.00  0.00     0.066 H 
ATOM     33  H   LIG d   1       6.962 -10.997  -2.364  0.00  0.00     0.066 H 
ATOM     34  H   LIG d   1       8.493 -11.021  -3.270  0.00  0.00     0.066 H 
ENDBRANCH  30  31
ENDBRANCH  20  30
ENDBRANCH   6  16
BRANCH   1  35
ATOM     35  O   LIG d   1       3.556   0.790  -6.815  0.00  0.00    -0.492 OA
BRANCH  35  36
ATOM     36  C   LIG d   1       2.817   0.864  -8.035  0.00  0.00     0.087 C 
ATOM     37  H   LIG d   1       3.071   0.013  -8.666  0.00  0.00     0.069 H 
ATOM     38  H   LIG d   1       1.749   0.847  -7.816  0.00  0.00     0.069 H 
BRANCH  36  39
ATOM     39  C   LIG d   1       3.166   2.162  -8.766  0.00  0.00    -0.031 C 
ATOM     40  H   LIG d   1       2.572   2.238  -9.676  0.00  0.00     0.026 H 
ATOM     41  H   LIG d   1       2.951   3.013  -8.119  0.00  0.00     0.026 H 
ATOM     42  H   LIG d   1       4.226   2.161  -9.022  0.00  0.00     0.026 H 
ENDBRANCH  36  39
ENDBRANCH  35  36
ENDBRANCH   1  35
TORSDOF 8
ENDMDL
MODEL 10
REMARK VINA RESULT:      -4.7      7.914     12.403
REMARK  8 active torsions:
REMARK  status: ('A' for Active; 'I' for Inactive)
REMARK    1  A    between atoms: C_1  and  C_2 
REMARK    2  A    between atoms: C_2  and  O_3 
REMARK    3  A    between atoms: O_3  and  C_4 
REMARK    4  A    between atoms: C_9  and  C_15 
REMARK    5  A    between atoms: C_18  and  O_23 
REMARK    6  A    between atoms: C_19  and  O_21 
REMARK    7  A    between atoms: O_21  and  C_22 
REMARK    8  A    between atoms: O_23  and  C_24 
ROOT
ATOM      1  C   LIG d   1      10.757   8.353   0.059  0.00  0.00     0.124 A 
ATOM      2  C   LIG d   1      11.097   7.122   0.615  0.00  0.00    -0.019 A 
ATOM      3  C   LIG d   1      10.951   5.974  -0.108  0.00  0.00    -0.048 A 
ATOM      4  C   LIG d   1      10.457   6.031  -1.420  0.00  0.00     0.018 A 
ATOM      5  C   LIG d   1      10.304   4.840  -2.175  0.00  0.00    -0.036 A 
ATOM      6  C   LIG d   1       9.819   4.926  -3.453  0.00  0.00     0.067 A 
ATOM      7  C   LIG d   1       9.475   6.242  -3.996  0.00  0.00     0.345 A 
ATOM      8  O   LIG d   1       9.043   6.337  -5.130  0.00  0.00    -0.244 OA
ATOM      9  O   LIG d   1       9.636   7.345  -3.247  0.00  0.00    -0.422 OA
ATOM     10  C   LIG d   1      10.113   7.272  -1.985  0.00  0.00     0.143 A 
ATOM     11  C   LIG d   1      10.267   8.429  -1.234  0.00  0.00     0.023 A 
ATOM     12  H   LIG d   1      11.478   7.075   1.625  0.00  0.00     0.065 H 
ATOM     13  H   LIG d   1      11.217   5.023   0.329  0.00  0.00     0.063 H 
ATOM     14  H   LIG d   1      10.565   3.883  -1.751  0.00  0.00     0.063 H 
ATOM     15  H   LIG d   1      10.005   9.387  -1.658  0.00  0.00     0.069 H 
ENDROOT
BRANCH   6  16
ATOM     16  C   LIG d   1       9.645   3.705  -4.274  0.00  0.00    -0.007 A 
ATOM     17  C   LIG d   1       8.464   2.970  -4.190  0.00  0.00    -0.008 A 
ATOM     18  C   LIG d   1       8.303   1.833  -4.962  0.00  0.00     0.162 A 
ATOM     19  H   LIG d   1       7.674   3.288  -3.525  0.00  0.00     0.066 H 
ATOM     20  C   LIG d   1       9.325   1.420  -5.813  0.00  0.00     0.162 A 
ATOM     21  C   LIG d   1      10.502   2.149  -5.893  0.00  0.00    -0.016 A 
ATOM     22  C   LIG d   1      10.665   3.286  -5.129  0.00  0.00    -0.050 A 
ATOM     23  H   LIG d   1      11.293   1.825  -6.553  0.00  0.00     0.066 H 
ATOM     24  H   LIG d   1      11.583   3.852  -5.192  0.00  0.00     0.062 H 
BRANCH  18  25
ATOM     25  O   LIG d   1       7.150   1.115  -4.885  0.00  0.00    -0.491 OA
BRANCH  25  26
ATOM     26  C   LIG d   1       6.600   0.910  -3.583  0.00  0.00     0.079 C 
ATOM     27  H   LIG d   1       6.429   1.874  -3.104  0.00  0.00     0.066 H 
ATOM     28  H   LIG d   1       5.655   0.373  -3.667  0.00  0.00     0.066 H 
ATOM     29  H   LIG d   1       7.297   0.324  -2.982  0.00  0.00     0.066 H 
ENDBRANCH  25  26
ENDBRANCH  18  25
BRANCH  20  30
ATOM     30  O   LIG d   1       9.168   0.299  -6.568  0.00  0.00    -0.491 OA
BRANCH  30  31
ATOM     31  C   LIG d   1       9.809  -0.890  -6.102  0.00  0.00     0.079 C 
ATOM     32  H   LIG d   1      10.828  -0.929  -6.488  0.00  0.00     0.066 H 
ATOM     33  H   LIG d   1       9.832  -0.888  -5.013  0.00  0.00     0.066 H 
ATOM     34  H   LIG d   1       9.256  -1.762  -6.453  0.00  0.00     0.066 H 
ENDBRANCH  30  31
ENDBRANCH  20  30
ENDBRANCH   6  16
BRANCH   1  35
ATOM     35  O   LIG d   1      10.906   9.487   0.790  0.00  0.00    -0.492 OA
BRANCH  35  36
ATOM     36  C   LIG d   1      10.121  10.617   0.402  0.00  0.00     0.087 C 
ATOM     37  H   LIG d   1      10.004  10.624  -0.681  0.00  0.00     0.069 H 
ATOM     38  H   LIG d   1       9.139  10.557   0.872  0.00  0.00     0.069 H 
BRANCH  36  39
ATOM     39  C   LIG d   1      10.821  11.902   0.849  0.00  0.00    -0.031 C 
ATOM     40  H   LIG d   1      10.188  12.432   1.560  0.00  0.00     0.026 H 
ATOM     41  H   LIG d   1      11.771  11.654   1.323  0.00  0.00     0.026 H 
ATOM     42  H   LIG d   1      11.003  12.537  -0.019  0.00  0.00     0.026 H 
ENDBRANCH  36  39
ENDBRANCH  35  36
ENDBRANCH   1  35
TORSDOF 8
ENDMDL
