MODEL 1
REMARK VINA RESULT:      -6.1      0.000      0.000
REMARK  9 active torsions:
REMARK  status: ('A' for Active; 'I' for Inactive)
REMARK    1  A    between atoms: C_1  and  C_2 
REMARK    2  A    between atoms: C_10  and  C_14 
REMARK    3  A    between atoms: C_18  and  C_20 
REMARK    4  A    between atoms: C_20  and  N_53 
REMARK    5  A    between atoms: C_21  and  C_22 
REMARK    6  A    between atoms: C_21  and  N_53 
REMARK    7  A    between atoms: C_22  and  C_23 
REMARK    8  A    between atoms: C_23  and  O_24 
REMARK    9  A    between atoms: O_24  and  C_25 
ROOT
ATOM      1  C   LIG d   1       3.361   0.687  -3.809  0.00  0.00    -0.073 C 
ATOM      2  C   LIG d   1       4.025  -0.400  -4.064  0.00  0.00    -0.064 C 
ATOM      3  C   LIG d   1       4.079  -0.917  -5.487  0.00  0.00    -0.024 C 
ATOM      4  C   LIG d   1       5.538  -1.085  -5.923  0.00  0.00     0.018 C 
ATOM      5  H   LIG d   1       5.997  -0.142  -6.223  0.00  0.00     0.035 H 
ATOM      6  C   LIG d   1       6.358  -1.834  -4.857  0.00  0.00     0.108 C 
ATOM      7  H   LIG d   1       7.409  -1.788  -5.139  0.00  0.00     0.074 H 
ATOM      8  C   LIG d   1       6.216  -1.290  -3.459  0.00  0.00    -0.006 C 
ATOM      9  C   LIG d   1       4.764  -1.200  -3.029  0.00  0.00    -0.007 C 
ATOM     10  C   LIG d   1       4.648  -0.632  -1.628  0.00  0.00    -0.043 C 
ATOM     11  C   LIG d   1       4.540   0.891  -1.655  0.00  0.00    -0.049 C 
ATOM     12  C   LIG d   1       3.272   1.273  -2.426  0.00  0.00    -0.032 C 
ATOM     13  O   LIG d   1       5.911  -3.212  -4.988  0.00  0.00    -0.461 OA
ATOM     14  C   LIG d   1       5.798  -3.466  -6.312  0.00  0.00     0.316 C 
ATOM     15  O   LIG d   1       5.896  -4.554  -6.829  0.00  0.00    -0.250 OA
ATOM     16  C   LIG d   1       5.530  -2.165  -7.047  0.00  0.00     0.102 C 
ATOM     17  H   LIG d   1       6.318  -1.967  -7.773  0.00  0.00     0.047 H 
ATOM     18  H   LIG d   1       3.582  -0.208  -6.149  0.00  0.00     0.031 H 
ATOM     19  H   LIG d   1       3.572  -1.880  -5.541  0.00  0.00     0.031 H 
ATOM     20  H   LIG d   1       6.747  -1.943  -2.766  0.00  0.00     0.031 H 
ATOM     21  H   LIG d   1       6.655  -0.293  -3.418  0.00  0.00     0.031 H 
ATOM     22  H   LIG d   1       5.528  -0.918  -1.053  0.00  0.00     0.027 H 
ATOM     23  H   LIG d   1       3.760  -1.044  -1.150  0.00  0.00     0.027 H 
ATOM     24  H   LIG d   1       5.414   1.312  -2.153  0.00  0.00     0.027 H 
ATOM     25  H   LIG d   1       4.479   1.273  -0.636  0.00  0.00     0.027 H 
ATOM     26  H   LIG d   1       3.197   2.359  -2.493  0.00  0.00     0.031 H 
ATOM     27  H   LIG d   1       2.397   0.873  -1.914  0.00  0.00     0.031 H 
ENDROOT
BRANCH  16  28
ATOM     28  C   LIG d   1       4.165  -2.211  -7.736  0.00  0.00    -0.020 C 
ATOM     29  H   LIG d   1       3.844  -3.248  -7.839  0.00  0.00     0.082 H 
ATOM     30  H   LIG d   1       3.436  -1.664  -7.136  0.00  0.00     0.082 H 
BRANCH  28  31
ATOM     31  N   LIG d   1       4.274  -1.591  -9.069  0.00  0.00     0.228 N 
ATOM     32  H   LIG d   1       4.635  -2.282  -9.736  0.00  0.00     0.201 HD
ATOM     33  H   LIG d   1       4.919  -0.794  -9.020  0.00  0.00     0.201 HD
BRANCH  31  34
ATOM     34  C   LIG d   1       2.952  -1.119  -9.525  0.00  0.00    -0.032 C 
ATOM     35  H   LIG d   1       3.059  -0.590 -10.473  0.00  0.00     0.081 H 
ATOM     36  H   LIG d   1       2.285  -1.971  -9.657  0.00  0.00     0.081 H 
BRANCH  34  37
ATOM     37  C   LIG d   1       2.368  -0.171  -8.476  0.00  0.00     0.011 C 
ATOM     38  H   LIG d   1       1.280  -0.187  -8.538  0.00  0.00     0.034 H 
ATOM     39  H   LIG d   1       2.679  -0.494  -7.482  0.00  0.00     0.034 H 
BRANCH  37  40
ATOM     40  C   LIG d   1       2.873   1.249  -8.734  0.00  0.00     0.052 C 
ATOM     41  H   LIG d   1       2.870   1.446  -9.806  0.00  0.00     0.056 H 
ATOM     42  H   LIG d   1       2.221   1.964  -8.232  0.00  0.00     0.056 H 
BRANCH  40  43
ATOM     43  O   LIG d   1       4.202   1.381  -8.229  0.00  0.00    -0.383 OA
BRANCH  43  44
ATOM     44  C   LIG d   1       5.118   1.976  -9.150  0.00  0.00     0.036 C 
ATOM     45  H   LIG d   1       6.139   1.817  -8.801  0.00  0.00     0.052 H 
ATOM     46  H   LIG d   1       4.995   1.518 -10.132  0.00  0.00     0.052 H 
ATOM     47  H   LIG d   1       4.920   3.046  -9.221  0.00  0.00     0.052 H 
ENDBRANCH  43  44
ENDBRANCH  40  43
ENDBRANCH  37  40
ENDBRANCH  34  37
ENDBRANCH  31  34
ENDBRANCH  28  31
ENDBRANCH  16  28
BRANCH   1  48
ATOM     48  C   LIG d   1       2.653   1.387  -4.940  0.00  0.00    -0.043 C 
ATOM     49  H   LIG d   1       3.325   2.117  -5.392  0.00  0.00     0.027 H 
ATOM     50  H   LIG d   1       2.356   0.654  -5.690  0.00  0.00     0.027 H 
ATOM     51  H   LIG d   1       1.768   1.894  -4.557  0.00  0.00     0.027 H 
ENDBRANCH   1  48
BRANCH   9  52
ATOM     52  C   LIG d   1       4.198  -2.622  -3.023  0.00  0.00    -0.056 C 
ATOM     53  H   LIG d   1       4.255  -3.039  -4.028  0.00  0.00     0.024 H 
ATOM     54  H   LIG d   1       4.778  -3.241  -2.338  0.00  0.00     0.024 H 
ATOM     55  H   LIG d   1       3.158  -2.598  -2.697  0.00  0.00     0.024 H 
ENDBRANCH   9  52
TORSDOF 9
ENDMDL
MODEL 2
REMARK VINA RESULT:      -5.4      1.255      1.777
REMARK  9 active torsions:
REMARK  status: ('A' for Active; 'I' for Inactive)
REMARK    1  A    between atoms: C_1  and  C_2 
REMARK    2  A    between atoms: C_10  and  C_14 
REMARK    3  A    between atoms: C_18  and  C_20 
REMARK    4  A    between atoms: C_20  and  N_53 
REMARK    5  A    between atoms: C_21  and  C_22 
REMARK    6  A    between atoms: C_21  and  N_53 
REMARK    7  A    between atoms: C_22  and  C_23 
REMARK    8  A    between atoms: C_23  and  O_24 
REMARK    9  A    between atoms: O_24  and  C_25 
ROOT
ATOM      1  C   LIG d   1       3.350   0.562  -3.865  0.00  0.00    -0.073 C 
ATOM      2  C   LIG d   1       4.021  -0.536  -4.038  0.00  0.00    -0.064 C 
ATOM      3  C   LIG d   1       4.097  -1.148  -5.423  0.00  0.00    -0.024 C 
ATOM      4  C   LIG d   1       5.562  -1.337  -5.826  0.00  0.00     0.018 C 
ATOM      5  H   LIG d   1       6.021  -0.415  -6.183  0.00  0.00     0.035 H 
ATOM      6  C   LIG d   1       6.370  -2.010  -4.702  0.00  0.00     0.108 C 
ATOM      7  H   LIG d   1       7.425  -1.977  -4.973  0.00  0.00     0.074 H 
ATOM      8  C   LIG d   1       6.207  -1.374  -3.346  0.00  0.00    -0.006 C 
ATOM      9  C   LIG d   1       4.749  -1.263  -2.942  0.00  0.00    -0.007 C 
ATOM     10  C   LIG d   1       4.612  -0.602  -1.584  0.00  0.00    -0.043 C 
ATOM     11  C   LIG d   1       4.500   0.915  -1.714  0.00  0.00    -0.049 C 
ATOM     12  C   LIG d   1       3.240   1.239  -2.526  0.00  0.00    -0.032 C 
ATOM     13  O   LIG d   1       5.931  -3.396  -4.746  0.00  0.00    -0.461 OA
ATOM     14  C   LIG d   1       5.837  -3.738  -6.052  0.00  0.00     0.316 C 
ATOM     15  O   LIG d   1       5.945  -4.858  -6.493  0.00  0.00    -0.250 OA
ATOM     16  C   LIG d   1       5.573  -2.490  -6.876  0.00  0.00     0.102 C 
ATOM     17  H   LIG d   1       6.370  -2.338  -7.603  0.00  0.00     0.047 H 
ATOM     18  H   LIG d   1       3.606  -0.487  -6.137  0.00  0.00     0.031 H 
ATOM     19  H   LIG d   1       3.594  -2.114  -5.418  0.00  0.00     0.031 H 
ATOM     20  H   LIG d   1       6.732  -1.977  -2.604  0.00  0.00     0.031 H 
ATOM     21  H   LIG d   1       6.642  -0.375  -3.365  0.00  0.00     0.031 H 
ATOM     22  H   LIG d   1       5.486  -0.846  -0.980  0.00  0.00     0.027 H 
ATOM     23  H   LIG d   1       3.719  -0.986  -1.091  0.00  0.00     0.027 H 
ATOM     24  H   LIG d   1       5.378   1.306  -2.228  0.00  0.00     0.027 H 
ATOM     25  H   LIG d   1       4.423   1.364  -0.724  0.00  0.00     0.027 H 
ATOM     26  H   LIG d   1       3.162   2.317  -2.666  0.00  0.00     0.031 H 
ATOM     27  H   LIG d   1       2.360   0.869  -2.000  0.00  0.00     0.031 H 
ENDROOT
BRANCH  16  28
ATOM     28  C   LIG d   1       4.217  -2.589  -7.578  0.00  0.00    -0.020 C 
ATOM     29  H   LIG d   1       3.865  -3.620  -7.546  0.00  0.00     0.082 H 
ATOM     30  H   LIG d   1       3.498  -1.944  -7.072  0.00  0.00     0.082 H 
BRANCH  28  31
ATOM     31  N   LIG d   1       4.366  -2.159  -8.981  0.00  0.00     0.228 N 
ATOM     32  H   LIG d   1       3.791  -2.760  -9.582  0.00  0.00     0.201 HD
ATOM     33  H   LIG d   1       5.351  -2.240  -9.258  0.00  0.00     0.201 HD
BRANCH  31  34
ATOM     34  C   LIG d   1       3.932  -0.758  -9.137  0.00  0.00    -0.032 C 
ATOM     35  H   LIG d   1       4.481  -0.124  -8.440  0.00  0.00     0.081 H 
ATOM     36  H   LIG d   1       4.122  -0.426 -10.158  0.00  0.00     0.081 H 
BRANCH  34  37
ATOM     37  C   LIG d   1       2.434  -0.660  -8.840  0.00  0.00     0.011 C 
ATOM     38  H   LIG d   1       2.240  -1.019  -7.829  0.00  0.00     0.034 H 
ATOM     39  H   LIG d   1       2.114   0.379  -8.923  0.00  0.00     0.034 H 
BRANCH  37  40
ATOM     40  C   LIG d   1       1.658  -1.516  -9.843  0.00  0.00     0.052 C 
ATOM     41  H   LIG d   1       2.214  -2.431 -10.046  0.00  0.00     0.056 H 
ATOM     42  H   LIG d   1       0.683  -1.768  -9.428  0.00  0.00     0.056 H 
BRANCH  40  43
ATOM     43  O   LIG d   1       1.484  -0.785 -11.058  0.00  0.00    -0.383 OA
BRANCH  43  44
ATOM     44  C   LIG d   1       0.877  -1.540 -12.108  0.00  0.00     0.036 C 
ATOM     45  H   LIG d   1       0.364  -0.863 -12.791  0.00  0.00     0.052 H 
ATOM     46  H   LIG d   1       1.645  -2.091 -12.651  0.00  0.00     0.052 H 
ATOM     47  H   LIG d   1       0.159  -2.241 -11.683  0.00  0.00     0.052 H 
ENDBRANCH  43  44
ENDBRANCH  40  43
ENDBRANCH  37  40
ENDBRANCH  34  37
ENDBRANCH  31  34
ENDBRANCH  28  31
ENDBRANCH  16  28
BRANCH   1  48
ATOM     48  C   LIG d   1       2.655   1.181  -5.050  0.00  0.00    -0.043 C 
ATOM     49  H   LIG d   1       1.597   0.917  -5.029  0.00  0.00     0.027 H 
ATOM     50  H   LIG d   1       2.760   2.265  -5.006  0.00  0.00     0.027 H 
ATOM     51  H   LIG d   1       3.105   0.810  -5.970  0.00  0.00     0.027 H 
ENDBRANCH   1  48
BRANCH   9  52
ATOM     52  C   LIG d   1       4.189  -2.683  -2.848  0.00  0.00    -0.056 C 
ATOM     53  H   LIG d   1       3.491  -2.853  -3.668  0.00  0.00     0.024 H 
ATOM     54  H   LIG d   1       5.007  -3.401  -2.912  0.00  0.00     0.024 H 
ATOM     55  H   LIG d   1       3.671  -2.807  -1.897  0.00  0.00     0.024 H 
ENDBRANCH   9  52
TORSDOF 9
ENDMDL
MODEL 3
REMARK VINA RESULT:      -5.4      1.158      1.291
REMARK  9 active torsions:
REMARK  status: ('A' for Active; 'I' for Inactive)
REMARK    1  A    between atoms: C_1  and  C_2 
REMARK    2  A    between atoms: C_10  and  C_14 
REMARK    3  A    between atoms: C_18  and  C_20 
REMARK    4  A    between atoms: C_20  and  N_53 
REMARK    5  A    between atoms: C_21  and  C_22 
REMARK    6  A    between atoms: C_21  and  N_53 
REMARK    7  A    between atoms: C_22  and  C_23 
REMARK    8  A    between atoms: C_23  and  O_24 
REMARK    9  A    between atoms: O_24  and  C_25 
ROOT
ATOM      1  C   LIG d   1       3.322   0.666  -3.832  0.00  0.00    -0.073 C 
ATOM      2  C   LIG d   1       3.987  -0.418  -4.095  0.00  0.00    -0.064 C 
ATOM      3  C   LIG d   1       4.011  -0.947  -5.515  0.00  0.00    -0.024 C 
ATOM      4  C   LIG d   1       5.460  -1.107  -5.985  0.00  0.00     0.018 C 
ATOM      5  H   LIG d   1       5.904  -0.163  -6.304  0.00  0.00     0.035 H 
ATOM      6  C   LIG d   1       6.312  -1.841  -4.934  0.00  0.00     0.108 C 
ATOM      7  H   LIG d   1       7.355  -1.789  -5.243  0.00  0.00     0.074 H 
ATOM      8  C   LIG d   1       6.200  -1.287  -3.538  0.00  0.00    -0.006 C 
ATOM      9  C   LIG d   1       4.758  -1.205  -3.072  0.00  0.00    -0.007 C 
ATOM     10  C   LIG d   1       4.673  -0.626  -1.674  0.00  0.00    -0.043 C 
ATOM     11  C   LIG d   1       4.553   0.896  -1.710  0.00  0.00    -0.049 C 
ATOM     12  C   LIG d   1       3.263   1.263  -2.452  0.00  0.00    -0.032 C 
ATOM     13  O   LIG d   1       5.873  -3.224  -5.043  0.00  0.00    -0.461 OA
ATOM     14  C   LIG d   1       5.729  -3.488  -6.362  0.00  0.00     0.316 C 
ATOM     15  O   LIG d   1       5.822  -4.580  -6.872  0.00  0.00    -0.250 OA
ATOM     16  C   LIG d   1       5.432  -2.196  -7.101  0.00  0.00     0.102 C 
ATOM     17  H   LIG d   1       6.201  -1.997  -7.847  0.00  0.00     0.047 H 
ATOM     18  H   LIG d   1       3.492  -0.247  -6.170  0.00  0.00     0.031 H 
ATOM     19  H   LIG d   1       3.510  -1.914  -5.548  0.00  0.00     0.031 H 
ATOM     20  H   LIG d   1       6.753  -1.930  -2.853  0.00  0.00     0.031 H 
ATOM     21  H   LIG d   1       6.632  -0.286  -3.515  0.00  0.00     0.031 H 
ATOM     22  H   LIG d   1       5.569  -0.901  -1.118  0.00  0.00     0.027 H 
ATOM     23  H   LIG d   1       3.800  -1.041  -1.170  0.00  0.00     0.027 H 
ATOM     24  H   LIG d   1       5.410   1.320  -2.232  0.00  0.00     0.027 H 
ATOM     25  H   LIG d   1       4.514   1.286  -0.693  0.00  0.00     0.027 H 
ATOM     26  H   LIG d   1       3.177   2.347  -2.526  0.00  0.00     0.031 H 
ATOM     27  H   LIG d   1       2.403   0.859  -1.915  0.00  0.00     0.031 H 
ENDROOT
BRANCH  16  28
ATOM     28  C   LIG d   1       4.051  -2.258  -7.755  0.00  0.00    -0.020 C 
ATOM     29  H   LIG d   1       3.818  -3.291  -8.015  0.00  0.00     0.082 H 
ATOM     30  H   LIG d   1       3.301  -1.881  -7.058  0.00  0.00     0.082 H 
BRANCH  28  31
ATOM     31  N   LIG d   1       4.054  -1.428  -8.974  0.00  0.00     0.228 N 
ATOM     32  H   LIG d   1       4.174  -2.033  -9.794  0.00  0.00     0.201 HD
ATOM     33  H   LIG d   1       4.832  -0.760  -8.926  0.00  0.00     0.201 HD
BRANCH  31  34
ATOM     34  C   LIG d   1       2.784  -0.688  -9.094  0.00  0.00    -0.032 C 
ATOM     35  H   LIG d   1       1.947  -1.378  -8.985  0.00  0.00     0.081 H 
ATOM     36  H   LIG d   1       2.730   0.076  -8.319  0.00  0.00     0.081 H 
BRANCH  34  37
ATOM     37  C   LIG d   1       2.718  -0.024 -10.471  0.00  0.00     0.011 C 
ATOM     38  H   LIG d   1       2.761  -0.789 -11.246  0.00  0.00     0.034 H 
ATOM     39  H   LIG d   1       1.784   0.532 -10.562  0.00  0.00     0.034 H 
BRANCH  37  40
ATOM     40  C   LIG d   1       3.900   0.933 -10.633  0.00  0.00     0.052 C 
ATOM     41  H   LIG d   1       3.581   1.813 -11.192  0.00  0.00     0.056 H 
ATOM     42  H   LIG d   1       4.258   1.238  -9.650  0.00  0.00     0.056 H 
BRANCH  40  43
ATOM     43  O   LIG d   1       4.953   0.275 -11.340  0.00  0.00    -0.383 OA
BRANCH  43  44
ATOM     44  C   LIG d   1       4.521  -0.419 -12.512  0.00  0.00     0.036 C 
ATOM     45  H   LIG d   1       3.812  -1.198 -12.232  0.00  0.00     0.052 H 
ATOM     46  H   LIG d   1       4.039   0.283 -13.193  0.00  0.00     0.052 H 
ATOM     47  H   LIG d   1       5.382  -0.870 -13.005  0.00  0.00     0.052 H 
ENDBRANCH  43  44
ENDBRANCH  40  43
ENDBRANCH  37  40
ENDBRANCH  34  37
ENDBRANCH  31  34
ENDBRANCH  28  31
ENDBRANCH  16  28
BRANCH   1  48
ATOM     48  C   LIG d   1       2.581   1.351  -4.951  0.00  0.00    -0.043 C 
ATOM     49  H   LIG d   1       1.784   0.700  -5.311  0.00  0.00     0.027 H 
ATOM     50  H   LIG d   1       2.151   2.283  -4.584  0.00  0.00     0.027 H 
ATOM     51  H   LIG d   1       3.271   1.566  -5.766  0.00  0.00     0.027 H 
ENDBRANCH   1  48
BRANCH   9  52
ATOM     52  C   LIG d   1       4.205  -2.630  -3.041  0.00  0.00    -0.056 C 
ATOM     53  H   LIG d   1       4.315  -3.041  -2.038  0.00  0.00     0.024 H 
ATOM     54  H   LIG d   1       3.149  -2.616  -3.314  0.00  0.00     0.024 H 
ATOM     55  H   LIG d   1       4.754  -3.249  -3.751  0.00  0.00     0.024 H 
ENDBRANCH   9  52
TORSDOF 9
ENDMDL
MODEL 4
REMARK VINA RESULT:      -5.2      4.518      6.097
REMARK  9 active torsions:
REMARK  status: ('A' for Active; 'I' for Inactive)
REMARK    1  A    between atoms: C_1  and  C_2 
REMARK    2  A    between atoms: C_10  and  C_14 
REMARK    3  A    between atoms: C_18  and  C_20 
REMARK    4  A    between atoms: C_20  and  N_53 
REMARK    5  A    between atoms: C_21  and  C_22 
REMARK    6  A    between atoms: C_21  and  N_53 
REMARK    7  A    between atoms: C_22  and  C_23 
REMARK    8  A    between atoms: C_23  and  O_24 
REMARK    9  A    between atoms: O_24  and  C_25 
ROOT
ATOM      1  C   LIG d   1       4.613  -0.146  -2.571  0.00  0.00    -0.073 C 
ATOM      2  C   LIG d   1       5.455  -0.198  -3.559  0.00  0.00    -0.064 C 
ATOM      3  C   LIG d   1       6.497   0.893  -3.702  0.00  0.00    -0.024 C 
ATOM      4  C   LIG d   1       7.895   0.271  -3.756  0.00  0.00     0.018 C 
ATOM      5  H   LIG d   1       8.274   0.006  -2.768  0.00  0.00     0.035 H 
ATOM      6  C   LIG d   1       7.948  -0.904  -4.748  0.00  0.00     0.108 C 
ATOM      7  H   LIG d   1       8.908  -1.407  -4.633  0.00  0.00     0.074 H 
ATOM      8  C   LIG d   1       6.853  -1.923  -4.573  0.00  0.00    -0.006 C 
ATOM      9  C   LIG d   1       5.475  -1.288  -4.594  0.00  0.00    -0.007 C 
ATOM     10  C   LIG d   1       4.394  -2.331  -4.396  0.00  0.00    -0.043 C 
ATOM     11  C   LIG d   1       4.077  -2.526  -2.915  0.00  0.00    -0.049 C 
ATOM     12  C   LIG d   1       3.561  -1.198  -2.351  0.00  0.00    -0.032 C 
ATOM     13  O   LIG d   1       7.928  -0.254  -6.050  0.00  0.00    -0.461 OA
ATOM     14  C   LIG d   1       8.737   0.827  -5.962  0.00  0.00     0.316 C 
ATOM     15  O   LIG d   1       9.323   1.340  -6.886  0.00  0.00    -0.250 OA
ATOM     16  C   LIG d   1       8.792   1.293  -4.519  0.00  0.00     0.102 C 
ATOM     17  H   LIG d   1       9.815   1.257  -4.145  0.00  0.00     0.047 H 
ATOM     18  H   LIG d   1       6.432   1.569  -2.850  0.00  0.00     0.031 H 
ATOM     19  H   LIG d   1       6.312   1.450  -4.621  0.00  0.00     0.031 H 
ATOM     20  H   LIG d   1       6.913  -2.655  -5.379  0.00  0.00     0.031 H 
ATOM     21  H   LIG d   1       6.988  -2.433  -3.619  0.00  0.00     0.031 H 
ATOM     22  H   LIG d   1       4.730  -3.278  -4.817  0.00  0.00     0.027 H 
ATOM     23  H   LIG d   1       3.491  -2.010  -4.915  0.00  0.00     0.027 H 
ATOM     24  H   LIG d   1       4.979  -2.825  -2.382  0.00  0.00     0.027 H 
ATOM     25  H   LIG d   1       3.312  -3.295  -2.801  0.00  0.00     0.027 H 
ATOM     26  H   LIG d   1       3.367  -1.303  -1.283  0.00  0.00     0.031 H 
ATOM     27  H   LIG d   1       2.644  -0.912  -2.867  0.00  0.00     0.031 H 
ENDROOT
BRANCH  16  28
ATOM     28  C   LIG d   1       8.222   2.707  -4.390  0.00  0.00    -0.020 C 
ATOM     29  H   LIG d   1       7.319   2.791  -4.996  0.00  0.00     0.082 H 
ATOM     30  H   LIG d   1       7.978   2.907  -3.346  0.00  0.00     0.082 H 
BRANCH  28  31
ATOM     31  N   LIG d   1       9.227   3.679  -4.859  0.00  0.00     0.228 N 
ATOM     32  H   LIG d   1       8.885   4.630  -4.685  0.00  0.00     0.201 HD
ATOM     33  H   LIG d   1       9.380   3.549  -5.866  0.00  0.00     0.201 HD
BRANCH  31  34
ATOM     34  C   LIG d   1      10.503   3.482  -4.145  0.00  0.00    -0.032 C 
ATOM     35  H   LIG d   1      10.819   2.443  -4.239  0.00  0.00     0.081 H 
ATOM     36  H   LIG d   1      11.265   4.134  -4.571  0.00  0.00     0.081 H 
BRANCH  34  37
ATOM     37  C   LIG d   1      10.308   3.823  -2.666  0.00  0.00     0.011 C 
ATOM     38  H   LIG d   1       9.261   3.683  -2.397  0.00  0.00     0.034 H 
ATOM     39  H   LIG d   1      10.929   3.166  -2.057  0.00  0.00     0.034 H 
BRANCH  37  40
ATOM     40  C   LIG d   1      10.708   5.278  -2.420  0.00  0.00     0.052 C 
ATOM     41  H   LIG d   1      10.970   5.410  -1.370  0.00  0.00     0.056 H 
ATOM     42  H   LIG d   1      11.567   5.529  -3.043  0.00  0.00     0.056 H 
BRANCH  40  43
ATOM     43  O   LIG d   1       9.615   6.136  -2.750  0.00  0.00    -0.383 OA
BRANCH  43  44
ATOM     44  C   LIG d   1       9.332   7.125  -1.758  0.00  0.00     0.036 C 
ATOM     45  H   LIG d   1       9.979   6.969  -0.895  0.00  0.00     0.052 H 
ATOM     46  H   LIG d   1       9.513   8.117  -2.173  0.00  0.00     0.052 H 
ATOM     47  H   LIG d   1       8.290   7.044  -1.451  0.00  0.00     0.052 H 
ENDBRANCH  43  44
ENDBRANCH  40  43
ENDBRANCH  37  40
ENDBRANCH  34  37
ENDBRANCH  31  34
ENDBRANCH  28  31
ENDBRANCH  16  28
BRANCH   1  48
ATOM     48  C   LIG d   1       4.695   1.011  -1.609  0.00  0.00    -0.043 C 
ATOM     49  H   LIG d   1       5.281   0.718  -0.738  0.00  0.00     0.027 H 
ATOM     50  H   LIG d   1       5.173   1.858  -2.101  0.00  0.00     0.027 H 
ATOM     51  H   LIG d   1       3.691   1.293  -1.294  0.00  0.00     0.027 H 
ENDBRANCH   1  48
BRANCH   9  52
ATOM     52  C   LIG d   1       5.286  -0.649  -5.971  0.00  0.00    -0.056 C 
ATOM     53  H   LIG d   1       4.523   0.126  -5.910  0.00  0.00     0.024 H 
ATOM     54  H   LIG d   1       6.227  -0.208  -6.300  0.00  0.00     0.024 H 
ATOM     55  H   LIG d   1       4.975  -1.412  -6.686  0.00  0.00     0.024 H 
ENDBRANCH   9  52
TORSDOF 9
ENDMDL
MODEL 5
REMARK VINA RESULT:      -5.1      3.131      5.630
REMARK  9 active torsions:
REMARK  status: ('A' for Active; 'I' for Inactive)
REMARK    1  A    between atoms: C_1  and  C_2 
REMARK    2  A    between atoms: C_10  and  C_14 
REMARK    3  A    between atoms: C_18  and  C_20 
REMARK    4  A    between atoms: C_20  and  N_53 
REMARK    5  A    between atoms: C_21  and  C_22 
REMARK    6  A    between atoms: C_21  and  N_53 
REMARK    7  A    between atoms: C_22  and  C_23 
REMARK    8  A    between atoms: C_23  and  O_24 
REMARK    9  A    between atoms: O_24  and  C_25 
ROOT
ATOM      1  C   LIG d   1       4.522  -1.295  -2.550  0.00  0.00    -0.073 C 
ATOM      2  C   LIG d   1       5.242  -1.608  -3.584  0.00  0.00    -0.064 C 
ATOM      3  C   LIG d   1       5.043  -2.958  -4.244  0.00  0.00    -0.024 C 
ATOM      4  C   LIG d   1       4.740  -2.768  -5.733  0.00  0.00     0.018 C 
ATOM      5  H   LIG d   1       3.700  -2.498  -5.918  0.00  0.00     0.035 H 
ATOM      6  C   LIG d   1       5.734  -1.792  -6.387  0.00  0.00     0.108 C 
ATOM      7  H   LIG d   1       5.384  -1.571  -7.394  0.00  0.00     0.074 H 
ATOM      8  C   LIG d   1       5.914  -0.491  -5.648  0.00  0.00    -0.006 C 
ATOM      9  C   LIG d   1       6.282  -0.709  -4.193  0.00  0.00    -0.007 C 
ATOM     10  C   LIG d   1       6.437   0.613  -3.469  0.00  0.00    -0.043 C 
ATOM     11  C   LIG d   1       5.111   1.077  -2.871  0.00  0.00    -0.049 C 
ATOM     12  C   LIG d   1       4.648   0.031  -1.850  0.00  0.00    -0.032 C 
ATOM     13  O   LIG d   1       6.959  -2.570  -6.492  0.00  0.00    -0.461 OA
ATOM     14  C   LIG d   1       6.603  -3.815  -6.883  0.00  0.00     0.316 C 
ATOM     15  O   LIG d   1       7.306  -4.587  -7.493  0.00  0.00    -0.250 OA
ATOM     16  C   LIG d   1       5.179  -4.091  -6.433  0.00  0.00     0.102 C 
ATOM     17  H   LIG d   1       4.541  -4.298  -7.292  0.00  0.00     0.047 H 
ATOM     18  H   LIG d   1       4.210  -3.474  -3.766  0.00  0.00     0.031 H 
ATOM     19  H   LIG d   1       5.950  -3.552  -4.131  0.00  0.00     0.031 H 
ATOM     20  H   LIG d   1       6.706   0.085  -6.128  0.00  0.00     0.031 H 
ATOM     21  H   LIG d   1       4.984   0.076  -5.693  0.00  0.00     0.031 H 
ATOM     22  H   LIG d   1       6.795   1.365  -4.172  0.00  0.00     0.027 H 
ATOM     23  H   LIG d   1       7.168   0.497  -2.669  0.00  0.00     0.027 H 
ATOM     24  H   LIG d   1       4.366   1.173  -3.660  0.00  0.00     0.027 H 
ATOM     25  H   LIG d   1       5.247   2.038  -2.375  0.00  0.00     0.027 H 
ATOM     26  H   LIG d   1       3.681   0.322  -1.440  0.00  0.00     0.031 H 
ATOM     27  H   LIG d   1       5.382  -0.048  -1.047  0.00  0.00     0.031 H 
ENDROOT
BRANCH  16  28
ATOM     28  C   LIG d   1       5.146  -5.257  -5.445  0.00  0.00    -0.020 C 
ATOM     29  H   LIG d   1       6.132  -5.382  -4.996  0.00  0.00     0.082 H 
ATOM     30  H   LIG d   1       4.415  -5.050  -4.662  0.00  0.00     0.082 H 
BRANCH  28  31
ATOM     31  N   LIG d   1       4.768  -6.489  -6.162  0.00  0.00     0.228 N 
ATOM     32  H   LIG d   1       4.435  -6.245  -7.102  0.00  0.00     0.201 HD
ATOM     33  H   LIG d   1       4.018  -6.964  -5.647  0.00  0.00     0.201 HD
BRANCH  31  34
ATOM     34  C   LIG d   1       5.928  -7.393  -6.276  0.00  0.00    -0.032 C 
ATOM     35  H   LIG d   1       5.796  -8.052  -7.135  0.00  0.00     0.081 H 
ATOM     36  H   LIG d   1       6.838  -6.806  -6.405  0.00  0.00     0.081 H 
BRANCH  34  37
ATOM     37  C   LIG d   1       6.038  -8.233  -5.002  0.00  0.00     0.011 C 
ATOM     38  H   LIG d   1       7.042  -8.652  -4.929  0.00  0.00     0.034 H 
ATOM     39  H   LIG d   1       5.845  -7.601  -4.133  0.00  0.00     0.034 H 
BRANCH  37  40
ATOM     40  C   LIG d   1       5.014  -9.367  -5.048  0.00  0.00     0.052 C 
ATOM     41  H   LIG d   1       4.677  -9.511  -6.075  0.00  0.00     0.056 H 
ATOM     42  H   LIG d   1       5.471 -10.286  -4.683  0.00  0.00     0.056 H 
BRANCH  40  43
ATOM     43  O   LIG d   1       3.895  -9.032  -4.224  0.00  0.00    -0.383 OA
BRANCH  43  44
ATOM     44  C   LIG d   1       3.560 -10.036  -3.263  0.00  0.00     0.036 C 
ATOM     45  H   LIG d   1       2.745 -10.649  -3.649  0.00  0.00     0.052 H 
ATOM     46  H   LIG d   1       4.430 -10.664  -3.075  0.00  0.00     0.052 H 
ATOM     47  H   LIG d   1       3.247  -9.559  -2.334  0.00  0.00     0.052 H 
ENDBRANCH  43  44
ENDBRANCH  40  43
ENDBRANCH  37  40
ENDBRANCH  34  37
ENDBRANCH  31  34
ENDBRANCH  28  31
ENDBRANCH  16  28
BRANCH   1  48
ATOM     48  C   LIG d   1       3.521  -2.296  -2.033  0.00  0.00    -0.043 C 
ATOM     49  H   LIG d   1       2.874  -2.617  -2.849  0.00  0.00     0.027 H 
ATOM     50  H   LIG d   1       4.049  -3.159  -1.627  0.00  0.00     0.027 H 
ATOM     51  H   LIG d   1       2.919  -1.837  -1.250  0.00  0.00     0.027 H 
ENDBRANCH   1  48
BRANCH   9  52
ATOM     52  C   LIG d   1       7.627  -1.438  -4.164  0.00  0.00    -0.056 C 
ATOM     53  H   LIG d   1       8.093  -1.380  -5.147  0.00  0.00     0.024 H 
ATOM     54  H   LIG d   1       8.278  -0.970  -3.425  0.00  0.00     0.024 H 
ATOM     55  H   LIG d   1       7.468  -2.483  -3.897  0.00  0.00     0.024 H 
ENDBRANCH   9  52
TORSDOF 9
ENDMDL
MODEL 6
REMARK VINA RESULT:      -5.1      2.216      4.505
REMARK  9 active torsions:
REMARK  status: ('A' for Active; 'I' for Inactive)
REMARK    1  A    between atoms: C_1  and  C_2 
REMARK    2  A    between atoms: C_10  and  C_14 
REMARK    3  A    between atoms: C_18  and  C_20 
REMARK    4  A    between atoms: C_20  and  N_53 
REMARK    5  A    between atoms: C_21  and  C_22 
REMARK    6  A    between atoms: C_21  and  N_53 
REMARK    7  A    between atoms: C_22  and  C_23 
REMARK    8  A    between atoms: C_23  and  O_24 
REMARK    9  A    between atoms: O_24  and  C_25 
ROOT
ATOM      1  C   LIG d   1       5.763  -4.372  -5.510  0.00  0.00    -0.073 C 
ATOM      2  C   LIG d   1       5.961  -3.195  -4.997  0.00  0.00    -0.064 C 
ATOM      3  C   LIG d   1       4.768  -2.331  -4.641  0.00  0.00    -0.024 C 
ATOM      4  C   LIG d   1       4.850  -1.914  -3.170  0.00  0.00     0.018 C 
ATOM      5  H   LIG d   1       4.513  -2.699  -2.492  0.00  0.00     0.035 H 
ATOM      6  C   LIG d   1       6.249  -1.381  -2.816  0.00  0.00     0.108 C 
ATOM      7  H   LIG d   1       6.302  -1.249  -1.736  0.00  0.00     0.074 H 
ATOM      8  C   LIG d   1       7.386  -2.272  -3.243  0.00  0.00    -0.006 C 
ATOM      9  C   LIG d   1       7.319  -2.613  -4.720  0.00  0.00    -0.007 C 
ATOM     10  C   LIG d   1       8.461  -3.526  -5.118  0.00  0.00    -0.043 C 
ATOM     11  C   LIG d   1       8.081  -4.995  -4.952  0.00  0.00    -0.049 C 
ATOM     12  C   LIG d   1       6.893  -5.295  -5.874  0.00  0.00    -0.032 C 
ATOM     13  O   LIG d   1       6.282  -0.066  -3.438  0.00  0.00    -0.461 OA
ATOM     14  C   LIG d   1       5.073   0.502  -3.223  0.00  0.00     0.316 C 
ATOM     15  O   LIG d   1       4.855   1.690  -3.174  0.00  0.00    -0.250 OA
ATOM     16  C   LIG d   1       4.033  -0.591  -3.052  0.00  0.00     0.102 C 
ATOM     17  H   LIG d   1       3.561  -0.519  -2.072  0.00  0.00     0.047 H 
ATOM     18  H   LIG d   1       3.850  -2.896  -4.808  0.00  0.00     0.031 H 
ATOM     19  H   LIG d   1       4.765  -1.442  -5.271  0.00  0.00     0.031 H 
ATOM     20  H   LIG d   1       8.331  -1.766  -3.043  0.00  0.00     0.031 H 
ATOM     21  H   LIG d   1       7.349  -3.198  -2.668  0.00  0.00     0.031 H 
ATOM     22  H   LIG d   1       9.327  -3.308  -4.493  0.00  0.00     0.027 H 
ATOM     23  H   LIG d   1       8.718  -3.339  -6.161  0.00  0.00     0.027 H 
ATOM     24  H   LIG d   1       7.799  -5.187  -3.917  0.00  0.00     0.027 H 
ATOM     25  H   LIG d   1       8.926  -5.627  -5.226  0.00  0.00     0.027 H 
ATOM     26  H   LIG d   1       6.578  -6.330  -5.741  0.00  0.00     0.031 H 
ATOM     27  H   LIG d   1       7.183  -5.126  -6.912  0.00  0.00     0.031 H 
ENDROOT
BRANCH  16  28
ATOM     28  C   LIG d   1       2.983  -0.508  -4.162  0.00  0.00    -0.020 C 
ATOM     29  H   LIG d   1       2.821  -1.500  -4.584  0.00  0.00     0.082 H 
ATOM     30  H   LIG d   1       2.046  -0.132  -3.748  0.00  0.00     0.082 H 
BRANCH  28  31
ATOM     31  N   LIG d   1       3.462   0.407  -5.214  0.00  0.00     0.228 N 
ATOM     32  H   LIG d   1       4.451   0.213  -5.407  0.00  0.00     0.201 HD
ATOM     33  H   LIG d   1       3.361   1.377  -4.892  0.00  0.00     0.201 HD
BRANCH  31  34
ATOM     34  C   LIG d   1       2.679   0.221  -6.451  0.00  0.00    -0.032 C 
ATOM     35  H   LIG d   1       1.773  -0.343  -6.229  0.00  0.00     0.081 H 
ATOM     36  H   LIG d   1       2.410   1.194  -6.864  0.00  0.00     0.081 H 
BRANCH  34  37
ATOM     37  C   LIG d   1       3.523  -0.550  -7.468  0.00  0.00     0.011 C 
ATOM     38  H   LIG d   1       4.104  -1.315  -6.953  0.00  0.00     0.034 H 
ATOM     39  H   LIG d   1       2.867  -1.024  -8.200  0.00  0.00     0.034 H 
BRANCH  37  40
ATOM     40  C   LIG d   1       4.471   0.416  -8.181  0.00  0.00     0.052 C 
ATOM     41  H   LIG d   1       5.461   0.351  -7.731  0.00  0.00     0.056 H 
ATOM     42  H   LIG d   1       4.534   0.151  -9.237  0.00  0.00     0.056 H 
BRANCH  40  43
ATOM     43  O   LIG d   1       3.976   1.750  -8.054  0.00  0.00    -0.383 OA
BRANCH  43  44
ATOM     44  C   LIG d   1       3.933   2.474  -9.285  0.00  0.00     0.036 C 
ATOM     45  H   LIG d   1       4.007   1.777 -10.120  0.00  0.00     0.052 H 
ATOM     46  H   LIG d   1       2.993   3.022  -9.352  0.00  0.00     0.052 H 
ATOM     47  H   LIG d   1       4.766   3.177  -9.323  0.00  0.00     0.052 H 
ENDBRANCH  43  44
ENDBRANCH  40  43
ENDBRANCH  37  40
ENDBRANCH  34  37
ENDBRANCH  31  34
ENDBRANCH  28  31
ENDBRANCH  16  28
BRANCH   1  48
ATOM     48  C   LIG d   1       4.346  -4.829  -5.747  0.00  0.00    -0.043 C 
ATOM     49  H   LIG d   1       4.196  -5.004  -6.813  0.00  0.00     0.027 H 
ATOM     50  H   LIG d   1       4.168  -5.754  -5.198  0.00  0.00     0.027 H 
ATOM     51  H   LIG d   1       3.654  -4.062  -5.403  0.00  0.00     0.027 H 
ENDBRANCH   1  48
BRANCH   9  52
ATOM     52  C   LIG d   1       7.451  -1.303  -5.499  0.00  0.00    -0.056 C 
ATOM     53  H   LIG d   1       6.471  -0.996  -5.862  0.00  0.00     0.024 H 
ATOM     54  H   LIG d   1       7.855  -0.530  -4.845  0.00  0.00     0.024 H 
ATOM     55  H   LIG d   1       8.124  -1.449  -6.344  0.00  0.00     0.024 H 
ENDBRANCH   9  52
TORSDOF 9
ENDMDL
MODEL 7
REMARK VINA RESULT:      -5.1      2.299      6.526
REMARK  9 active torsions:
REMARK  status: ('A' for Active; 'I' for Inactive)
REMARK    1  A    between atoms: C_1  and  C_2 
REMARK    2  A    between atoms: C_10  and  C_14 
REMARK    3  A    between atoms: C_18  and  C_20 
REMARK    4  A    between atoms: C_20  and  N_53 
REMARK    5  A    between atoms: C_21  and  C_22 
REMARK    6  A    between atoms: C_21  and  N_53 
REMARK    7  A    between atoms: C_22  and  C_23 
REMARK    8  A    between atoms: C_23  and  O_24 
REMARK    9  A    between atoms: O_24  and  C_25 
ROOT
ATOM      1  C   LIG d   1       4.604  -2.376 -10.428  0.00  0.00    -0.073 C 
ATOM      2  C   LIG d   1       3.988  -1.601  -9.588  0.00  0.00    -0.064 C 
ATOM      3  C   LIG d   1       4.260  -1.752  -8.105  0.00  0.00    -0.024 C 
ATOM      4  C   LIG d   1       4.703  -0.407  -7.519  0.00  0.00     0.018 C 
ATOM      5  H   LIG d   1       5.753  -0.191  -7.714  0.00  0.00     0.035 H 
ATOM      6  C   LIG d   1       3.767   0.731  -7.962  0.00  0.00     0.108 C 
ATOM      7  H   LIG d   1       4.210   1.678  -7.654  0.00  0.00     0.074 H 
ATOM      8  C   LIG d   1       3.507   0.788  -9.445  0.00  0.00    -0.006 C 
ATOM      9  C   LIG d   1       3.003  -0.537  -9.986  0.00  0.00    -0.007 C 
ATOM     10  C   LIG d   1       2.769  -0.459 -11.481  0.00  0.00    -0.043 C 
ATOM     11  C   LIG d   1       4.028  -0.832 -12.260  0.00  0.00    -0.049 C 
ATOM     12  C   LIG d   1       4.400  -2.278 -11.915  0.00  0.00    -0.032 C 
ATOM     13  O   LIG d   1       2.564   0.513  -7.173  0.00  0.00    -0.461 OA
ATOM     14  C   LIG d   1       2.967   0.175  -5.926  0.00  0.00     0.316 C 
ATOM     15  O   LIG d   1       2.332   0.351  -4.913  0.00  0.00    -0.250 OA
ATOM     16  C   LIG d   1       4.344  -0.460  -6.002  0.00  0.00     0.102 C 
ATOM     17  H   LIG d   1       5.062   0.116  -5.420  0.00  0.00     0.047 H 
ATOM     18  H   LIG d   1       5.049  -2.490  -7.955  0.00  0.00     0.031 H 
ATOM     19  H   LIG d   1       3.352  -2.085  -7.603  0.00  0.00     0.031 H 
ATOM     20  H   LIG d   1       2.759   1.556  -9.647  0.00  0.00     0.031 H 
ATOM     21  H   LIG d   1       4.432   1.047  -9.960  0.00  0.00     0.031 H 
ATOM     22  H   LIG d   1       2.474   0.557 -11.743  0.00  0.00     0.027 H 
ATOM     23  H   LIG d   1       1.966  -1.144 -11.751  0.00  0.00     0.027 H 
ATOM     24  H   LIG d   1       4.844  -0.166 -11.979  0.00  0.00     0.027 H 
ATOM     25  H   LIG d   1       3.837  -0.747 -13.330  0.00  0.00     0.027 H 
ATOM     26  H   LIG d   1       5.321  -2.552 -12.430  0.00  0.00     0.031 H 
ATOM     27  H   LIG d   1       3.593  -2.946 -12.219  0.00  0.00     0.031 H 
ENDROOT
BRANCH  16  28
ATOM     28  C   LIG d   1       4.292  -1.909  -5.514  0.00  0.00    -0.020 C 
ATOM     29  H   LIG d   1       3.768  -2.522  -6.247  0.00  0.00     0.082 H 
ATOM     30  H   LIG d   1       5.308  -2.285  -5.385  0.00  0.00     0.082 H 
BRANCH  28  31
ATOM     31  N   LIG d   1       3.579  -1.959  -4.224  0.00  0.00     0.228 N 
ATOM     32  H   LIG d   1       2.836  -2.666  -4.276  0.00  0.00     0.201 HD
ATOM     33  H   LIG d   1       3.163  -1.041  -4.030  0.00  0.00     0.201 HD
BRANCH  31  34
ATOM     34  C   LIG d   1       4.511  -2.311  -3.136  0.00  0.00    -0.032 C 
ATOM     35  H   LIG d   1       4.324  -3.334  -2.810  0.00  0.00     0.081 H 
ATOM     36  H   LIG d   1       5.538  -2.223  -3.491  0.00  0.00     0.081 H 
BRANCH  34  37
ATOM     37  C   LIG d   1       4.293  -1.355  -1.960  0.00  0.00     0.011 C 
ATOM     38  H   LIG d   1       3.224  -1.239  -1.780  0.00  0.00     0.034 H 
ATOM     39  H   LIG d   1       4.768  -1.763  -1.068  0.00  0.00     0.034 H 
BRANCH  37  40
ATOM     40  C   LIG d   1       4.906   0.006  -2.289  0.00  0.00     0.052 C 
ATOM     41  H   LIG d   1       4.202   0.588  -2.884  0.00  0.00     0.056 H 
ATOM     42  H   LIG d   1       5.127   0.539  -1.364  0.00  0.00     0.056 H 
BRANCH  40  43
ATOM     43  O   LIG d   1       6.114  -0.181  -3.030  0.00  0.00    -0.383 OA
BRANCH  43  44
ATOM     44  C   LIG d   1       6.684   1.030  -3.528  0.00  0.00     0.036 C 
ATOM     45  H   LIG d   1       5.946   1.557  -4.134  0.00  0.00     0.052 H 
ATOM     46  H   LIG d   1       6.985   1.662  -2.692  0.00  0.00     0.052 H 
ATOM     47  H   LIG d   1       7.556   0.796  -4.139  0.00  0.00     0.052 H 
ENDBRANCH  43  44
ENDBRANCH  40  43
ENDBRANCH  37  40
ENDBRANCH  34  37
ENDBRANCH  31  34
ENDBRANCH  28  31
ENDBRANCH  16  28
BRANCH   1  48
ATOM     48  C   LIG d   1       5.559  -3.412  -9.894  0.00  0.00    -0.043 C 
ATOM     49  H   LIG d   1       6.526  -3.302 -10.385  0.00  0.00     0.027 H 
ATOM     50  H   LIG d   1       5.680  -3.273  -8.819  0.00  0.00     0.027 H 
ATOM     51  H   LIG d   1       5.162  -4.407 -10.089  0.00  0.00     0.027 H 
ENDBRANCH   1  48
BRANCH   9  52
ATOM     52  C   LIG d   1       1.668  -0.834  -9.301  0.00  0.00    -0.056 C 
ATOM     53  H   LIG d   1       1.478  -1.907  -9.326  0.00  0.00     0.024 H 
ATOM     54  H   LIG d   1       1.708  -0.496  -8.265  0.00  0.00     0.024 H 
ATOM     55  H   LIG d   1       0.867  -0.310  -9.822  0.00  0.00     0.024 H 
ENDBRANCH   9  52
TORSDOF 9
ENDMDL
MODEL 8
REMARK VINA RESULT:      -5.1      2.069      3.274
REMARK  9 active torsions:
REMARK  status: ('A' for Active; 'I' for Inactive)
REMARK    1  A    between atoms: C_1  and  C_2 
REMARK    2  A    between atoms: C_10  and  C_14 
REMARK    3  A    between atoms: C_18  and  C_20 
REMARK    4  A    between atoms: C_20  and  N_53 
REMARK    5  A    between atoms: C_21  and  C_22 
REMARK    6  A    between atoms: C_21  and  N_53 
REMARK    7  A    between atoms: C_22  and  C_23 
REMARK    8  A    between atoms: C_23  and  O_24 
REMARK    9  A    between atoms: O_24  and  C_25 
ROOT
ATOM      1  C   LIG d   1       3.364   0.533  -3.919  0.00  0.00    -0.073 C 
ATOM      2  C   LIG d   1       4.036  -0.573  -4.033  0.00  0.00    -0.064 C 
ATOM      3  C   LIG d   1       4.134  -1.243  -5.389  0.00  0.00    -0.024 C 
ATOM      4  C   LIG d   1       5.605  -1.452  -5.760  0.00  0.00     0.018 C 
ATOM      5  H   LIG d   1       6.072  -0.546  -6.147  0.00  0.00     0.035 H 
ATOM      6  C   LIG d   1       6.393  -2.076  -4.594  0.00  0.00     0.108 C 
ATOM      7  H   LIG d   1       7.452  -2.057  -4.849  0.00  0.00     0.074 H 
ATOM      8  C   LIG d   1       6.209  -1.383  -3.270  0.00  0.00    -0.006 C 
ATOM      9  C   LIG d   1       4.745  -1.252  -2.895  0.00  0.00    -0.007 C 
ATOM     10  C   LIG d   1       4.586  -0.534  -1.569  0.00  0.00    -0.043 C 
ATOM     11  C   LIG d   1       4.479   0.976  -1.766  0.00  0.00    -0.049 C 
ATOM     12  C   LIG d   1       3.234   1.267  -2.612  0.00  0.00    -0.032 C 
ATOM     13  O   LIG d   1       5.952  -3.462  -4.586  0.00  0.00    -0.461 OA
ATOM     14  C   LIG d   1       5.879  -3.860  -5.878  0.00  0.00     0.316 C 
ATOM     15  O   LIG d   1       5.992  -4.998  -6.268  0.00  0.00    -0.250 OA
ATOM     16  C   LIG d   1       5.631  -2.649  -6.759  0.00  0.00     0.102 C 
ATOM     17  H   LIG d   1       6.441  -2.528  -7.478  0.00  0.00     0.047 H 
ATOM     18  H   LIG d   1       3.656  -0.613  -6.139  0.00  0.00     0.031 H 
ATOM     19  H   LIG d   1       3.629  -2.208  -5.352  0.00  0.00     0.031 H 
ATOM     20  H   LIG d   1       6.720  -1.954  -2.494  0.00  0.00     0.031 H 
ATOM     21  H   LIG d   1       6.646  -0.386  -3.324  0.00  0.00     0.031 H 
ATOM     22  H   LIG d   1       5.449  -0.752  -0.940  0.00  0.00     0.027 H 
ATOM     23  H   LIG d   1       3.684  -0.895  -1.075  0.00  0.00     0.027 H 
ATOM     24  H   LIG d   1       5.366   1.344  -2.281  0.00  0.00     0.027 H 
ATOM     25  H   LIG d   1       4.386   1.467  -0.798  0.00  0.00     0.027 H 
ATOM     26  H   LIG d   1       3.160   2.338  -2.800  0.00  0.00     0.031 H 
ATOM     27  H   LIG d   1       2.344   0.921  -2.085  0.00  0.00     0.031 H 
ENDROOT
BRANCH  16  28
ATOM     28  C   LIG d   1       4.288  -2.776  -7.478  0.00  0.00    -0.020 C 
ATOM     29  H   LIG d   1       3.891  -3.781  -7.334  0.00  0.00     0.082 H 
ATOM     30  H   LIG d   1       3.587  -2.046  -7.071  0.00  0.00     0.082 H 
BRANCH  28  31
ATOM     31  N   LIG d   1       4.484  -2.523  -8.918  0.00  0.00     0.228 N 
ATOM     32  H   LIG d   1       5.476  -2.327  -9.095  0.00  0.00     0.201 HD
ATOM     33  H   LIG d   1       3.920  -1.712  -9.200  0.00  0.00     0.201 HD
BRANCH  31  34
ATOM     34  C   LIG d   1       4.072  -3.700  -9.706  0.00  0.00    -0.032 C 
ATOM     35  H   LIG d   1       3.318  -3.405 -10.438  0.00  0.00     0.081 H 
ATOM     36  H   LIG d   1       4.937  -4.116 -10.223  0.00  0.00     0.081 H 
BRANCH  34  37
ATOM     37  C   LIG d   1       3.484  -4.753  -8.766  0.00  0.00     0.011 C 
ATOM     38  H   LIG d   1       4.288  -5.228  -8.204  0.00  0.00     0.034 H 
ATOM     39  H   LIG d   1       2.791  -4.275  -8.072  0.00  0.00     0.034 H 
BRANCH  37  40
ATOM     40  C   LIG d   1       2.740  -5.810  -9.583  0.00  0.00     0.052 C 
ATOM     41  H   LIG d   1       1.694  -5.521  -9.684  0.00  0.00     0.056 H 
ATOM     42  H   LIG d   1       3.192  -5.889 -10.572  0.00  0.00     0.056 H 
BRANCH  40  43
ATOM     43  O   LIG d   1       2.823  -7.072  -8.920  0.00  0.00    -0.383 OA
BRANCH  43  44
ATOM     44  C   LIG d   1       4.091  -7.327  -8.310  0.00  0.00     0.036 C 
ATOM     45  H   LIG d   1       4.408  -8.343  -8.543  0.00  0.00     0.052 H 
ATOM     46  H   LIG d   1       4.827  -6.620  -8.693  0.00  0.00     0.052 H 
ATOM     47  H   LIG d   1       4.004  -7.211  -7.230  0.00  0.00     0.052 H 
ENDBRANCH  43  44
ENDBRANCH  40  43
ENDBRANCH  37  40
ENDBRANCH  34  37
ENDBRANCH  31  34
ENDBRANCH  28  31
ENDBRANCH  16  28
BRANCH   1  48
ATOM     48  C   LIG d   1       2.690   1.101  -5.141  0.00  0.00    -0.043 C 
ATOM     49  H   LIG d   1       3.325   1.871  -5.580  0.00  0.00     0.027 H 
ATOM     50  H   LIG d   1       2.528   0.306  -5.868  0.00  0.00     0.027 H 
ATOM     51  H   LIG d   1       1.732   1.536  -4.858  0.00  0.00     0.027 H 
ENDBRANCH   1  48
BRANCH   9  52
ATOM     52  C   LIG d   1       4.180  -2.666  -2.750  0.00  0.00    -0.056 C 
ATOM     53  H   LIG d   1       3.839  -3.023  -3.721  0.00  0.00     0.024 H 
ATOM     54  H   LIG d   1       4.957  -3.331  -2.372  0.00  0.00     0.024 H 
ATOM     55  H   LIG d   1       3.343  -2.654  -2.051  0.00  0.00     0.024 H 
ENDBRANCH   9  52
TORSDOF 9
ENDMDL
MODEL 9
REMARK VINA RESULT:      -5.1      1.903      2.461
REMARK  9 active torsions:
REMARK  status: ('A' for Active; 'I' for Inactive)
REMARK    1  A    between atoms: C_1  and  C_2 
REMARK    2  A    between atoms: C_10  and  C_14 
REMARK    3  A    between atoms: C_18  and  C_20 
REMARK    4  A    between atoms: C_20  and  N_53 
REMARK    5  A    between atoms: C_21  and  C_22 
REMARK    6  A    between atoms: C_21  and  N_53 
REMARK    7  A    between atoms: C_22  and  C_23 
REMARK    8  A    between atoms: C_23  and  O_24 
REMARK    9  A    between atoms: O_24  and  C_25 
ROOT
ATOM      1  C   LIG d   1       3.480  -0.380  -4.636  0.00  0.00    -0.073 C 
ATOM      2  C   LIG d   1       4.689  -0.834  -4.767  0.00  0.00    -0.064 C 
ATOM      3  C   LIG d   1       5.449  -0.560  -6.050  0.00  0.00    -0.024 C 
ATOM      4  C   LIG d   1       6.783   0.120  -5.728  0.00  0.00     0.018 C 
ATOM      5  H   LIG d   1       6.673   1.188  -5.537  0.00  0.00     0.035 H 
ATOM      6  C   LIG d   1       7.527  -0.614  -4.598  0.00  0.00     0.108 C 
ATOM      7  H   LIG d   1       8.382  -0.007  -4.302  0.00  0.00     0.074 H 
ATOM      8  C   LIG d   1       6.694  -0.892  -3.375  0.00  0.00    -0.006 C 
ATOM      9  C   LIG d   1       5.412  -1.629  -3.715  0.00  0.00    -0.007 C 
ATOM     10  C   LIG d   1       4.583  -1.878  -2.470  0.00  0.00    -0.043 C 
ATOM     11  C   LIG d   1       3.626  -0.719  -2.200  0.00  0.00    -0.049 C 
ATOM     12  C   LIG d   1       2.667  -0.595  -3.389  0.00  0.00    -0.032 C 
ATOM     13  O   LIG d   1       8.025  -1.819  -5.243  0.00  0.00    -0.461 OA
ATOM     14  C   LIG d   1       8.475  -1.454  -6.466  0.00  0.00     0.316 C 
ATOM     15  O   LIG d   1       9.332  -2.027  -7.098  0.00  0.00    -0.250 OA
ATOM     16  C   LIG d   1       7.732  -0.210  -6.920  0.00  0.00     0.102 C 
ATOM     17  H   LIG d   1       8.430   0.610  -7.090  0.00  0.00     0.047 H 
ATOM     18  H   LIG d   1       4.854   0.091  -6.690  0.00  0.00     0.031 H 
ATOM     19  H   LIG d   1       5.637  -1.501  -6.566  0.00  0.00     0.031 H 
ATOM     20  H   LIG d   1       7.273  -1.500  -2.679  0.00  0.00     0.031 H 
ATOM     21  H   LIG d   1       6.438   0.053  -2.895  0.00  0.00     0.031 H 
ATOM     22  H   LIG d   1       5.249  -1.998  -1.617  0.00  0.00     0.027 H 
ATOM     23  H   LIG d   1       4.007  -2.793  -2.605  0.00  0.00     0.027 H 
ATOM     24  H   LIG d   1       4.192   0.206  -2.087  0.00  0.00     0.027 H 
ATOM     25  H   LIG d   1       3.059  -0.916  -1.290  0.00  0.00     0.027 H 
ATOM     26  H   LIG d   1       2.000   0.253  -3.236  0.00  0.00     0.031 H 
ATOM     27  H   LIG d   1       2.084  -1.512  -3.486  0.00  0.00     0.031 H 
ENDROOT
BRANCH  16  28
ATOM     28  C   LIG d   1       6.924  -0.500  -8.185  0.00  0.00    -0.020 C 
ATOM     29  H   LIG d   1       7.286  -1.420  -8.645  0.00  0.00     0.082 H 
ATOM     30  H   LIG d   1       5.870  -0.615  -7.925  0.00  0.00     0.082 H 
BRANCH  28  31
ATOM     31  N   LIG d   1       7.082   0.622  -9.129  0.00  0.00     0.228 N 
ATOM     32  H   LIG d   1       7.838   0.406  -9.788  0.00  0.00     0.201 HD
ATOM     33  H   LIG d   1       7.317   1.474  -8.606  0.00  0.00     0.201 HD
BRANCH  31  34
ATOM     34  C   LIG d   1       5.830   0.841  -9.879  0.00  0.00    -0.032 C 
ATOM     35  H   LIG d   1       6.064   1.164 -10.894  0.00  0.00     0.081 H 
ATOM     36  H   LIG d   1       5.257  -0.086  -9.914  0.00  0.00     0.081 H 
BRANCH  34  37
ATOM     37  C   LIG d   1       5.007   1.924  -9.177  0.00  0.00     0.011 C 
ATOM     38  H   LIG d   1       4.813   1.622  -8.148  0.00  0.00     0.034 H 
ATOM     39  H   LIG d   1       5.563   2.862  -9.181  0.00  0.00     0.034 H 
BRANCH  37  40
ATOM     40  C   LIG d   1       3.680   2.113  -9.913  0.00  0.00     0.052 C 
ATOM     41  H   LIG d   1       3.511   3.175 -10.089  0.00  0.00     0.056 H 
ATOM     42  H   LIG d   1       3.715   1.587 -10.867  0.00  0.00     0.056 H 
BRANCH  40  43
ATOM     43  O   LIG d   1       2.616   1.587  -9.118  0.00  0.00    -0.383 OA
BRANCH  43  44
ATOM     44  C   LIG d   1       2.250   0.246  -9.449  0.00  0.00     0.036 C 
ATOM     45  H   LIG d   1       2.072  -0.318  -8.533  0.00  0.00     0.052 H 
ATOM     46  H   LIG d   1       1.342   0.256 -10.052  0.00  0.00     0.052 H 
ATOM     47  H   LIG d   1       3.056  -0.221 -10.014  0.00  0.00     0.052 H 
ENDBRANCH  43  44
ENDBRANCH  40  43
ENDBRANCH  37  40
ENDBRANCH  34  37
ENDBRANCH  31  34
ENDBRANCH  28  31
ENDBRANCH  16  28
BRANCH   1  48
ATOM     48  C   LIG d   1       2.868   0.393  -5.776  0.00  0.00    -0.043 C 
ATOM     49  H   LIG d   1       2.692   1.422  -5.463  0.00  0.00     0.027 H 
ATOM     50  H   LIG d   1       3.549   0.384  -6.627  0.00  0.00     0.027 H 
ATOM     51  H   LIG d   1       1.924  -0.068  -6.062  0.00  0.00     0.027 H 
ENDBRANCH   1  48
BRANCH   9  52
ATOM     52  C   LIG d   1       5.804  -2.980  -4.315  0.00  0.00    -0.056 C 
ATOM     53  H   LIG d   1       6.645  -3.394  -3.759  0.00  0.00     0.024 H 
ATOM     54  H   LIG d   1       4.957  -3.664  -4.256  0.00  0.00     0.024 H 
ATOM     55  H   LIG d   1       6.089  -2.845  -5.359  0.00  0.00     0.024 H 
ENDBRANCH   9  52
TORSDOF 9
ENDMDL
