MODEL 1
REMARK VINA RESULT:      -6.5      0.000      0.000
REMARK  10 active torsions:
REMARK  status: ('A' for Active; 'I' for Inactive)
REMARK    1  A    between atoms: C_1  and  C_2 
REMARK    2  A    between atoms: C_6  and  O_28 
REMARK    3  A    between atoms: C_7  and  O_26 
REMARK    4  A    between atoms: N_12  and  C_13 
REMARK    5  A    between atoms: C_13  and  C_14 
REMARK       I    between atoms: C_14  and  N_16 
REMARK    6  A    between atoms: N_16  and  C_17 
REMARK    7  A    between atoms: C_22  and  C_24 
REMARK    8  A    between atoms: C_22  and  C_25 
REMARK    9  A    between atoms: O_26  and  C_27 
REMARK   10  A    between atoms: O_28  and  C_29 
ROOT
ATOM      1  C   LIG d   1       9.960   2.025  -5.429  0.00  0.00     0.104 C 
ATOM      2  H   LIG d   1      10.223   2.056  -6.486  0.00  0.00     0.059 H 
ATOM      3  H   LIG d   1      10.686   1.415  -4.891  0.00  0.00     0.059 H 
ENDROOT
BRANCH   1   4
ATOM      4  N   LIG d   1       9.965   3.384  -4.884  0.00  0.00    -0.287 N 
ATOM      5  C   LIG d   1       9.850   4.447  -5.723  0.00  0.00     0.110 A 
ATOM      6  N   LIG d   1       9.840   5.680  -5.316  0.00  0.00    -0.234 NA
ATOM      7  C   LIG d   1       9.951   5.996  -4.001  0.00  0.00     0.082 A 
ATOM      8  C   LIG d   1      10.080   4.954  -3.055  0.00  0.00     0.069 A 
ATOM      9  C   LIG d   1       9.939   7.321  -3.566  0.00  0.00     0.010 A 
ATOM     10  C   LIG d   1      10.195   5.250  -1.696  0.00  0.00    -0.002 A 
ATOM     11  C   LIG d   1      10.088   3.571  -3.548  0.00  0.00     0.262 A 
ATOM     12  C   LIG d   1      10.181   6.566  -1.283  0.00  0.00     0.162 A 
ATOM     13  H   LIG d   1      10.294   4.455  -0.973  0.00  0.00     0.066 H 
ATOM     14  C   LIG d   1      10.054   7.600  -2.217  0.00  0.00     0.164 A 
ATOM     15  O   LIG d   1      10.195   2.628  -2.785  0.00  0.00    -0.267 OA
ATOM     16  H   LIG d   1       9.842   8.126  -4.280  0.00  0.00     0.068 H 
BRANCH   5  17
ATOM     17  C   LIG d   1       9.722   4.181  -7.201  0.00  0.00    -0.006 C 
ATOM     18  H   LIG d   1      10.268   4.942  -7.756  0.00  0.00     0.031 H 
ATOM     19  H   LIG d   1      10.134   3.198  -7.430  0.00  0.00     0.031 H 
ATOM     20  H   LIG d   1       8.669   4.209  -7.484  0.00  0.00     0.031 H 
ENDBRANCH   5  17
BRANCH  12  21
ATOM     21  O   LIG d   1      10.292   6.861   0.039  0.00  0.00    -0.491 OA
BRANCH  21  22
ATOM     22  C   LIG d   1      11.072   5.970   0.840  0.00  0.00     0.079 C 
ATOM     23  H   LIG d   1      11.073   6.316   1.873  0.00  0.00     0.066 H 
ATOM     24  H   LIG d   1      10.641   4.969   0.792  0.00  0.00     0.066 H 
ATOM     25  H   LIG d   1      12.095   5.942   0.463  0.00  0.00     0.066 H 
ENDBRANCH  21  22
ENDBRANCH  12  21
BRANCH  14  26
ATOM     26  O   LIG d   1      10.042   8.890  -1.795  0.00  0.00    -0.491 OA
BRANCH  26  27
ATOM     27  C   LIG d   1       9.976   9.902  -2.802  0.00  0.00     0.079 C 
ATOM     28  H   LIG d   1       8.969   9.935  -3.219  0.00  0.00     0.066 H 
ATOM     29  H   LIG d   1      10.219  10.869  -2.362  0.00  0.00     0.066 H 
ATOM     30  H   LIG d   1      10.690   9.674  -3.594  0.00  0.00     0.066 H 
ENDBRANCH  26  27
ENDBRANCH  14  26
ENDBRANCH   1   4
BRANCH   1  31
ATOM     31  C   LIG d   1       8.585   1.426  -5.271  0.00  0.00     0.233 C 
ATOM     32  O   LIG d   1       7.709   1.703  -6.061  0.00  0.00    -0.274 OA
ATOM     33  N   LIG d   1       8.332   0.582  -4.251  0.00  0.00    -0.311 N 
ATOM     34  H   LIG d   1       9.033   0.361  -3.619  0.00  0.00     0.149 HD
BRANCH  33  35
ATOM     35  C   LIG d   1       6.996   0.000  -4.097  0.00  0.00     0.028 C 
ATOM     36  H   LIG d   1       6.521  -0.086  -5.074  0.00  0.00     0.050 H 
ATOM     37  C   LIG d   1       6.148   0.897  -3.192  0.00  0.00    -0.006 C 
ATOM     38  C   LIG d   1       4.782   0.241  -2.971  0.00  0.00     0.066 C 
ATOM     39  H   LIG d   1       6.648   1.025  -2.232  0.00  0.00     0.031 H 
ATOM     40  H   LIG d   1       6.013   1.870  -3.665  0.00  0.00     0.031 H 
ATOM     41  O   LIG d   1       4.964  -1.060  -2.405  0.00  0.00    -0.374 OA
ATOM     42  C   LIG d   1       5.710  -1.956  -3.231  0.00  0.00     0.050 C 
ATOM     43  C   LIG d   1       7.113  -1.389  -3.460  0.00  0.00    -0.011 C 
ATOM     44  H   LIG d   1       5.204  -2.073  -4.190  0.00  0.00     0.056 H 
ATOM     45  H   LIG d   1       5.786  -2.925  -2.739  0.00  0.00     0.056 H 
ATOM     46  H   LIG d   1       7.669  -2.049  -4.126  0.00  0.00     0.030 H 
ATOM     47  H   LIG d   1       7.634  -1.308  -2.507  0.00  0.00     0.030 H 
BRANCH  38  48
ATOM     48  C   LIG d   1       4.055   0.116  -4.312  0.00  0.00    -0.036 C 
ATOM     49  H   LIG d   1       3.083   0.604  -4.245  0.00  0.00     0.026 H 
ATOM     50  H   LIG d   1       4.649   0.594  -5.092  0.00  0.00     0.026 H 
ATOM     51  H   LIG d   1       3.918  -0.938  -4.554  0.00  0.00     0.026 H 
ENDBRANCH  38  48
BRANCH  38  52
ATOM     52  C   LIG d   1       3.950   1.101  -2.018  0.00  0.00    -0.036 C 
ATOM     53  H   LIG d   1       2.943   1.220  -2.421  0.00  0.00     0.026 H 
ATOM     54  H   LIG d   1       3.896   0.615  -1.044  0.00  0.00     0.026 H 
ATOM     55  H   LIG d   1       4.417   2.080  -1.911  0.00  0.00     0.026 H 
ENDBRANCH  38  52
ENDBRANCH  33  35
ENDBRANCH   1  31
TORSDOF 10
ENDMDL
MODEL 2
REMARK VINA RESULT:      -5.8      1.300      2.296
REMARK  10 active torsions:
REMARK  status: ('A' for Active; 'I' for Inactive)
REMARK    1  A    between atoms: C_1  and  C_2 
REMARK    2  A    between atoms: C_6  and  O_28 
REMARK    3  A    between atoms: C_7  and  O_26 
REMARK    4  A    between atoms: N_12  and  C_13 
REMARK    5  A    between atoms: C_13  and  C_14 
REMARK       I    between atoms: C_14  and  N_16 
REMARK    6  A    between atoms: N_16  and  C_17 
REMARK    7  A    between atoms: C_22  and  C_24 
REMARK    8  A    between atoms: C_22  and  C_25 
REMARK    9  A    between atoms: O_26  and  C_27 
REMARK   10  A    between atoms: O_28  and  C_29 
ROOT
ATOM      1  C   LIG d   1       9.998   2.455  -5.534  0.00  0.00     0.104 C 
ATOM      2  H   LIG d   1       9.955   3.117  -6.398  0.00  0.00     0.059 H 
ATOM      3  H   LIG d   1      10.788   1.719  -5.678  0.00  0.00     0.059 H 
ENDROOT
BRANCH   1   4
ATOM      4  N   LIG d   1      10.276   3.241  -4.330  0.00  0.00    -0.287 N 
ATOM      5  C   LIG d   1      11.163   2.776  -3.411  0.00  0.00     0.110 A 
ATOM      6  N   LIG d   1      11.466   3.416  -2.323  0.00  0.00    -0.234 NA
ATOM      7  C   LIG d   1      10.903   4.613  -2.022  0.00  0.00     0.082 A 
ATOM      8  C   LIG d   1       9.963   5.173  -2.918  0.00  0.00     0.069 A 
ATOM      9  C   LIG d   1      11.230   5.301  -0.854  0.00  0.00     0.010 A 
ATOM     10  C   LIG d   1       9.368   6.402  -2.633  0.00  0.00    -0.002 A 
ATOM     11  C   LIG d   1       9.643   4.422  -4.138  0.00  0.00     0.262 A 
ATOM     12  C   LIG d   1       9.704   7.069  -1.473  0.00  0.00     0.162 A 
ATOM     13  H   LIG d   1       8.650   6.830  -3.317  0.00  0.00     0.066 H 
ATOM     14  C   LIG d   1      10.634   6.518  -0.584  0.00  0.00     0.164 A 
ATOM     15  O   LIG d   1       8.842   4.849  -4.951  0.00  0.00    -0.267 OA
ATOM     16  H   LIG d   1      11.946   4.883  -0.161  0.00  0.00     0.068 H 
BRANCH   5  17
ATOM     17  C   LIG d   1      11.834   1.452  -3.672  0.00  0.00    -0.006 C 
ATOM     18  H   LIG d   1      11.225   0.648  -3.260  0.00  0.00     0.031 H 
ATOM     19  H   LIG d   1      11.948   1.308  -4.746  0.00  0.00     0.031 H 
ATOM     20  H   LIG d   1      12.816   1.444  -3.198  0.00  0.00     0.031 H 
ENDBRANCH   5  17
BRANCH  12  21
ATOM     21  O   LIG d   1       9.128   8.267  -1.190  0.00  0.00    -0.491 OA
BRANCH  21  22
ATOM     22  C   LIG d   1       9.666   9.416  -1.849  0.00  0.00     0.079 C 
ATOM     23  H   LIG d   1       8.850  10.038  -2.218  0.00  0.00     0.066 H 
ATOM     24  H   LIG d   1      10.270   9.989  -1.144  0.00  0.00     0.066 H 
ATOM     25  H   LIG d   1      10.288   9.099  -2.685  0.00  0.00     0.066 H 
ENDBRANCH  21  22
ENDBRANCH  12  21
BRANCH  14  26
ATOM     26  O   LIG d   1      10.954   7.186   0.554  0.00  0.00    -0.491 OA
BRANCH  26  27
ATOM     27  C   LIG d   1      12.127   8.001   0.520  0.00  0.00     0.079 C 
ATOM     28  H   LIG d   1      11.878   9.011   0.845  0.00  0.00     0.066 H 
ATOM     29  H   LIG d   1      12.881   7.580   1.185  0.00  0.00     0.066 H 
ATOM     30  H   LIG d   1      12.518   8.033  -0.498  0.00  0.00     0.066 H 
ENDBRANCH  26  27
ENDBRANCH  14  26
ENDBRANCH   1   4
BRANCH   1  31
ATOM     31  C   LIG d   1       8.675   1.748  -5.378  0.00  0.00     0.233 C 
ATOM     32  O   LIG d   1       7.786   1.942  -6.179  0.00  0.00    -0.274 OA
ATOM     33  N   LIG d   1       8.482   0.903  -4.347  0.00  0.00    -0.311 N 
ATOM     34  H   LIG d   1       9.192   0.749  -3.706  0.00  0.00     0.149 HD
BRANCH  33  35
ATOM     35  C   LIG d   1       7.196   0.216  -4.194  0.00  0.00     0.028 C 
ATOM     36  H   LIG d   1       6.673   0.204  -5.150  0.00  0.00     0.050 H 
ATOM     37  C   LIG d   1       6.344   0.949  -3.153  0.00  0.00    -0.006 C 
ATOM     38  C   LIG d   1       5.038   0.179  -2.942  0.00  0.00     0.066 C 
ATOM     39  H   LIG d   1       6.889   1.006  -2.211  0.00  0.00     0.031 H 
ATOM     40  H   LIG d   1       6.122   1.956  -3.508  0.00  0.00     0.031 H 
ATOM     41  O   LIG d   1       5.333  -1.159  -2.535  0.00  0.00    -0.374 OA
ATOM     42  C   LIG d   1       6.087  -1.907  -3.491  0.00  0.00     0.050 C 
ATOM     43  C   LIG d   1       7.436  -1.222  -3.723  0.00  0.00    -0.011 C 
ATOM     44  H   LIG d   1       5.537  -1.954  -4.431  0.00  0.00     0.056 H 
ATOM     45  H   LIG d   1       6.251  -2.916  -3.115  0.00  0.00     0.056 H 
ATOM     46  H   LIG d   1       7.995  -1.766  -4.484  0.00  0.00     0.030 H 
ATOM     47  H   LIG d   1       8.004  -1.210  -2.793  0.00  0.00     0.030 H 
BRANCH  38  48
ATOM     48  C   LIG d   1       4.247   0.151  -4.251  0.00  0.00    -0.036 C 
ATOM     49  H   LIG d   1       3.313   0.698  -4.123  0.00  0.00     0.026 H 
ATOM     50  H   LIG d   1       4.836   0.618  -5.041  0.00  0.00     0.026 H 
ATOM     51  H   LIG d   1       4.029  -0.882  -4.522  0.00  0.00     0.026 H 
ENDBRANCH  38  48
BRANCH  38  52
ATOM     52  C   LIG d   1       4.207   0.871  -1.858  0.00  0.00    -0.036 C 
ATOM     53  H   LIG d   1       3.190   1.023  -2.223  0.00  0.00     0.026 H 
ATOM     54  H   LIG d   1       4.184   0.248  -0.965  0.00  0.00     0.026 H 
ATOM     55  H   LIG d   1       4.655   1.836  -1.618  0.00  0.00     0.026 H 
ENDBRANCH  38  52
ENDBRANCH  33  35
ENDBRANCH   1  31
TORSDOF 10
ENDMDL
MODEL 3
REMARK VINA RESULT:      -5.7      2.383      3.837
REMARK  10 active torsions:
REMARK  status: ('A' for Active; 'I' for Inactive)
REMARK    1  A    between atoms: C_1  and  C_2 
REMARK    2  A    between atoms: C_6  and  O_28 
REMARK    3  A    between atoms: C_7  and  O_26 
REMARK    4  A    between atoms: N_12  and  C_13 
REMARK    5  A    between atoms: C_13  and  C_14 
REMARK       I    between atoms: C_14  and  N_16 
REMARK    6  A    between atoms: N_16  and  C_17 
REMARK    7  A    between atoms: C_22  and  C_24 
REMARK    8  A    between atoms: C_22  and  C_25 
REMARK    9  A    between atoms: O_26  and  C_27 
REMARK   10  A    between atoms: O_28  and  C_29 
ROOT
ATOM      1  C   LIG d   1       9.960   2.012  -5.388  0.00  0.00     0.104 C 
ATOM      2  H   LIG d   1      10.415   1.649  -6.309  0.00  0.00     0.059 H 
ATOM      3  H   LIG d   1      10.577   1.722  -4.538  0.00  0.00     0.059 H 
ENDROOT
BRANCH   1   4
ATOM      4  N   LIG d   1       9.854   3.472  -5.439  0.00  0.00    -0.287 N 
ATOM      5  C   LIG d   1       9.777   4.183  -4.283  0.00  0.00     0.110 A 
ATOM      6  N   LIG d   1       9.687   5.477  -4.246  0.00  0.00    -0.234 NA
ATOM      7  C   LIG d   1       9.658   6.221  -5.380  0.00  0.00     0.082 A 
ATOM      8  C   LIG d   1       9.728   5.567  -6.631  0.00  0.00     0.069 A 
ATOM      9  C   LIG d   1       9.563   7.612  -5.338  0.00  0.00     0.010 A 
ATOM     10  C   LIG d   1       9.701   6.307  -7.813  0.00  0.00    -0.002 A 
ATOM     11  C   LIG d   1       9.829   4.102  -6.637  0.00  0.00     0.262 A 
ATOM     12  C   LIG d   1       9.607   7.682  -7.753  0.00  0.00     0.162 A 
ATOM     13  H   LIG d   1       9.754   5.807  -8.769  0.00  0.00     0.066 H 
ATOM     14  C   LIG d   1       9.537   8.333  -6.517  0.00  0.00     0.164 A 
ATOM     15  O   LIG d   1       9.893   3.477  -7.681  0.00  0.00    -0.267 OA
ATOM     16  H   LIG d   1       9.508   8.124  -4.388  0.00  0.00     0.068 H 
BRANCH   5  17
ATOM     17  C   LIG d   1       9.803   3.430  -2.978  0.00  0.00    -0.006 C 
ATOM     18  H   LIG d   1      10.277   4.044  -2.213  0.00  0.00     0.031 H 
ATOM     19  H   LIG d   1       8.783   3.194  -2.674  0.00  0.00     0.031 H 
ATOM     20  H   LIG d   1      10.368   2.505  -3.104  0.00  0.00     0.031 H 
ENDBRANCH   5  17
BRANCH  12  21
ATOM     21  O   LIG d   1       9.580   8.409  -8.902  0.00  0.00    -0.491 OA
BRANCH  21  22
ATOM     22  C   LIG d   1      10.104   7.785 -10.076  0.00  0.00     0.079 C 
ATOM     23  H   LIG d   1      10.258   8.538 -10.849  0.00  0.00     0.066 H 
ATOM     24  H   LIG d   1      11.055   7.307  -9.840  0.00  0.00     0.066 H 
ATOM     25  H   LIG d   1       9.400   7.034 -10.434  0.00  0.00     0.066 H 
ENDBRANCH  21  22
ENDBRANCH  12  21
BRANCH  14  26
ATOM     26  O   LIG d   1       9.444   9.687  -6.474  0.00  0.00    -0.491 OA
BRANCH  26  27
ATOM     27  C   LIG d   1       9.431  10.296  -5.182  0.00  0.00     0.079 C 
ATOM     28  H   LIG d   1       8.404  10.523  -4.897  0.00  0.00     0.066 H 
ATOM     29  H   LIG d   1       9.868   9.613  -4.454  0.00  0.00     0.066 H 
ATOM     30  H   LIG d   1      10.013  11.219  -5.209  0.00  0.00     0.066 H 
ENDBRANCH  26  27
ENDBRANCH  14  26
ENDBRANCH   1   4
BRANCH   1  31
ATOM     31  C   LIG d   1       8.584   1.414  -5.239  0.00  0.00     0.233 C 
ATOM     32  O   LIG d   1       7.703   1.718  -6.014  0.00  0.00    -0.274 OA
ATOM     33  N   LIG d   1       8.334   0.542  -4.242  0.00  0.00    -0.311 N 
ATOM     34  H   LIG d   1       9.038   0.300  -3.622  0.00  0.00     0.149 HD
BRANCH  33  35
ATOM     35  C   LIG d   1       6.997  -0.039  -4.096  0.00  0.00     0.028 C 
ATOM     36  H   LIG d   1       6.522  -0.112  -5.074  0.00  0.00     0.050 H 
ATOM     37  C   LIG d   1       6.149   0.850  -3.180  0.00  0.00    -0.006 C 
ATOM     38  C   LIG d   1       4.782   0.193  -2.968  0.00  0.00     0.066 C 
ATOM     39  H   LIG d   1       6.650   0.965  -2.219  0.00  0.00     0.031 H 
ATOM     40  H   LIG d   1       6.017   1.828  -3.642  0.00  0.00     0.031 H 
ATOM     41  O   LIG d   1       4.961  -1.114  -2.418  0.00  0.00    -0.374 OA
ATOM     42  C   LIG d   1       5.705  -2.002  -3.253  0.00  0.00     0.050 C 
ATOM     43  C   LIG d   1       7.110  -1.435  -3.475  0.00  0.00    -0.011 C 
ATOM     44  H   LIG d   1       5.200  -2.107  -4.214  0.00  0.00     0.056 H 
ATOM     45  H   LIG d   1       5.779  -2.977  -2.773  0.00  0.00     0.056 H 
ATOM     46  H   LIG d   1       7.665  -2.088  -4.148  0.00  0.00     0.030 H 
ATOM     47  H   LIG d   1       7.631  -1.367  -2.520  0.00  0.00     0.030 H 
BRANCH  38  48
ATOM     48  C   LIG d   1       4.056   0.086  -4.311  0.00  0.00    -0.036 C 
ATOM     49  H   LIG d   1       3.891   1.085  -4.715  0.00  0.00     0.026 H 
ATOM     50  H   LIG d   1       4.665  -0.491  -5.008  0.00  0.00     0.026 H 
ATOM     51  H   LIG d   1       3.098  -0.412  -4.167  0.00  0.00     0.026 H 
ENDBRANCH  38  48
BRANCH  38  52
ATOM     52  C   LIG d   1       3.951   1.044  -2.005  0.00  0.00    -0.036 C 
ATOM     53  H   LIG d   1       3.476   1.856  -2.557  0.00  0.00     0.026 H 
ATOM     54  H   LIG d   1       3.186   0.424  -1.541  0.00  0.00     0.026 H 
ATOM     55  H   LIG d   1       4.601   1.460  -1.234  0.00  0.00     0.026 H 
ENDBRANCH  38  52
ENDBRANCH  33  35
ENDBRANCH   1  31
TORSDOF 10
ENDMDL
MODEL 4
REMARK VINA RESULT:      -5.4      3.534      9.004
REMARK  10 active torsions:
REMARK  status: ('A' for Active; 'I' for Inactive)
REMARK    1  A    between atoms: C_1  and  C_2 
REMARK    2  A    between atoms: C_6  and  O_28 
REMARK    3  A    between atoms: C_7  and  O_26 
REMARK    4  A    between atoms: N_12  and  C_13 
REMARK    5  A    between atoms: C_13  and  C_14 
REMARK       I    between atoms: C_14  and  N_16 
REMARK    6  A    between atoms: N_16  and  C_17 
REMARK    7  A    between atoms: C_22  and  C_24 
REMARK    8  A    between atoms: C_22  and  C_25 
REMARK    9  A    between atoms: O_26  and  C_27 
REMARK   10  A    between atoms: O_28  and  C_29 
ROOT
ATOM      1  C   LIG d   1       7.015  -0.328  -3.936  0.00  0.00     0.104 C 
ATOM      2  H   LIG d   1       6.601  -0.702  -3.000  0.00  0.00     0.059 H 
ATOM      3  H   LIG d   1       7.824  -0.980  -4.264  0.00  0.00     0.059 H 
ENDROOT
BRANCH   1   4
ATOM      4  N   LIG d   1       5.966  -0.300  -4.958  0.00  0.00    -0.287 N 
ATOM      5  C   LIG d   1       4.670  -0.500  -4.598  0.00  0.00     0.110 A 
ATOM      6  N   LIG d   1       3.685  -0.484  -5.443  0.00  0.00    -0.234 NA
ATOM      7  C   LIG d   1       3.887  -0.268  -6.768  0.00  0.00     0.082 A 
ATOM      8  C   LIG d   1       5.204  -0.055  -7.234  0.00  0.00     0.069 A 
ATOM      9  C   LIG d   1       2.827  -0.251  -7.674  0.00  0.00     0.010 A 
ATOM     10  C   LIG d   1       5.440   0.170  -8.591  0.00  0.00    -0.002 A 
ATOM     11  C   LIG d   1       6.295  -0.080  -6.252  0.00  0.00     0.262 A 
ATOM     12  C   LIG d   1       4.380   0.184  -9.473  0.00  0.00     0.162 A 
ATOM     13  H   LIG d   1       6.447   0.332  -8.947  0.00  0.00     0.066 H 
ATOM     14  C   LIG d   1       3.075  -0.027  -9.015  0.00  0.00     0.164 A 
ATOM     15  O   LIG d   1       7.452   0.098  -6.588  0.00  0.00    -0.267 OA
ATOM     16  H   LIG d   1       1.816  -0.413  -7.330  0.00  0.00     0.068 H 
BRANCH   5  17
ATOM     17  C   LIG d   1       4.361  -0.747  -3.144  0.00  0.00    -0.006 C 
ATOM     18  H   LIG d   1       4.429   0.191  -2.594  0.00  0.00     0.031 H 
ATOM     19  H   LIG d   1       3.354  -1.152  -3.050  0.00  0.00     0.031 H 
ATOM     20  H   LIG d   1       5.079  -1.460  -2.737  0.00  0.00     0.031 H 
ENDBRANCH   5  17
BRANCH  12  21
ATOM     21  O   LIG d   1       4.604   0.403 -10.796  0.00  0.00    -0.491 OA
BRANCH  21  22
ATOM     22  C   LIG d   1       5.183  -0.669 -11.542  0.00  0.00     0.079 C 
ATOM     23  H   LIG d   1       4.862  -1.621 -11.120  0.00  0.00     0.066 H 
ATOM     24  H   LIG d   1       4.858  -0.605 -12.582  0.00  0.00     0.066 H 
ATOM     25  H   LIG d   1       6.270  -0.599 -11.497  0.00  0.00     0.066 H 
ENDBRANCH  21  22
ENDBRANCH  12  21
BRANCH  14  26
ATOM     26  O   LIG d   1       2.042  -0.010  -9.896  0.00  0.00    -0.491 OA
BRANCH  26  27
ATOM     27  C   LIG d   1       1.473  -1.271 -10.252  0.00  0.00     0.079 C 
ATOM     28  H   LIG d   1       0.537  -1.414  -9.712  0.00  0.00     0.066 H 
ATOM     29  H   LIG d   1       1.280  -1.293 -11.325  0.00  0.00     0.066 H 
ATOM     30  H   LIG d   1       2.168  -2.071  -9.991  0.00  0.00     0.066 H 
ENDBRANCH  26  27
ENDBRANCH  14  26
ENDBRANCH   1   4
BRANCH   1  31
ATOM     31  C   LIG d   1       7.548   1.067  -3.726  0.00  0.00     0.233 C 
ATOM     32  O   LIG d   1       6.803   1.954  -3.369  0.00  0.00    -0.274 OA
ATOM     33  N   LIG d   1       8.854   1.327  -3.936  0.00  0.00    -0.311 N 
ATOM     34  H   LIG d   1       9.450   0.618  -4.222  0.00  0.00     0.149 HD
BRANCH  33  35
ATOM     35  C   LIG d   1       9.372   2.682  -3.733  0.00  0.00     0.028 C 
ATOM     36  H   LIG d   1       8.628   3.283  -3.210  0.00  0.00     0.050 H 
ATOM     37  C   LIG d   1       9.685   3.320  -5.090  0.00  0.00    -0.006 C 
ATOM     38  C   LIG d   1      10.301   4.704  -4.864  0.00  0.00     0.066 C 
ATOM     39  H   LIG d   1      10.391   2.692  -5.634  0.00  0.00     0.031 H 
ATOM     40  H   LIG d   1       8.765   3.419  -5.667  0.00  0.00     0.031 H 
ATOM     41  O   LIG d   1      11.474   4.578  -4.057  0.00  0.00    -0.374 OA
ATOM     42  C   LIG d   1      11.233   4.031  -2.759  0.00  0.00     0.050 C 
ATOM     43  C   LIG d   1      10.657   2.620  -2.900  0.00  0.00    -0.011 C 
ATOM     44  H   LIG d   1      10.523   4.662  -2.225  0.00  0.00     0.056 H 
ATOM     45  H   LIG d   1      12.170   3.987  -2.204  0.00  0.00     0.056 H 
ATOM     46  H   LIG d   1      10.431   2.218  -1.912  0.00  0.00     0.030 H 
ATOM     47  H   LIG d   1      11.382   1.978  -3.398  0.00  0.00     0.030 H 
BRANCH  38  48
ATOM     48  C   LIG d   1       9.287   5.602  -4.153  0.00  0.00    -0.036 C 
ATOM     49  H   LIG d   1       9.813   6.407  -3.639  0.00  0.00     0.026 H 
ATOM     50  H   LIG d   1       8.602   6.028  -4.887  0.00  0.00     0.026 H 
ATOM     51  H   LIG d   1       8.725   5.013  -3.429  0.00  0.00     0.026 H 
ENDBRANCH  38  48
BRANCH  38  52
ATOM     52  C   LIG d   1      10.674   5.323  -6.214  0.00  0.00    -0.036 C 
ATOM     53  H   LIG d   1      11.721   5.628  -6.196  0.00  0.00     0.026 H 
ATOM     54  H   LIG d   1      10.523   4.588  -7.004  0.00  0.00     0.026 H 
ATOM     55  H   LIG d   1      10.044   6.193  -6.400  0.00  0.00     0.026 H 
ENDBRANCH  38  52
ENDBRANCH  33  35
ENDBRANCH   1  31
TORSDOF 10
ENDMDL
MODEL 5
REMARK VINA RESULT:      -5.3      6.681     10.835
REMARK  10 active torsions:
REMARK  status: ('A' for Active; 'I' for Inactive)
REMARK    1  A    between atoms: C_1  and  C_2 
REMARK    2  A    between atoms: C_6  and  O_28 
REMARK    3  A    between atoms: C_7  and  O_26 
REMARK    4  A    between atoms: N_12  and  C_13 
REMARK    5  A    between atoms: C_13  and  C_14 
REMARK       I    between atoms: C_14  and  N_16 
REMARK    6  A    between atoms: N_16  and  C_17 
REMARK    7  A    between atoms: C_22  and  C_24 
REMARK    8  A    between atoms: C_22  and  C_25 
REMARK    9  A    between atoms: O_26  and  C_27 
REMARK   10  A    between atoms: O_28  and  C_29 
ROOT
ATOM      1  C   LIG d   1       2.841   1.499  -8.034  0.00  0.00     0.104 C 
ATOM      2  H   LIG d   1       3.400   2.417  -7.857  0.00  0.00     0.059 H 
ATOM      3  H   LIG d   1       1.773   1.713  -8.015  0.00  0.00     0.059 H 
ENDROOT
BRANCH   1   4
ATOM      4  N   LIG d   1       3.206   0.950  -9.343  0.00  0.00    -0.287 N 
ATOM      5  C   LIG d   1       4.355   1.353  -9.946  0.00  0.00     0.110 A 
ATOM      6  N   LIG d   1       4.749   0.909 -11.100  0.00  0.00    -0.234 NA
ATOM      7  C   LIG d   1       4.023   0.000 -11.799  0.00  0.00     0.082 A 
ATOM      8  C   LIG d   1       2.808  -0.472 -11.251  0.00  0.00     0.069 A 
ATOM      9  C   LIG d   1       4.448  -0.476 -13.039  0.00  0.00     0.010 A 
ATOM     10  C   LIG d   1       2.041  -1.407 -11.948  0.00  0.00    -0.002 A 
ATOM     11  C   LIG d   1       2.392   0.050  -9.944  0.00  0.00     0.262 A 
ATOM     12  C   LIG d   1       2.477  -1.867 -13.173  0.00  0.00     0.162 A 
ATOM     13  H   LIG d   1       1.113  -1.768 -11.530  0.00  0.00     0.066 H 
ATOM     14  C   LIG d   1       3.679  -1.402 -13.718  0.00  0.00     0.164 A 
ATOM     15  O   LIG d   1       1.357  -0.316  -9.417  0.00  0.00    -0.267 OA
ATOM     16  H   LIG d   1       5.374  -0.122 -13.467  0.00  0.00     0.068 H 
BRANCH   5  17
ATOM     17  C   LIG d   1       5.221   2.361  -9.234  0.00  0.00    -0.006 C 
ATOM     18  H   LIG d   1       4.751   3.343  -9.285  0.00  0.00     0.031 H 
ATOM     19  H   LIG d   1       5.337   2.068  -8.191  0.00  0.00     0.031 H 
ATOM     20  H   LIG d   1       6.200   2.401  -9.712  0.00  0.00     0.031 H 
ENDBRANCH   5  17
BRANCH  12  21
ATOM     21  O   LIG d   1       1.735  -2.779 -13.856  0.00  0.00    -0.491 OA
BRANCH  21  22
ATOM     22  C   LIG d   1       0.372  -2.439 -14.119  0.00  0.00     0.079 C 
ATOM     23  H   LIG d   1       0.303  -1.381 -14.371  0.00  0.00     0.066 H 
ATOM     24  H   LIG d   1       0.003  -3.036 -14.954  0.00  0.00     0.066 H 
ATOM     25  H   LIG d   1      -0.232  -2.642 -13.234  0.00  0.00     0.066 H 
ENDBRANCH  21  22
ENDBRANCH  12  21
BRANCH  14  26
ATOM     26  O   LIG d   1       4.094  -1.865 -14.924  0.00  0.00    -0.491 OA
BRANCH  26  27
ATOM     27  C   LIG d   1       3.907  -1.003 -16.049  0.00  0.00     0.079 C 
ATOM     28  H   LIG d   1       4.730  -1.136 -16.750  0.00  0.00     0.066 H 
ATOM     29  H   LIG d   1       2.966  -1.249 -16.542  0.00  0.00     0.066 H 
ATOM     30  H   LIG d   1       3.880   0.034 -15.712  0.00  0.00     0.066 H 
ENDBRANCH  26  27
ENDBRANCH  14  26
ENDBRANCH   1   4
BRANCH   1  31
ATOM     31  C   LIG d   1       3.171   0.494  -6.960  0.00  0.00     0.233 C 
ATOM     32  O   LIG d   1       2.290  -0.172  -6.461  0.00  0.00    -0.274 OA
ATOM     33  N   LIG d   1       4.447   0.337  -6.555  0.00  0.00    -0.311 N 
ATOM     34  H   LIG d   1       5.151   0.870  -6.953  0.00  0.00     0.149 HD
BRANCH  33  35
ATOM     35  C   LIG d   1       4.768  -0.639  -5.510  0.00  0.00     0.028 C 
ATOM     36  H   LIG d   1       4.194  -1.551  -5.673  0.00  0.00     0.050 H 
ATOM     37  C   LIG d   1       4.422  -0.054  -4.138  0.00  0.00    -0.006 C 
ATOM     38  C   LIG d   1       4.836  -1.048  -3.049  0.00  0.00     0.066 C 
ATOM     39  H   LIG d   1       4.958   0.884  -3.996  0.00  0.00     0.031 H 
ATOM     40  H   LIG d   1       3.348   0.126  -4.079  0.00  0.00     0.031 H 
ATOM     41  O   LIG d   1       6.233  -1.329  -3.166  0.00  0.00    -0.374 OA
ATOM     42  C   LIG d   1       6.607  -1.922  -4.411  0.00  0.00     0.050 C 
ATOM     43  C   LIG d   1       6.265  -0.962  -5.554  0.00  0.00    -0.011 C 
ATOM     44  H   LIG d   1       6.062  -2.856  -4.547  0.00  0.00     0.056 H 
ATOM     45  H   LIG d   1       7.678  -2.121  -4.412  0.00  0.00     0.056 H 
ATOM     46  H   LIG d   1       6.509  -1.430  -6.508  0.00  0.00     0.030 H 
ATOM     47  H   LIG d   1       6.839  -0.043  -5.442  0.00  0.00     0.030 H 
BRANCH  38  48
ATOM     48  C   LIG d   1       4.040  -2.344  -3.214  0.00  0.00    -0.036 C 
ATOM     49  H   LIG d   1       3.266  -2.202  -3.968  0.00  0.00     0.026 H 
ATOM     50  H   LIG d   1       4.711  -3.144  -3.530  0.00  0.00     0.026 H 
ATOM     51  H   LIG d   1       3.578  -2.610  -2.264  0.00  0.00     0.026 H 
ENDBRANCH  38  48
BRANCH  38  52
ATOM     52  C   LIG d   1       4.550  -0.445  -1.672  0.00  0.00    -0.036 C 
ATOM     53  H   LIG d   1       5.333  -0.746  -0.974  0.00  0.00     0.026 H 
ATOM     54  H   LIG d   1       4.529   0.641  -1.748  0.00  0.00     0.026 H 
ATOM     55  H   LIG d   1       3.585  -0.803  -1.312  0.00  0.00     0.026 H 
ENDBRANCH  38  52
ENDBRANCH  33  35
ENDBRANCH   1  31
TORSDOF 10
ENDMDL
MODEL 6
REMARK VINA RESULT:      -5.3      5.691      8.388
REMARK  10 active torsions:
REMARK  status: ('A' for Active; 'I' for Inactive)
REMARK    1  A    between atoms: C_1  and  C_2 
REMARK    2  A    between atoms: C_6  and  O_28 
REMARK    3  A    between atoms: C_7  and  O_26 
REMARK    4  A    between atoms: N_12  and  C_13 
REMARK    5  A    between atoms: C_13  and  C_14 
REMARK       I    between atoms: C_14  and  N_16 
REMARK    6  A    between atoms: N_16  and  C_17 
REMARK    7  A    between atoms: C_22  and  C_24 
REMARK    8  A    between atoms: C_22  and  C_25 
REMARK    9  A    between atoms: O_26  and  C_27 
REMARK   10  A    between atoms: O_28  and  C_29 
ROOT
ATOM      1  C   LIG d   1       9.713   6.875  -2.116  0.00  0.00     0.104 C 
ATOM      2  H   LIG d   1       9.933   5.814  -2.004  0.00  0.00     0.059 H 
ATOM      3  H   LIG d   1       8.635   7.028  -2.094  0.00  0.00     0.059 H 
ENDROOT
BRANCH   1   4
ATOM      4  N   LIG d   1      10.336   7.621  -1.020  0.00  0.00    -0.287 N 
ATOM      5  C   LIG d   1      11.107   6.967  -0.112  0.00  0.00     0.110 A 
ATOM      6  N   LIG d   1      11.696   7.559   0.882  0.00  0.00    -0.234 NA
ATOM      7  C   LIG d   1      11.574   8.895   1.088  0.00  0.00     0.082 A 
ATOM      8  C   LIG d   1      10.785   9.656   0.196  0.00  0.00     0.069 A 
ATOM      9  C   LIG d   1      12.208   9.529   2.156  0.00  0.00     0.010 A 
ATOM     10  C   LIG d   1      10.642  11.031   0.385  0.00  0.00    -0.002 A 
ATOM     11  C   LIG d   1      10.133   8.956  -0.917  0.00  0.00     0.262 A 
ATOM     12  C   LIG d   1      11.277  11.642   1.446  0.00  0.00     0.162 A 
ATOM     13  H   LIG d   1      10.039  11.614  -0.297  0.00  0.00     0.066 H 
ATOM     14  C   LIG d   1      12.058  10.892   2.331  0.00  0.00     0.164 A 
ATOM     15  O   LIG d   1       9.440   9.554  -1.721  0.00  0.00    -0.267 OA
ATOM     16  H   LIG d   1      12.813   8.957   2.845  0.00  0.00     0.068 H 
BRANCH   5  17
ATOM     17  C   LIG d   1      11.294   5.480  -0.272  0.00  0.00    -0.006 C 
ATOM     18  H   LIG d   1      12.308   5.276  -0.616  0.00  0.00     0.031 H 
ATOM     19  H   LIG d   1      11.129   4.989   0.686  0.00  0.00     0.031 H 
ATOM     20  H   LIG d   1      10.579   5.102  -1.003  0.00  0.00     0.031 H 
ENDBRANCH   5  17
BRANCH  12  21
ATOM     21  O   LIG d   1      11.142  12.982   1.635  0.00  0.00    -0.491 OA
BRANCH  21  22
ATOM     22  C   LIG d   1      10.535  13.728   0.577  0.00  0.00     0.079 C 
ATOM     23  H   LIG d   1      11.263  13.887  -0.219  0.00  0.00     0.066 H 
ATOM     24  H   LIG d   1       9.682  13.174   0.184  0.00  0.00     0.066 H 
ATOM     25  H   LIG d   1      10.197  14.692   0.959  0.00  0.00     0.066 H 
ENDBRANCH  21  22
ENDBRANCH  12  21
BRANCH  14  26
ATOM     26  O   LIG d   1      12.676  11.508   3.371  0.00  0.00    -0.491 OA
BRANCH  26  27
ATOM     27  C   LIG d   1      12.906  10.725   4.545  0.00  0.00     0.079 C 
ATOM     28  H   LIG d   1      13.395   9.791   4.270  0.00  0.00     0.066 H 
ATOM     29  H   LIG d   1      13.543  11.281   5.233  0.00  0.00     0.066 H 
ATOM     30  H   LIG d   1      11.953  10.507   5.029  0.00  0.00     0.066 H 
ENDBRANCH  26  27
ENDBRANCH  14  26
ENDBRANCH   1   4
BRANCH   1  31
ATOM     31  C   LIG d   1      10.263   7.364  -3.432  0.00  0.00     0.233 C 
ATOM     32  O   LIG d   1      11.416   7.136  -3.730  0.00  0.00    -0.274 OA
ATOM     33  N   LIG d   1       9.473   8.056  -4.276  0.00  0.00    -0.311 N 
ATOM     34  H   LIG d   1       8.551   8.238  -4.038  0.00  0.00     0.149 HD
BRANCH  33  35
ATOM     35  C   LIG d   1      10.007   8.532  -5.555  0.00  0.00     0.028 C 
ATOM     36  H   LIG d   1      11.081   8.349  -5.593  0.00  0.00     0.050 H 
ATOM     37  C   LIG d   1       9.738  10.033  -5.696  0.00  0.00    -0.006 C 
ATOM     38  C   LIG d   1      10.227  10.505  -7.068  0.00  0.00     0.066 C 
ATOM     39  H   LIG d   1       8.668  10.221  -5.607  0.00  0.00     0.031 H 
ATOM     40  H   LIG d   1      10.270  10.574  -4.913  0.00  0.00     0.031 H 
ATOM     41  O   LIG d   1       9.571   9.753  -8.092  0.00  0.00    -0.374 OA
ATOM     42  C   LIG d   1       9.827   8.348  -8.038  0.00  0.00     0.050 C 
ATOM     43  C   LIG d   1       9.320   7.789  -6.706  0.00  0.00    -0.011 C 
ATOM     44  H   LIG d   1      10.899   8.170  -8.123  0.00  0.00     0.056 H 
ATOM     45  H   LIG d   1       9.310   7.853  -8.860  0.00  0.00     0.056 H 
ATOM     46  H   LIG d   1       9.553   6.726  -6.644  0.00  0.00     0.030 H 
ATOM     47  H   LIG d   1       8.242   7.931  -6.637  0.00  0.00     0.030 H 
BRANCH  38  48
ATOM     48  C   LIG d   1      11.739  10.294  -7.169  0.00  0.00    -0.036 C 
ATOM     49  H   LIG d   1      12.175  11.082  -7.782  0.00  0.00     0.026 H 
ATOM     50  H   LIG d   1      12.177  10.326  -6.171  0.00  0.00     0.026 H 
ATOM     51  H   LIG d   1      11.941   9.324  -7.624  0.00  0.00     0.026 H 
ENDBRANCH  38  48
BRANCH  38  52
ATOM     52  C   LIG d   1       9.906  11.991  -7.241  0.00  0.00    -0.036 C 
ATOM     53  H   LIG d   1       9.909  12.479  -6.265  0.00  0.00     0.026 H 
ATOM     54  H   LIG d   1      10.657  12.453  -7.880  0.00  0.00     0.026 H 
ATOM     55  H   LIG d   1       8.922  12.100  -7.698  0.00  0.00     0.026 H 
ENDBRANCH  38  52
ENDBRANCH  33  35
ENDBRANCH   1  31
TORSDOF 10
ENDMDL
MODEL 7
REMARK VINA RESULT:      -5.1      7.009     12.411
REMARK  10 active torsions:
REMARK  status: ('A' for Active; 'I' for Inactive)
REMARK    1  A    between atoms: C_1  and  C_2 
REMARK    2  A    between atoms: C_6  and  O_28 
REMARK    3  A    between atoms: C_7  and  O_26 
REMARK    4  A    between atoms: N_12  and  C_13 
REMARK    5  A    between atoms: C_13  and  C_14 
REMARK       I    between atoms: C_14  and  N_16 
REMARK    6  A    between atoms: N_16  and  C_17 
REMARK    7  A    between atoms: C_22  and  C_24 
REMARK    8  A    between atoms: C_22  and  C_25 
REMARK    9  A    between atoms: O_26  and  C_27 
REMARK   10  A    between atoms: O_28  and  C_29 
ROOT
ATOM      1  C   LIG d   1       8.283  -5.415  -6.356  0.00  0.00     0.104 C 
ATOM      2  H   LIG d   1       9.371  -5.373  -6.405  0.00  0.00     0.059 H 
ATOM      3  H   LIG d   1       7.877  -5.530  -7.360  0.00  0.00     0.059 H 
ENDROOT
BRANCH   1   4
ATOM      4  N   LIG d   1       7.875  -6.554  -5.530  0.00  0.00    -0.287 N 
ATOM      5  C   LIG d   1       8.714  -7.026  -4.570  0.00  0.00     0.110 A 
ATOM      6  N   LIG d   1       8.422  -8.026  -3.796  0.00  0.00    -0.234 NA
ATOM      7  C   LIG d   1       7.239  -8.683  -3.898  0.00  0.00     0.082 A 
ATOM      8  C   LIG d   1       6.306  -8.265  -4.873  0.00  0.00     0.069 A 
ATOM      9  C   LIG d   1       6.927  -9.757  -3.065  0.00  0.00     0.010 A 
ATOM     10  C   LIG d   1       5.082  -8.923  -5.001  0.00  0.00    -0.002 A 
ATOM     11  C   LIG d   1       6.667  -7.131  -5.733  0.00  0.00     0.262 A 
ATOM     12  C   LIG d   1       4.789  -9.983  -4.168  0.00  0.00     0.162 A 
ATOM     13  H   LIG d   1       4.368  -8.604  -5.746  0.00  0.00     0.066 H 
ATOM     14  C   LIG d   1       5.711 -10.399  -3.201  0.00  0.00     0.164 A 
ATOM     15  O   LIG d   1       5.908  -6.721  -6.592  0.00  0.00    -0.267 OA
ATOM     16  H   LIG d   1       7.633 -10.086  -2.316  0.00  0.00     0.068 H 
BRANCH   5  17
ATOM     17  C   LIG d   1      10.049  -6.349  -4.392  0.00  0.00    -0.006 C 
ATOM     18  H   LIG d   1      10.341  -6.392  -3.343  0.00  0.00     0.031 H 
ATOM     19  H   LIG d   1      10.798  -6.856  -4.999  0.00  0.00     0.031 H 
ATOM     20  H   LIG d   1       9.972  -5.307  -4.705  0.00  0.00     0.031 H 
ENDBRANCH   5  17
BRANCH  12  21
ATOM     21  O   LIG d   1       3.598 -10.627  -4.286  0.00  0.00    -0.491 OA
BRANCH  21  22
ATOM     22  C   LIG d   1       3.526 -11.686  -5.244  0.00  0.00     0.079 C 
ATOM     23  H   LIG d   1       3.792 -11.304  -6.229  0.00  0.00     0.066 H 
ATOM     24  H   LIG d   1       4.219 -12.479  -4.962  0.00  0.00     0.066 H 
ATOM     25  H   LIG d   1       2.511 -12.084  -5.270  0.00  0.00     0.066 H 
ENDBRANCH  21  22
ENDBRANCH  12  21
BRANCH  14  26
ATOM     26  O   LIG d   1       5.408 -11.444  -2.389  0.00  0.00    -0.491 OA
BRANCH  26  27
ATOM     27  C   LIG d   1       6.172 -11.575  -1.188  0.00  0.00     0.079 C 
ATOM     28  H   LIG d   1       7.234 -11.523  -1.425  0.00  0.00     0.066 H 
ATOM     29  H   LIG d   1       5.912 -10.769  -0.503  0.00  0.00     0.066 H 
ATOM     30  H   LIG d   1       5.952 -12.535  -0.720  0.00  0.00     0.066 H 
ENDBRANCH  26  27
ENDBRANCH  14  26
ENDBRANCH   1   4
BRANCH   1  31
ATOM     31  C   LIG d   1       7.760  -4.139  -5.745  0.00  0.00     0.233 C 
ATOM     32  O   LIG d   1       8.493  -3.440  -5.079  0.00  0.00    -0.274 OA
ATOM     33  N   LIG d   1       6.476  -3.778  -5.940  0.00  0.00    -0.311 N 
ATOM     34  H   LIG d   1       5.890  -4.337  -6.472  0.00  0.00     0.149 HD
BRANCH  33  35
ATOM     35  C   LIG d   1       5.967  -2.539  -5.346  0.00  0.00     0.028 C 
ATOM     36  H   LIG d   1       6.802  -1.888  -5.085  0.00  0.00     0.050 H 
ATOM     37  C   LIG d   1       5.160  -2.868  -4.086  0.00  0.00    -0.006 C 
ATOM     38  C   LIG d   1       4.565  -1.576  -3.519  0.00  0.00     0.066 C 
ATOM     39  H   LIG d   1       4.356  -3.559  -4.338  0.00  0.00     0.031 H 
ATOM     40  H   LIG d   1       5.815  -3.325  -3.344  0.00  0.00     0.031 H 
ATOM     41  O   LIG d   1       3.755  -0.947  -4.515  0.00  0.00    -0.374 OA
ATOM     42  C   LIG d   1       4.467  -0.574  -5.696  0.00  0.00     0.050 C 
ATOM     43  C   LIG d   1       5.057  -1.825  -6.352  0.00  0.00    -0.011 C 
ATOM     44  H   LIG d   1       5.272   0.112  -5.434  0.00  0.00     0.056 H 
ATOM     45  H   LIG d   1       3.786  -0.086  -6.392  0.00  0.00     0.056 H 
ATOM     46  H   LIG d   1       5.637  -1.539  -7.228  0.00  0.00     0.030 H 
ATOM     47  H   LIG d   1       4.251  -2.495  -6.651  0.00  0.00     0.030 H 
BRANCH  38  48
ATOM     48  C   LIG d   1       5.697  -0.631  -3.111  0.00  0.00    -0.036 C 
ATOM     49  H   LIG d   1       6.053  -0.091  -3.988  0.00  0.00     0.026 H 
ATOM     50  H   LIG d   1       5.326   0.081  -2.372  0.00  0.00     0.026 H 
ATOM     51  H   LIG d   1       6.515  -1.208  -2.682  0.00  0.00     0.026 H 
ENDBRANCH  38  48
BRANCH  38  52
ATOM     52  C   LIG d   1       3.707  -1.904  -2.295  0.00  0.00    -0.036 C 
ATOM     53  H   LIG d   1       3.798  -1.100  -1.563  0.00  0.00     0.026 H 
ATOM     54  H   LIG d   1       2.665  -2.004  -2.598  0.00  0.00     0.026 H 
ATOM     55  H   LIG d   1       4.049  -2.840  -1.852  0.00  0.00     0.026 H 
ENDBRANCH  38  52
ENDBRANCH  33  35
ENDBRANCH   1  31
TORSDOF 10
ENDMDL
MODEL 8
REMARK VINA RESULT:      -5.1      7.401     10.281
REMARK  10 active torsions:
REMARK  status: ('A' for Active; 'I' for Inactive)
REMARK    1  A    between atoms: C_1  and  C_2 
REMARK    2  A    between atoms: C_6  and  O_28 
REMARK    3  A    between atoms: C_7  and  O_26 
REMARK    4  A    between atoms: N_12  and  C_13 
REMARK    5  A    between atoms: C_13  and  C_14 
REMARK       I    between atoms: C_14  and  N_16 
REMARK    6  A    between atoms: N_16  and  C_17 
REMARK    7  A    between atoms: C_22  and  C_24 
REMARK    8  A    between atoms: C_22  and  C_25 
REMARK    9  A    between atoms: O_26  and  C_27 
REMARK   10  A    between atoms: O_28  and  C_29 
ROOT
ATOM      1  C   LIG d   1       5.823  -6.351  -7.885  0.00  0.00     0.104 C 
ATOM      2  H   LIG d   1       5.638  -6.455  -8.953  0.00  0.00     0.059 H 
ATOM      3  H   LIG d   1       6.886  -6.485  -7.684  0.00  0.00     0.059 H 
ENDROOT
BRANCH   1   4
ATOM      4  N   LIG d   1       5.407  -5.017  -7.444  0.00  0.00    -0.287 N 
ATOM      5  C   LIG d   1       4.728  -4.207  -8.299  0.00  0.00     0.110 A 
ATOM      6  N   LIG d   1       4.321  -3.016  -7.981  0.00  0.00    -0.234 NA
ATOM      7  C   LIG d   1       4.555  -2.488  -6.753  0.00  0.00     0.082 A 
ATOM      8  C   LIG d   1       5.259  -3.258  -5.800  0.00  0.00     0.069 A 
ATOM      9  C   LIG d   1       4.116  -1.209  -6.413  0.00  0.00     0.010 A 
ATOM     10  C   LIG d   1       5.514  -2.740  -4.529  0.00  0.00    -0.002 A 
ATOM     11  C   LIG d   1       5.706  -4.600  -6.192  0.00  0.00     0.262 A 
ATOM     12  C   LIG d   1       5.072  -1.473  -4.210  0.00  0.00     0.162 A 
ATOM     13  H   LIG d   1       6.053  -3.328  -3.800  0.00  0.00     0.066 H 
ATOM     14  C   LIG d   1       4.374  -0.708  -5.151  0.00  0.00     0.164 A 
ATOM     15  O   LIG d   1       6.317  -5.315  -5.417  0.00  0.00    -0.267 OA
ATOM     16  H   LIG d   1       3.577  -0.611  -7.134  0.00  0.00     0.068 H 
BRANCH   5  17
ATOM     17  C   LIG d   1       4.427  -4.720  -9.684  0.00  0.00    -0.006 C 
ATOM     18  H   LIG d   1       3.386  -4.513  -9.930  0.00  0.00     0.031 H 
ATOM     19  H   LIG d   1       5.077  -4.223 -10.404  0.00  0.00     0.031 H 
ATOM     20  H   LIG d   1       4.602  -5.796  -9.718  0.00  0.00     0.031 H 
ENDBRANCH   5  17
BRANCH  12  21
ATOM     21  O   LIG d   1       5.316  -0.963  -2.974  0.00  0.00    -0.491 OA
BRANCH  21  22
ATOM     22  C   LIG d   1       4.416  -1.336  -1.928  0.00  0.00     0.079 C 
ATOM     23  H   LIG d   1       4.698  -2.313  -1.537  0.00  0.00     0.066 H 
ATOM     24  H   LIG d   1       4.462  -0.597  -1.128  0.00  0.00     0.066 H 
ATOM     25  H   LIG d   1       3.400  -1.381  -2.322  0.00  0.00     0.066 H 
ENDBRANCH  21  22
ENDBRANCH  12  21
BRANCH  14  26
ATOM     26  O   LIG d   1       3.946   0.537  -4.822  0.00  0.00    -0.491 OA
BRANCH  26  27
ATOM     27  C   LIG d   1       2.533   0.741  -4.753  0.00  0.00     0.079 C 
ATOM     28  H   LIG d   1       2.021  -0.116  -5.189  0.00  0.00     0.066 H 
ATOM     29  H   LIG d   1       2.233   0.853  -3.712  0.00  0.00     0.066 H 
ATOM     30  H   LIG d   1       2.268   1.642  -5.307  0.00  0.00     0.066 H 
ENDBRANCH  26  27
ENDBRANCH  14  26
ENDBRANCH   1   4
BRANCH   1  31
ATOM     31  C   LIG d   1       5.035  -7.395  -7.135  0.00  0.00     0.233 C 
ATOM     32  O   LIG d   1       3.841  -7.501  -7.319  0.00  0.00    -0.274 OA
ATOM     33  N   LIG d   1       5.658  -8.210  -6.261  0.00  0.00    -0.311 N 
ATOM     34  H   LIG d   1       6.612  -8.124  -6.114  0.00  0.00     0.149 HD
BRANCH  33  35
ATOM     35  C   LIG d   1       4.893  -9.224  -5.532  0.00  0.00     0.028 C 
ATOM     36  H   LIG d   1       3.871  -8.875  -5.385  0.00  0.00     0.050 H 
ATOM     37  C   LIG d   1       5.547  -9.481  -4.172  0.00  0.00    -0.006 C 
ATOM     38  C   LIG d   1       4.788 -10.599  -3.452  0.00  0.00     0.066 C 
ATOM     39  H   LIG d   1       6.585  -9.782  -4.318  0.00  0.00     0.031 H 
ATOM     40  H   LIG d   1       5.512  -8.571  -3.573  0.00  0.00     0.031 H 
ATOM     41  O   LIG d   1       4.785 -11.774  -4.267  0.00  0.00    -0.374 OA
ATOM     42  C   LIG d   1       4.142 -11.605  -5.531  0.00  0.00     0.050 C 
ATOM     43  C   LIG d   1       4.876 -10.529  -6.335  0.00  0.00    -0.011 C 
ATOM     44  H   LIG d   1       3.107 -11.300  -5.376  0.00  0.00     0.056 H 
ATOM     45  H   LIG d   1       4.164 -12.547  -6.079  0.00  0.00     0.056 H 
ATOM     46  H   LIG d   1       4.362 -10.367  -7.283  0.00  0.00     0.030 H 
ATOM     47  H   LIG d   1       5.899 -10.851  -6.526  0.00  0.00     0.030 H 
BRANCH  38  48
ATOM     48  C   LIG d   1       3.348 -10.152  -3.196  0.00  0.00    -0.036 C 
ATOM     49  H   LIG d   1       3.301  -9.064  -3.187  0.00  0.00     0.026 H 
ATOM     50  H   LIG d   1       2.702 -10.537  -3.986  0.00  0.00     0.026 H 
ATOM     51  H   LIG d   1       3.013 -10.539  -2.233  0.00  0.00     0.026 H 
ENDBRANCH  38  48
BRANCH  38  52
ATOM     52  C   LIG d   1       5.473 -10.905  -2.118  0.00  0.00    -0.036 C 
ATOM     53  H   LIG d   1       6.459 -10.437  -2.101  0.00  0.00     0.026 H 
ATOM     54  H   LIG d   1       4.870 -10.510  -1.302  0.00  0.00     0.026 H 
ATOM     55  H   LIG d   1       5.581 -11.983  -2.003  0.00  0.00     0.026 H 
ENDBRANCH  38  52
ENDBRANCH  33  35
ENDBRANCH   1  31
TORSDOF 10
ENDMDL
MODEL 9
REMARK VINA RESULT:      -5.0      6.135      9.069
REMARK  10 active torsions:
REMARK  status: ('A' for Active; 'I' for Inactive)
REMARK    1  A    between atoms: C_1  and  C_2 
REMARK    2  A    between atoms: C_6  and  O_28 
REMARK    3  A    between atoms: C_7  and  O_26 
REMARK    4  A    between atoms: N_12  and  C_13 
REMARK    5  A    between atoms: C_13  and  C_14 
REMARK       I    between atoms: C_14  and  N_16 
REMARK    6  A    between atoms: N_16  and  C_17 
REMARK    7  A    between atoms: C_22  and  C_24 
REMARK    8  A    between atoms: C_22  and  C_25 
REMARK    9  A    between atoms: O_26  and  C_27 
REMARK   10  A    between atoms: O_28  and  C_29 
ROOT
ATOM      1  C   LIG d   1       3.617  -0.671  -3.697  0.00  0.00     0.104 C 
ATOM      2  H   LIG d   1       2.975  -1.447  -3.283  0.00  0.00     0.059 H 
ATOM      3  H   LIG d   1       3.667   0.169  -3.004  0.00  0.00     0.059 H 
ENDROOT
BRANCH   1   4
ATOM      4  N   LIG d   1       4.963  -1.210  -3.908  0.00  0.00    -0.287 N 
ATOM      5  C   LIG d   1       6.048  -0.430  -3.659  0.00  0.00     0.110 A 
ATOM      6  N   LIG d   1       7.271  -0.838  -3.816  0.00  0.00    -0.234 NA
ATOM      7  C   LIG d   1       7.552  -2.091  -4.251  0.00  0.00     0.082 A 
ATOM      8  C   LIG d   1       6.485  -2.972  -4.540  0.00  0.00     0.069 A 
ATOM      9  C   LIG d   1       8.867  -2.528  -4.418  0.00  0.00     0.010 A 
ATOM     10  C   LIG d   1       6.746  -4.267  -4.989  0.00  0.00    -0.002 A 
ATOM     11  C   LIG d   1       5.115  -2.480  -4.353  0.00  0.00     0.262 A 
ATOM     12  C   LIG d   1       8.052  -4.682  -5.148  0.00  0.00     0.162 A 
ATOM     13  H   LIG d   1       5.931  -4.941  -5.210  0.00  0.00     0.066 H 
ATOM     14  C   LIG d   1       9.111  -3.813  -4.863  0.00  0.00     0.164 A 
ATOM     15  O   LIG d   1       4.151  -3.188  -4.583  0.00  0.00    -0.267 OA
ATOM     16  H   LIG d   1       9.690  -1.864  -4.201  0.00  0.00     0.068 H 
BRANCH   5  17
ATOM     17  C   LIG d   1       5.820   0.977  -3.171  0.00  0.00    -0.006 C 
ATOM     18  H   LIG d   1       5.114   1.481  -3.830  0.00  0.00     0.031 H 
ATOM     19  H   LIG d   1       5.417   0.950  -2.159  0.00  0.00     0.031 H 
ATOM     20  H   LIG d   1       6.767   1.519  -3.171  0.00  0.00     0.031 H 
ENDBRANCH   5  17
BRANCH  12  21
ATOM     21  O   LIG d   1       8.312  -5.943  -5.584  0.00  0.00    -0.491 OA
BRANCH  21  22
ATOM     22  C   LIG d   1       7.740  -6.328  -6.836  0.00  0.00     0.079 C 
ATOM     23  H   LIG d   1       7.653  -7.413  -6.878  0.00  0.00     0.066 H 
ATOM     24  H   LIG d   1       6.750  -5.880  -6.936  0.00  0.00     0.066 H 
ATOM     25  H   LIG d   1       8.377  -5.982  -7.650  0.00  0.00     0.066 H 
ENDBRANCH  21  22
ENDBRANCH  12  21
BRANCH  14  26
ATOM     26  O   LIG d   1      10.390  -4.237  -5.025  0.00  0.00    -0.491 OA
BRANCH  26  27
ATOM     27  C   LIG d   1      11.405  -3.522  -4.315  0.00  0.00     0.079 C 
ATOM     28  H   LIG d   1      12.032  -2.981  -5.024  0.00  0.00     0.066 H 
ATOM     29  H   LIG d   1      10.938  -2.816  -3.629  0.00  0.00     0.066 H 
ATOM     30  H   LIG d   1      12.018  -4.226  -3.751  0.00  0.00     0.066 H 
ENDBRANCH  26  27
ENDBRANCH  14  26
ENDBRANCH   1   4
BRANCH   1  31
ATOM     31  C   LIG d   1       3.053  -0.202  -5.015  0.00  0.00     0.233 C 
ATOM     32  O   LIG d   1       2.150   0.606  -5.034  0.00  0.00    -0.274 OA
ATOM     33  N   LIG d   1       3.553  -0.683  -6.169  0.00  0.00    -0.311 N 
ATOM     34  H   LIG d   1       4.275  -1.329  -6.154  0.00  0.00     0.149 HD
BRANCH  33  35
ATOM     35  C   LIG d   1       3.005  -0.228  -7.450  0.00  0.00     0.028 C 
ATOM     36  H   LIG d   1       1.923  -0.123  -7.367  0.00  0.00     0.050 H 
ATOM     37  C   LIG d   1       3.339  -1.250  -8.542  0.00  0.00    -0.006 C 
ATOM     38  C   LIG d   1       2.833  -0.728  -9.890  0.00  0.00     0.066 C 
ATOM     39  H   LIG d   1       4.418  -1.393  -8.590  0.00  0.00     0.031 H 
ATOM     40  H   LIG d   1       2.855  -2.199  -8.313  0.00  0.00     0.031 H 
ATOM     41  O   LIG d   1       3.423   0.546 -10.160  0.00  0.00    -0.374 OA
ATOM     42  C   LIG d   1       3.105   1.553  -9.197  0.00  0.00     0.050 C 
ATOM     43  C   LIG d   1       3.624   1.123  -7.822  0.00  0.00    -0.011 C 
ATOM     44  H   LIG d   1       2.024   1.685  -9.152  0.00  0.00     0.056 H 
ATOM     45  H   LIG d   1       3.575   2.493  -9.485  0.00  0.00     0.056 H 
ATOM     46  H   LIG d   1       3.344   1.869  -7.078  0.00  0.00     0.030 H 
ATOM     47  H   LIG d   1       4.709   1.029  -7.854  0.00  0.00     0.030 H 
BRANCH  38  48
ATOM     48  C   LIG d   1       1.310  -0.584  -9.840  0.00  0.00    -0.036 C 
ATOM     49  H   LIG d   1       1.006  -0.283  -8.837  0.00  0.00     0.026 H 
ATOM     50  H   LIG d   1       0.994   0.175 -10.557  0.00  0.00     0.026 H 
ATOM     51  H   LIG d   1       0.847  -1.537 -10.090  0.00  0.00     0.026 H 
ENDBRANCH  38  48
BRANCH  38  52
ATOM     52  C   LIG d   1       3.216  -1.713 -10.995  0.00  0.00    -0.036 C 
ATOM     53  H   LIG d   1       2.465  -1.683 -11.785  0.00  0.00     0.026 H 
ATOM     54  H   LIG d   1       4.187  -1.438 -11.407  0.00  0.00     0.026 H 
ATOM     55  H   LIG d   1       3.268  -2.721 -10.582  0.00  0.00     0.026 H 
ENDBRANCH  38  52
ENDBRANCH  33  35
ENDBRANCH   1  31
TORSDOF 10
ENDMDL
