MODEL 1
REMARK VINA RESULT:      -7.5      0.000      0.000
REMARK  5 active torsions:
REMARK  status: ('A' for Active; 'I' for Inactive)
REMARK    1  A    between atoms: C_1  and  C_2 
REMARK    2  A    between atoms: C_6  and  O_8 
REMARK    3  A    between atoms: O_8  and  C_9 
REMARK    4  A    between atoms: C_9  and  C_10 
REMARK       I    between atoms: C_10  and  N_12 
REMARK    5  A    between atoms: C_15  and  C_18 
ROOT
ATOM      1  C   LIG d   1       9.460  -1.578  -5.781  0.00  0.00    -0.043 A 
ATOM      2  C   LIG d   1       8.422  -2.465  -5.571  0.00  0.00    -0.015 A 
ATOM      3  C   LIG d   1       7.302  -2.067  -4.856  0.00  0.00     0.143 A 
ATOM      4  C   LIG d   1       7.230  -0.758  -4.352  0.00  0.00     0.063 A 
ATOM      5  C   LIG d   1       8.290   0.136  -4.571  0.00  0.00     0.132 A 
ATOM      6  C   LIG d   1       9.400  -0.288  -5.281  0.00  0.00    -0.016 A 
ATOM      7  C   LIG d   1       6.041  -0.341  -3.600  0.00  0.00    -0.023 A 
ATOM      8  C   LIG d   1       5.049  -1.241  -3.421  0.00  0.00     0.041 A 
ATOM      9  C   LIG d   1       5.193  -2.548  -3.949  0.00  0.00     0.341 A 
ATOM     10  O   LIG d   1       4.301  -3.358  -3.770  0.00  0.00    -0.245 OA
ATOM     11  O   LIG d   1       6.280  -2.922  -4.639  0.00  0.00    -0.422 OA
ATOM     12  C   LIG d   1       3.778  -0.913  -2.682  0.00  0.00    -0.021 C 
ATOM     13  C   LIG d   1       3.960   0.337  -1.825  0.00  0.00    -0.049 C 
ATOM     14  C   LIG d   1       4.550   1.445  -2.706  0.00  0.00    -0.049 C 
ATOM     15  C   LIG d   1       5.985   1.062  -3.062  0.00  0.00    -0.026 C 
ATOM     16  H   LIG d   1       8.484  -3.471  -5.962  0.00  0.00     0.066 H 
ATOM     17  H   LIG d   1      10.222   0.392  -5.450  0.00  0.00     0.066 H 
ATOM     18  H   LIG d   1       2.979  -0.742  -3.403  0.00  0.00     0.032 H 
ATOM     19  H   LIG d   1       3.510  -1.752  -2.040  0.00  0.00     0.032 H 
ATOM     20  H   LIG d   1       2.995   0.656  -1.430  0.00  0.00     0.027 H 
ATOM     21  H   LIG d   1       4.640   0.123  -1.001  0.00  0.00     0.027 H 
ATOM     22  H   LIG d   1       3.959   1.544  -3.617  0.00  0.00     0.027 H 
ATOM     23  H   LIG d   1       4.546   2.389  -2.160  0.00  0.00     0.027 H 
ATOM     24  H   LIG d   1       6.607   1.129  -2.169  0.00  0.00     0.031 H 
ATOM     25  H   LIG d   1       6.364   1.751  -3.816  0.00  0.00     0.031 H 
ENDROOT
BRANCH   5  26
ATOM     26  O   LIG d   1       8.229   1.402  -4.087  0.00  0.00    -0.482 OA
BRANCH  26  27
ATOM     27  C   LIG d   1       9.471   2.042  -3.785  0.00  0.00     0.165 C 
ATOM     28  H   LIG d   1       9.521   2.254  -2.717  0.00  0.00     0.080 H 
ATOM     29  H   LIG d   1      10.295   1.384  -4.062  0.00  0.00     0.080 H 
BRANCH  27  30
ATOM     30  C   LIG d   1       9.575   3.330  -4.559  0.00  0.00     0.253 C 
ATOM     31  O   LIG d   1       9.162   3.388  -5.698  0.00  0.00    -0.272 OA
ATOM     32  N   LIG d   1      10.127   4.418  -3.987  0.00  0.00    -0.299 N 
ATOM     33  C   LIG d   1      10.235   5.681  -4.730  0.00  0.00     0.015 C 
ATOM     34  C   LIG d   1      10.638   4.361  -2.611  0.00  0.00     0.015 C 
ATOM     35  C   LIG d   1       9.590   6.796  -3.892  0.00  0.00    -0.029 C 
ATOM     36  H   LIG d   1      11.285   5.913  -4.905  0.00  0.00     0.046 H 
ATOM     37  H   LIG d   1       9.714   5.591  -5.683  0.00  0.00     0.046 H 
ATOM     38  C   LIG d   1      10.238   6.825  -2.506  0.00  0.00     0.001 C 
ATOM     39  H   LIG d   1       8.522   6.607  -3.791  0.00  0.00     0.029 H 
ATOM     40  H   LIG d   1       9.744   7.755  -4.386  0.00  0.00     0.029 H 
ATOM     41  C   LIG d   1       9.993   5.490  -1.799  0.00  0.00    -0.029 C 
ATOM     42  H   LIG d   1      11.311   6.990  -2.610  0.00  0.00     0.036 H 
ATOM     43  H   LIG d   1       8.921   5.313  -1.717  0.00  0.00     0.029 H 
ATOM     44  H   LIG d   1      10.435   5.520  -0.803  0.00  0.00     0.029 H 
ATOM     45  H   LIG d   1      10.383   3.400  -2.166  0.00  0.00     0.046 H 
ATOM     46  H   LIG d   1      11.720   4.488  -2.617  0.00  0.00     0.046 H 
BRANCH  38  47
ATOM     47  C   LIG d   1       9.635   7.942  -1.693  0.00  0.00     0.045 C 
ATOM     48  O   LIG d   1       8.758   7.700  -0.881  0.00  0.00    -0.549 OA
ATOM     49  O   LIG d   1      10.023   9.087  -1.847  0.00  0.00    -0.549 OA
ENDBRANCH  38  47
ENDBRANCH  27  30
ENDBRANCH  26  27
ENDBRANCH   5  26
BRANCH   1  50
ATOM     50  C   LIG d   1      10.673  -2.022  -6.557  0.00  0.00    -0.040 C 
ATOM     51  H   LIG d   1      11.485  -1.314  -6.398  0.00  0.00     0.028 H 
ATOM     52  H   LIG d   1      10.980  -3.011  -6.218  0.00  0.00     0.028 H 
ATOM     53  H   LIG d   1      10.429  -2.062  -7.619  0.00  0.00     0.028 H 
ENDBRANCH   1  50
TORSDOF 5
ENDMDL
MODEL 2
REMARK VINA RESULT:      -7.3      4.366      7.313
REMARK  5 active torsions:
REMARK  status: ('A' for Active; 'I' for Inactive)
REMARK    1  A    between atoms: C_1  and  C_2 
REMARK    2  A    between atoms: C_6  and  O_8 
REMARK    3  A    between atoms: O_8  and  C_9 
REMARK    4  A    between atoms: C_9  and  C_10 
REMARK       I    between atoms: C_10  and  N_12 
REMARK    5  A    between atoms: C_15  and  C_18 
ROOT
ATOM      1  C   LIG d   1       9.280  -2.364  -5.735  0.00  0.00    -0.043 A 
ATOM      2  C   LIG d   1       9.057  -1.097  -5.231  0.00  0.00    -0.015 A 
ATOM      3  C   LIG d   1       7.871  -0.811  -4.571  0.00  0.00     0.143 A 
ATOM      4  C   LIG d   1       6.903  -1.817  -4.418  0.00  0.00     0.063 A 
ATOM      5  C   LIG d   1       7.139  -3.100  -4.933  0.00  0.00     0.132 A 
ATOM      6  C   LIG d   1       8.327  -3.359  -5.594  0.00  0.00    -0.016 A 
ATOM      7  C   LIG d   1       5.651  -1.509  -3.716  0.00  0.00    -0.023 A 
ATOM      8  C   LIG d   1       5.477  -0.257  -3.238  0.00  0.00     0.041 A 
ATOM      9  C   LIG d   1       6.493   0.711  -3.437  0.00  0.00     0.341 A 
ATOM     10  O   LIG d   1       6.322   1.841  -3.016  0.00  0.00    -0.245 OA
ATOM     11  O   LIG d   1       7.636   0.423  -4.075  0.00  0.00    -0.422 OA
ATOM     12  C   LIG d   1       4.241   0.160  -2.486  0.00  0.00    -0.021 C 
ATOM     13  C   LIG d   1       3.100  -0.823  -2.735  0.00  0.00    -0.049 C 
ATOM     14  C   LIG d   1       3.619  -2.242  -2.472  0.00  0.00    -0.049 C 
ATOM     15  C   LIG d   1       4.623  -2.596  -3.567  0.00  0.00    -0.026 C 
ATOM     16  H   LIG d   1       9.807  -0.329  -5.352  0.00  0.00     0.066 H 
ATOM     17  H   LIG d   1       8.515  -4.343  -5.998  0.00  0.00     0.066 H 
ATOM     18  H   LIG d   1       4.463   0.191  -1.419  0.00  0.00     0.032 H 
ATOM     19  H   LIG d   1       3.937   1.153  -2.818  0.00  0.00     0.032 H 
ATOM     20  H   LIG d   1       2.272  -0.604  -2.061  0.00  0.00     0.027 H 
ATOM     21  H   LIG d   1       2.763  -0.742  -3.768  0.00  0.00     0.027 H 
ATOM     22  H   LIG d   1       4.109  -2.279  -1.498  0.00  0.00     0.027 H 
ATOM     23  H   LIG d   1       2.788  -2.947  -2.493  0.00  0.00     0.027 H 
ATOM     24  H   LIG d   1       4.094  -2.722  -4.512  0.00  0.00     0.031 H 
ATOM     25  H   LIG d   1       5.123  -3.529  -3.309  0.00  0.00     0.031 H 
ENDROOT
BRANCH   5  26
ATOM     26  O   LIG d   1       6.209  -4.078  -4.790  0.00  0.00    -0.482 OA
BRANCH  26  27
ATOM     27  C   LIG d   1       5.978  -4.925  -5.918  0.00  0.00     0.165 C 
ATOM     28  H   LIG d   1       6.819  -4.851  -6.607  0.00  0.00     0.080 H 
ATOM     29  H   LIG d   1       5.874  -5.956  -5.582  0.00  0.00     0.080 H 
BRANCH  27  30
ATOM     30  C   LIG d   1       4.715  -4.496  -6.619  0.00  0.00     0.253 C 
ATOM     31  O   LIG d   1       3.641  -4.908  -6.240  0.00  0.00    -0.272 OA
ATOM     32  N   LIG d   1       4.781  -3.653  -7.669  0.00  0.00    -0.299 N 
ATOM     33  C   LIG d   1       3.558  -3.225  -8.363  0.00  0.00     0.015 C 
ATOM     34  C   LIG d   1       6.076  -3.150  -8.145  0.00  0.00     0.015 C 
ATOM     35  C   LIG d   1       3.533  -1.690  -8.406  0.00  0.00    -0.029 C 
ATOM     36  H   LIG d   1       3.557  -3.622  -9.378  0.00  0.00     0.046 H 
ATOM     37  H   LIG d   1       2.684  -3.592  -7.824  0.00  0.00     0.046 H 
ATOM     38  C   LIG d   1       4.828  -1.181  -9.043  0.00  0.00     0.001 C 
ATOM     39  H   LIG d   1       3.447  -1.297  -7.393  0.00  0.00     0.029 H 
ATOM     40  H   LIG d   1       2.680  -1.358  -8.998  0.00  0.00     0.029 H 
ATOM     41  C   LIG d   1       6.023  -1.619  -8.193  0.00  0.00    -0.029 C 
ATOM     42  H   LIG d   1       4.924  -1.595 -10.047  0.00  0.00     0.036 H 
ATOM     43  H   LIG d   1       5.914  -1.226  -7.182  0.00  0.00     0.029 H 
ATOM     44  H   LIG d   1       6.943  -1.236  -8.636  0.00  0.00     0.029 H 
ATOM     45  H   LIG d   1       6.864  -3.466  -7.462  0.00  0.00     0.046 H 
ATOM     46  H   LIG d   1       6.276  -3.539  -9.142  0.00  0.00     0.046 H 
BRANCH  38  47
ATOM     47  C   LIG d   1       4.791   0.324  -9.121  0.00  0.00     0.045 C 
ATOM     48  O   LIG d   1       4.594   0.982  -8.113  0.00  0.00    -0.549 OA
ATOM     49  O   LIG d   1       4.958   0.883 -10.191  0.00  0.00    -0.549 OA
ENDBRANCH  38  47
ENDBRANCH  27  30
ENDBRANCH  26  27
ENDBRANCH   5  26
BRANCH   1  50
ATOM     50  C   LIG d   1      10.572  -2.664  -6.451  0.00  0.00    -0.040 C 
ATOM     51  H   LIG d   1      11.026  -1.733  -6.787  0.00  0.00     0.028 H 
ATOM     52  H   LIG d   1      11.253  -3.177  -5.772  0.00  0.00     0.028 H 
ATOM     53  H   LIG d   1      10.369  -3.301  -7.312  0.00  0.00     0.028 H 
ENDBRANCH   1  50
TORSDOF 5
ENDMDL
MODEL 3
REMARK VINA RESULT:      -7.2      5.291      7.928
REMARK  5 active torsions:
REMARK  status: ('A' for Active; 'I' for Inactive)
REMARK    1  A    between atoms: C_1  and  C_2 
REMARK    2  A    between atoms: C_6  and  O_8 
REMARK    3  A    between atoms: O_8  and  C_9 
REMARK    4  A    between atoms: C_9  and  C_10 
REMARK       I    between atoms: C_10  and  N_12 
REMARK    5  A    between atoms: C_15  and  C_18 
ROOT
ATOM      1  C   LIG d   1       3.121  -5.809  -9.239  0.00  0.00    -0.043 A 
ATOM      2  C   LIG d   1       2.439  -5.043 -10.163  0.00  0.00    -0.015 A 
ATOM      3  C   LIG d   1       2.430  -3.661 -10.049  0.00  0.00     0.143 A 
ATOM      4  C   LIG d   1       3.122  -3.048  -8.990  0.00  0.00     0.063 A 
ATOM      5  C   LIG d   1       3.813  -3.836  -8.057  0.00  0.00     0.132 A 
ATOM      6  C   LIG d   1       3.800  -5.214  -8.188  0.00  0.00    -0.016 A 
ATOM      7  C   LIG d   1       3.112  -1.585  -8.877  0.00  0.00    -0.023 A 
ATOM      8  C   LIG d   1       2.433  -0.875  -9.805  0.00  0.00     0.041 A 
ATOM      9  C   LIG d   1       1.750  -1.560 -10.840  0.00  0.00     0.341 A 
ATOM     10  O   LIG d   1       1.128  -0.914 -11.664  0.00  0.00    -0.245 OA
ATOM     11  O   LIG d   1       1.766  -2.897 -10.942  0.00  0.00    -0.422 OA
ATOM     12  C   LIG d   1       2.374   0.629  -9.794  0.00  0.00    -0.021 C 
ATOM     13  C   LIG d   1       2.766   1.175  -8.422  0.00  0.00    -0.049 C 
ATOM     14  C   LIG d   1       4.098   0.535  -8.011  0.00  0.00    -0.049 C 
ATOM     15  C   LIG d   1       3.852  -0.947  -7.733  0.00  0.00    -0.026 C 
ATOM     16  H   LIG d   1       1.910  -5.521 -10.975  0.00  0.00     0.066 H 
ATOM     17  H   LIG d   1       4.325  -5.827  -7.472  0.00  0.00     0.066 H 
ATOM     18  H   LIG d   1       3.059   1.021 -10.546  0.00  0.00     0.032 H 
ATOM     19  H   LIG d   1       1.360   0.950 -10.031  0.00  0.00     0.032 H 
ATOM     20  H   LIG d   1       2.880   2.257  -8.476  0.00  0.00     0.027 H 
ATOM     21  H   LIG d   1       1.997   0.922  -7.693  0.00  0.00     0.027 H 
ATOM     22  H   LIG d   1       4.823   0.642  -8.819  0.00  0.00     0.027 H 
ATOM     23  H   LIG d   1       4.475   1.019  -7.110  0.00  0.00     0.027 H 
ATOM     24  H   LIG d   1       3.262  -1.049  -6.822  0.00  0.00     0.031 H 
ATOM     25  H   LIG d   1       4.809  -1.451  -7.600  0.00  0.00     0.031 H 
ENDROOT
BRANCH   5  26
ATOM     26  O   LIG d   1       4.483  -3.252  -7.031  0.00  0.00    -0.482 OA
BRANCH  26  27
ATOM     27  C   LIG d   1       5.213  -4.117  -6.157  0.00  0.00     0.165 C 
ATOM     28  H   LIG d   1       4.523  -4.606  -5.470  0.00  0.00     0.080 H 
ATOM     29  H   LIG d   1       5.735  -4.871  -6.746  0.00  0.00     0.080 H 
BRANCH  27  30
ATOM     30  C   LIG d   1       6.214  -3.309  -5.373  0.00  0.00     0.253 C 
ATOM     31  O   LIG d   1       7.330  -3.135  -5.813  0.00  0.00    -0.272 OA
ATOM     32  N   LIG d   1       5.869  -2.780  -4.182  0.00  0.00    -0.299 N 
ATOM     33  C   LIG d   1       6.835  -1.991  -3.406  0.00  0.00     0.015 C 
ATOM     34  C   LIG d   1       4.523  -2.989  -3.633  0.00  0.00     0.015 C 
ATOM     35  C   LIG d   1       6.198  -0.634  -3.070  0.00  0.00    -0.029 C 
ATOM     36  H   LIG d   1       7.082  -2.519  -2.486  0.00  0.00     0.046 H 
ATOM     37  H   LIG d   1       7.739  -1.836  -3.995  0.00  0.00     0.046 H 
ATOM     38  C   LIG d   1       4.862  -0.865  -2.361  0.00  0.00     0.001 C 
ATOM     39  H   LIG d   1       6.031  -0.071  -3.988  0.00  0.00     0.029 H 
ATOM     40  H   LIG d   1       6.865  -0.073  -2.416  0.00  0.00     0.029 H 
ATOM     41  C   LIG d   1       3.914  -1.624  -3.292  0.00  0.00    -0.029 C 
ATOM     42  H   LIG d   1       5.028  -1.450  -1.456  0.00  0.00     0.036 H 
ATOM     43  H   LIG d   1       3.767  -1.052  -4.208  0.00  0.00     0.029 H 
ATOM     44  H   LIG d   1       2.954  -1.768  -2.795  0.00  0.00     0.029 H 
ATOM     45  H   LIG d   1       3.900  -3.492  -4.373  0.00  0.00     0.046 H 
ATOM     46  H   LIG d   1       4.585  -3.596  -2.731  0.00  0.00     0.046 H 
BRANCH  38  47
ATOM     47  C   LIG d   1       4.250   0.463  -1.996  0.00  0.00     0.045 C 
ATOM     48  O   LIG d   1       3.081   0.688  -2.256  0.00  0.00    -0.549 OA
ATOM     49  O   LIG d   1       4.926   1.313  -1.442  0.00  0.00    -0.549 OA
ENDBRANCH  38  47
ENDBRANCH  27  30
ENDBRANCH  26  27
ENDBRANCH   5  26
BRANCH   1  50
ATOM     50  C   LIG d   1       3.123  -7.310  -9.371  0.00  0.00    -0.040 C 
ATOM     51  H   LIG d   1       2.129  -7.696  -9.149  0.00  0.00     0.028 H 
ATOM     52  H   LIG d   1       3.400  -7.585 -10.389  0.00  0.00     0.028 H 
ATOM     53  H   LIG d   1       3.843  -7.735  -8.672  0.00  0.00     0.028 H 
ENDBRANCH   1  50
TORSDOF 5
ENDMDL
MODEL 4
REMARK VINA RESULT:      -7.1      4.539      9.950
REMARK  5 active torsions:
REMARK  status: ('A' for Active; 'I' for Inactive)
REMARK    1  A    between atoms: C_1  and  C_2 
REMARK    2  A    between atoms: C_6  and  O_8 
REMARK    3  A    between atoms: O_8  and  C_9 
REMARK    4  A    between atoms: C_9  and  C_10 
REMARK       I    between atoms: C_10  and  N_12 
REMARK    5  A    between atoms: C_15  and  C_18 
ROOT
ATOM      1  C   LIG d   1       9.501  -1.732  -5.773  0.00  0.00    -0.043 A 
ATOM      2  C   LIG d   1       9.082  -0.530  -5.238  0.00  0.00    -0.015 A 
ATOM      3  C   LIG d   1       7.866  -0.451  -4.574  0.00  0.00     0.143 A 
ATOM      4  C   LIG d   1       7.069  -1.601  -4.449  0.00  0.00     0.063 A 
ATOM      5  C   LIG d   1       7.505  -2.818  -4.996  0.00  0.00     0.132 A 
ATOM      6  C   LIG d   1       8.718  -2.868  -5.660  0.00  0.00    -0.016 A 
ATOM      7  C   LIG d   1       5.786  -1.513  -3.743  0.00  0.00    -0.023 A 
ATOM      8  C   LIG d   1       5.416  -0.317  -3.233  0.00  0.00     0.041 A 
ATOM      9  C   LIG d   1       6.266   0.804  -3.405  0.00  0.00     0.341 A 
ATOM     10  O   LIG d   1       5.920   1.882  -2.956  0.00  0.00    -0.245 OA
ATOM     11  O   LIG d   1       7.440   0.717  -4.048  0.00  0.00    -0.422 OA
ATOM     12  C   LIG d   1       4.131  -0.119  -2.475  0.00  0.00    -0.021 C 
ATOM     13  C   LIG d   1       3.159  -1.264  -2.752  0.00  0.00    -0.049 C 
ATOM     14  C   LIG d   1       3.897  -2.589  -2.523  0.00  0.00    -0.049 C 
ATOM     15  C   LIG d   1       4.942  -2.752  -3.625  0.00  0.00    -0.026 C 
ATOM     16  H   LIG d   1       9.701   0.351  -5.337  0.00  0.00     0.066 H 
ATOM     17  H   LIG d   1       9.058  -3.800  -6.088  0.00  0.00     0.066 H 
ATOM     18  H   LIG d   1       4.347  -0.081  -1.407  0.00  0.00     0.032 H 
ATOM     19  H   LIG d   1       3.674   0.822  -2.782  0.00  0.00     0.032 H 
ATOM     20  H   LIG d   1       2.308  -1.196  -2.075  0.00  0.00     0.027 H 
ATOM     21  H   LIG d   1       2.813  -1.211  -3.784  0.00  0.00     0.027 H 
ATOM     22  H   LIG d   1       4.388  -2.573  -1.550  0.00  0.00     0.027 H 
ATOM     23  H   LIG d   1       3.188  -3.416  -2.565  0.00  0.00     0.027 H 
ATOM     24  H   LIG d   1       4.439  -2.936  -4.574  0.00  0.00     0.031 H 
ATOM     25  H   LIG d   1       5.584  -3.601  -3.389  0.00  0.00     0.031 H 
ENDROOT
BRANCH   5  26
ATOM     26  O   LIG d   1       6.740  -3.933  -4.881  0.00  0.00    -0.482 OA
BRANCH  26  27
ATOM     27  C   LIG d   1       6.973  -4.980  -5.826  0.00  0.00     0.165 C 
ATOM     28  H   LIG d   1       6.026  -5.285  -6.271  0.00  0.00     0.080 H 
ATOM     29  H   LIG d   1       7.642  -4.621  -6.608  0.00  0.00     0.080 H 
BRANCH  27  30
ATOM     30  C   LIG d   1       7.602  -6.157  -5.127  0.00  0.00     0.253 C 
ATOM     31  O   LIG d   1       8.620  -6.008  -4.486  0.00  0.00    -0.272 OA
ATOM     32  N   LIG d   1       7.033  -7.376  -5.215  0.00  0.00    -0.299 N 
ATOM     33  C   LIG d   1       7.636  -8.534  -4.540  0.00  0.00     0.015 C 
ATOM     34  C   LIG d   1       5.804  -7.573  -5.994  0.00  0.00     0.015 C 
ATOM     35  C   LIG d   1       6.566  -9.195  -3.658  0.00  0.00    -0.029 C 
ATOM     36  H   LIG d   1       7.991  -9.246  -5.284  0.00  0.00     0.046 H 
ATOM     37  H   LIG d   1       8.469  -8.203  -3.919  0.00  0.00     0.046 H 
ATOM     38  C   LIG d   1       5.344  -9.534  -4.515  0.00  0.00     0.001 C 
ATOM     39  H   LIG d   1       6.274  -8.511  -2.862  0.00  0.00     0.029 H 
ATOM     40  H   LIG d   1       6.970 -10.109  -3.222  0.00  0.00     0.029 H 
ATOM     41  C   LIG d   1       4.757  -8.247  -5.100  0.00  0.00    -0.029 C 
ATOM     42  H   LIG d   1       5.643 -10.198  -5.326  0.00  0.00     0.036 H 
ATOM     43  H   LIG d   1       4.482  -7.571  -4.290  0.00  0.00     0.029 H 
ATOM     44  H   LIG d   1       3.873  -8.487  -5.691  0.00  0.00     0.029 H 
ATOM     45  H   LIG d   1       5.427  -6.609  -6.334  0.00  0.00     0.046 H 
ATOM     46  H   LIG d   1       6.013  -8.209  -6.853  0.00  0.00     0.046 H 
BRANCH  38  47
ATOM     47  C   LIG d   1       4.306 -10.217  -3.662  0.00  0.00     0.045 C 
ATOM     48  O   LIG d   1       3.189  -9.738  -3.561  0.00  0.00    -0.549 OA
ATOM     49  O   LIG d   1       4.583 -11.247  -3.073  0.00  0.00    -0.549 OA
ENDBRANCH  38  47
ENDBRANCH  27  30
ENDBRANCH  26  27
ENDBRANCH   5  26
BRANCH   1  50
ATOM     50  C   LIG d   1      10.823  -1.806  -6.493  0.00  0.00    -0.040 C 
ATOM     51  H   LIG d   1      10.664  -1.659  -7.561  0.00  0.00     0.028 H 
ATOM     52  H   LIG d   1      11.487  -1.029  -6.114  0.00  0.00     0.028 H 
ATOM     53  H   LIG d   1      11.274  -2.784  -6.324  0.00  0.00     0.028 H 
ENDBRANCH   1  50
TORSDOF 5
ENDMDL
MODEL 5
REMARK VINA RESULT:      -6.9      1.415      3.835
REMARK  5 active torsions:
REMARK  status: ('A' for Active; 'I' for Inactive)
REMARK    1  A    between atoms: C_1  and  C_2 
REMARK    2  A    between atoms: C_6  and  O_8 
REMARK    3  A    between atoms: O_8  and  C_9 
REMARK    4  A    between atoms: C_9  and  C_10 
REMARK       I    between atoms: C_10  and  N_12 
REMARK    5  A    between atoms: C_15  and  C_18 
ROOT
ATOM      1  C   LIG d   1       4.251   0.376  -2.939  0.00  0.00    -0.043 A 
ATOM      2  C   LIG d   1       3.755  -0.878  -3.235  0.00  0.00    -0.015 A 
ATOM      3  C   LIG d   1       4.571  -1.822  -3.841  0.00  0.00     0.143 A 
ATOM      4  C   LIG d   1       5.902  -1.493  -4.148  0.00  0.00     0.063 A 
ATOM      5  C   LIG d   1       6.396  -0.216  -3.843  0.00  0.00     0.132 A 
ATOM      6  C   LIG d   1       5.559   0.711  -3.244  0.00  0.00    -0.016 A 
ATOM      7  C   LIG d   1       6.762  -2.497  -4.785  0.00  0.00    -0.023 A 
ATOM      8  C   LIG d   1       6.235  -3.713  -5.055  0.00  0.00     0.041 A 
ATOM      9  C   LIG d   1       4.881  -3.972  -4.726  0.00  0.00     0.341 A 
ATOM     10  O   LIG d   1       4.410  -5.064  -4.986  0.00  0.00    -0.245 OA
ATOM     11  O   LIG d   1       4.102  -3.052  -4.139  0.00  0.00    -0.422 OA
ATOM     12  C   LIG d   1       7.033  -4.821  -5.689  0.00  0.00    -0.021 C 
ATOM     13  C   LIG d   1       8.286  -4.266  -6.364  0.00  0.00    -0.049 C 
ATOM     14  C   LIG d   1       9.023  -3.377  -5.355  0.00  0.00    -0.049 C 
ATOM     15  C   LIG d   1       8.182  -2.125  -5.113  0.00  0.00    -0.026 C 
ATOM     16  H   LIG d   1       2.730  -1.124  -2.995  0.00  0.00     0.066 H 
ATOM     17  H   LIG d   1       5.930   1.698  -3.010  0.00  0.00     0.066 H 
ATOM     18  H   LIG d   1       7.326  -5.537  -4.922  0.00  0.00     0.032 H 
ATOM     19  H   LIG d   1       6.418  -5.325  -6.434  0.00  0.00     0.032 H 
ATOM     20  H   LIG d   1       8.933  -5.088  -6.671  0.00  0.00     0.027 H 
ATOM     21  H   LIG d   1       8.004  -3.676  -7.235  0.00  0.00     0.027 H 
ATOM     22  H   LIG d   1       9.157  -3.917  -4.417  0.00  0.00     0.027 H 
ATOM     23  H   LIG d   1       9.996  -3.093  -5.758  0.00  0.00     0.027 H 
ATOM     24  H   LIG d   1       8.193  -1.506  -6.010  0.00  0.00     0.031 H 
ATOM     25  H   LIG d   1       8.605  -1.562  -4.282  0.00  0.00     0.031 H 
ENDROOT
BRANCH   5  26
ATOM     26  O   LIG d   1       7.680   0.110  -4.136  0.00  0.00    -0.482 OA
BRANCH  26  27
ATOM     27  C   LIG d   1       8.169   1.350  -3.620  0.00  0.00     0.165 C 
ATOM     28  H   LIG d   1       7.409   1.806  -2.987  0.00  0.00     0.080 H 
ATOM     29  H   LIG d   1       9.069   1.169  -3.033  0.00  0.00     0.080 H 
BRANCH  27  30
ATOM     30  C   LIG d   1       8.493   2.277  -4.763  0.00  0.00     0.253 C 
ATOM     31  O   LIG d   1       7.954   2.126  -5.838  0.00  0.00    -0.272 OA
ATOM     32  N   LIG d   1       9.382   3.275  -4.590  0.00  0.00    -0.299 N 
ATOM     33  C   LIG d   1       9.709   4.187  -5.696  0.00  0.00     0.015 C 
ATOM     34  C   LIG d   1      10.049   3.467  -3.295  0.00  0.00     0.015 C 
ATOM     35  C   LIG d   1       9.499   5.631  -5.214  0.00  0.00    -0.029 C 
ATOM     36  H   LIG d   1      10.748   4.045  -5.991  0.00  0.00     0.046 H 
ATOM     37  H   LIG d   1       9.054   3.983  -6.543  0.00  0.00     0.046 H 
ATOM     38  C   LIG d   1      10.320   5.864  -3.944  0.00  0.00     0.001 C 
ATOM     39  H   LIG d   1       8.443   5.796  -5.001  0.00  0.00     0.029 H 
ATOM     40  H   LIG d   1       9.825   6.322  -5.991  0.00  0.00     0.029 H 
ATOM     41  C   LIG d   1       9.839   4.916  -2.843  0.00  0.00    -0.029 C 
ATOM     42  H   LIG d   1      11.373   5.675  -4.153  0.00  0.00     0.036 H 
ATOM     43  H   LIG d   1       8.780   5.088  -2.652  0.00  0.00     0.029 H 
ATOM     44  H   LIG d   1      10.409   5.099  -1.932  0.00  0.00     0.029 H 
ATOM     45  H   LIG d   1       9.619   2.789  -2.559  0.00  0.00     0.046 H 
ATOM     46  H   LIG d   1      11.115   3.268  -3.399  0.00  0.00     0.046 H 
BRANCH  38  47
ATOM     47  C   LIG d   1      10.146   7.291  -3.490  0.00  0.00     0.045 C 
ATOM     48  O   LIG d   1      10.409   8.209  -4.249  0.00  0.00    -0.549 OA
ATOM     49  O   LIG d   1       9.743   7.527  -2.364  0.00  0.00    -0.549 OA
ENDBRANCH  38  47
ENDBRANCH  27  30
ENDBRANCH  26  27
ENDBRANCH   5  26
BRANCH   1  50
ATOM     50  C   LIG d   1       3.355   1.395  -2.281  0.00  0.00    -0.040 C 
ATOM     51  H   LIG d   1       3.351   2.310  -2.872  0.00  0.00     0.028 H 
ATOM     52  H   LIG d   1       2.342   0.999  -2.216  0.00  0.00     0.028 H 
ATOM     53  H   LIG d   1       3.727   1.611  -1.279  0.00  0.00     0.028 H 
ENDBRANCH   1  50
TORSDOF 5
ENDMDL
MODEL 6
REMARK VINA RESULT:      -6.9      3.721      8.312
REMARK  5 active torsions:
REMARK  status: ('A' for Active; 'I' for Inactive)
REMARK    1  A    between atoms: C_1  and  C_2 
REMARK    2  A    between atoms: C_6  and  O_8 
REMARK    3  A    between atoms: O_8  and  C_9 
REMARK    4  A    between atoms: C_9  and  C_10 
REMARK       I    between atoms: C_10  and  N_12 
REMARK    5  A    between atoms: C_15  and  C_18 
ROOT
ATOM      1  C   LIG d   1       8.783   1.988  -5.618  0.00  0.00    -0.043 A 
ATOM      2  C   LIG d   1       8.069   2.347  -4.492  0.00  0.00    -0.015 A 
ATOM      3  C   LIG d   1       7.110   1.488  -3.975  0.00  0.00     0.143 A 
ATOM      4  C   LIG d   1       6.874   0.254  -4.603  0.00  0.00     0.063 A 
ATOM      5  C   LIG d   1       7.605  -0.101  -5.747  0.00  0.00     0.132 A 
ATOM      6  C   LIG d   1       8.551   0.777  -6.247  0.00  0.00    -0.016 A 
ATOM      7  C   LIG d   1       5.861  -0.652  -4.049  0.00  0.00    -0.023 A 
ATOM      8  C   LIG d   1       5.187  -0.261  -2.945  0.00  0.00     0.041 A 
ATOM      9  C   LIG d   1       5.471   1.002  -2.369  0.00  0.00     0.341 A 
ATOM     10  O   LIG d   1       4.850   1.353  -1.382  0.00  0.00    -0.245 OA
ATOM     11  O   LIG d   1       6.401   1.824  -2.876  0.00  0.00    -0.422 OA
ATOM     12  C   LIG d   1       4.142  -1.121  -2.284  0.00  0.00    -0.021 C 
ATOM     13  C   LIG d   1       3.654  -2.207  -3.239  0.00  0.00    -0.049 C 
ATOM     14  C   LIG d   1       4.878  -2.931  -3.813  0.00  0.00    -0.049 C 
ATOM     15  C   LIG d   1       5.616  -1.966  -4.739  0.00  0.00    -0.026 C 
ATOM     16  H   LIG d   1       8.257   3.297  -4.013  0.00  0.00     0.066 H 
ATOM     17  H   LIG d   1       9.115   0.513  -7.130  0.00  0.00     0.066 H 
ATOM     18  H   LIG d   1       4.570  -1.587  -1.397  0.00  0.00     0.032 H 
ATOM     19  H   LIG d   1       3.298  -0.496  -1.990  0.00  0.00     0.032 H 
ATOM     20  H   LIG d   1       3.027  -2.916  -2.700  0.00  0.00     0.027 H 
ATOM     21  H   LIG d   1       3.083  -1.755  -4.050  0.00  0.00     0.027 H 
ATOM     22  H   LIG d   1       5.538  -3.238  -3.001  0.00  0.00     0.027 H 
ATOM     23  H   LIG d   1       4.556  -3.807  -4.377  0.00  0.00     0.027 H 
ATOM     24  H   LIG d   1       5.016  -1.796  -5.633  0.00  0.00     0.031 H 
ATOM     25  H   LIG d   1       6.572  -2.403  -5.026  0.00  0.00     0.031 H 
ENDROOT
BRANCH   5  26
ATOM     26  O   LIG d   1       7.383  -1.291  -6.360  0.00  0.00    -0.482 OA
BRANCH  26  27
ATOM     27  C   LIG d   1       8.497  -1.903  -7.013  0.00  0.00     0.165 C 
ATOM     28  H   LIG d   1       8.244  -2.104  -8.054  0.00  0.00     0.080 H 
ATOM     29  H   LIG d   1       9.355  -1.231  -6.973  0.00  0.00     0.080 H 
BRANCH  27  30
ATOM     30  C   LIG d   1       8.838  -3.196  -6.320  0.00  0.00     0.253 C 
ATOM     31  O   LIG d   1       9.749  -3.233  -5.520  0.00  0.00    -0.272 OA
ATOM     32  N   LIG d   1       8.131  -4.312  -6.589  0.00  0.00    -0.299 N 
ATOM     33  C   LIG d   1       8.452  -5.580  -5.920  0.00  0.00     0.015 C 
ATOM     34  C   LIG d   1       7.030  -4.283  -7.560  0.00  0.00     0.015 C 
ATOM     35  C   LIG d   1       7.172  -6.125  -5.267  0.00  0.00    -0.029 C 
ATOM     36  H   LIG d   1       8.824  -6.295  -6.654  0.00  0.00     0.046 H 
ATOM     37  H   LIG d   1       9.210  -5.410  -5.156  0.00  0.00     0.046 H 
ATOM     38  C   LIG d   1       6.072  -6.233  -6.326  0.00  0.00     0.001 C 
ATOM     39  H   LIG d   1       6.850  -5.450  -4.475  0.00  0.00     0.029 H 
ATOM     40  H   LIG d   1       7.372  -7.111  -4.847  0.00  0.00     0.029 H 
ATOM     41  C   LIG d   1       5.770  -4.844  -6.892  0.00  0.00    -0.029 C 
ATOM     42  H   LIG d   1       6.406  -6.889  -7.130  0.00  0.00     0.036 H 
ATOM     43  H   LIG d   1       5.460  -4.181  -6.084  0.00  0.00     0.029 H 
ATOM     44  H   LIG d   1       4.970  -4.919  -7.629  0.00  0.00     0.029 H 
ATOM     45  H   LIG d   1       6.849  -3.256  -7.877  0.00  0.00     0.046 H 
ATOM     46  H   LIG d   1       7.288  -4.895  -8.424  0.00  0.00     0.046 H 
BRANCH  38  47
ATOM     47  C   LIG d   1       4.826  -6.802  -5.698  0.00  0.00     0.045 C 
ATOM     48  O   LIG d   1       4.585  -7.994  -5.793  0.00  0.00    -0.549 OA
ATOM     49  O   LIG d   1       4.059  -6.071  -5.095  0.00  0.00    -0.549 OA
ENDBRANCH  38  47
ENDBRANCH  27  30
ENDBRANCH  26  27
ENDBRANCH   5  26
BRANCH   1  50
ATOM     50  C   LIG d   1       9.822   2.929  -6.172  0.00  0.00    -0.040 C 
ATOM     51  H   LIG d   1       9.331   3.803  -6.599  0.00  0.00     0.028 H 
ATOM     52  H   LIG d   1      10.492   3.243  -5.371  0.00  0.00     0.028 H 
ATOM     53  H   LIG d   1      10.396   2.420  -6.947  0.00  0.00     0.028 H 
ENDBRANCH   1  50
TORSDOF 5
ENDMDL
MODEL 7
REMARK VINA RESULT:      -6.9      6.028      9.874
REMARK  5 active torsions:
REMARK  status: ('A' for Active; 'I' for Inactive)
REMARK    1  A    between atoms: C_1  and  C_2 
REMARK    2  A    between atoms: C_6  and  O_8 
REMARK    3  A    between atoms: O_8  and  C_9 
REMARK    4  A    between atoms: C_9  and  C_10 
REMARK       I    between atoms: C_10  and  N_12 
REMARK    5  A    between atoms: C_15  and  C_18 
ROOT
ATOM      1  C   LIG d   1       3.166  -0.696  -8.926  0.00  0.00    -0.043 A 
ATOM      2  C   LIG d   1       2.831   0.307  -8.038  0.00  0.00    -0.015 A 
ATOM      3  C   LIG d   1       3.155   0.183  -6.695  0.00  0.00     0.143 A 
ATOM      4  C   LIG d   1       3.828  -0.966  -6.247  0.00  0.00     0.063 A 
ATOM      5  C   LIG d   1       4.164  -1.980  -7.158  0.00  0.00     0.132 A 
ATOM      6  C   LIG d   1       3.822  -1.836  -8.492  0.00  0.00    -0.016 A 
ATOM      7  C   LIG d   1       4.172  -1.090  -4.826  0.00  0.00    -0.023 A 
ATOM      8  C   LIG d   1       3.827  -0.083  -3.994  0.00  0.00     0.041 A 
ATOM      9  C   LIG d   1       3.140   1.044  -4.513  0.00  0.00     0.341 A 
ATOM     10  O   LIG d   1       2.820   1.940  -3.754  0.00  0.00    -0.245 OA
ATOM     11  O   LIG d   1       2.833   1.153  -5.813  0.00  0.00    -0.422 OA
ATOM     12  C   LIG d   1       4.148  -0.098  -2.523  0.00  0.00    -0.021 C 
ATOM     13  C   LIG d   1       4.474  -1.515  -2.057  0.00  0.00    -0.049 C 
ATOM     14  C   LIG d   1       5.532  -2.102  -2.999  0.00  0.00    -0.049 C 
ATOM     15  C   LIG d   1       4.886  -2.330  -4.364  0.00  0.00    -0.026 C 
ATOM     16  H   LIG d   1       2.314   1.188  -8.390  0.00  0.00     0.066 H 
ATOM     17  H   LIG d   1       4.073  -2.613  -9.198  0.00  0.00     0.066 H 
ATOM     18  H   LIG d   1       5.005   0.548  -2.336  0.00  0.00     0.032 H 
ATOM     19  H   LIG d   1       3.289   0.275  -1.964  0.00  0.00     0.032 H 
ATOM     20  H   LIG d   1       4.863  -1.487  -1.039  0.00  0.00     0.027 H 
ATOM     21  H   LIG d   1       3.574  -2.129  -2.089  0.00  0.00     0.027 H 
ATOM     22  H   LIG d   1       6.364  -1.404  -3.098  0.00  0.00     0.027 H 
ATOM     23  H   LIG d   1       5.893  -3.050  -2.600  0.00  0.00     0.027 H 
ATOM     24  H   LIG d   1       4.170  -3.150  -4.291  0.00  0.00     0.031 H 
ATOM     25  H   LIG d   1       5.657  -2.591  -5.088  0.00  0.00     0.031 H 
ENDROOT
BRANCH   5  26
ATOM     26  O   LIG d   1       4.813  -3.093  -6.734  0.00  0.00    -0.482 OA
BRANCH  26  27
ATOM     27  C   LIG d   1       5.548  -3.829  -7.714  0.00  0.00     0.165 C 
ATOM     28  H   LIG d   1       4.877  -4.511  -8.236  0.00  0.00     0.080 H 
ATOM     29  H   LIG d   1       5.991  -3.137  -8.431  0.00  0.00     0.080 H 
BRANCH  27  30
ATOM     30  C   LIG d   1       6.639  -4.618  -7.038  0.00  0.00     0.253 C 
ATOM     31  O   LIG d   1       7.632  -4.054  -6.631  0.00  0.00    -0.272 OA
ATOM     32  N   LIG d   1       6.510  -5.951  -6.884  0.00  0.00    -0.299 N 
ATOM     33  C   LIG d   1       7.566  -6.734  -6.226  0.00  0.00     0.015 C 
ATOM     34  C   LIG d   1       5.316  -6.649  -7.377  0.00  0.00     0.015 C 
ATOM     35  C   LIG d   1       6.932  -7.545  -5.085  0.00  0.00    -0.029 C 
ATOM     36  H   LIG d   1       8.023  -7.410  -6.949  0.00  0.00     0.046 H 
ATOM     37  H   LIG d   1       8.322  -6.061  -5.822  0.00  0.00     0.046 H 
ATOM     38  C   LIG d   1       5.781  -8.386  -5.642  0.00  0.00     0.001 C 
ATOM     39  H   LIG d   1       6.552  -6.867  -4.322  0.00  0.00     0.029 H 
ATOM     40  H   LIG d   1       7.684  -8.201  -4.647  0.00  0.00     0.029 H 
ATOM     41  C   LIG d   1       4.711  -7.462  -6.228  0.00  0.00    -0.029 C 
ATOM     42  H   LIG d   1       6.159  -9.046  -6.423  0.00  0.00     0.036 H 
ATOM     43  H   LIG d   1       4.351  -6.785  -5.453  0.00  0.00     0.029 H 
ATOM     44  H   LIG d   1       3.880  -8.061  -6.603  0.00  0.00     0.029 H 
ATOM     45  H   LIG d   1       4.587  -5.921  -7.733  0.00  0.00     0.046 H 
ATOM     46  H   LIG d   1       5.593  -7.319  -8.191  0.00  0.00     0.046 H 
BRANCH  38  47
ATOM     47  C   LIG d   1       5.181  -9.211  -4.533  0.00  0.00     0.045 C 
ATOM     48  O   LIG d   1       5.901  -9.701  -3.680  0.00  0.00    -0.549 OA
ATOM     49  O   LIG d   1       3.976  -9.388  -4.489  0.00  0.00    -0.549 OA
ENDBRANCH  38  47
ENDBRANCH  27  30
ENDBRANCH  26  27
ENDBRANCH   5  26
BRANCH   1  50
ATOM     50  C   LIG d   1       2.807  -0.552 -10.383  0.00  0.00    -0.040 C 
ATOM     51  H   LIG d   1       1.911  -1.133 -10.595  0.00  0.00     0.028 H 
ATOM     52  H   LIG d   1       2.623   0.498 -10.609  0.00  0.00     0.028 H 
ATOM     53  H   LIG d   1       3.631  -0.918 -10.997  0.00  0.00     0.028 H 
ENDBRANCH   1  50
TORSDOF 5
ENDMDL
MODEL 8
REMARK VINA RESULT:      -6.7      3.971      7.201
REMARK  5 active torsions:
REMARK  status: ('A' for Active; 'I' for Inactive)
REMARK    1  A    between atoms: C_1  and  C_2 
REMARK    2  A    between atoms: C_6  and  O_8 
REMARK    3  A    between atoms: O_8  and  C_9 
REMARK    4  A    between atoms: C_9  and  C_10 
REMARK       I    between atoms: C_10  and  N_12 
REMARK    5  A    between atoms: C_15  and  C_18 
ROOT
ATOM      1  C   LIG d   1       8.879   1.826  -5.445  0.00  0.00    -0.043 A 
ATOM      2  C   LIG d   1       8.100   2.216  -4.374  0.00  0.00    -0.015 A 
ATOM      3  C   LIG d   1       7.122   1.366  -3.881  0.00  0.00     0.143 A 
ATOM      4  C   LIG d   1       6.931   0.108  -4.477  0.00  0.00     0.063 A 
ATOM      5  C   LIG d   1       7.728  -0.279  -5.565  0.00  0.00     0.132 A 
ATOM      6  C   LIG d   1       8.693   0.591  -6.043  0.00  0.00    -0.016 A 
ATOM      7  C   LIG d   1       5.897  -0.789  -3.949  0.00  0.00    -0.023 A 
ATOM      8  C   LIG d   1       5.160  -0.367  -2.897  0.00  0.00     0.041 A 
ATOM      9  C   LIG d   1       5.400   0.919  -2.352  0.00  0.00     0.341 A 
ATOM     10  O   LIG d   1       4.721   1.297  -1.414  0.00  0.00    -0.245 OA
ATOM     11  O   LIG d   1       6.349   1.732  -2.836  0.00  0.00    -0.422 OA
ATOM     12  C   LIG d   1       4.087  -1.214  -2.266  0.00  0.00    -0.021 C 
ATOM     13  C   LIG d   1       3.662  -2.339  -3.207  0.00  0.00    -0.049 C 
ATOM     14  C   LIG d   1       4.923  -3.069  -3.686  0.00  0.00    -0.049 C 
ATOM     15  C   LIG d   1       5.703  -2.129  -4.604  0.00  0.00    -0.026 C 
ATOM     16  H   LIG d   1       8.253   3.185  -3.920  0.00  0.00     0.066 H 
ATOM     17  H   LIG d   1       9.308   0.303  -6.883  0.00  0.00     0.066 H 
ATOM     18  H   LIG d   1       4.468  -1.645  -1.340  0.00  0.00     0.032 H 
ATOM     19  H   LIG d   1       3.222  -0.589  -2.041  0.00  0.00     0.032 H 
ATOM     20  H   LIG d   1       3.012  -3.035  -2.679  0.00  0.00     0.027 H 
ATOM     21  H   LIG d   1       3.133  -1.921  -4.064  0.00  0.00     0.027 H 
ATOM     22  H   LIG d   1       5.539  -3.340  -2.828  0.00  0.00     0.027 H 
ATOM     23  H   LIG d   1       4.641  -3.967  -4.235  0.00  0.00     0.027 H 
ATOM     24  H   LIG d   1       5.152  -1.997  -5.535  0.00  0.00     0.031 H 
ATOM     25  H   LIG d   1       6.677  -2.565  -4.822  0.00  0.00     0.031 H 
ENDROOT
BRANCH   5  26
ATOM     26  O   LIG d   1       7.551  -1.492  -6.147  0.00  0.00    -0.482 OA
BRANCH  26  27
ATOM     27  C   LIG d   1       8.110  -1.675  -7.450  0.00  0.00     0.165 C 
ATOM     28  H   LIG d   1       8.402  -0.708  -7.860  0.00  0.00     0.080 H 
ATOM     29  H   LIG d   1       8.986  -2.319  -7.381  0.00  0.00     0.080 H 
BRANCH  27  30
ATOM     30  C   LIG d   1       7.086  -2.313  -8.351  0.00  0.00     0.253 C 
ATOM     31  O   LIG d   1       7.007  -3.521  -8.420  0.00  0.00    -0.272 OA
ATOM     32  N   LIG d   1       6.256  -1.541  -9.082  0.00  0.00    -0.299 N 
ATOM     33  C   LIG d   1       5.252  -2.150  -9.966  0.00  0.00     0.015 C 
ATOM     34  C   LIG d   1       6.344  -0.077  -9.015  0.00  0.00     0.015 C 
ATOM     35  C   LIG d   1       3.876  -1.564  -9.616  0.00  0.00    -0.029 C 
ATOM     36  H   LIG d   1       5.495  -1.924 -11.004  0.00  0.00     0.046 H 
ATOM     37  H   LIG d   1       5.240  -3.230  -9.817  0.00  0.00     0.046 H 
ATOM     38  C   LIG d   1       3.941  -0.038  -9.697  0.00  0.00     0.001 C 
ATOM     39  H   LIG d   1       3.597  -1.864  -8.606  0.00  0.00     0.029 H 
ATOM     40  H   LIG d   1       3.134  -1.935 -10.323  0.00  0.00     0.029 H 
ATOM     41  C   LIG d   1       4.959   0.485  -8.680  0.00  0.00    -0.029 C 
ATOM     42  H   LIG d   1       4.244   0.260 -10.701  0.00  0.00     0.036 H 
ATOM     43  H   LIG d   1       4.669   0.166  -7.678  0.00  0.00     0.029 H 
ATOM     44  H   LIG d   1       4.988   1.574  -8.722  0.00  0.00     0.029 H 
ATOM     45  H   LIG d   1       7.053   0.212  -8.239  0.00  0.00     0.046 H 
ATOM     46  H   LIG d   1       6.674   0.314  -9.977  0.00  0.00     0.046 H 
BRANCH  38  47
ATOM     47  C   LIG d   1       2.583   0.540  -9.390  0.00  0.00     0.045 C 
ATOM     48  O   LIG d   1       2.489   1.661  -8.921  0.00  0.00    -0.549 OA
ATOM     49  O   LIG d   1       1.579  -0.115  -9.611  0.00  0.00    -0.549 OA
ENDBRANCH  38  47
ENDBRANCH  27  30
ENDBRANCH  26  27
ENDBRANCH   5  26
BRANCH   1  50
ATOM     50  C   LIG d   1       9.939   2.758  -5.974  0.00  0.00    -0.040 C 
ATOM     51  H   LIG d   1      10.856   2.628  -5.401  0.00  0.00     0.028 H 
ATOM     52  H   LIG d   1      10.131   2.533  -7.023  0.00  0.00     0.028 H 
ATOM     53  H   LIG d   1       9.595   3.788  -5.881  0.00  0.00     0.028 H 
ENDBRANCH   1  50
TORSDOF 5
ENDMDL
MODEL 9
REMARK VINA RESULT:      -6.7      5.596      7.793
REMARK  5 active torsions:
REMARK  status: ('A' for Active; 'I' for Inactive)
REMARK    1  A    between atoms: C_1  and  C_2 
REMARK    2  A    between atoms: C_6  and  O_8 
REMARK    3  A    between atoms: O_8  and  C_9 
REMARK    4  A    between atoms: C_9  and  C_10 
REMARK       I    between atoms: C_10  and  N_12 
REMARK    5  A    between atoms: C_15  and  C_18 
ROOT
ATOM      1  C   LIG d   1       3.053  -0.539  -8.983  0.00  0.00    -0.043 A 
ATOM      2  C   LIG d   1       2.735   0.419  -8.041  0.00  0.00    -0.015 A 
ATOM      3  C   LIG d   1       3.119   0.249  -6.719  0.00  0.00     0.143 A 
ATOM      4  C   LIG d   1       3.834  -0.903  -6.348  0.00  0.00     0.063 A 
ATOM      5  C   LIG d   1       4.152  -1.871  -7.313  0.00  0.00     0.132 A 
ATOM      6  C   LIG d   1       3.751  -1.680  -8.624  0.00  0.00    -0.016 A 
ATOM      7  C   LIG d   1       4.241  -1.076  -4.948  0.00  0.00    -0.023 A 
ATOM      8  C   LIG d   1       3.910  -0.112  -4.061  0.00  0.00     0.041 A 
ATOM      9  C   LIG d   1       3.179   1.019  -4.504  0.00  0.00     0.341 A 
ATOM     10  O   LIG d   1       2.872   1.876  -3.696  0.00  0.00    -0.245 OA
ATOM     11  O   LIG d   1       2.815   1.174  -5.785  0.00  0.00    -0.422 OA
ATOM     12  C   LIG d   1       4.294  -0.180  -2.607  0.00  0.00    -0.021 C 
ATOM     13  C   LIG d   1       4.669  -1.607  -2.214  0.00  0.00    -0.049 C 
ATOM     14  C   LIG d   1       5.698  -2.131  -3.223  0.00  0.00    -0.049 C 
ATOM     15  C   LIG d   1       4.999  -2.318  -4.568  0.00  0.00    -0.026 C 
ATOM     16  H   LIG d   1       2.186   1.303  -8.334  0.00  0.00     0.066 H 
ATOM     17  H   LIG d   1       3.988  -2.423  -9.372  0.00  0.00     0.066 H 
ATOM     18  H   LIG d   1       5.145   0.477  -2.429  0.00  0.00     0.032 H 
ATOM     19  H   LIG d   1       3.452   0.151  -1.998  0.00  0.00     0.032 H 
ATOM     20  H   LIG d   1       5.099  -1.612  -1.213  0.00  0.00     0.027 H 
ATOM     21  H   LIG d   1       3.781  -2.239  -2.234  0.00  0.00     0.027 H 
ATOM     22  H   LIG d   1       6.510  -1.411  -3.327  0.00  0.00     0.027 H 
ATOM     23  H   LIG d   1       6.095  -3.086  -2.879  0.00  0.00     0.027 H 
ATOM     24  H   LIG d   1       4.305  -3.156  -4.499  0.00  0.00     0.031 H 
ATOM     25  H   LIG d   1       5.744  -2.531  -5.334  0.00  0.00     0.031 H 
ENDROOT
BRANCH   5  26
ATOM     26  O   LIG d   1       4.842  -2.986  -6.962  0.00  0.00    -0.482 OA
BRANCH  26  27
ATOM     27  C   LIG d   1       5.889  -3.404  -7.841  0.00  0.00     0.165 C 
ATOM     28  H   LIG d   1       5.956  -4.492  -7.835  0.00  0.00     0.080 H 
ATOM     29  H   LIG d   1       5.672  -3.061  -8.853  0.00  0.00     0.080 H 
BRANCH  27  30
ATOM     30  C   LIG d   1       7.197  -2.817  -7.380  0.00  0.00     0.253 C 
ATOM     31  O   LIG d   1       7.470  -1.665  -7.642  0.00  0.00    -0.272 OA
ATOM     32  N   LIG d   1       8.064  -3.572  -6.677  0.00  0.00    -0.299 N 
ATOM     33  C   LIG d   1       9.345  -3.012  -6.221  0.00  0.00     0.015 C 
ATOM     34  C   LIG d   1       7.751  -4.971  -6.359  0.00  0.00     0.015 C 
ATOM     35  C   LIG d   1       9.462  -3.237  -4.706  0.00  0.00    -0.029 C 
ATOM     36  H   LIG d   1      10.165  -3.515  -6.733  0.00  0.00     0.046 H 
ATOM     37  H   LIG d   1       9.375  -1.945  -6.437  0.00  0.00     0.046 H 
ATOM     38  C   LIG d   1       9.283  -4.726  -4.401  0.00  0.00     0.001 C 
ATOM     39  H   LIG d   1       8.693  -2.664  -4.190  0.00  0.00     0.029 H 
ATOM     40  H   LIG d   1      10.446  -2.912  -4.367  0.00  0.00     0.029 H 
ATOM     41  C   LIG d   1       7.889  -5.175  -4.847  0.00  0.00    -0.029 C 
ATOM     42  H   LIG d   1      10.039  -5.300  -4.938  0.00  0.00     0.036 H 
ATOM     43  H   LIG d   1       7.134  -4.584  -4.329  0.00  0.00     0.029 H 
ATOM     44  H   LIG d   1       7.754  -6.230  -4.608  0.00  0.00     0.029 H 
ATOM     45  H   LIG d   1       6.729  -5.195  -6.666  0.00  0.00     0.046 H 
ATOM     46  H   LIG d   1       8.444  -5.629  -6.881  0.00  0.00     0.046 H 
BRANCH  38  47
ATOM     47  C   LIG d   1       9.435  -4.957  -2.919  0.00  0.00     0.045 C 
ATOM     48  O   LIG d   1       9.483  -6.093  -2.481  0.00  0.00    -0.549 OA
ATOM     49  O   LIG d   1       9.510  -4.007  -2.159  0.00  0.00    -0.549 OA
ENDBRANCH  38  47
ENDBRANCH  27  30
ENDBRANCH  26  27
ENDBRANCH   5  26
BRANCH   1  50
ATOM     50  C   LIG d   1       2.631  -0.344 -10.416  0.00  0.00    -0.040 C 
ATOM     51  H   LIG d   1       1.833  -1.046 -10.658  0.00  0.00     0.028 H 
ATOM     52  H   LIG d   1       2.272   0.676 -10.554  0.00  0.00     0.028 H 
ATOM     53  H   LIG d   1       3.483  -0.522 -11.073  0.00  0.00     0.028 H 
ENDBRANCH   1  50
TORSDOF 5
ENDMDL
MODEL 10
REMARK VINA RESULT:      -6.7      6.126     10.846
REMARK  5 active torsions:
REMARK  status: ('A' for Active; 'I' for Inactive)
REMARK    1  A    between atoms: C_1  and  C_2 
REMARK    2  A    between atoms: C_6  and  O_8 
REMARK    3  A    between atoms: O_8  and  C_9 
REMARK    4  A    between atoms: C_9  and  C_10 
REMARK       I    between atoms: C_10  and  N_12 
REMARK    5  A    between atoms: C_15  and  C_18 
ROOT
ATOM      1  C   LIG d   1       3.065  -0.771  -8.803  0.00  0.00    -0.043 A 
ATOM      2  C   LIG d   1       2.772   0.284  -7.961  0.00  0.00    -0.015 A 
ATOM      3  C   LIG d   1       3.107   0.213  -6.616  0.00  0.00     0.143 A 
ATOM      4  C   LIG d   1       3.745  -0.937  -6.121  0.00  0.00     0.063 A 
ATOM      5  C   LIG d   1       4.038  -2.002  -6.985  0.00  0.00     0.132 A 
ATOM      6  C   LIG d   1       3.688  -1.910  -8.321  0.00  0.00    -0.016 A 
ATOM      7  C   LIG d   1       4.099  -1.005  -4.698  0.00  0.00    -0.023 A 
ATOM      8  C   LIG d   1       3.796   0.051  -3.911  0.00  0.00     0.041 A 
ATOM      9  C   LIG d   1       3.142   1.174  -4.477  0.00  0.00     0.341 A 
ATOM     10  O   LIG d   1       2.859   2.115  -3.758  0.00  0.00    -0.245 OA
ATOM     11  O   LIG d   1       2.825   1.233  -5.778  0.00  0.00    -0.422 OA
ATOM     12  C   LIG d   1       4.131   0.093  -2.444  0.00  0.00    -0.021 C 
ATOM     13  C   LIG d   1       4.415  -1.311  -1.914  0.00  0.00    -0.049 C 
ATOM     14  C   LIG d   1       5.443  -1.976  -2.837  0.00  0.00    -0.049 C 
ATOM     15  C   LIG d   1       4.776  -2.246  -4.184  0.00  0.00    -0.026 C 
ATOM     16  H   LIG d   1       2.282   1.165  -8.349  0.00  0.00     0.066 H 
ATOM     17  H   LIG d   1       3.906  -2.727  -8.992  0.00  0.00     0.066 H 
ATOM     18  H   LIG d   1       5.012   0.718  -2.295  0.00  0.00     0.032 H 
ATOM     19  H   LIG d   1       3.291   0.520  -1.896  0.00  0.00     0.032 H 
ATOM     20  H   LIG d   1       4.814  -1.248  -0.903  0.00  0.00     0.027 H 
ATOM     21  H   LIG d   1       3.495  -1.895  -1.910  0.00  0.00     0.027 H 
ATOM     22  H   LIG d   1       6.297  -1.312  -2.976  0.00  0.00     0.027 H 
ATOM     23  H   LIG d   1       5.777  -2.916  -2.397  0.00  0.00     0.027 H 
ATOM     24  H   LIG d   1       4.035  -3.037  -4.066  0.00  0.00     0.031 H 
ATOM     25  H   LIG d   1       5.531  -2.566  -4.902  0.00  0.00     0.031 H 
ENDROOT
BRANCH   5  26
ATOM     26  O   LIG d   1       4.654  -3.116  -6.515  0.00  0.00    -0.482 OA
BRANCH  26  27
ATOM     27  C   LIG d   1       4.476  -4.322  -7.262  0.00  0.00     0.165 C 
ATOM     28  H   LIG d   1       3.533  -4.276  -7.807  0.00  0.00     0.080 H 
ATOM     29  H   LIG d   1       5.297  -4.435  -7.969  0.00  0.00     0.080 H 
BRANCH  27  30
ATOM     30  C   LIG d   1       4.456  -5.498  -6.321  0.00  0.00     0.253 C 
ATOM     31  O   LIG d   1       3.825  -5.437  -5.287  0.00  0.00    -0.272 OA
ATOM     32  N   LIG d   1       5.139  -6.618  -6.628  0.00  0.00    -0.299 N 
ATOM     33  C   LIG d   1       5.130  -7.773  -5.719  0.00  0.00     0.015 C 
ATOM     34  C   LIG d   1       5.914  -6.705  -7.873  0.00  0.00     0.015 C 
ATOM     35  C   LIG d   1       4.695  -9.015  -6.514  0.00  0.00    -0.029 C 
ATOM     36  H   LIG d   1       6.129  -7.927  -5.314  0.00  0.00     0.046 H 
ATOM     37  H   LIG d   1       4.426  -7.594  -4.906  0.00  0.00     0.046 H 
ATOM     38  C   LIG d   1       5.608  -9.180  -7.731  0.00  0.00     0.001 C 
ATOM     39  H   LIG d   1       3.664  -8.895  -6.846  0.00  0.00     0.029 H 
ATOM     40  H   LIG d   1       4.772  -9.897  -5.879  0.00  0.00     0.029 H 
ATOM     41  C   LIG d   1       5.475  -7.956  -8.640  0.00  0.00    -0.029 C 
ATOM     42  H   LIG d   1       6.642  -9.275  -7.399  0.00  0.00     0.036 H 
ATOM     43  H   LIG d   1       4.436  -7.846  -8.953  0.00  0.00     0.029 H 
ATOM     44  H   LIG d   1       6.108  -8.086  -9.518  0.00  0.00     0.029 H 
ATOM     45  H   LIG d   1       5.728  -5.819  -8.481  0.00  0.00     0.046 H 
ATOM     46  H   LIG d   1       6.976  -6.774  -7.639  0.00  0.00     0.046 H 
BRANCH  38  47
ATOM     47  C   LIG d   1       5.209 -10.418  -8.493  0.00  0.00     0.045 C 
ATOM     48  O   LIG d   1       6.066 -11.145  -8.966  0.00  0.00    -0.549 OA
ATOM     49  O   LIG d   1       4.030 -10.692  -8.636  0.00  0.00    -0.549 OA
ENDBRANCH  38  47
ENDBRANCH  27  30
ENDBRANCH  26  27
ENDBRANCH   5  26
BRANCH   1  50
ATOM     50  C   LIG d   1       2.697  -0.683 -10.262  0.00  0.00    -0.040 C 
ATOM     51  H   LIG d   1       1.615  -0.604 -10.359  0.00  0.00     0.028 H 
ATOM     52  H   LIG d   1       3.167   0.196 -10.703  0.00  0.00     0.028 H 
ATOM     53  H   LIG d   1       3.045  -1.578 -10.778  0.00  0.00     0.028 H 
ENDBRANCH   1  50
TORSDOF 5
ENDMDL
