MODEL 1
REMARK VINA RESULT:      -7.1      0.000      0.000
REMARK  6 active torsions:
REMARK  status: ('A' for Active; 'I' for Inactive)
REMARK    1  A    between atoms: C_3  and  C_7 
REMARK    2  A    between atoms: C_13  and  C_14 
REMARK    3  A    between atoms: C_13  and  N_53 
REMARK    4  A    between atoms: C_14  and  C_15 
REMARK       I    between atoms: C_15  and  N_17 
REMARK    5  A    between atoms: N_17  and  C_18 
REMARK    6  A    between atoms: C_18  and  N_55 
ROOT
ATOM      1  C   LIG d   1       3.955  -2.129  -8.697  0.00  0.00    -0.023 C 
ATOM      2  H   LIG d   1       4.770  -2.218  -9.416  0.00  0.00     0.082 H 
ATOM      3  H   LIG d   1       4.075  -1.208  -8.125  0.00  0.00     0.082 H 
ENDROOT
BRANCH   1   4
ATOM      4  C   LIG d   1       3.980  -3.327  -7.746  0.00  0.00     0.064 C 
ATOM      5  H   LIG d   1       2.959  -3.616  -7.498  0.00  0.00     0.041 H 
ATOM      6  H   LIG d   1       4.487  -4.163  -8.229  0.00  0.00     0.041 H 
BRANCH   4   7
ATOM      7  C   LIG d   1       4.718  -2.954  -6.486  0.00  0.00     0.222 C 
ATOM      8  O   LIG d   1       5.797  -2.405  -6.556  0.00  0.00    -0.276 OA
ATOM      9  N   LIG d   1       4.178  -3.230  -5.283  0.00  0.00    -0.277 N 
ATOM     10  H   LIG d   1       3.315  -3.668  -5.227  0.00  0.00     0.154 HD
BRANCH   9  11
ATOM     11  C   LIG d   1       4.896  -2.866  -4.058  0.00  0.00     0.038 C 
ATOM     12  H   LIG d   1       4.540  -3.483  -3.232  0.00  0.00     0.104 H 
ATOM     13  H   LIG d   1       5.964  -3.030  -4.201  0.00  0.00     0.104 H 
BRANCH  11  14
ATOM     14  N   LIG d   1       4.626  -1.446  -3.757  0.00  0.00     0.249 N 
ATOM     15  C   LIG d   1       5.793  -0.841  -3.082  0.00  0.00    -0.030 C 
ATOM     16  C   LIG d   1       5.537   0.655  -2.888  0.00  0.00    -0.012 C 
ATOM     17  H   LIG d   1       5.958  -1.310  -2.111  0.00  0.00     0.082 H 
ATOM     18  H   LIG d   1       6.675  -0.980  -3.706  0.00  0.00     0.082 H 
ATOM     19  C   LIG d   1       4.286   0.846  -2.027  0.00  0.00    -0.043 C 
ATOM     20  H   LIG d   1       5.385   1.127  -3.859  0.00  0.00     0.032 H 
ATOM     21  H   LIG d   1       6.393   1.111  -2.392  0.00  0.00     0.032 H 
ATOM     22  C   LIG d   1       3.100   0.153  -2.702  0.00  0.00    -0.012 C 
ATOM     23  H   LIG d   1       4.074   1.911  -1.923  0.00  0.00     0.027 H 
ATOM     24  H   LIG d   1       4.451   0.409  -1.042  0.00  0.00     0.027 H 
ATOM     25  C   LIG d   1       3.427  -1.330  -2.900  0.00  0.00    -0.030 C 
ATOM     26  H   LIG d   1       2.909   0.616  -3.671  0.00  0.00     0.032 H 
ATOM     27  H   LIG d   1       2.214   0.249  -2.073  0.00  0.00     0.032 H 
ATOM     28  H   LIG d   1       2.590  -1.823  -3.394  0.00  0.00     0.082 H 
ATOM     29  H   LIG d   1       3.603  -1.796  -1.931  0.00  0.00     0.082 H 
ATOM     30  H   LIG d   1       4.456  -0.945  -4.638  0.00  0.00     0.205 HD
ENDBRANCH  11  14
ENDBRANCH   9  11
ENDBRANCH   4   7
ENDBRANCH   1   4
BRANCH   1  31
ATOM     31  N   LIG d   1       2.675  -2.075  -9.432  0.00  0.00     0.241 N 
ATOM     32  C   LIG d   1       2.784  -1.141 -10.571  0.00  0.00     0.006 C 
ATOM     33  H   LIG d   1       3.511  -1.505 -11.296  0.00  0.00     0.090 H 
ATOM     34  C   LIG d   1       1.414  -1.013 -11.243  0.00  0.00    -0.005 C 
ATOM     35  C   LIG d   1       0.968  -2.389 -11.745  0.00  0.00    -0.043 C 
ATOM     36  H   LIG d   1       1.484  -0.324 -12.084  0.00  0.00     0.032 H 
ATOM     37  H   LIG d   1       0.690  -0.635 -10.521  0.00  0.00     0.032 H 
ATOM     38  C   LIG d   1       0.929  -3.365 -10.566  0.00  0.00    -0.012 C 
ATOM     39  H   LIG d   1       1.672  -2.749 -12.494  0.00  0.00     0.027 H 
ATOM     40  H   LIG d   1      -0.027  -2.311 -12.185  0.00  0.00     0.027 H 
ATOM     41  C   LIG d   1       2.313  -3.425  -9.914  0.00  0.00    -0.031 C 
ATOM     42  H   LIG d   1       0.653  -4.357 -10.924  0.00  0.00     0.032 H 
ATOM     43  H   LIG d   1       0.197  -3.025  -9.834  0.00  0.00     0.032 H 
ATOM     44  H   LIG d   1       3.043  -3.779 -10.643  0.00  0.00     0.081 H 
ATOM     45  H   LIG d   1       2.285  -4.109  -9.066  0.00  0.00     0.081 H 
ATOM     46  H   LIG d   1       1.940  -1.741  -8.796  0.00  0.00     0.204 HD
BRANCH  32  47
ATOM     47  C   LIG d   1       3.219   0.207 -10.058  0.00  0.00     0.018 A 
ATOM     48  C   LIG d   1       2.463   0.872  -9.104  0.00  0.00    -0.050 A 
ATOM     49  C   LIG d   1       2.902   2.110  -8.660  0.00  0.00    -0.043 A 
ATOM     50  H   LIG d   1       1.554   0.436  -8.716  0.00  0.00     0.062 H 
ATOM     51  C   LIG d   1       4.070   2.637  -9.178  0.00  0.00     0.028 A 
ATOM     52  H   LIG d   1       2.339   2.656  -7.918  0.00  0.00     0.063 H 
ATOM     53  N   LIG d   1       4.763   1.976 -10.085  0.00  0.00    -0.263 NA
ATOM     54  H   LIG d   1       4.419   3.600  -8.838  0.00  0.00     0.083 H 
ATOM     55  C   LIG d   1       4.379   0.794 -10.526  0.00  0.00     0.036 A 
ATOM     56  H   LIG d   1       4.976   0.282 -11.266  0.00  0.00     0.083 H 
ENDBRANCH  32  47
ENDBRANCH   1  31
TORSDOF 6
ENDMDL
MODEL 2
REMARK VINA RESULT:      -6.7      2.055      4.290
REMARK  6 active torsions:
REMARK  status: ('A' for Active; 'I' for Inactive)
REMARK    1  A    between atoms: C_3  and  C_7 
REMARK    2  A    between atoms: C_13  and  C_14 
REMARK    3  A    between atoms: C_13  and  N_53 
REMARK    4  A    between atoms: C_14  and  C_15 
REMARK       I    between atoms: C_15  and  N_17 
REMARK    5  A    between atoms: N_17  and  C_18 
REMARK    6  A    between atoms: C_18  and  N_55 
ROOT
ATOM      1  C   LIG d   1       6.486  -0.047  -8.302  0.00  0.00    -0.023 C 
ATOM      2  H   LIG d   1       6.328  -0.982  -7.764  0.00  0.00     0.082 H 
ATOM      3  H   LIG d   1       7.138  -0.227  -9.158  0.00  0.00     0.082 H 
ENDROOT
BRANCH   1   4
ATOM      4  C   LIG d   1       7.140   0.974  -7.370  0.00  0.00     0.064 C 
ATOM      5  H   LIG d   1       8.075   1.322  -7.809  0.00  0.00     0.041 H 
ATOM      6  H   LIG d   1       6.468   1.821  -7.231  0.00  0.00     0.041 H 
BRANCH   4   7
ATOM      7  C   LIG d   1       7.419   0.332  -6.036  0.00  0.00     0.222 C 
ATOM      8  O   LIG d   1       8.265  -0.533  -5.945  0.00  0.00    -0.276 OA
ATOM      9  N   LIG d   1       6.730   0.718  -4.944  0.00  0.00    -0.277 N 
ATOM     10  H   LIG d   1       6.054   1.409  -5.017  0.00  0.00     0.154 HD
BRANCH   9  11
ATOM     11  C   LIG d   1       7.003   0.093  -3.647  0.00  0.00     0.038 C 
ATOM     12  H   LIG d   1       7.533  -0.847  -3.801  0.00  0.00     0.104 H 
ATOM     13  H   LIG d   1       7.617   0.763  -3.044  0.00  0.00     0.104 H 
BRANCH  11  14
ATOM     14  N   LIG d   1       5.716  -0.176  -2.974  0.00  0.00     0.249 N 
ATOM     15  C   LIG d   1       5.431  -1.627  -2.988  0.00  0.00    -0.030 C 
ATOM     16  C   LIG d   1       4.157  -1.892  -2.184  0.00  0.00    -0.012 C 
ATOM     17  H   LIG d   1       5.296  -1.979  -4.011  0.00  0.00     0.082 H 
ATOM     18  H   LIG d   1       6.266  -2.156  -2.530  0.00  0.00     0.082 H 
ATOM     19  C   LIG d   1       2.991  -1.130  -2.820  0.00  0.00    -0.043 C 
ATOM     20  H   LIG d   1       4.296  -1.552  -1.158  0.00  0.00     0.032 H 
ATOM     21  H   LIG d   1       3.939  -2.959  -2.188  0.00  0.00     0.032 H 
ATOM     22  C   LIG d   1       3.329   0.362  -2.865  0.00  0.00    -0.012 C 
ATOM     23  H   LIG d   1       2.089  -1.281  -2.225  0.00  0.00     0.027 H 
ATOM     24  H   LIG d   1       2.825  -1.497  -3.833  0.00  0.00     0.027 H 
ATOM     25  C   LIG d   1       4.628   0.562  -3.651  0.00  0.00    -0.030 C 
ATOM     26  H   LIG d   1       3.457   0.738  -1.850  0.00  0.00     0.032 H 
ATOM     27  H   LIG d   1       2.521   0.905  -3.355  0.00  0.00     0.032 H 
ATOM     28  H   LIG d   1       4.880   1.622  -3.672  0.00  0.00     0.082 H 
ATOM     29  H   LIG d   1       4.496   0.199  -4.670  0.00  0.00     0.082 H 
ATOM     30  H   LIG d   1       5.777   0.141  -1.999  0.00  0.00     0.205 HD
ENDBRANCH  11  14
ENDBRANCH   9  11
ENDBRANCH   4   7
ENDBRANCH   1   4
BRANCH   1  31
ATOM     31  N   LIG d   1       5.183   0.451  -8.787  0.00  0.00     0.241 N 
ATOM     32  C   LIG d   1       4.118   0.099  -7.824  0.00  0.00     0.006 C 
ATOM     33  H   LIG d   1       4.279   0.606  -6.873  0.00  0.00     0.090 H 
ATOM     34  C   LIG d   1       2.765   0.520  -8.404  0.00  0.00    -0.005 C 
ATOM     35  C   LIG d   1       2.766   2.033  -8.643  0.00  0.00    -0.043 C 
ATOM     36  H   LIG d   1       1.972   0.263  -7.702  0.00  0.00     0.032 H 
ATOM     37  H   LIG d   1       2.597   0.002  -9.349  0.00  0.00     0.032 H 
ATOM     38  C   LIG d   1       3.919   2.392  -9.583  0.00  0.00    -0.012 C 
ATOM     39  H   LIG d   1       2.896   2.551  -7.693  0.00  0.00     0.027 H 
ATOM     40  H   LIG d   1       1.820   2.331  -9.096  0.00  0.00     0.027 H 
ATOM     41  C   LIG d   1       5.239   1.917  -8.970  0.00  0.00    -0.031 C 
ATOM     42  H   LIG d   1       3.952   3.472  -9.724  0.00  0.00     0.032 H 
ATOM     43  H   LIG d   1       3.770   1.904 -10.547  0.00  0.00     0.032 H 
ATOM     44  H   LIG d   1       5.394   2.415  -8.013  0.00  0.00     0.081 H 
ATOM     45  H   LIG d   1       6.061   2.158  -9.644  0.00  0.00     0.081 H 
ATOM     46  H   LIG d   1       4.973   0.010  -9.691  0.00  0.00     0.204 HD
BRANCH  32  47
ATOM     47  C   LIG d   1       4.129  -1.391  -7.607  0.00  0.00     0.018 A 
ATOM     48  C   LIG d   1       4.581  -1.923  -6.407  0.00  0.00    -0.050 A 
ATOM     49  C   LIG d   1       4.572  -3.300  -6.251  0.00  0.00    -0.043 A 
ATOM     50  H   LIG d   1       4.931  -1.278  -5.615  0.00  0.00     0.062 H 
ATOM     51  C   LIG d   1       4.117  -4.093  -7.287  0.00  0.00     0.028 A 
ATOM     52  H   LIG d   1       4.917  -3.748  -5.330  0.00  0.00     0.063 H 
ATOM     53  N   LIG d   1       3.695  -3.553  -8.414  0.00  0.00    -0.263 NA
ATOM     54  H   LIG d   1       4.107  -5.167  -7.173  0.00  0.00     0.083 H 
ATOM     55  C   LIG d   1       3.683  -2.247  -8.596  0.00  0.00     0.036 A 
ATOM     56  H   LIG d   1       3.326  -1.843  -9.531  0.00  0.00     0.083 H 
ENDBRANCH  32  47
ENDBRANCH   1  31
TORSDOF 6
ENDMDL
MODEL 3
REMARK VINA RESULT:      -6.5      1.989      6.853
REMARK  6 active torsions:
REMARK  status: ('A' for Active; 'I' for Inactive)
REMARK    1  A    between atoms: C_3  and  C_7 
REMARK    2  A    between atoms: C_13  and  C_14 
REMARK    3  A    between atoms: C_13  and  N_53 
REMARK    4  A    between atoms: C_14  and  C_15 
REMARK       I    between atoms: C_15  and  N_17 
REMARK    5  A    between atoms: N_17  and  C_18 
REMARK    6  A    between atoms: C_18  and  N_55 
ROOT
ATOM      1  C   LIG d   1       5.182  -2.191  -5.764  0.00  0.00    -0.023 C 
ATOM      2  H   LIG d   1       4.571  -1.894  -4.911  0.00  0.00     0.082 H 
ATOM      3  H   LIG d   1       5.148  -1.411  -6.525  0.00  0.00     0.082 H 
ENDROOT
BRANCH   1   4
ATOM      4  C   LIG d   1       4.643  -3.497  -6.348  0.00  0.00     0.064 C 
ATOM      5  H   LIG d   1       5.473  -4.173  -6.558  0.00  0.00     0.041 H 
ATOM      6  H   LIG d   1       3.967  -3.965  -5.631  0.00  0.00     0.041 H 
BRANCH   4   7
ATOM      7  C   LIG d   1       3.895  -3.207  -7.624  0.00  0.00     0.222 C 
ATOM      8  O   LIG d   1       3.603  -4.115  -8.374  0.00  0.00    -0.276 OA
ATOM      9  N   LIG d   1       3.551  -1.941  -7.931  0.00  0.00    -0.277 N 
ATOM     10  H   LIG d   1       3.785  -1.216  -7.331  0.00  0.00     0.154 HD
BRANCH   9  11
ATOM     11  C   LIG d   1       2.824  -1.660  -9.172  0.00  0.00     0.038 C 
ATOM     12  H   LIG d   1       3.321  -2.158 -10.005  0.00  0.00     0.104 H 
ATOM     13  H   LIG d   1       1.802  -2.030  -9.085  0.00  0.00     0.104 H 
BRANCH  11  14
ATOM     14  N   LIG d   1       2.829  -0.201  -9.400  0.00  0.00     0.249 N 
ATOM     15  C   LIG d   1       3.949   0.167 -10.292  0.00  0.00    -0.030 C 
ATOM     16  C   LIG d   1       3.862   1.662 -10.609  0.00  0.00    -0.012 C 
ATOM     17  H   LIG d   1       4.905  -0.048  -9.814  0.00  0.00     0.082 H 
ATOM     18  H   LIG d   1       3.869  -0.404 -11.216  0.00  0.00     0.082 H 
ATOM     19  C   LIG d   1       3.955   2.460  -9.306  0.00  0.00    -0.043 C 
ATOM     20  H   LIG d   1       2.913   1.876 -11.099  0.00  0.00     0.032 H 
ATOM     21  H   LIG d   1       4.684   1.944 -11.267  0.00  0.00     0.032 H 
ATOM     22  C   LIG d   1       2.834   2.017  -8.363  0.00  0.00    -0.012 C 
ATOM     23  H   LIG d   1       3.850   3.524  -9.522  0.00  0.00     0.027 H 
ATOM     24  H   LIG d   1       4.921   2.277  -8.834  0.00  0.00     0.027 H 
ATOM     25  C   LIG d   1       2.951   0.512  -8.111  0.00  0.00    -0.030 C 
ATOM     26  H   LIG d   1       1.867   2.236  -8.817  0.00  0.00     0.032 H 
ATOM     27  H   LIG d   1       2.919   2.552  -7.417  0.00  0.00     0.032 H 
ATOM     28  H   LIG d   1       2.145   0.190  -7.452  0.00  0.00     0.082 H 
ATOM     29  H   LIG d   1       3.911   0.295  -7.644  0.00  0.00     0.082 H 
ATOM     30  H   LIG d   1       1.945   0.069  -9.849  0.00  0.00     0.205 HD
ENDBRANCH  11  14
ENDBRANCH   9  11
ENDBRANCH   4   7
ENDBRANCH   1   4
BRANCH   1  31
ATOM     31  N   LIG d   1       6.579  -2.361  -5.312  0.00  0.00     0.241 N 
ATOM     32  C   LIG d   1       6.618  -2.532  -3.844  0.00  0.00     0.006 C 
ATOM     33  H   LIG d   1       6.112  -3.452  -3.553  0.00  0.00     0.090 H 
ATOM     34  C   LIG d   1       8.079  -2.587  -3.389  0.00  0.00    -0.005 C 
ATOM     35  C   LIG d   1       8.774  -3.773  -4.066  0.00  0.00    -0.043 C 
ATOM     36  H   LIG d   1       8.118  -2.711  -2.308  0.00  0.00     0.032 H 
ATOM     37  H   LIG d   1       8.582  -1.662  -3.670  0.00  0.00     0.032 H 
ATOM     38  C   LIG d   1       8.661  -3.620  -5.585  0.00  0.00    -0.012 C 
ATOM     39  H   LIG d   1       8.295  -4.701  -3.756  0.00  0.00     0.027 H 
ATOM     40  H   LIG d   1       9.825  -3.790  -3.779  0.00  0.00     0.027 H 
ATOM     41  C   LIG d   1       7.184  -3.535  -5.977  0.00  0.00    -0.031 C 
ATOM     42  H   LIG d   1       9.117  -4.483  -6.072  0.00  0.00     0.032 H 
ATOM     43  H   LIG d   1       9.174  -2.711  -5.900  0.00  0.00     0.032 H 
ATOM     44  H   LIG d   1       6.675  -4.450  -5.674  0.00  0.00     0.081 H 
ATOM     45  H   LIG d   1       7.101  -3.413  -7.057  0.00  0.00     0.081 H 
ATOM     46  H   LIG d   1       7.115  -1.522  -5.565  0.00  0.00     0.204 HD
BRANCH  32  47
ATOM     47  C   LIG d   1       5.935  -1.356  -3.197  0.00  0.00     0.018 A 
ATOM     48  C   LIG d   1       4.772  -1.536  -2.463  0.00  0.00    -0.050 A 
ATOM     49  C   LIG d   1       4.178  -0.424  -1.885  0.00  0.00    -0.043 A 
ATOM     50  H   LIG d   1       4.340  -2.518  -2.345  0.00  0.00     0.062 H 
ATOM     51  C   LIG d   1       4.760   0.817  -2.057  0.00  0.00     0.028 A 
ATOM     52  H   LIG d   1       3.272  -0.528  -1.306  0.00  0.00     0.063 H 
ATOM     53  N   LIG d   1       5.866   0.951  -2.763  0.00  0.00    -0.263 NA
ATOM     54  H   LIG d   1       4.303   1.688  -1.610  0.00  0.00     0.083 H 
ATOM     55  C   LIG d   1       6.462  -0.084  -3.322  0.00  0.00     0.036 A 
ATOM     56  H   LIG d   1       7.369   0.065  -3.889  0.00  0.00     0.083 H 
ENDBRANCH  32  47
ENDBRANCH   1  31
TORSDOF 6
ENDMDL
MODEL 4
REMARK VINA RESULT:      -6.3      2.146      6.291
REMARK  6 active torsions:
REMARK  status: ('A' for Active; 'I' for Inactive)
REMARK    1  A    between atoms: C_3  and  C_7 
REMARK    2  A    between atoms: C_13  and  C_14 
REMARK    3  A    between atoms: C_13  and  N_53 
REMARK    4  A    between atoms: C_14  and  C_15 
REMARK       I    between atoms: C_15  and  N_17 
REMARK    5  A    between atoms: N_17  and  C_18 
REMARK    6  A    between atoms: C_18  and  N_55 
ROOT
ATOM      1  C   LIG d   1       6.300  -2.642  -4.910  0.00  0.00    -0.023 C 
ATOM      2  H   LIG d   1       6.812  -1.937  -5.565  0.00  0.00     0.082 H 
ATOM      3  H   LIG d   1       7.027  -3.332  -4.480  0.00  0.00     0.082 H 
ENDROOT
BRANCH   1   4
ATOM      4  C   LIG d   1       5.266  -3.429  -5.717  0.00  0.00     0.064 C 
ATOM      5  H   LIG d   1       5.626  -4.446  -5.877  0.00  0.00     0.041 H 
ATOM      6  H   LIG d   1       4.324  -3.460  -5.169  0.00  0.00     0.041 H 
BRANCH   4   7
ATOM      7  C   LIG d   1       5.050  -2.758  -7.049  0.00  0.00     0.222 C 
ATOM      8  O   LIG d   1       5.958  -2.695  -7.850  0.00  0.00    -0.276 OA
ATOM      9  N   LIG d   1       3.847  -2.230  -7.350  0.00  0.00    -0.277 N 
ATOM     10  H   LIG d   1       3.121  -2.281  -6.710  0.00  0.00     0.154 HD
BRANCH   9  11
ATOM     11  C   LIG d   1       3.638  -1.578  -8.646  0.00  0.00     0.038 C 
ATOM     12  H   LIG d   1       4.335  -1.989  -9.376  0.00  0.00     0.104 H 
ATOM     13  H   LIG d   1       2.614  -1.755  -8.979  0.00  0.00     0.104 H 
BRANCH  11  14
ATOM     14  N   LIG d   1       3.888  -0.131  -8.491  0.00  0.00     0.249 N 
ATOM     15  C   LIG d   1       2.639   0.626  -8.722  0.00  0.00    -0.030 C 
ATOM     16  C   LIG d   1       2.896   2.108  -8.441  0.00  0.00    -0.012 C 
ATOM     17  H   LIG d   1       2.303   0.504  -9.753  0.00  0.00     0.082 H 
ATOM     18  H   LIG d   1       1.870   0.256  -8.045  0.00  0.00     0.082 H 
ATOM     19  C   LIG d   1       3.990   2.618  -9.381  0.00  0.00    -0.043 C 
ATOM     20  H   LIG d   1       3.218   2.232  -7.407  0.00  0.00     0.032 H 
ATOM     21  H   LIG d   1       1.980   2.674  -8.607  0.00  0.00     0.032 H 
ATOM     22  C   LIG d   1       5.255   1.779  -9.184  0.00  0.00    -0.012 C 
ATOM     23  H   LIG d   1       4.207   3.663  -9.155  0.00  0.00     0.027 H 
ATOM     24  H   LIG d   1       3.653   2.531 -10.414  0.00  0.00     0.027 H 
ATOM     25  C   LIG d   1       4.930   0.306  -9.445  0.00  0.00    -0.030 C 
ATOM     26  H   LIG d   1       5.615   1.897  -8.161  0.00  0.00     0.032 H 
ATOM     27  H   LIG d   1       6.026   2.110  -9.880  0.00  0.00     0.032 H 
ATOM     28  H   LIG d   1       5.825  -0.296  -9.290  0.00  0.00     0.082 H 
ATOM     29  H   LIG d   1       4.583   0.186 -10.471  0.00  0.00     0.082 H 
ATOM     30  H   LIG d   1       4.214   0.051  -7.534  0.00  0.00     0.205 HD
ENDBRANCH  11  14
ENDBRANCH   9  11
ENDBRANCH   4   7
ENDBRANCH   1   4
BRANCH   1  31
ATOM     31  N   LIG d   1       5.645  -1.891  -3.819  0.00  0.00     0.241 N 
ATOM     32  C   LIG d   1       5.320  -0.522  -4.272  0.00  0.00     0.006 C 
ATOM     33  H   LIG d   1       4.586  -0.550  -5.077  0.00  0.00     0.090 H 
ATOM     34  C   LIG d   1       4.753   0.271  -3.092  0.00  0.00    -0.005 C 
ATOM     35  C   LIG d   1       3.484  -0.420  -2.583  0.00  0.00    -0.043 C 
ATOM     36  H   LIG d   1       4.512   1.282  -3.415  0.00  0.00     0.032 H 
ATOM     37  H   LIG d   1       5.492   0.309  -2.291  0.00  0.00     0.032 H 
ATOM     38  C   LIG d   1       3.821  -1.860  -2.186  0.00  0.00    -0.012 C 
ATOM     39  H   LIG d   1       2.732  -0.425  -3.370  0.00  0.00     0.027 H 
ATOM     40  H   LIG d   1       3.101   0.117  -1.714  0.00  0.00     0.027 H 
ATOM     41  C   LIG d   1       4.414  -2.591  -3.393  0.00  0.00    -0.031 C 
ATOM     42  H   LIG d   1       2.913  -2.370  -1.863  0.00  0.00     0.032 H 
ATOM     43  H   LIG d   1       4.545  -1.855  -1.371  0.00  0.00     0.032 H 
ATOM     44  H   LIG d   1       3.685  -2.608  -4.202  0.00  0.00     0.081 H 
ATOM     45  H   LIG d   1       4.668  -3.613  -3.110  0.00  0.00     0.081 H 
ATOM     46  H   LIG d   1       6.289  -1.834  -3.021  0.00  0.00     0.204 HD
BRANCH  32  47
ATOM     47  C   LIG d   1       6.580   0.142  -4.763  0.00  0.00     0.018 A 
ATOM     48  C   LIG d   1       6.802   0.307  -6.123  0.00  0.00    -0.050 A 
ATOM     49  C   LIG d   1       7.976   0.924  -6.529  0.00  0.00    -0.043 A 
ATOM     50  H   LIG d   1       6.079  -0.037  -6.847  0.00  0.00     0.062 H 
ATOM     51  C   LIG d   1       8.878   1.351  -5.574  0.00  0.00     0.028 A 
ATOM     52  H   LIG d   1       8.181   1.069  -7.580  0.00  0.00     0.063 H 
ATOM     53  N   LIG d   1       8.634   1.177  -4.290  0.00  0.00    -0.263 NA
ATOM     54  H   LIG d   1       9.794   1.832  -5.883  0.00  0.00     0.083 H 
ATOM     55  C   LIG d   1       7.526   0.600  -3.867  0.00  0.00     0.036 A 
ATOM     56  H   LIG d   1       7.360   0.479  -2.806  0.00  0.00     0.083 H 
ENDBRANCH  32  47
ENDBRANCH   1  31
TORSDOF 6
ENDMDL
MODEL 5
REMARK VINA RESULT:      -6.1      2.337      6.983
REMARK  6 active torsions:
REMARK  status: ('A' for Active; 'I' for Inactive)
REMARK    1  A    between atoms: C_3  and  C_7 
REMARK    2  A    between atoms: C_13  and  C_14 
REMARK    3  A    between atoms: C_13  and  N_53 
REMARK    4  A    between atoms: C_14  and  C_15 
REMARK       I    between atoms: C_15  and  N_17 
REMARK    5  A    between atoms: N_17  and  C_18 
REMARK    6  A    between atoms: C_18  and  N_55 
ROOT
ATOM      1  C   LIG d   1       4.545  -3.559  -5.706  0.00  0.00    -0.023 C 
ATOM      2  H   LIG d   1       3.850  -3.348  -4.892  0.00  0.00     0.082 H 
ATOM      3  H   LIG d   1       4.252  -2.993  -6.590  0.00  0.00     0.082 H 
ENDROOT
BRANCH   1   4
ATOM      4  C   LIG d   1       4.520  -5.054  -6.024  0.00  0.00     0.064 C 
ATOM      5  H   LIG d   1       5.541  -5.434  -6.074  0.00  0.00     0.041 H 
ATOM      6  H   LIG d   1       3.974  -5.584  -5.243  0.00  0.00     0.041 H 
BRANCH   4   7
ATOM      7  C   LIG d   1       3.837  -5.275  -7.350  0.00  0.00     0.222 C 
ATOM      8  O   LIG d   1       3.650  -6.403  -7.754  0.00  0.00    -0.276 OA
ATOM      9  N   LIG d   1       3.434  -4.220  -8.085  0.00  0.00    -0.277 N 
ATOM     10  H   LIG d   1       3.583  -3.318  -7.761  0.00  0.00     0.154 HD
BRANCH   9  11
ATOM     11  C   LIG d   1       2.770  -4.435  -9.373  0.00  0.00     0.038 C 
ATOM     12  H   LIG d   1       3.518  -4.656 -10.134  0.00  0.00     0.104 H 
ATOM     13  H   LIG d   1       2.078  -5.274  -9.288  0.00  0.00     0.104 H 
BRANCH  11  14
ATOM     14  N   LIG d   1       2.045  -3.202  -9.741  0.00  0.00     0.249 N 
ATOM     15  C   LIG d   1       1.998  -3.064 -11.212  0.00  0.00    -0.030 C 
ATOM     16  C   LIG d   1       1.143  -1.846 -11.570  0.00  0.00    -0.012 C 
ATOM     17  H   LIG d   1       3.003  -2.934 -11.616  0.00  0.00     0.082 H 
ATOM     18  H   LIG d   1       1.549  -3.960 -11.638  0.00  0.00     0.082 H 
ATOM     19  C   LIG d   1       1.767  -0.592 -10.953  0.00  0.00    -0.043 C 
ATOM     20  H   LIG d   1       0.135  -1.981 -11.178  0.00  0.00     0.032 H 
ATOM     21  H   LIG d   1       1.101  -1.736 -12.654  0.00  0.00     0.032 H 
ATOM     22  C   LIG d   1       1.877  -0.778  -9.438  0.00  0.00    -0.012 C 
ATOM     23  H   LIG d   1       1.138   0.272 -11.169  0.00  0.00     0.027 H 
ATOM     24  H   LIG d   1       2.760  -0.434 -11.374  0.00  0.00     0.027 H 
ATOM     25  C   LIG d   1       2.712  -2.027  -9.141  0.00  0.00    -0.030 C 
ATOM     26  H   LIG d   1       0.881  -0.897  -9.011  0.00  0.00     0.032 H 
ATOM     27  H   LIG d   1       2.359   0.095  -8.997  0.00  0.00     0.032 H 
ATOM     28  H   LIG d   1       2.779  -2.170  -8.063  0.00  0.00     0.082 H 
ATOM     29  H   LIG d   1       3.712  -1.902  -9.555  0.00  0.00     0.082 H 
ATOM     30  H   LIG d   1       1.085  -3.260  -9.382  0.00  0.00     0.205 HD
ENDBRANCH  11  14
ENDBRANCH   9  11
ENDBRANCH   4   7
ENDBRANCH   1   4
BRANCH   1  31
ATOM     31  N   LIG d   1       5.901  -3.138  -5.294  0.00  0.00     0.241 N 
ATOM     32  C   LIG d   1       5.884  -2.681  -3.889  0.00  0.00     0.006 C 
ATOM     33  H   LIG d   1       5.628  -3.504  -3.222  0.00  0.00     0.090 H 
ATOM     34  C   LIG d   1       7.269  -2.141  -3.525  0.00  0.00    -0.005 C 
ATOM     35  C   LIG d   1       8.306  -3.256  -3.693  0.00  0.00    -0.043 C 
ATOM     36  H   LIG d   1       7.266  -1.799  -2.490  0.00  0.00     0.032 H 
ATOM     37  H   LIG d   1       7.519  -1.309  -4.183  0.00  0.00     0.032 H 
ATOM     38  C   LIG d   1       8.261  -3.769  -5.134  0.00  0.00    -0.012 C 
ATOM     39  H   LIG d   1       8.077  -4.071  -3.007  0.00  0.00     0.027 H 
ATOM     40  H   LIG d   1       9.300  -2.864  -3.476  0.00  0.00     0.027 H 
ATOM     41  C   LIG d   1       6.847  -4.263  -5.451  0.00  0.00    -0.031 C 
ATOM     42  H   LIG d   1       8.967  -4.592  -5.249  0.00  0.00     0.032 H 
ATOM     43  H   LIG d   1       8.527  -2.963  -5.818  0.00  0.00     0.032 H 
ATOM     44  H   LIG d   1       6.587  -5.078  -4.777  0.00  0.00     0.081 H 
ATOM     45  H   LIG d   1       6.809  -4.616  -6.482  0.00  0.00     0.081 H 
ATOM     46  H   LIG d   1       6.204  -2.361  -5.894  0.00  0.00     0.204 HD
BRANCH  32  47
ATOM     47  C   LIG d   1       4.863  -1.583  -3.745  0.00  0.00     0.018 A 
ATOM     48  C   LIG d   1       3.736  -1.770  -2.958  0.00  0.00    -0.050 A 
ATOM     49  C   LIG d   1       2.823  -0.731  -2.854  0.00  0.00    -0.043 A 
ATOM     50  H   LIG d   1       3.573  -2.703  -2.439  0.00  0.00     0.062 H 
ATOM     51  C   LIG d   1       3.065   0.448  -3.532  0.00  0.00     0.028 A 
ATOM     52  H   LIG d   1       1.935  -0.843  -2.250  0.00  0.00     0.063 H 
ATOM     53  N   LIG d   1       4.148   0.591  -4.272  0.00  0.00    -0.263 NA
ATOM     54  H   LIG d   1       2.359   1.262  -3.456  0.00  0.00     0.083 H 
ATOM     55  C   LIG d   1       5.040  -0.373  -4.389  0.00  0.00     0.036 A 
ATOM     56  H   LIG d   1       5.916  -0.217  -5.001  0.00  0.00     0.083 H 
ENDBRANCH  32  47
ENDBRANCH   1  31
TORSDOF 6
ENDMDL
MODEL 6
REMARK VINA RESULT:      -6.0      6.286      9.993
REMARK  6 active torsions:
REMARK  status: ('A' for Active; 'I' for Inactive)
REMARK    1  A    between atoms: C_3  and  C_7 
REMARK    2  A    between atoms: C_13  and  C_14 
REMARK    3  A    between atoms: C_13  and  N_53 
REMARK    4  A    between atoms: C_14  and  C_15 
REMARK       I    between atoms: C_15  and  N_17 
REMARK    5  A    between atoms: N_17  and  C_18 
REMARK    6  A    between atoms: C_18  and  N_55 
ROOT
ATOM      1  C   LIG d   1       9.727   3.620  -3.398  0.00  0.00    -0.023 C 
ATOM      2  H   LIG d   1       9.658   2.657  -2.892  0.00  0.00     0.082 H 
ATOM      3  H   LIG d   1       9.324   4.400  -2.752  0.00  0.00     0.082 H 
ENDROOT
BRANCH   1   4
ATOM      4  C   LIG d   1       8.925   3.570  -4.700  0.00  0.00     0.064 C 
ATOM      5  H   LIG d   1       8.234   4.413  -4.735  0.00  0.00     0.041 H 
ATOM      6  H   LIG d   1       9.606   3.624  -5.549  0.00  0.00     0.041 H 
BRANCH   4   7
ATOM      7  C   LIG d   1       8.148   2.280  -4.763  0.00  0.00     0.222 C 
ATOM      8  O   LIG d   1       7.718   1.884  -5.826  0.00  0.00    -0.276 OA
ATOM      9  N   LIG d   1       7.931   1.568  -3.640  0.00  0.00    -0.277 N 
ATOM     10  H   LIG d   1       8.275   1.885  -2.791  0.00  0.00     0.154 HD
BRANCH   9  11
ATOM     11  C   LIG d   1       7.175   0.314  -3.702  0.00  0.00     0.038 C 
ATOM     12  H   LIG d   1       7.438  -0.223  -4.614  0.00  0.00     0.104 H 
ATOM     13  H   LIG d   1       7.420  -0.300  -2.835  0.00  0.00     0.104 H 
BRANCH  11  14
ATOM     14  N   LIG d   1       5.733   0.633  -3.720  0.00  0.00     0.249 N 
ATOM     15  C   LIG d   1       5.225   0.752  -2.337  0.00  0.00    -0.030 C 
ATOM     16  C   LIG d   1       3.762   1.198  -2.381  0.00  0.00    -0.012 C 
ATOM     17  H   LIG d   1       5.298  -0.205  -1.819  0.00  0.00     0.082 H 
ATOM     18  H   LIG d   1       5.816   1.497  -1.805  0.00  0.00     0.082 H 
ATOM     19  C   LIG d   1       2.940   0.157  -3.146  0.00  0.00    -0.043 C 
ATOM     20  H   LIG d   1       3.690   2.161  -2.886  0.00  0.00     0.032 H 
ATOM     21  H   LIG d   1       3.378   1.290  -1.365  0.00  0.00     0.032 H 
ATOM     22  C   LIG d   1       3.522  -0.009  -4.552  0.00  0.00    -0.012 C 
ATOM     23  H   LIG d   1       1.904   0.492  -3.218  0.00  0.00     0.027 H 
ATOM     24  H   LIG d   1       2.979  -0.797  -2.620  0.00  0.00     0.027 H 
ATOM     25  C   LIG d   1       4.992  -0.421  -4.445  0.00  0.00    -0.030 C 
ATOM     26  H   LIG d   1       3.447   0.935  -5.092  0.00  0.00     0.032 H 
ATOM     27  H   LIG d   1       2.966  -0.779  -5.088  0.00  0.00     0.032 H 
ATOM     28  H   LIG d   1       5.413  -0.526  -5.444  0.00  0.00     0.082 H 
ATOM     29  H   LIG d   1       5.066  -1.372  -3.917  0.00  0.00     0.082 H 
ATOM     30  H   LIG d   1       5.596   1.529  -4.202  0.00  0.00     0.205 HD
ENDBRANCH  11  14
ENDBRANCH   9  11
ENDBRANCH   4   7
ENDBRANCH   1   4
BRANCH   1  31
ATOM     31  N   LIG d   1      11.148   3.912  -3.675  0.00  0.00     0.241 N 
ATOM     32  C   LIG d   1      11.783   4.510  -2.481  0.00  0.00     0.006 C 
ATOM     33  H   LIG d   1      11.796   3.797  -1.657  0.00  0.00     0.090 H 
ATOM     34  C   LIG d   1      13.218   4.912  -2.830  0.00  0.00    -0.005 C 
ATOM     35  C   LIG d   1      14.000   3.668  -3.262  0.00  0.00    -0.043 C 
ATOM     36  H   LIG d   1      13.694   5.356  -1.957  0.00  0.00     0.032 H 
ATOM     37  H   LIG d   1      13.205   5.635  -3.646  0.00  0.00     0.032 H 
ATOM     38  C   LIG d   1      13.291   3.018  -4.453  0.00  0.00    -0.012 C 
ATOM     39  H   LIG d   1      14.046   2.961  -2.434  0.00  0.00     0.027 H 
ATOM     40  H   LIG d   1      15.011   3.956  -3.553  0.00  0.00     0.027 H 
ATOM     41  C   LIG d   1      11.854   2.670  -4.057  0.00  0.00    -0.031 C 
ATOM     42  H   LIG d   1      13.819   2.107  -4.738  0.00  0.00     0.032 H 
ATOM     43  H   LIG d   1      13.279   3.711  -5.294  0.00  0.00     0.032 H 
ATOM     44  H   LIG d   1      11.866   1.966  -3.225  0.00  0.00     0.081 H 
ATOM     45  H   LIG d   1      11.342   2.220  -4.907  0.00  0.00     0.081 H 
ATOM     46  H   LIG d   1      11.206   4.581  -4.453  0.00  0.00     0.204 HD
BRANCH  32  47
ATOM     47  C   LIG d   1      11.004   5.734  -2.075  0.00  0.00     0.018 A 
ATOM     48  C   LIG d   1      10.716   6.723  -3.004  0.00  0.00    -0.050 A 
ATOM     49  C   LIG d   1       9.996   7.831  -2.585  0.00  0.00    -0.043 A 
ATOM     50  H   LIG d   1      11.045   6.632  -4.028  0.00  0.00     0.062 H 
ATOM     51  C   LIG d   1       9.591   7.913  -1.267  0.00  0.00     0.028 A 
ATOM     52  H   LIG d   1       9.754   8.621  -3.282  0.00  0.00     0.063 H 
ATOM     53  N   LIG d   1       9.884   6.953  -0.411  0.00  0.00    -0.263 NA
ATOM     54  H   LIG d   1       9.030   8.773  -0.932  0.00  0.00     0.083 H 
ATOM     55  C   LIG d   1      10.561   5.882  -0.775  0.00  0.00     0.036 A 
ATOM     56  H   LIG d   1      10.778   5.115  -0.046  0.00  0.00     0.083 H 
ENDBRANCH  32  47
ENDBRANCH   1  31
TORSDOF 6
ENDMDL
MODEL 7
REMARK VINA RESULT:      -6.0      6.416      9.792
REMARK  6 active torsions:
REMARK  status: ('A' for Active; 'I' for Inactive)
REMARK    1  A    between atoms: C_3  and  C_7 
REMARK    2  A    between atoms: C_13  and  C_14 
REMARK    3  A    between atoms: C_13  and  N_53 
REMARK    4  A    between atoms: C_14  and  C_15 
REMARK       I    between atoms: C_15  and  N_17 
REMARK    5  A    between atoms: N_17  and  C_18 
REMARK    6  A    between atoms: C_18  and  N_55 
ROOT
ATOM      1  C   LIG d   1      11.007   4.213  -3.815  0.00  0.00    -0.023 C 
ATOM      2  H   LIG d   1      10.464   4.379  -4.746  0.00  0.00     0.082 H 
ATOM      3  H   LIG d   1      12.054   4.008  -4.037  0.00  0.00     0.082 H 
ENDROOT
BRANCH   1   4
ATOM      4  C   LIG d   1      10.398   3.022  -3.074  0.00  0.00     0.064 C 
ATOM      5  H   LIG d   1      11.120   2.205  -3.043  0.00  0.00     0.041 H 
ATOM      6  H   LIG d   1      10.142   3.318  -2.057  0.00  0.00     0.041 H 
BRANCH   4   7
ATOM      7  C   LIG d   1       9.154   2.565  -3.792  0.00  0.00     0.222 C 
ATOM      8  O   LIG d   1       8.666   3.258  -4.659  0.00  0.00    -0.276 OA
ATOM      9  N   LIG d   1       8.584   1.387  -3.470  0.00  0.00    -0.277 N 
ATOM     10  H   LIG d   1       8.975   0.832  -2.777  0.00  0.00     0.154 HD
BRANCH   9  11
ATOM     11  C   LIG d   1       7.375   0.943  -4.169  0.00  0.00     0.038 C 
ATOM     12  H   LIG d   1       6.891   1.800  -4.637  0.00  0.00     0.104 H 
ATOM     13  H   LIG d   1       7.645   0.214  -4.934  0.00  0.00     0.104 H 
BRANCH  11  14
ATOM     14  N   LIG d   1       6.455   0.342  -3.182  0.00  0.00     0.249 N 
ATOM     15  C   LIG d   1       5.868  -0.900  -3.730  0.00  0.00    -0.030 C 
ATOM     16  C   LIG d   1       5.013  -1.565  -2.648  0.00  0.00    -0.012 C 
ATOM     17  H   LIG d   1       5.247  -0.678  -4.598  0.00  0.00     0.082 H 
ATOM     18  H   LIG d   1       6.672  -1.573  -4.022  0.00  0.00     0.082 H 
ATOM     19  C   LIG d   1       3.896  -0.607  -2.227  0.00  0.00    -0.043 C 
ATOM     20  H   LIG d   1       5.636  -1.799  -1.785  0.00  0.00     0.032 H 
ATOM     21  H   LIG d   1       4.577  -2.482  -3.042  0.00  0.00     0.032 H 
ATOM     22  C   LIG d   1       4.516   0.702  -1.730  0.00  0.00    -0.012 C 
ATOM     23  H   LIG d   1       3.311  -1.060  -1.425  0.00  0.00     0.027 H 
ATOM     24  H   LIG d   1       3.250  -0.403  -3.080  0.00  0.00     0.027 H 
ATOM     25  C   LIG d   1       5.384   1.302  -2.839  0.00  0.00    -0.030 C 
ATOM     26  H   LIG d   1       5.132   0.504  -0.853  0.00  0.00     0.032 H 
ATOM     27  H   LIG d   1       3.724   1.404  -1.468  0.00  0.00     0.032 H 
ATOM     28  H   LIG d   1       5.839   2.226  -2.484  0.00  0.00     0.082 H 
ATOM     29  H   LIG d   1       4.766   1.513  -3.711  0.00  0.00     0.082 H 
ATOM     30  H   LIG d   1       6.982   0.112  -2.331  0.00  0.00     0.205 HD
ENDBRANCH  11  14
ENDBRANCH   9  11
ENDBRANCH   4   7
ENDBRANCH   1   4
BRANCH   1  31
ATOM     31  N   LIG d   1      10.922   5.436  -2.990  0.00  0.00     0.241 N 
ATOM     32  C   LIG d   1       9.982   6.397  -3.605  0.00  0.00     0.006 C 
ATOM     33  H   LIG d   1       8.971   5.990  -3.614  0.00  0.00     0.090 H 
ATOM     34  C   LIG d   1      10.001   7.698  -2.799  0.00  0.00    -0.005 C 
ATOM     35  C   LIG d   1       9.572   7.405  -1.358  0.00  0.00    -0.043 C 
ATOM     36  H   LIG d   1       9.313   8.413  -3.246  0.00  0.00     0.032 H 
ATOM     37  H   LIG d   1      11.010   8.111  -2.801  0.00  0.00     0.032 H 
ATOM     38  C   LIG d   1      10.510   6.355  -0.758  0.00  0.00    -0.012 C 
ATOM     39  H   LIG d   1       8.550   7.027  -1.353  0.00  0.00     0.027 H 
ATOM     40  H   LIG d   1       9.626   8.321  -0.769  0.00  0.00     0.027 H 
ATOM     41  C   LIG d   1      10.475   5.093  -1.623  0.00  0.00    -0.031 C 
ATOM     42  H   LIG d   1      10.183   6.111   0.254  0.00  0.00     0.032 H 
ATOM     43  H   LIG d   1      11.526   6.747  -0.727  0.00  0.00     0.032 H 
ATOM     44  H   LIG d   1       9.461   4.693  -1.642  0.00  0.00     0.081 H 
ATOM     45  H   LIG d   1      11.153   4.348  -1.206  0.00  0.00     0.081 H 
ATOM     46  H   LIG d   1      11.852   5.868  -2.938  0.00  0.00     0.204 HD
BRANCH  32  47
ATOM     47  C   LIG d   1      10.423   6.676  -5.018  0.00  0.00     0.018 A 
ATOM     48  C   LIG d   1       9.602   6.348  -6.088  0.00  0.00    -0.050 A 
ATOM     49  C   LIG d   1      10.050   6.624  -7.371  0.00  0.00    -0.043 A 
ATOM     50  H   LIG d   1       8.638   5.890  -5.925  0.00  0.00     0.062 H 
ATOM     51  C   LIG d   1      11.289   7.211  -7.541  0.00  0.00     0.028 A 
ATOM     52  H   LIG d   1       9.437   6.383  -8.227  0.00  0.00     0.063 H 
ATOM     53  N   LIG d   1      12.043   7.508  -6.500  0.00  0.00    -0.263 NA
ATOM     54  H   LIG d   1      11.645   7.429  -8.537  0.00  0.00     0.083 H 
ATOM     55  C   LIG d   1      11.648   7.266  -5.266  0.00  0.00     0.036 A 
ATOM     56  H   LIG d   1      12.292   7.527  -4.439  0.00  0.00     0.083 H 
ENDBRANCH  32  47
ENDBRANCH   1  31
TORSDOF 6
ENDMDL
MODEL 8
REMARK VINA RESULT:      -5.9      5.161      8.413
REMARK  6 active torsions:
REMARK  status: ('A' for Active; 'I' for Inactive)
REMARK    1  A    between atoms: C_3  and  C_7 
REMARK    2  A    between atoms: C_13  and  C_14 
REMARK    3  A    between atoms: C_13  and  N_53 
REMARK    4  A    between atoms: C_14  and  C_15 
REMARK       I    between atoms: C_15  and  N_17 
REMARK    5  A    between atoms: N_17  and  C_18 
REMARK    6  A    between atoms: C_18  and  N_55 
ROOT
ATOM      1  C   LIG d   1       7.650   0.503  -4.130  0.00  0.00    -0.023 C 
ATOM      2  H   LIG d   1       8.322   0.410  -3.276  0.00  0.00     0.082 H 
ATOM      3  H   LIG d   1       7.970  -0.178  -4.920  0.00  0.00     0.082 H 
ENDROOT
BRANCH   1   4
ATOM      4  C   LIG d   1       7.683   1.940  -4.651  0.00  0.00     0.064 C 
ATOM      5  H   LIG d   1       7.720   1.932  -5.741  0.00  0.00     0.041 H 
ATOM      6  H   LIG d   1       6.786   2.467  -4.323  0.00  0.00     0.041 H 
BRANCH   4   7
ATOM      7  C   LIG d   1       8.902   2.643  -4.113  0.00  0.00     0.222 C 
ATOM      8  O   LIG d   1       9.544   2.140  -3.216  0.00  0.00    -0.276 OA
ATOM      9  N   LIG d   1       9.279   3.830  -4.628  0.00  0.00    -0.277 N 
ATOM     10  H   LIG d   1       8.765   4.232  -5.346  0.00  0.00     0.154 HD
BRANCH   9  11
ATOM     11  C   LIG d   1      10.464   4.513  -4.105  0.00  0.00     0.038 C 
ATOM     12  H   LIG d   1      11.260   3.786  -3.941  0.00  0.00     0.104 H 
ATOM     13  H   LIG d   1      10.798   5.262  -4.824  0.00  0.00     0.104 H 
BRANCH  11  14
ATOM     14  N   LIG d   1      10.113   5.150  -2.820  0.00  0.00     0.249 N 
ATOM     15  C   LIG d   1       9.771   6.572  -3.037  0.00  0.00    -0.030 C 
ATOM     16  C   LIG d   1       9.297   7.177  -1.714  0.00  0.00    -0.012 C 
ATOM     17  H   LIG d   1      10.640   7.123  -3.398  0.00  0.00     0.082 H 
ATOM     18  H   LIG d   1       8.970   6.636  -3.773  0.00  0.00     0.082 H 
ATOM     19  C   LIG d   1      10.419   7.068  -0.678  0.00  0.00    -0.043 C 
ATOM     20  H   LIG d   1       8.420   6.636  -1.359  0.00  0.00     0.032 H 
ATOM     21  H   LIG d   1       9.041   8.226  -1.864  0.00  0.00     0.032 H 
ATOM     22  C   LIG d   1      10.812   5.598  -0.516  0.00  0.00    -0.012 C 
ATOM     23  H   LIG d   1      10.070   7.459   0.279  0.00  0.00     0.027 H 
ATOM     24  H   LIG d   1      11.282   7.641  -1.013  0.00  0.00     0.027 H 
ATOM     25  C   LIG d   1      11.243   5.038  -1.874  0.00  0.00    -0.030 C 
ATOM     26  H   LIG d   1       9.959   5.030  -0.143  0.00  0.00     0.032 H 
ATOM     27  H   LIG d   1      11.639   5.516   0.190  0.00  0.00     0.032 H 
ATOM     28  H   LIG d   1      11.510   3.987  -1.765  0.00  0.00     0.082 H 
ATOM     29  H   LIG d   1      12.105   5.596  -2.241  0.00  0.00     0.082 H 
ATOM     30  H   LIG d   1       9.296   4.670  -2.422  0.00  0.00     0.205 HD
ENDBRANCH  11  14
ENDBRANCH   9  11
ENDBRANCH   4   7
ENDBRANCH   1   4
BRANCH   1  31
ATOM     31  N   LIG d   1       6.284   0.135  -3.704  0.00  0.00     0.241 N 
ATOM     32  C   LIG d   1       6.292  -1.205  -3.081  0.00  0.00     0.006 C 
ATOM     33  H   LIG d   1       6.882  -1.197  -2.165  0.00  0.00     0.090 H 
ATOM     34  C   LIG d   1       4.852  -1.611  -2.757  0.00  0.00    -0.005 C 
ATOM     35  C   LIG d   1       4.247  -0.594  -1.785  0.00  0.00    -0.043 C 
ATOM     36  H   LIG d   1       4.847  -2.600  -2.299  0.00  0.00     0.032 H 
ATOM     37  H   LIG d   1       4.265  -1.632  -3.675  0.00  0.00     0.032 H 
ATOM     38  C   LIG d   1       4.312   0.801  -2.414  0.00  0.00    -0.012 C 
ATOM     39  H   LIG d   1       4.811  -0.601  -0.854  0.00  0.00     0.027 H 
ATOM     40  H   LIG d   1       3.207  -0.855  -1.586  0.00  0.00     0.027 H 
ATOM     41  C   LIG d   1       5.767   1.137  -2.747  0.00  0.00    -0.031 C 
ATOM     42  H   LIG d   1       3.921   1.536  -1.710  0.00  0.00     0.032 H 
ATOM     43  H   LIG d   1       3.716   0.819  -3.326  0.00  0.00     0.032 H 
ATOM     44  H   LIG d   1       6.360   1.133  -1.833  0.00  0.00     0.081 H 
ATOM     45  H   LIG d   1       5.815   2.124  -3.208  0.00  0.00     0.081 H 
ATOM     46  H   LIG d   1       5.672   0.116  -4.529  0.00  0.00     0.204 HD
BRANCH  32  47
ATOM     47  C   LIG d   1       6.885  -2.192  -4.053  0.00  0.00     0.018 A 
ATOM     48  C   LIG d   1       8.037  -2.893  -3.726  0.00  0.00    -0.050 A 
ATOM     49  C   LIG d   1       8.547  -3.791  -4.651  0.00  0.00    -0.043 A 
ATOM     50  H   LIG d   1       8.524  -2.742  -2.774  0.00  0.00     0.062 H 
ATOM     51  C   LIG d   1       7.896  -3.958  -5.858  0.00  0.00     0.028 A 
ATOM     52  H   LIG d   1       9.442  -4.354  -4.429  0.00  0.00     0.063 H 
ATOM     53  N   LIG d   1       6.803  -3.273  -6.135  0.00  0.00    -0.263 NA
ATOM     54  H   LIG d   1       8.287  -4.655  -6.584  0.00  0.00     0.083 H 
ATOM     55  C   LIG d   1       6.286  -2.415  -5.278  0.00  0.00     0.036 A 
ATOM     56  H   LIG d   1       5.387  -1.877  -5.539  0.00  0.00     0.083 H 
ENDBRANCH  32  47
ENDBRANCH   1  31
TORSDOF 6
ENDMDL
MODEL 9
REMARK VINA RESULT:      -5.7      6.369      9.465
REMARK  6 active torsions:
REMARK  status: ('A' for Active; 'I' for Inactive)
REMARK    1  A    between atoms: C_3  and  C_7 
REMARK    2  A    between atoms: C_13  and  C_14 
REMARK    3  A    between atoms: C_13  and  N_53 
REMARK    4  A    between atoms: C_14  and  C_15 
REMARK       I    between atoms: C_15  and  N_17 
REMARK    5  A    between atoms: N_17  and  C_18 
REMARK    6  A    between atoms: C_18  and  N_55 
ROOT
ATOM      1  C   LIG d   1      11.192   3.950  -4.020  0.00  0.00    -0.023 C 
ATOM      2  H   LIG d   1      11.752   3.191  -4.568  0.00  0.00     0.082 H 
ATOM      3  H   LIG d   1      11.887   4.601  -3.490  0.00  0.00     0.082 H 
ENDROOT
BRANCH   1   4
ATOM      4  C   LIG d   1      10.260   3.271  -3.015  0.00  0.00     0.064 C 
ATOM      5  H   LIG d   1      10.847   2.866  -2.190  0.00  0.00     0.041 H 
ATOM      6  H   LIG d   1       9.547   4.001  -2.630  0.00  0.00     0.041 H 
BRANCH   4   7
ATOM      7  C   LIG d   1       9.513   2.153  -3.697  0.00  0.00     0.222 C 
ATOM      8  O   LIG d   1      10.109   1.374  -4.410  0.00  0.00    -0.276 OA
ATOM      9  N   LIG d   1       8.185   2.019  -3.512  0.00  0.00    -0.277 N 
ATOM     10  H   LIG d   1       7.709   2.642  -2.941  0.00  0.00     0.154 HD
BRANCH   9  11
ATOM     11  C   LIG d   1       7.460   0.932  -4.174  0.00  0.00     0.038 C 
ATOM     12  H   LIG d   1       6.889   1.333  -5.011  0.00  0.00     0.104 H 
ATOM     13  H   LIG d   1       8.172   0.191  -4.541  0.00  0.00     0.104 H 
BRANCH  11  14
ATOM     14  N   LIG d   1       6.534   0.321  -3.199  0.00  0.00     0.249 N 
ATOM     15  C   LIG d   1       5.919  -0.893  -3.778  0.00  0.00    -0.030 C 
ATOM     16  C   LIG d   1       5.058  -1.572  -2.711  0.00  0.00    -0.012 C 
ATOM     17  H   LIG d   1       5.297  -0.634  -4.635  0.00  0.00     0.082 H 
ATOM     18  H   LIG d   1       6.708  -1.574  -4.095  0.00  0.00     0.082 H 
ATOM     19  C   LIG d   1       3.963  -0.604  -2.254  0.00  0.00    -0.043 C 
ATOM     20  H   LIG d   1       5.682  -1.843  -1.858  0.00  0.00     0.032 H 
ATOM     21  H   LIG d   1       4.601  -2.469  -3.127  0.00  0.00     0.032 H 
ATOM     22  C   LIG d   1       4.612   0.677  -1.725  0.00  0.00    -0.012 C 
ATOM     23  H   LIG d   1       3.374  -1.068  -1.462  0.00  0.00     0.027 H 
ATOM     24  H   LIG d   1       3.315  -0.363  -3.097  0.00  0.00     0.027 H 
ATOM     25  C   LIG d   1       5.485   1.291  -2.822  0.00  0.00    -0.030 C 
ATOM     26  H   LIG d   1       5.229   0.442  -0.857  0.00  0.00     0.032 H 
ATOM     27  H   LIG d   1       3.836   1.387  -1.437  0.00  0.00     0.032 H 
ATOM     28  H   LIG d   1       5.960   2.196  -2.443  0.00  0.00     0.082 H 
ATOM     29  H   LIG d   1       4.866   1.539  -3.684  0.00  0.00     0.082 H 
ATOM     30  H   LIG d   1       7.062   0.056  -2.359  0.00  0.00     0.205 HD
ENDBRANCH  11  14
ENDBRANCH   9  11
ENDBRANCH   4   7
ENDBRANCH   1   4
BRANCH   1  31
ATOM     31  N   LIG d   1      10.417   4.758  -4.984  0.00  0.00     0.241 N 
ATOM     32  C   LIG d   1      10.842   6.172  -4.915  0.00  0.00     0.006 C 
ATOM     33  H   LIG d   1      11.880   6.275  -5.230  0.00  0.00     0.090 H 
ATOM     34  C   LIG d   1       9.945   7.006  -5.834  0.00  0.00    -0.005 C 
ATOM     35  C   LIG d   1      10.082   6.495  -7.272  0.00  0.00    -0.043 C 
ATOM     36  H   LIG d   1      10.249   8.051  -5.789  0.00  0.00     0.032 H 
ATOM     37  H   LIG d   1       8.908   6.913  -5.512  0.00  0.00     0.032 H 
ATOM     38  C   LIG d   1       9.709   5.011  -7.315  0.00  0.00    -0.012 C 
ATOM     39  H   LIG d   1      11.110   6.623  -7.607  0.00  0.00     0.027 H 
ATOM     40  H   LIG d   1       9.412   7.058  -7.923  0.00  0.00     0.027 H 
ATOM     41  C   LIG d   1      10.612   4.235  -6.353  0.00  0.00    -0.031 C 
ATOM     42  H   LIG d   1       9.845   4.631  -8.328  0.00  0.00     0.032 H 
ATOM     43  H   LIG d   1       8.668   4.887  -7.016  0.00  0.00     0.032 H 
ATOM     44  H   LIG d   1      11.652   4.348  -6.661  0.00  0.00     0.081 H 
ATOM     45  H   LIG d   1      10.340   3.180  -6.371  0.00  0.00     0.081 H 
ATOM     46  H   LIG d   1       9.420   4.697  -4.744  0.00  0.00     0.204 HD
BRANCH  32  47
ATOM     47  C   LIG d   1      10.696   6.657  -3.497  0.00  0.00     0.018 A 
ATOM     48  C   LIG d   1       9.439   6.791  -2.926  0.00  0.00    -0.050 A 
ATOM     49  C   LIG d   1       9.353   7.241  -1.617  0.00  0.00    -0.043 A 
ATOM     50  H   LIG d   1       8.548   6.551  -3.488  0.00  0.00     0.062 H 
ATOM     51  C   LIG d   1      10.513   7.538  -0.929  0.00  0.00     0.028 A 
ATOM     52  H   LIG d   1       8.390   7.356  -1.141  0.00  0.00     0.063 H 
ATOM     53  N   LIG d   1      11.692   7.399  -1.504  0.00  0.00    -0.263 NA
ATOM     54  H   LIG d   1      10.455   7.889   0.091  0.00  0.00     0.083 H 
ATOM     55  C   LIG d   1      11.813   6.969  -2.745  0.00  0.00     0.036 A 
ATOM     56  H   LIG d   1      12.796   6.864  -3.179  0.00  0.00     0.083 H 
ENDBRANCH  32  47
ENDBRANCH   1  31
TORSDOF 6
ENDMDL
MODEL 10
REMARK VINA RESULT:      -5.7      4.337      6.824
REMARK  6 active torsions:
REMARK  status: ('A' for Active; 'I' for Inactive)
REMARK    1  A    between atoms: C_3  and  C_7 
REMARK    2  A    between atoms: C_13  and  C_14 
REMARK    3  A    between atoms: C_13  and  N_53 
REMARK    4  A    between atoms: C_14  and  C_15 
REMARK       I    between atoms: C_15  and  N_17 
REMARK    5  A    between atoms: N_17  and  C_18 
REMARK    6  A    between atoms: C_18  and  N_55 
ROOT
ATOM      1  C   LIG d   1       6.557  -0.384  -5.306  0.00  0.00    -0.023 C 
ATOM      2  H   LIG d   1       7.315  -0.754  -4.615  0.00  0.00     0.082 H 
ATOM      3  H   LIG d   1       6.144  -1.218  -5.873  0.00  0.00     0.082 H 
ENDROOT
BRANCH   1   4
ATOM      4  C   LIG d   1       7.191   0.623  -6.267  0.00  0.00     0.064 C 
ATOM      5  H   LIG d   1       7.474   0.116  -7.190  0.00  0.00     0.041 H 
ATOM      6  H   LIG d   1       6.473   1.412  -6.493  0.00  0.00     0.041 H 
BRANCH   4   7
ATOM      7  C   LIG d   1       8.415   1.226  -5.629  0.00  0.00     0.222 C 
ATOM      8  O   LIG d   1       9.049   0.591  -4.813  0.00  0.00    -0.276 OA
ATOM      9  N   LIG d   1       8.807   2.471  -5.965  0.00  0.00    -0.277 N 
ATOM     10  H   LIG d   1       8.301   2.979  -6.618  0.00  0.00     0.154 HD
BRANCH   9  11
ATOM     11  C   LIG d   1       9.998   3.057  -5.345  0.00  0.00     0.038 C 
ATOM     12  H   LIG d   1      10.456   2.327  -4.677  0.00  0.00     0.104 H 
ATOM     13  H   LIG d   1      10.711   3.337  -6.122  0.00  0.00     0.104 H 
BRANCH  11  14
ATOM     14  N   LIG d   1       9.589   4.243  -4.567  0.00  0.00     0.249 N 
ATOM     15  C   LIG d   1       9.678   5.455  -5.409  0.00  0.00    -0.030 C 
ATOM     16  C   LIG d   1       9.137   6.650  -4.619  0.00  0.00    -0.012 C 
ATOM     17  H   LIG d   1      10.712   5.647  -5.695  0.00  0.00     0.082 H 
ATOM     18  H   LIG d   1       9.075   5.310  -6.304  0.00  0.00     0.082 H 
ATOM     19  C   LIG d   1       9.975   6.839  -3.352  0.00  0.00    -0.043 C 
ATOM     20  H   LIG d   1       8.099   6.465  -4.344  0.00  0.00     0.032 H 
ATOM     21  H   LIG d   1       9.197   7.549  -5.232  0.00  0.00     0.032 H 
ATOM     22  C   LIG d   1       9.934   5.551  -2.525  0.00  0.00    -0.012 C 
ATOM     23  H   LIG d   1       9.567   7.662  -2.764  0.00  0.00     0.027 H 
ATOM     24  H   LIG d   1      11.006   7.062  -3.626  0.00  0.00     0.027 H 
ATOM     25  C   LIG d   1      10.452   4.388  -3.375  0.00  0.00    -0.030 C 
ATOM     26  H   LIG d   1       8.908   5.348  -2.217  0.00  0.00     0.032 H 
ATOM     27  H   LIG d   1      10.563   5.664  -1.642  0.00  0.00     0.032 H 
ATOM     28  H   LIG d   1      10.410   3.467  -2.795  0.00  0.00     0.082 H 
ATOM     29  H   LIG d   1      11.482   4.585  -3.671  0.00  0.00     0.082 H 
ATOM     30  H   LIG d   1       8.616   4.122  -4.261  0.00  0.00     0.205 HD
ENDBRANCH  11  14
ENDBRANCH   9  11
ENDBRANCH   4   7
ENDBRANCH   1   4
BRANCH   1  31
ATOM     31  N   LIG d   1       5.473   0.251  -4.529  0.00  0.00     0.241 N 
ATOM     32  C   LIG d   1       4.247  -0.570  -4.607  0.00  0.00     0.006 C 
ATOM     33  H   LIG d   1       4.405  -1.539  -4.133  0.00  0.00     0.090 H 
ATOM     34  C   LIG d   1       3.109   0.166  -3.895  0.00  0.00    -0.005 C 
ATOM     35  C   LIG d   1       3.490   0.388  -2.428  0.00  0.00    -0.043 C 
ATOM     36  H   LIG d   1       2.199  -0.430  -3.949  0.00  0.00     0.032 H 
ATOM     37  H   LIG d   1       2.942   1.130  -4.377  0.00  0.00     0.032 H 
ATOM     38  C   LIG d   1       4.800   1.176  -2.363  0.00  0.00    -0.012 C 
ATOM     39  H   LIG d   1       3.620  -0.576  -1.937  0.00  0.00     0.027 H 
ATOM     40  H   LIG d   1       2.702   0.950  -1.927  0.00  0.00     0.027 H 
ATOM     41  C   LIG d   1       5.889   0.411  -3.119  0.00  0.00    -0.031 C 
ATOM     42  H   LIG d   1       5.100   1.300  -1.322  0.00  0.00     0.032 H 
ATOM     43  H   LIG d   1       4.661   2.156  -2.821  0.00  0.00     0.032 H 
ATOM     44  H   LIG d   1       6.039  -0.563  -2.653  0.00  0.00     0.081 H 
ATOM     45  H   LIG d   1       6.820   0.977  -3.087  0.00  0.00     0.081 H 
ATOM     46  H   LIG d   1       5.279   1.179  -4.925  0.00  0.00     0.204 HD
BRANCH  32  47
ATOM     47  C   LIG d   1       3.885  -0.772  -6.055  0.00  0.00     0.018 A 
ATOM     48  C   LIG d   1       3.127   0.175  -6.728  0.00  0.00    -0.050 A 
ATOM     49  C   LIG d   1       2.818  -0.053  -8.060  0.00  0.00    -0.043 A 
ATOM     50  H   LIG d   1       2.784   1.067  -6.226  0.00  0.00     0.062 H 
ATOM     51  C   LIG d   1       3.274  -1.206  -8.670  0.00  0.00     0.028 A 
ATOM     52  H   LIG d   1       2.230   0.663  -8.615  0.00  0.00     0.063 H 
ATOM     53  N   LIG d   1       3.993  -2.085  -7.998  0.00  0.00    -0.263 NA
ATOM     54  H   LIG d   1       3.038  -1.391  -9.708  0.00  0.00     0.083 H 
ATOM     55  C   LIG d   1       4.310  -1.899  -6.732  0.00  0.00     0.036 A 
ATOM     56  H   LIG d   1       4.904  -2.639  -6.217  0.00  0.00     0.083 H 
ENDBRANCH  32  47
ENDBRANCH   1  31
TORSDOF 6
ENDMDL
