MODEL 1
REMARK VINA RESULT:      -5.0      0.000      0.000
REMARK  5 active torsions:
REMARK  status: ('A' for Active; 'I' for Inactive)
REMARK    1  A    between atoms: C_1  and  C_2 
REMARK    2  A    between atoms: C_2  and  C_5 
REMARK    3  A    between atoms: N_3  and  O_4 
REMARK    4  A    between atoms: C_10  and  O_11 
REMARK    5  A    between atoms: O_11  and  C_12 
ROOT
ATOM      1  C   LIG d   1       4.618  -1.204  -3.459  0.00  0.00     0.041 A 
ATOM      2  C   LIG d   1       4.805  -0.934  -2.101  0.00  0.00    -0.049 A 
ATOM      3  C   LIG d   1       4.371   0.261  -1.572  0.00  0.00    -0.061 A 
ATOM      4  C   LIG d   1       3.748   1.198  -2.380  0.00  0.00    -0.058 A 
ATOM      5  C   LIG d   1       3.557   0.943  -3.724  0.00  0.00    -0.019 A 
ATOM      6  C   LIG d   1       3.993  -0.252  -4.274  0.00  0.00     0.129 A 
ATOM      7  H   LIG d   1       5.289  -1.663  -1.468  0.00  0.00     0.062 H 
ATOM      8  H   LIG d   1       4.516   0.470  -0.522  0.00  0.00     0.062 H 
ATOM      9  H   LIG d   1       3.410   2.133  -1.957  0.00  0.00     0.062 H 
ATOM     10  H   LIG d   1       3.071   1.679  -4.348  0.00  0.00     0.065 H 
ENDROOT
BRANCH   1  11
ATOM     11  C   LIG d   1       5.080  -2.482  -4.031  0.00  0.00     0.087 C 
ATOM     12  N   LIG d   1       4.227  -3.418  -4.297  0.00  0.00    -0.092 NA
BRANCH  11  13
ATOM     13  C   LIG d   1       6.546  -2.698  -4.307  0.00  0.00    -0.018 C 
ATOM     14  H   LIG d   1       6.675  -3.059  -5.327  0.00  0.00     0.029 H 
ATOM     15  H   LIG d   1       7.081  -1.757  -4.183  0.00  0.00     0.029 H 
ATOM     16  H   LIG d   1       6.941  -3.436  -3.608  0.00  0.00     0.029 H 
ENDBRANCH  11  13
BRANCH  12  17
ATOM     17  O   LIG d   1       4.670  -4.645  -4.847  0.00  0.00    -0.409 OA
ATOM     18  H   LIG d   1       4.793  -5.347  -4.195  0.00  0.00     0.328 HD
ENDBRANCH  12  17
ENDBRANCH   1  11
BRANCH   6  19
ATOM     19  O   LIG d   1       3.810  -0.501  -5.596  0.00  0.00    -0.494 OA
BRANCH  19  20
ATOM     20  C   LIG d   1       2.826   0.282  -6.274  0.00  0.00     0.079 C 
ATOM     21  H   LIG d   1       2.680  -0.108  -7.281  0.00  0.00     0.066 H 
ATOM     22  H   LIG d   1       1.884   0.234  -5.726  0.00  0.00     0.066 H 
ATOM     23  H   LIG d   1       3.161   1.318  -6.331  0.00  0.00     0.066 H 
ENDBRANCH  19  20
ENDBRANCH   6  19
TORSDOF 5
ENDMDL
MODEL 2
REMARK VINA RESULT:      -4.7      2.729      3.604
REMARK  5 active torsions:
REMARK  status: ('A' for Active; 'I' for Inactive)
REMARK    1  A    between atoms: C_1  and  C_2 
REMARK    2  A    between atoms: C_2  and  C_5 
REMARK    3  A    between atoms: N_3  and  O_4 
REMARK    4  A    between atoms: C_10  and  O_11 
REMARK    5  A    between atoms: O_11  and  C_12 
ROOT
ATOM      1  C   LIG d   1       4.015  -0.492  -4.508  0.00  0.00     0.041 A 
ATOM      2  C   LIG d   1       3.073  -1.237  -3.795  0.00  0.00    -0.049 A 
ATOM      3  C   LIG d   1       3.298  -1.541  -2.470  0.00  0.00    -0.061 A 
ATOM      4  C   LIG d   1       4.455  -1.111  -1.841  0.00  0.00    -0.058 A 
ATOM      5  C   LIG d   1       5.394  -0.374  -2.536  0.00  0.00    -0.019 A 
ATOM      6  C   LIG d   1       5.186  -0.065  -3.871  0.00  0.00     0.129 A 
ATOM      7  H   LIG d   1       2.169  -1.573  -4.281  0.00  0.00     0.062 H 
ATOM      8  H   LIG d   1       2.569  -2.117  -1.918  0.00  0.00     0.062 H 
ATOM      9  H   LIG d   1       4.624  -1.353  -0.802  0.00  0.00     0.062 H 
ATOM     10  H   LIG d   1       6.294  -0.043  -2.039  0.00  0.00     0.065 H 
ENDROOT
BRANCH   1  11
ATOM     11  C   LIG d   1       3.779  -0.164  -5.927  0.00  0.00     0.087 C 
ATOM     12  N   LIG d   1       3.134   0.913  -6.242  0.00  0.00    -0.092 NA
BRANCH  11  13
ATOM     13  C   LIG d   1       4.290  -1.081  -7.008  0.00  0.00    -0.018 C 
ATOM     14  H   LIG d   1       3.668  -0.977  -7.896  0.00  0.00     0.029 H 
ATOM     15  H   LIG d   1       5.319  -0.817  -7.252  0.00  0.00     0.029 H 
ATOM     16  H   LIG d   1       4.253  -2.112  -6.656  0.00  0.00     0.029 H 
ENDBRANCH  11  13
BRANCH  12  17
ATOM     17  O   LIG d   1       2.908   1.230  -7.603  0.00  0.00    -0.409 OA
ATOM     18  H   LIG d   1       3.591   1.790  -7.995  0.00  0.00     0.328 HD
ENDBRANCH  12  17
ENDBRANCH   1  11
BRANCH   6  19
ATOM     19  O   LIG d   1       6.111   0.655  -4.556  0.00  0.00    -0.494 OA
BRANCH  19  20
ATOM     20  C   LIG d   1       7.219   1.164  -3.811  0.00  0.00     0.079 C 
ATOM     21  H   LIG d   1       8.150   0.874  -4.300  0.00  0.00     0.066 H 
ATOM     22  H   LIG d   1       7.157   2.251  -3.765  0.00  0.00     0.066 H 
ATOM     23  H   LIG d   1       7.197   0.755  -2.801  0.00  0.00     0.066 H 
ENDBRANCH  19  20
ENDBRANCH   6  19
TORSDOF 5
ENDMDL
MODEL 3
REMARK VINA RESULT:      -4.7      1.695      2.305
REMARK  5 active torsions:
REMARK  status: ('A' for Active; 'I' for Inactive)
REMARK    1  A    between atoms: C_1  and  C_2 
REMARK    2  A    between atoms: C_2  and  C_5 
REMARK    3  A    between atoms: N_3  and  O_4 
REMARK    4  A    between atoms: C_10  and  O_11 
REMARK    5  A    between atoms: O_11  and  C_12 
ROOT
ATOM      1  C   LIG d   1       4.411  -1.180  -3.733  0.00  0.00     0.041 A 
ATOM      2  C   LIG d   1       3.160  -0.684  -3.359  0.00  0.00    -0.049 A 
ATOM      3  C   LIG d   1       3.075   0.421  -2.540  0.00  0.00    -0.061 A 
ATOM      4  C   LIG d   1       4.226   1.045  -2.087  0.00  0.00    -0.058 A 
ATOM      5  C   LIG d   1       5.469   0.564  -2.449  0.00  0.00    -0.019 A 
ATOM      6  C   LIG d   1       5.572  -0.551  -3.267  0.00  0.00     0.129 A 
ATOM      7  H   LIG d   1       2.260  -1.166  -3.711  0.00  0.00     0.062 H 
ATOM      8  H   LIG d   1       2.108   0.805  -2.251  0.00  0.00     0.062 H 
ATOM      9  H   LIG d   1       4.151   1.911  -1.446  0.00  0.00     0.062 H 
ATOM     10  H   LIG d   1       6.362   1.055  -2.091  0.00  0.00     0.065 H 
ENDROOT
BRANCH   1  11
ATOM     11  C   LIG d   1       4.509  -2.362  -4.609  0.00  0.00     0.087 C 
ATOM     12  N   LIG d   1       4.367  -3.548  -4.111  0.00  0.00    -0.092 NA
BRANCH  11  13
ATOM     13  C   LIG d   1       4.772  -2.189  -6.082  0.00  0.00    -0.018 C 
ATOM     14  H   LIG d   1       3.868  -2.423  -6.643  0.00  0.00     0.029 H 
ATOM     15  H   LIG d   1       5.066  -1.158  -6.280  0.00  0.00     0.029 H 
ATOM     16  H   LIG d   1       5.574  -2.861  -6.389  0.00  0.00     0.029 H 
ENDBRANCH  11  13
BRANCH  12  17
ATOM     17  O   LIG d   1       4.459  -4.684  -4.952  0.00  0.00    -0.409 OA
ATOM     18  H   LIG d   1       4.079  -5.487  -4.571  0.00  0.00     0.328 HD
ENDBRANCH  12  17
ENDBRANCH   1  11
BRANCH   6  19
ATOM     19  O   LIG d   1       6.794  -1.027  -3.619  0.00  0.00    -0.494 OA
BRANCH  19  20
ATOM     20  C   LIG d   1       7.630  -0.161  -4.391  0.00  0.00     0.079 C 
ATOM     21  H   LIG d   1       8.453   0.195  -3.772  0.00  0.00     0.066 H 
ATOM     22  H   LIG d   1       8.028  -0.708  -5.245  0.00  0.00     0.066 H 
ATOM     23  H   LIG d   1       7.046   0.689  -4.743  0.00  0.00     0.066 H 
ENDBRANCH  19  20
ENDBRANCH   6  19
TORSDOF 5
ENDMDL
MODEL 4
REMARK VINA RESULT:      -4.7      3.035      4.132
REMARK  5 active torsions:
REMARK  status: ('A' for Active; 'I' for Inactive)
REMARK    1  A    between atoms: C_1  and  C_2 
REMARK    2  A    between atoms: C_2  and  C_5 
REMARK    3  A    between atoms: N_3  and  O_4 
REMARK    4  A    between atoms: C_10  and  O_11 
REMARK    5  A    between atoms: O_11  and  C_12 
ROOT
ATOM      1  C   LIG d   1       6.178   0.336  -3.469  0.00  0.00     0.041 A 
ATOM      2  C   LIG d   1       5.370   1.081  -2.607  0.00  0.00    -0.049 A 
ATOM      3  C   LIG d   1       4.462   0.441  -1.792  0.00  0.00    -0.061 A 
ATOM      4  C   LIG d   1       4.347  -0.939  -1.823  0.00  0.00    -0.058 A 
ATOM      5  C   LIG d   1       5.140  -1.687  -2.671  0.00  0.00    -0.019 A 
ATOM      6  C   LIG d   1       6.054  -1.058  -3.503  0.00  0.00     0.129 A 
ATOM      7  H   LIG d   1       5.458   2.157  -2.579  0.00  0.00     0.062 H 
ATOM      8  H   LIG d   1       3.838   1.017  -1.125  0.00  0.00     0.062 H 
ATOM      9  H   LIG d   1       3.633  -1.433  -1.180  0.00  0.00     0.062 H 
ATOM     10  H   LIG d   1       5.045  -2.763  -2.690  0.00  0.00     0.065 H 
ENDROOT
BRANCH   1  11
ATOM     11  C   LIG d   1       7.152   1.016  -4.344  0.00  0.00     0.087 C 
ATOM     12  N   LIG d   1       6.944   1.074  -5.620  0.00  0.00    -0.092 NA
BRANCH  11  13
ATOM     13  C   LIG d   1       8.389   1.642  -3.752  0.00  0.00    -0.018 C 
ATOM     14  H   LIG d   1       9.093   0.860  -3.472  0.00  0.00     0.029 H 
ATOM     15  H   LIG d   1       8.850   2.301  -4.488  0.00  0.00     0.029 H 
ATOM     16  H   LIG d   1       8.115   2.219  -2.868  0.00  0.00     0.029 H 
ENDBRANCH  11  13
BRANCH  12  17
ATOM     17  O   LIG d   1       7.878   1.727  -6.460  0.00  0.00    -0.409 OA
ATOM     18  H   LIG d   1       7.520   2.496  -6.924  0.00  0.00     0.328 HD
ENDBRANCH  12  17
ENDBRANCH   1  11
BRANCH   6  19
ATOM     19  O   LIG d   1       6.831  -1.792  -4.341  0.00  0.00    -0.494 OA
BRANCH  19  20
ATOM     20  C   LIG d   1       7.781  -2.673  -3.739  0.00  0.00     0.079 C 
ATOM     21  H   LIG d   1       8.305  -3.228  -4.517  0.00  0.00     0.066 H 
ATOM     22  H   LIG d   1       8.500  -2.092  -3.161  0.00  0.00     0.066 H 
ATOM     23  H   LIG d   1       7.265  -3.371  -3.081  0.00  0.00     0.066 H 
ENDBRANCH  19  20
ENDBRANCH   6  19
TORSDOF 5
ENDMDL
MODEL 5
REMARK VINA RESULT:      -4.7      2.518      3.655
REMARK  5 active torsions:
REMARK  status: ('A' for Active; 'I' for Inactive)
REMARK    1  A    between atoms: C_1  and  C_2 
REMARK    2  A    between atoms: C_2  and  C_5 
REMARK    3  A    between atoms: N_3  and  O_4 
REMARK    4  A    between atoms: C_10  and  O_11 
REMARK    5  A    between atoms: O_11  and  C_12 
ROOT
ATOM      1  C   LIG d   1       4.225  -0.974  -4.985  0.00  0.00     0.041 A 
ATOM      2  C   LIG d   1       4.601  -2.312  -4.842  0.00  0.00    -0.049 A 
ATOM      3  C   LIG d   1       4.458  -2.939  -3.623  0.00  0.00    -0.061 A 
ATOM      4  C   LIG d   1       3.942  -2.249  -2.539  0.00  0.00    -0.058 A 
ATOM      5  C   LIG d   1       3.567  -0.925  -2.668  0.00  0.00    -0.019 A 
ATOM      6  C   LIG d   1       3.711  -0.277  -3.885  0.00  0.00     0.129 A 
ATOM      7  H   LIG d   1       5.002  -2.854  -5.685  0.00  0.00     0.062 H 
ATOM      8  H   LIG d   1       4.748  -3.973  -3.512  0.00  0.00     0.062 H 
ATOM      9  H   LIG d   1       3.833  -2.747  -1.587  0.00  0.00     0.062 H 
ATOM     10  H   LIG d   1       3.166  -0.393  -1.818  0.00  0.00     0.065 H 
ENDROOT
BRANCH   1  11
ATOM     11  C   LIG d   1       4.376  -0.298  -6.287  0.00  0.00     0.087 C 
ATOM     12  N   LIG d   1       5.494   0.280  -6.591  0.00  0.00    -0.092 NA
BRANCH  11  13
ATOM     13  C   LIG d   1       3.229  -0.279  -7.264  0.00  0.00    -0.018 C 
ATOM     14  H   LIG d   1       3.198  -1.222  -7.808  0.00  0.00     0.029 H 
ATOM     15  H   LIG d   1       2.293  -0.140  -6.723  0.00  0.00     0.029 H 
ATOM     16  H   LIG d   1       3.366   0.542  -7.969  0.00  0.00     0.029 H 
ENDBRANCH  11  13
BRANCH  12  17
ATOM     17  O   LIG d   1       5.640   0.928  -7.841  0.00  0.00    -0.409 OA
ATOM     18  H   LIG d   1       4.927   1.547  -8.048  0.00  0.00     0.328 HD
ENDBRANCH  12  17
ENDBRANCH   1  11
BRANCH   6  19
ATOM     19  O   LIG d   1       3.347   1.025  -4.012  0.00  0.00    -0.494 OA
BRANCH  19  20
ATOM     20  C   LIG d   1       3.595   1.879  -2.893  0.00  0.00     0.079 C 
ATOM     21  H   LIG d   1       3.445   2.917  -3.189  0.00  0.00     0.066 H 
ATOM     22  H   LIG d   1       2.908   1.629  -2.085  0.00  0.00     0.066 H 
ATOM     23  H   LIG d   1       4.622   1.743  -2.553  0.00  0.00     0.066 H 
ENDBRANCH  19  20
ENDBRANCH   6  19
TORSDOF 5
ENDMDL
MODEL 6
REMARK VINA RESULT:      -4.6      2.668      2.917
REMARK  5 active torsions:
REMARK  status: ('A' for Active; 'I' for Inactive)
REMARK    1  A    between atoms: C_1  and  C_2 
REMARK    2  A    between atoms: C_2  and  C_5 
REMARK    3  A    between atoms: N_3  and  O_4 
REMARK    4  A    between atoms: C_10  and  O_11 
REMARK    5  A    between atoms: O_11  and  C_12 
ROOT
ATOM      1  C   LIG d   1       5.994  -1.260  -3.240  0.00  0.00     0.041 A 
ATOM      2  C   LIG d   1       4.880  -1.620  -2.477  0.00  0.00    -0.049 A 
ATOM      3  C   LIG d   1       4.144  -0.648  -1.834  0.00  0.00    -0.061 A 
ATOM      4  C   LIG d   1       4.503   0.685  -1.942  0.00  0.00    -0.058 A 
ATOM      5  C   LIG d   1       5.603   1.054  -2.694  0.00  0.00    -0.019 A 
ATOM      6  C   LIG d   1       6.358   0.088  -3.341  0.00  0.00     0.129 A 
ATOM      7  H   LIG d   1       4.596  -2.658  -2.392  0.00  0.00     0.062 H 
ATOM      8  H   LIG d   1       3.283  -0.926  -1.245  0.00  0.00     0.062 H 
ATOM      9  H   LIG d   1       3.921   1.441  -1.436  0.00  0.00     0.062 H 
ATOM     10  H   LIG d   1       5.877   2.096  -2.773  0.00  0.00     0.065 H 
ENDROOT
BRANCH   1  11
ATOM     11  C   LIG d   1       6.785  -2.296  -3.930  0.00  0.00     0.087 C 
ATOM     12  N   LIG d   1       7.852  -2.772  -3.374  0.00  0.00    -0.092 NA
BRANCH  11  13
ATOM     13  C   LIG d   1       6.352  -2.799  -5.283  0.00  0.00    -0.018 C 
ATOM     14  H   LIG d   1       6.702  -3.822  -5.420  0.00  0.00     0.029 H 
ATOM     15  H   LIG d   1       5.264  -2.775  -5.348  0.00  0.00     0.029 H 
ATOM     16  H   LIG d   1       6.776  -2.163  -6.060  0.00  0.00     0.029 H 
ENDBRANCH  11  13
BRANCH  12  17
ATOM     17  O   LIG d   1       8.611  -3.767  -4.035  0.00  0.00    -0.409 OA
ATOM     18  H   LIG d   1       8.539  -3.742  -4.998  0.00  0.00     0.328 HD
ENDBRANCH  12  17
ENDBRANCH   1  11
BRANCH   6  19
ATOM     19  O   LIG d   1       7.441   0.449  -4.075  0.00  0.00    -0.494 OA
BRANCH  19  20
ATOM     20  C   LIG d   1       7.935   1.778  -3.893  0.00  0.00     0.079 C 
ATOM     21  H   LIG d   1       8.744   1.768  -3.163  0.00  0.00     0.066 H 
ATOM     22  H   LIG d   1       8.310   2.159  -4.843  0.00  0.00     0.066 H 
ATOM     23  H   LIG d   1       7.130   2.419  -3.536  0.00  0.00     0.066 H 
ENDBRANCH  19  20
ENDBRANCH   6  19
TORSDOF 5
ENDMDL
MODEL 7
REMARK VINA RESULT:      -4.6      1.917      3.642
REMARK  5 active torsions:
REMARK  status: ('A' for Active; 'I' for Inactive)
REMARK    1  A    between atoms: C_1  and  C_2 
REMARK    2  A    between atoms: C_2  and  C_5 
REMARK    3  A    between atoms: N_3  and  O_4 
REMARK    4  A    between atoms: C_10  and  O_11 
REMARK    5  A    between atoms: O_11  and  C_12 
ROOT
ATOM      1  C   LIG d   1       4.186  -0.613  -4.601  0.00  0.00     0.041 A 
ATOM      2  C   LIG d   1       3.973   0.222  -3.502  0.00  0.00    -0.049 A 
ATOM      3  C   LIG d   1       3.964  -0.306  -2.229  0.00  0.00    -0.061 A 
ATOM      4  C   LIG d   1       4.167  -1.662  -2.034  0.00  0.00    -0.058 A 
ATOM      5  C   LIG d   1       4.379  -2.498  -3.113  0.00  0.00    -0.019 A 
ATOM      6  C   LIG d   1       4.384  -1.985  -4.401  0.00  0.00     0.129 A 
ATOM      7  H   LIG d   1       3.816   1.281  -3.650  0.00  0.00     0.062 H 
ATOM      8  H   LIG d   1       3.800   0.340  -1.380  0.00  0.00     0.062 H 
ATOM      9  H   LIG d   1       4.159  -2.068  -1.033  0.00  0.00     0.062 H 
ATOM     10  H   LIG d   1       4.535  -3.555  -2.953  0.00  0.00     0.065 H 
ENDROOT
BRANCH   1  11
ATOM     11  C   LIG d   1       4.197  -0.054  -5.966  0.00  0.00     0.087 C 
ATOM     12  N   LIG d   1       5.319   0.278  -6.520  0.00  0.00    -0.092 NA
BRANCH  11  13
ATOM     13  C   LIG d   1       2.903   0.131  -6.716  0.00  0.00    -0.018 C 
ATOM     14  H   LIG d   1       2.136   0.493  -6.032  0.00  0.00     0.029 H 
ATOM     15  H   LIG d   1       3.047   0.855  -7.517  0.00  0.00     0.029 H 
ATOM     16  H   LIG d   1       2.590  -0.824  -7.140  0.00  0.00     0.029 H 
ENDBRANCH  11  13
BRANCH  12  17
ATOM     17  O   LIG d   1       5.330   0.814  -7.830  0.00  0.00    -0.409 OA
ATOM     18  H   LIG d   1       4.461   0.842  -8.252  0.00  0.00     0.328 HD
ENDBRANCH  12  17
ENDBRANCH   1  11
BRANCH   6  19
ATOM     19  O   LIG d   1       4.587  -2.807  -5.462  0.00  0.00    -0.494 OA
BRANCH  19  20
ATOM     20  C   LIG d   1       4.971  -4.153  -5.175  0.00  0.00     0.079 C 
ATOM     21  H   LIG d   1       5.310  -4.222  -4.142  0.00  0.00     0.066 H 
ATOM     22  H   LIG d   1       4.116  -4.813  -5.321  0.00  0.00     0.066 H 
ATOM     23  H   LIG d   1       5.779  -4.451  -5.843  0.00  0.00     0.066 H 
ENDBRANCH  19  20
ENDBRANCH   6  19
TORSDOF 5
ENDMDL
MODEL 8
REMARK VINA RESULT:      -4.5      2.698      4.420
REMARK  5 active torsions:
REMARK  status: ('A' for Active; 'I' for Inactive)
REMARK    1  A    between atoms: C_1  and  C_2 
REMARK    2  A    between atoms: C_2  and  C_5 
REMARK    3  A    between atoms: N_3  and  O_4 
REMARK    4  A    between atoms: C_10  and  O_11 
REMARK    5  A    between atoms: O_11  and  C_12 
ROOT
ATOM      1  C   LIG d   1       5.116  -0.882  -3.560  0.00  0.00     0.041 A 
ATOM      2  C   LIG d   1       4.317  -2.002  -3.801  0.00  0.00    -0.049 A 
ATOM      3  C   LIG d   1       4.892  -3.175  -4.239  0.00  0.00    -0.061 A 
ATOM      4  C   LIG d   1       6.260  -3.250  -4.440  0.00  0.00    -0.058 A 
ATOM      5  C   LIG d   1       7.062  -2.149  -4.204  0.00  0.00    -0.019 A 
ATOM      6  C   LIG d   1       6.498  -0.959  -3.770  0.00  0.00     0.129 A 
ATOM      7  H   LIG d   1       3.249  -1.949  -3.644  0.00  0.00     0.062 H 
ATOM      8  H   LIG d   1       4.274  -4.041  -4.425  0.00  0.00     0.062 H 
ATOM      9  H   LIG d   1       6.704  -4.173  -4.782  0.00  0.00     0.062 H 
ATOM     10  H   LIG d   1       8.128  -2.215  -4.364  0.00  0.00     0.065 H 
ENDROOT
BRANCH   1  11
ATOM     11  C   LIG d   1       4.506   0.376  -3.091  0.00  0.00     0.087 C 
ATOM     12  N   LIG d   1       3.917   1.162  -3.934  0.00  0.00    -0.092 NA
BRANCH  11  13
ATOM     13  C   LIG d   1       4.568   0.746  -1.631  0.00  0.00    -0.018 C 
ATOM     14  H   LIG d   1       5.609   0.843  -1.325  0.00  0.00     0.029 H 
ATOM     15  H   LIG d   1       4.052   1.694  -1.474  0.00  0.00     0.029 H 
ATOM     16  H   LIG d   1       4.086  -0.032  -1.039  0.00  0.00     0.029 H 
ENDBRANCH  11  13
BRANCH  12  17
ATOM     17  O   LIG d   1       3.330   2.370  -3.484  0.00  0.00    -0.409 OA
ATOM     18  H   LIG d   1       3.832   3.162  -3.718  0.00  0.00     0.328 HD
ENDBRANCH  12  17
ENDBRANCH   1  11
BRANCH   6  19
ATOM     19  O   LIG d   1       7.284   0.124  -3.544  0.00  0.00    -0.494 OA
BRANCH  19  20
ATOM     20  C   LIG d   1       7.857   0.761  -4.688  0.00  0.00     0.079 C 
ATOM     21  H   LIG d   1       7.759   1.841  -4.590  0.00  0.00     0.066 H 
ATOM     22  H   LIG d   1       8.913   0.498  -4.759  0.00  0.00     0.066 H 
ATOM     23  H   LIG d   1       7.338   0.429  -5.587  0.00  0.00     0.066 H 
ENDBRANCH  19  20
ENDBRANCH   6  19
TORSDOF 5
ENDMDL
MODEL 9
REMARK VINA RESULT:      -4.4      2.110      2.185
REMARK  5 active torsions:
REMARK  status: ('A' for Active; 'I' for Inactive)
REMARK    1  A    between atoms: C_1  and  C_2 
REMARK    2  A    between atoms: C_2  and  C_5 
REMARK    3  A    between atoms: N_3  and  O_4 
REMARK    4  A    between atoms: C_10  and  O_11 
REMARK    5  A    between atoms: O_11  and  C_12 
ROOT
ATOM      1  C   LIG d   1       5.559  -0.260  -3.449  0.00  0.00     0.041 A 
ATOM      2  C   LIG d   1       5.400   0.542  -2.317  0.00  0.00    -0.049 A 
ATOM      3  C   LIG d   1       4.173   1.108  -2.041  0.00  0.00    -0.061 A 
ATOM      4  C   LIG d   1       3.096   0.882  -2.882  0.00  0.00    -0.058 A 
ATOM      5  C   LIG d   1       3.240   0.091  -4.005  0.00  0.00    -0.019 A 
ATOM      6  C   LIG d   1       4.469  -0.480  -4.300  0.00  0.00     0.129 A 
ATOM      7  H   LIG d   1       6.237   0.719  -1.658  0.00  0.00     0.062 H 
ATOM      8  H   LIG d   1       4.051   1.728  -1.166  0.00  0.00     0.062 H 
ATOM      9  H   LIG d   1       2.138   1.329  -2.659  0.00  0.00     0.062 H 
ATOM     10  H   LIG d   1       2.396  -0.080  -4.657  0.00  0.00     0.065 H 
ENDROOT
BRANCH   1  11
ATOM     11  C   LIG d   1       6.869  -0.868  -3.749  0.00  0.00     0.087 C 
ATOM     12  N   LIG d   1       7.167  -2.031  -3.268  0.00  0.00    -0.092 NA
BRANCH  11  13
ATOM     13  C   LIG d   1       7.859  -0.134  -4.615  0.00  0.00    -0.018 C 
ATOM     14  H   LIG d   1       7.636   0.932  -4.600  0.00  0.00     0.029 H 
ATOM     15  H   LIG d   1       8.867  -0.299  -4.235  0.00  0.00     0.029 H 
ATOM     16  H   LIG d   1       7.791  -0.505  -5.638  0.00  0.00     0.029 H 
ENDBRANCH  11  13
BRANCH  12  17
ATOM     17  O   LIG d   1       8.424  -2.616  -3.556  0.00  0.00    -0.409 OA
ATOM     18  H   LIG d   1       8.423  -3.582  -3.534  0.00  0.00     0.328 HD
ENDBRANCH  12  17
ENDBRANCH   1  11
BRANCH   6  19
ATOM     19  O   LIG d   1       4.613  -1.254  -5.406  0.00  0.00    -0.494 OA
BRANCH  19  20
ATOM     20  C   LIG d   1       4.185  -0.695  -6.650  0.00  0.00     0.079 C 
ATOM     21  H   LIG d   1       4.791   0.181  -6.882  0.00  0.00     0.066 H 
ATOM     22  H   LIG d   1       4.301  -1.436  -7.441  0.00  0.00     0.066 H 
ATOM     23  H   LIG d   1       3.138  -0.403  -6.576  0.00  0.00     0.066 H 
ENDBRANCH  19  20
ENDBRANCH   6  19
TORSDOF 5
ENDMDL
