MODEL 1
REMARK VINA RESULT:      -6.8      0.000      0.000
REMARK  12 active torsions:
REMARK  status: ('A' for Active; 'I' for Inactive)
REMARK    1  A    between atoms: C_1  and  C_2 
REMARK    2  A    between atoms: C_3  and  C_29 
REMARK    3  A    between atoms: C_4  and  O_28 
REMARK    4  A    between atoms: C_5  and  C_10 
REMARK    5  A    between atoms: C_6  and  O_9 
REMARK    6  A    between atoms: C_10  and  C_11 
REMARK    7  A    between atoms: C_12  and  C_13 
REMARK    8  A    between atoms: C_12  and  C_14 
REMARK    9  A    between atoms: C_15  and  C_16 
REMARK   10  A    between atoms: C_16  and  C_27 
REMARK   11  A    between atoms: C_17  and  C_26 
REMARK   12  A    between atoms: C_23  and  C_25 
ROOT
ATOM      1  C   LIG d   1       5.873  -4.868  -6.203  0.00  0.00    -0.077 C 
ATOM      2  C   LIG d   1       4.825  -4.144  -6.581  0.00  0.00    -0.054 C 
ATOM      3  H   LIG d   1       6.535  -4.499  -5.434  0.00  0.00     0.058 H 
ENDROOT
BRANCH   2   4
ATOM      4  C   LIG d   1       3.820  -4.721  -7.544  0.00  0.00    -0.040 C 
ATOM      5  H   LIG d   1       4.151  -4.540  -8.567  0.00  0.00     0.028 H 
ATOM      6  H   LIG d   1       3.729  -5.793  -7.376  0.00  0.00     0.028 H 
ATOM      7  H   LIG d   1       2.851  -4.244  -7.386  0.00  0.00     0.028 H 
ENDBRANCH   2   4
BRANCH   2   8
ATOM      8  C   LIG d   1       4.647  -2.780  -6.060  0.00  0.00    -0.062 C 
ATOM      9  C   LIG d   1       4.828  -2.534  -4.767  0.00  0.00    -0.077 C 
ATOM     10  H   LIG d   1       5.109  -3.335  -4.099  0.00  0.00     0.058 H 
ATOM     11  H   LIG d   1       4.366  -1.979  -6.728  0.00  0.00     0.062 H 
BRANCH   9  12
ATOM     12  C   LIG d   1       4.639  -1.128  -4.228  0.00  0.00     0.002 C 
ATOM     13  C   LIG d   1       6.012  -0.534  -3.929  0.00  0.00     0.028 C 
ATOM     14  C   LIG d   1       5.857   0.765  -3.173  0.00  0.00     0.159 C 
ATOM     15  H   LIG d   1       6.486  -0.340  -4.788  0.00  0.00     0.039 H 
ATOM     16  C   LIG d   1       4.887   0.801  -2.076  0.00  0.00    -0.023 C 
ATOM     17  O   LIG d   1       6.534   1.735  -3.446  0.00  0.00    -0.292 OA
ATOM     18  C   LIG d   1       3.949  -0.130  -1.996  0.00  0.00    -0.077 C 
ATOM     19  H   LIG d   1       4.961   1.563  -1.316  0.00  0.00     0.065 H 
ATOM     20  C   LIG d   1       3.723  -1.193  -3.019  0.00  0.00    -0.016 C 
ATOM     21  H   LIG d   1       3.302  -0.115  -1.125  0.00  0.00     0.058 H 
ATOM     22  H   LIG d   1       2.685  -1.076  -3.387  0.00  0.00     0.035 H 
BRANCH  13  23
ATOM     23  C   LIG d   1       6.885  -1.509  -3.137  0.00  0.00    -0.055 C 
ATOM     24  H   LIG d   1       7.370  -2.202  -3.824  0.00  0.00     0.024 H 
ATOM     25  H   LIG d   1       7.644  -0.952  -2.587  0.00  0.00     0.024 H 
ATOM     26  H   LIG d   1       6.264  -2.066  -2.436  0.00  0.00     0.024 H 
ENDBRANCH  13  23
BRANCH  20  27
ATOM     27  C   LIG d   1       3.806  -2.572  -2.360  0.00  0.00    -0.058 C 
ATOM     28  H   LIG d   1       4.300  -2.482  -1.394  0.00  0.00     0.024 H 
ATOM     29  H   LIG d   1       2.801  -2.968  -2.219  0.00  0.00     0.024 H 
ATOM     30  H   LIG d   1       4.376  -3.246  -3.000  0.00  0.00     0.024 H 
ENDBRANCH  20  27
BRANCH  12  31
ATOM     31  C   LIG d   1       3.961  -0.292  -5.326  0.00  0.00    -0.055 C 
ATOM     32  H   LIG d   1       4.533   0.620  -5.494  0.00  0.00     0.024 H 
ATOM     33  H   LIG d   1       3.921  -0.870  -6.250  0.00  0.00     0.024 H 
ATOM     34  H   LIG d   1       2.949  -0.035  -5.014  0.00  0.00     0.024 H 
ENDBRANCH  12  31
ENDBRANCH   9  12
ENDBRANCH   2   8
BRANCH   1  35
ATOM     35  C   LIG d   1       6.138  -6.204  -6.848  0.00  0.00    -0.002 C 
ATOM     36  H   LIG d   1       5.302  -6.468  -7.495  0.00  0.00     0.036 H 
ATOM     37  H   LIG d   1       7.052  -6.147  -7.440  0.00  0.00     0.036 H 
BRANCH  35  38
ATOM     38  C   LIG d   1       6.297  -7.255  -5.780  0.00  0.00     0.041 A 
ATOM     39  C   LIG d   1       5.234  -8.084  -5.461  0.00  0.00     0.134 A 
ATOM     40  C   LIG d   1       5.392  -9.066  -4.467  0.00  0.00     0.060 A 
ATOM     41  C   LIG d   1       6.620  -9.186  -3.799  0.00  0.00    -0.015 A 
ATOM     42  C   LIG d   1       7.657  -8.358  -4.120  0.00  0.00     0.086 A 
ATOM     43  C   LIG d   1       7.504  -7.388  -5.110  0.00  0.00     0.142 A 
ATOM     44 CL   LIG d   1       9.173  -8.512  -3.290  0.00  0.00    -0.080 Cl
BRANCH  39  45
ATOM     45  O   LIG d   1       4.050  -7.954  -6.109  0.00  0.00    -0.506 OA
ATOM     46  H   LIG d   1       3.638  -8.795  -6.350  0.00  0.00     0.292 HD
ENDBRANCH  39  45
BRANCH  40  47
ATOM     47  C   LIG d   1       4.280  -9.954  -4.124  0.00  0.00     0.154 C 
ATOM     48  O   LIG d   1       3.297  -9.507  -3.568  0.00  0.00    -0.296 OA
ATOM     49  H   LIG d   1       4.332 -11.004  -4.366  0.00  0.00     0.108 H 
ENDBRANCH  40  47
BRANCH  41  50
ATOM     50  C   LIG d   1       6.796 -10.231  -2.728  0.00  0.00    -0.037 C 
ATOM     51  H   LIG d   1       5.868 -10.790  -2.609  0.00  0.00     0.028 H 
ATOM     52  H   LIG d   1       7.598 -10.912  -3.013  0.00  0.00     0.028 H 
ATOM     53  H   LIG d   1       7.051  -9.746  -1.786  0.00  0.00     0.028 H 
ENDBRANCH  41  50
BRANCH  43  54
ATOM     54  O   LIG d   1       8.541  -6.570  -5.420  0.00  0.00    -0.505 OA
ATOM     55  H   LIG d   1       9.050  -6.857  -6.191  0.00  0.00     0.292 HD
ENDBRANCH  43  54
ENDBRANCH  35  38
ENDBRANCH   1  35
TORSDOF 12
ENDMDL
MODEL 2
REMARK VINA RESULT:      -6.6      1.505      2.193
REMARK  12 active torsions:
REMARK  status: ('A' for Active; 'I' for Inactive)
REMARK    1  A    between atoms: C_1  and  C_2 
REMARK    2  A    between atoms: C_3  and  C_29 
REMARK    3  A    between atoms: C_4  and  O_28 
REMARK    4  A    between atoms: C_5  and  C_10 
REMARK    5  A    between atoms: C_6  and  O_9 
REMARK    6  A    between atoms: C_10  and  C_11 
REMARK    7  A    between atoms: C_12  and  C_13 
REMARK    8  A    between atoms: C_12  and  C_14 
REMARK    9  A    between atoms: C_15  and  C_16 
REMARK   10  A    between atoms: C_16  and  C_27 
REMARK   11  A    between atoms: C_17  and  C_26 
REMARK   12  A    between atoms: C_23  and  C_25 
ROOT
ATOM      1  C   LIG d   1       5.494  -5.885  -5.579  0.00  0.00    -0.077 C 
ATOM      2  C   LIG d   1       5.996  -4.717  -5.195  0.00  0.00    -0.054 C 
ATOM      3  H   LIG d   1       4.424  -6.027  -5.616  0.00  0.00     0.058 H 
ENDROOT
BRANCH   2   4
ATOM      4  C   LIG d   1       7.480  -4.469  -5.285  0.00  0.00    -0.040 C 
ATOM      5  H   LIG d   1       7.825  -3.995  -4.366  0.00  0.00     0.028 H 
ATOM      6  H   LIG d   1       7.998  -5.417  -5.422  0.00  0.00     0.028 H 
ATOM      7  H   LIG d   1       7.687  -3.814  -6.133  0.00  0.00     0.028 H 
ENDBRANCH   2   4
BRANCH   2   8
ATOM      8  C   LIG d   1       5.104  -3.666  -4.680  0.00  0.00    -0.062 C 
ATOM      9  C   LIG d   1       5.613  -2.612  -4.052  0.00  0.00    -0.077 C 
ATOM     10  H   LIG d   1       6.682  -2.524  -3.924  0.00  0.00     0.058 H 
ATOM     11  H   LIG d   1       4.035  -3.754  -4.809  0.00  0.00     0.062 H 
BRANCH   9  12
ATOM     12  C   LIG d   1       4.693  -1.531  -3.516  0.00  0.00     0.002 C 
ATOM     13  C   LIG d   1       3.908  -0.938  -4.682  0.00  0.00     0.028 C 
ATOM     14  C   LIG d   1       3.162   0.294  -4.226  0.00  0.00     0.159 C 
ATOM     15  H   LIG d   1       3.238  -1.606  -5.007  0.00  0.00     0.039 H 
ATOM     16  C   LIG d   1       3.881   1.251  -3.381  0.00  0.00    -0.023 C 
ATOM     17  O   LIG d   1       2.016   0.499  -4.572  0.00  0.00    -0.292 OA
ATOM     18  C   LIG d   1       4.987   0.876  -2.758  0.00  0.00    -0.077 C 
ATOM     19  H   LIG d   1       3.529   2.267  -3.298  0.00  0.00     0.065 H 
ATOM     20  C   LIG d   1       5.530  -0.515  -2.760  0.00  0.00    -0.016 C 
ATOM     21  H   LIG d   1       5.535   1.635  -2.209  0.00  0.00     0.058 H 
ATOM     22  H   LIG d   1       5.578  -0.848  -1.705  0.00  0.00     0.035 H 
BRANCH  13  23
ATOM     23  C   LIG d   1       4.822  -0.600  -5.860  0.00  0.00    -0.055 C 
ATOM     24  H   LIG d   1       4.985  -1.494  -6.462  0.00  0.00     0.024 H 
ATOM     25  H   LIG d   1       4.355   0.170  -6.473  0.00  0.00     0.024 H 
ATOM     26  H   LIG d   1       5.778  -0.236  -5.484  0.00  0.00     0.024 H 
ENDBRANCH  13  23
BRANCH  20  27
ATOM     27  C   LIG d   1       6.967  -0.510  -3.289  0.00  0.00    -0.058 C 
ATOM     28  H   LIG d   1       7.661  -0.544  -2.450  0.00  0.00     0.024 H 
ATOM     29  H   LIG d   1       7.122  -1.380  -3.926  0.00  0.00     0.024 H 
ATOM     30  H   LIG d   1       7.137   0.399  -3.866  0.00  0.00     0.024 H 
ENDBRANCH  20  27
BRANCH  12  31
ATOM     31  C   LIG d   1       3.709  -2.196  -2.538  0.00  0.00    -0.055 C 
ATOM     32  H   LIG d   1       2.706  -2.180  -2.964  0.00  0.00     0.024 H 
ATOM     33  H   LIG d   1       4.013  -3.228  -2.362  0.00  0.00     0.024 H 
ATOM     34  H   LIG d   1       3.711  -1.651  -1.594  0.00  0.00     0.024 H 
ENDBRANCH  12  31
ENDBRANCH   9  12
ENDBRANCH   2   8
BRANCH   1  35
ATOM     35  C   LIG d   1       6.417  -7.012  -5.965  0.00  0.00    -0.002 C 
ATOM     36  H   LIG d   1       6.127  -7.401  -6.942  0.00  0.00     0.036 H 
ATOM     37  H   LIG d   1       7.441  -6.644  -6.010  0.00  0.00     0.036 H 
BRANCH  35  38
ATOM     38  C   LIG d   1       6.323  -8.111  -4.939  0.00  0.00     0.041 A 
ATOM     39  C   LIG d   1       5.171  -8.874  -4.844  0.00  0.00     0.134 A 
ATOM     40  C   LIG d   1       5.095  -9.903  -3.888  0.00  0.00     0.060 A 
ATOM     41  C   LIG d   1       6.180 -10.135  -3.031  0.00  0.00    -0.015 A 
ATOM     42  C   LIG d   1       7.307  -9.371  -3.131  0.00  0.00     0.086 A 
ATOM     43  C   LIG d   1       7.387  -8.356  -4.083  0.00  0.00     0.142 A 
ATOM     44 CL   LIG d   1       8.647  -9.664  -2.068  0.00  0.00    -0.080 Cl
BRANCH  39  45
ATOM     45  O   LIG d   1       4.125  -8.636  -5.674  0.00  0.00    -0.506 OA
ATOM     46  H   LIG d   1       4.223  -9.026  -6.554  0.00  0.00     0.292 HD
ENDBRANCH  39  45
BRANCH  40  47
ATOM     47  C   LIG d   1       3.885 -10.721  -3.781  0.00  0.00     0.154 C 
ATOM     48  O   LIG d   1       2.811 -10.192  -3.582  0.00  0.00    -0.296 OA
ATOM     49  H   LIG d   1       3.948 -11.794  -3.879  0.00  0.00     0.108 H 
ENDBRANCH  40  47
BRANCH  41  50
ATOM     50  C   LIG d   1       6.103 -11.229  -1.998  0.00  0.00    -0.037 C 
ATOM     51  H   LIG d   1       5.088 -11.622  -1.958  0.00  0.00     0.028 H 
ATOM     52  H   LIG d   1       6.793 -12.031  -2.266  0.00  0.00     0.028 H 
ATOM     53  H   LIG d   1       6.376 -10.828  -1.022  0.00  0.00     0.028 H 
ENDBRANCH  41  50
BRANCH  43  54
ATOM     54  O   LIG d   1       8.512  -7.602  -4.175  0.00  0.00    -0.505 OA
ATOM     55  H   LIG d   1       9.070  -7.633  -3.385  0.00  0.00     0.292 HD
ENDBRANCH  43  54
ENDBRANCH  35  38
ENDBRANCH   1  35
TORSDOF 12
ENDMDL
MODEL 3
REMARK VINA RESULT:      -6.6      5.785     11.213
REMARK  12 active torsions:
REMARK  status: ('A' for Active; 'I' for Inactive)
REMARK    1  A    between atoms: C_1  and  C_2 
REMARK    2  A    between atoms: C_3  and  C_29 
REMARK    3  A    between atoms: C_4  and  O_28 
REMARK    4  A    between atoms: C_5  and  C_10 
REMARK    5  A    between atoms: C_6  and  O_9 
REMARK    6  A    between atoms: C_10  and  C_11 
REMARK    7  A    between atoms: C_12  and  C_13 
REMARK    8  A    between atoms: C_12  and  C_14 
REMARK    9  A    between atoms: C_15  and  C_16 
REMARK   10  A    between atoms: C_16  and  C_27 
REMARK   11  A    between atoms: C_17  and  C_26 
REMARK   12  A    between atoms: C_23  and  C_25 
ROOT
ATOM      1  C   LIG d   1       9.273   2.998  -3.623  0.00  0.00    -0.077 C 
ATOM      2  C   LIG d   1       8.667   2.110  -4.404  0.00  0.00    -0.054 C 
ATOM      3  H   LIG d   1       9.384   2.801  -2.567  0.00  0.00     0.058 H 
ENDROOT
BRANCH   2   4
ATOM      4  C   LIG d   1       8.643   2.314  -5.897  0.00  0.00    -0.040 C 
ATOM      5  H   LIG d   1       8.164   1.458  -6.373  0.00  0.00     0.028 H 
ATOM      6  H   LIG d   1       8.084   3.220  -6.131  0.00  0.00     0.028 H 
ATOM      7  H   LIG d   1       9.664   2.412  -6.267  0.00  0.00     0.028 H 
ENDBRANCH   2   4
BRANCH   2   8
ATOM      8  C   LIG d   1       8.019   0.930  -3.812  0.00  0.00    -0.062 C 
ATOM      9  C   LIG d   1       6.781   0.604  -4.166  0.00  0.00    -0.077 C 
ATOM     10  H   LIG d   1       6.252   1.203  -4.893  0.00  0.00     0.058 H 
ATOM     11  H   LIG d   1       8.548   0.331  -3.085  0.00  0.00     0.062 H 
BRANCH   9  12
ATOM     12  C   LIG d   1       6.110  -0.610  -3.551  0.00  0.00     0.002 C 
ATOM     13  C   LIG d   1       5.279  -1.303  -4.627  0.00  0.00     0.028 C 
ATOM     14  C   LIG d   1       4.413  -2.370  -4.000  0.00  0.00     0.159 C 
ATOM     15  H   LIG d   1       5.888  -1.743  -5.287  0.00  0.00     0.039 H 
ATOM     16  C   LIG d   1       3.709  -2.033  -2.760  0.00  0.00    -0.023 C 
ATOM     17  O   LIG d   1       4.282  -3.459  -4.521  0.00  0.00    -0.292 OA
ATOM     18  C   LIG d   1       4.100  -0.990  -2.045  0.00  0.00    -0.077 C 
ATOM     19  H   LIG d   1       2.853  -2.612  -2.452  0.00  0.00     0.065 H 
ATOM     20  C   LIG d   1       5.302  -0.158  -2.349  0.00  0.00    -0.016 C 
ATOM     21  H   LIG d   1       3.503  -0.725  -1.178  0.00  0.00     0.058 H 
ATOM     22  H   LIG d   1       5.968  -0.212  -1.466  0.00  0.00     0.035 H 
BRANCH  13  23
ATOM     23  C   LIG d   1       4.416  -0.305  -5.400  0.00  0.00    -0.055 C 
ATOM     24  H   LIG d   1       3.363  -0.555  -5.266  0.00  0.00     0.024 H 
ATOM     25  H   LIG d   1       4.600   0.701  -5.025  0.00  0.00     0.024 H 
ATOM     26  H   LIG d   1       4.669  -0.350  -6.459  0.00  0.00     0.024 H 
ENDBRANCH  13  23
BRANCH  20  27
ATOM     27  C   LIG d   1       4.891   1.309  -2.503  0.00  0.00    -0.058 C 
ATOM     28  H   LIG d   1       5.687   1.857  -3.004  0.00  0.00     0.024 H 
ATOM     29  H   LIG d   1       3.979   1.369  -3.097  0.00  0.00     0.024 H 
ATOM     30  H   LIG d   1       4.713   1.741  -1.519  0.00  0.00     0.024 H 
ENDBRANCH  20  27
BRANCH  12  31
ATOM     31  C   LIG d   1       7.216  -1.568  -3.079  0.00  0.00    -0.055 C 
ATOM     32  H   LIG d   1       7.107  -1.751  -2.010  0.00  0.00     0.024 H 
ATOM     33  H   LIG d   1       7.134  -2.512  -3.619  0.00  0.00     0.024 H 
ATOM     34  H   LIG d   1       8.191  -1.122  -3.275  0.00  0.00     0.024 H 
ENDBRANCH  12  31
ENDBRANCH   9  12
ENDBRANCH   2   8
BRANCH   1  35
ATOM     35  C   LIG d   1       9.806   4.279  -4.210  0.00  0.00    -0.002 C 
ATOM     36  H   LIG d   1      10.594   4.050  -4.928  0.00  0.00     0.036 H 
ATOM     37  H   LIG d   1       8.999   4.812  -4.714  0.00  0.00     0.036 H 
BRANCH  35  38
ATOM     38  C   LIG d   1      10.366   5.142  -3.109  0.00  0.00     0.041 A 
ATOM     39  C   LIG d   1       9.671   6.263  -2.686  0.00  0.00     0.134 A 
ATOM     40  C   LIG d   1      10.198   7.059  -1.653  0.00  0.00     0.060 A 
ATOM     41  C   LIG d   1      11.427   6.717  -1.072  0.00  0.00    -0.015 A 
ATOM     42  C   LIG d   1      12.104   5.612  -1.503  0.00  0.00     0.086 A 
ATOM     43  C   LIG d   1      11.580   4.818  -2.522  0.00  0.00     0.142 A 
ATOM     44 CL   LIG d   1      13.624   5.194  -0.778  0.00  0.00    -0.080 Cl
BRANCH  39  45
ATOM     45  O   LIG d   1       8.486   6.588  -3.261  0.00  0.00    -0.506 OA
ATOM     46  H   LIG d   1       7.846   6.978  -2.650  0.00  0.00     0.292 HD
ENDBRANCH  39  45
BRANCH  40  47
ATOM     47  C   LIG d   1       9.471   8.244  -1.193  0.00  0.00     0.154 C 
ATOM     48  O   LIG d   1       8.332   8.137  -0.788  0.00  0.00    -0.296 OA
ATOM     49  H   LIG d   1       9.948   9.212  -1.212  0.00  0.00     0.108 H 
ENDBRANCH  40  47
BRANCH  41  50
ATOM     50  C   LIG d   1      12.002   7.568   0.030  0.00  0.00    -0.037 C 
ATOM     51  H   LIG d   1      11.925   8.620  -0.244  0.00  0.00     0.028 H 
ATOM     52  H   LIG d   1      11.448   7.391   0.953  0.00  0.00     0.028 H 
ATOM     53  H   LIG d   1      13.049   7.309   0.182  0.00  0.00     0.028 H 
ENDBRANCH  41  50
BRANCH  43  54
ATOM     54  O   LIG d   1      12.261   3.722  -2.942  0.00  0.00    -0.505 OA
ATOM     55  H   LIG d   1      11.777   3.180  -3.580  0.00  0.00     0.292 HD
ENDBRANCH  43  54
ENDBRANCH  35  38
ENDBRANCH   1  35
TORSDOF 12
ENDMDL
MODEL 4
REMARK VINA RESULT:      -6.4      1.233      2.397
REMARK  12 active torsions:
REMARK  status: ('A' for Active; 'I' for Inactive)
REMARK    1  A    between atoms: C_1  and  C_2 
REMARK    2  A    between atoms: C_3  and  C_29 
REMARK    3  A    between atoms: C_4  and  O_28 
REMARK    4  A    between atoms: C_5  and  C_10 
REMARK    5  A    between atoms: C_6  and  O_9 
REMARK    6  A    between atoms: C_10  and  C_11 
REMARK    7  A    between atoms: C_12  and  C_13 
REMARK    8  A    between atoms: C_12  and  C_14 
REMARK    9  A    between atoms: C_15  and  C_16 
REMARK   10  A    between atoms: C_16  and  C_27 
REMARK   11  A    between atoms: C_17  and  C_26 
REMARK   12  A    between atoms: C_23  and  C_25 
ROOT
ATOM      1  C   LIG d   1       5.930  -4.797  -6.177  0.00  0.00    -0.077 C 
ATOM      2  C   LIG d   1       4.903  -4.054  -6.577  0.00  0.00    -0.054 C 
ATOM      3  H   LIG d   1       6.575  -4.446  -5.386  0.00  0.00     0.058 H 
ENDROOT
BRANCH   2   4
ATOM      4  C   LIG d   1       3.918  -4.606  -7.575  0.00  0.00    -0.040 C 
ATOM      5  H   LIG d   1       4.032  -5.688  -7.639  0.00  0.00     0.028 H 
ATOM      6  H   LIG d   1       2.905  -4.365  -7.255  0.00  0.00     0.028 H 
ATOM      7  H   LIG d   1       4.106  -4.162  -8.554  0.00  0.00     0.028 H 
ENDBRANCH   2   4
BRANCH   2   8
ATOM      8  C   LIG d   1       4.730  -2.693  -6.047  0.00  0.00    -0.062 C 
ATOM      9  C   LIG d   1       4.750  -2.484  -4.735  0.00  0.00    -0.077 C 
ATOM     10  H   LIG d   1       4.897  -3.312  -4.058  0.00  0.00     0.058 H 
ATOM     11  H   LIG d   1       4.584  -1.864  -6.724  0.00  0.00     0.062 H 
BRANCH   9  12
ATOM     12  C   LIG d   1       4.566  -1.081  -4.187  0.00  0.00     0.002 C 
ATOM     13  C   LIG d   1       5.943  -0.481  -3.916  0.00  0.00     0.028 C 
ATOM     14  C   LIG d   1       5.797   0.815  -3.153  0.00  0.00     0.159 C 
ATOM     15  H   LIG d   1       6.397  -0.282  -4.784  0.00  0.00     0.039 H 
ATOM     16  C   LIG d   1       4.851   0.844  -2.035  0.00  0.00    -0.023 C 
ATOM     17  O   LIG d   1       6.463   1.789  -3.437  0.00  0.00    -0.292 OA
ATOM     18  C   LIG d   1       3.919  -0.093  -1.939  0.00  0.00    -0.077 C 
ATOM     19  H   LIG d   1       4.937   1.603  -1.275  0.00  0.00     0.065 H 
ATOM     20  C   LIG d   1       3.676  -1.154  -2.960  0.00  0.00    -0.016 C 
ATOM     21  H   LIG d   1       3.291  -0.084  -1.054  0.00  0.00     0.058 H 
ATOM     22  H   LIG d   1       2.630  -1.041  -3.305  0.00  0.00     0.035 H 
BRANCH  13  23
ATOM     23  C   LIG d   1       6.837  -1.453  -3.147  0.00  0.00    -0.055 C 
ATOM     24  H   LIG d   1       7.150  -2.261  -3.809  0.00  0.00     0.024 H 
ATOM     25  H   LIG d   1       7.716  -0.925  -2.778  0.00  0.00     0.024 H 
ATOM     26  H   LIG d   1       6.283  -1.868  -2.305  0.00  0.00     0.024 H 
ENDBRANCH  13  23
BRANCH  20  27
ATOM     27  C   LIG d   1       3.780  -2.534  -2.308  0.00  0.00    -0.058 C 
ATOM     28  H   LIG d   1       2.780  -2.919  -2.112  0.00  0.00     0.024 H 
ATOM     29  H   LIG d   1       4.305  -3.214  -2.978  0.00  0.00     0.024 H 
ATOM     30  H   LIG d   1       4.329  -2.452  -1.370  0.00  0.00     0.024 H 
ENDBRANCH  20  27
BRANCH  12  31
ATOM     31  C   LIG d   1       3.861  -0.244  -5.269  0.00  0.00    -0.055 C 
ATOM     32  H   LIG d   1       2.976  -0.776  -5.620  0.00  0.00     0.024 H 
ATOM     33  H   LIG d   1       3.563   0.717  -4.848  0.00  0.00     0.024 H 
ATOM     34  H   LIG d   1       4.542  -0.080  -6.103  0.00  0.00     0.024 H 
ENDBRANCH  12  31
ENDBRANCH   9  12
ENDBRANCH   2   8
BRANCH   1  35
ATOM     35  C   LIG d   1       6.194  -6.131  -6.828  0.00  0.00    -0.002 C 
ATOM     36  H   LIG d   1       5.369  -6.378  -7.497  0.00  0.00     0.036 H 
ATOM     37  H   LIG d   1       7.121  -6.079  -7.398  0.00  0.00     0.036 H 
BRANCH  35  38
ATOM     38  C   LIG d   1       6.315  -7.193  -5.766  0.00  0.00     0.041 A 
ATOM     39  C   LIG d   1       7.505  -7.346  -5.073  0.00  0.00     0.134 A 
ATOM     40  C   LIG d   1       7.607  -8.336  -4.079  0.00  0.00     0.060 A 
ATOM     41  C   LIG d   1       6.509  -9.166  -3.810  0.00  0.00    -0.015 A 
ATOM     42  C   LIG d   1       5.345  -9.007  -4.506  0.00  0.00     0.086 A 
ATOM     43  C   LIG d   1       5.239  -8.022  -5.487  0.00  0.00     0.142 A 
ATOM     44 CL   LIG d   1       3.990 -10.037  -4.168  0.00  0.00    -0.080 Cl
BRANCH  39  45
ATOM     45  O   LIG d   1       8.562  -6.542  -5.346  0.00  0.00    -0.506 OA
ATOM     46  H   LIG d   1       9.352  -7.017  -5.639  0.00  0.00     0.292 HD
ENDBRANCH  39  45
BRANCH  40  47
ATOM     47  C   LIG d   1       8.856  -8.505  -3.334  0.00  0.00     0.154 C 
ATOM     48  O   LIG d   1       9.170  -7.696  -2.485  0.00  0.00    -0.296 OA
ATOM     49  H   LIG d   1       9.497  -9.349  -3.539  0.00  0.00     0.108 H 
ENDBRANCH  40  47
BRANCH  41  50
ATOM     50  C   LIG d   1       6.613 -10.234  -2.753  0.00  0.00    -0.037 C 
ATOM     51  H   LIG d   1       7.071  -9.815  -1.857  0.00  0.00     0.028 H 
ATOM     52  H   LIG d   1       5.615 -10.604  -2.512  0.00  0.00     0.028 H 
ATOM     53  H   LIG d   1       7.224 -11.055  -3.124  0.00  0.00     0.028 H 
ENDBRANCH  41  50
BRANCH  43  54
ATOM     54  O   LIG d   1       4.077  -7.872  -6.172  0.00  0.00    -0.505 OA
ATOM     55  H   LIG d   1       3.813  -8.657  -6.672  0.00  0.00     0.292 HD
ENDBRANCH  43  54
ENDBRANCH  35  38
ENDBRANCH   1  35
TORSDOF 12
ENDMDL
MODEL 5
REMARK VINA RESULT:      -6.4      6.028     11.365
REMARK  12 active torsions:
REMARK  status: ('A' for Active; 'I' for Inactive)
REMARK    1  A    between atoms: C_1  and  C_2 
REMARK    2  A    between atoms: C_3  and  C_29 
REMARK    3  A    between atoms: C_4  and  O_28 
REMARK    4  A    between atoms: C_5  and  C_10 
REMARK    5  A    between atoms: C_6  and  O_9 
REMARK    6  A    between atoms: C_10  and  C_11 
REMARK    7  A    between atoms: C_12  and  C_13 
REMARK    8  A    between atoms: C_12  and  C_14 
REMARK    9  A    between atoms: C_15  and  C_16 
REMARK   10  A    between atoms: C_16  and  C_27 
REMARK   11  A    between atoms: C_17  and  C_26 
REMARK   12  A    between atoms: C_23  and  C_25 
ROOT
ATOM      1  C   LIG d   1       9.153   3.121  -3.561  0.00  0.00    -0.077 C 
ATOM      2  C   LIG d   1       8.606   2.195  -4.341  0.00  0.00    -0.054 C 
ATOM      3  H   LIG d   1       9.218   2.960  -2.495  0.00  0.00     0.058 H 
ENDROOT
BRANCH   2   4
ATOM      4  C   LIG d   1       8.647   2.352  -5.839  0.00  0.00    -0.040 C 
ATOM      5  H   LIG d   1       9.661   2.607  -6.150  0.00  0.00     0.028 H 
ATOM      6  H   LIG d   1       8.347   1.417  -6.310  0.00  0.00     0.028 H 
ATOM      7  H   LIG d   1       7.964   3.147  -6.140  0.00  0.00     0.028 H 
ENDBRANCH   2   4
BRANCH   2   8
ATOM      8  C   LIG d   1       7.957   1.019  -3.742  0.00  0.00    -0.062 C 
ATOM      9  C   LIG d   1       6.757   0.636  -4.162  0.00  0.00    -0.077 C 
ATOM     10  H   LIG d   1       6.259   1.186  -4.947  0.00  0.00     0.058 H 
ATOM     11  H   LIG d   1       8.455   0.468  -2.957  0.00  0.00     0.062 H 
BRANCH   9  12
ATOM     12  C   LIG d   1       6.085  -0.574  -3.541  0.00  0.00     0.002 C 
ATOM     13  C   LIG d   1       5.276  -1.289  -4.620  0.00  0.00     0.028 C 
ATOM     14  C   LIG d   1       4.408  -2.354  -3.991  0.00  0.00     0.159 C 
ATOM     15  H   LIG d   1       5.899  -1.734  -5.263  0.00  0.00     0.039 H 
ATOM     16  C   LIG d   1       3.682  -2.005  -2.767  0.00  0.00    -0.023 C 
ATOM     17  O   LIG d   1       4.294  -3.451  -4.498  0.00  0.00    -0.292 OA
ATOM     18  C   LIG d   1       4.054  -0.948  -2.061  0.00  0.00    -0.077 C 
ATOM     19  H   LIG d   1       2.825  -2.585  -2.465  0.00  0.00     0.065 H 
ATOM     20  C   LIG d   1       5.254  -0.111  -2.357  0.00  0.00    -0.016 C 
ATOM     21  H   LIG d   1       3.441  -0.675  -1.208  0.00  0.00     0.058 H 
ATOM     22  H   LIG d   1       5.906  -0.148  -1.463  0.00  0.00     0.035 H 
BRANCH  13  23
ATOM     23  C   LIG d   1       4.418  -0.309  -5.420  0.00  0.00    -0.055 C 
ATOM     24  H   LIG d   1       3.866  -0.852  -6.187  0.00  0.00     0.024 H 
ATOM     25  H   LIG d   1       3.717   0.189  -4.752  0.00  0.00     0.024 H 
ATOM     26  H   LIG d   1       5.061   0.435  -5.892  0.00  0.00     0.024 H 
ENDBRANCH  13  23
BRANCH  20  27
ATOM     27  C   LIG d   1       4.834   1.349  -2.540  0.00  0.00    -0.058 C 
ATOM     28  H   LIG d   1       4.409   1.483  -3.534  0.00  0.00     0.024 H 
ATOM     29  H   LIG d   1       4.090   1.609  -1.788  0.00  0.00     0.024 H 
ATOM     30  H   LIG d   1       5.706   1.994  -2.427  0.00  0.00     0.024 H 
ENDBRANCH  20  27
BRANCH  12  31
ATOM     31  C   LIG d   1       7.191  -1.518  -3.037  0.00  0.00    -0.055 C 
ATOM     32  H   LIG d   1       8.119  -1.303  -3.566  0.00  0.00     0.024 H 
ATOM     33  H   LIG d   1       7.339  -1.366  -1.968  0.00  0.00     0.024 H 
ATOM     34  H   LIG d   1       6.898  -2.551  -3.220  0.00  0.00     0.024 H 
ENDBRANCH  12  31
ENDBRANCH   9  12
ENDBRANCH   2   8
BRANCH   1  35
ATOM     35  C   LIG d   1       9.684   4.397  -4.164  0.00  0.00    -0.002 C 
ATOM     36  H   LIG d   1      10.608   4.187  -4.703  0.00  0.00     0.036 H 
ATOM     37  H   LIG d   1       8.946   4.807  -4.853  0.00  0.00     0.036 H 
BRANCH  35  38
ATOM     38  C   LIG d   1       9.958   5.394  -3.068  0.00  0.00     0.041 A 
ATOM     39  C   LIG d   1      10.553   4.980  -1.888  0.00  0.00     0.134 A 
ATOM     40  C   LIG d   1      10.811   5.918  -0.873  0.00  0.00     0.060 A 
ATOM     41  C   LIG d   1      10.450   7.260  -1.060  0.00  0.00    -0.015 A 
ATOM     42  C   LIG d   1       9.858   7.653  -2.226  0.00  0.00     0.086 A 
ATOM     43  C   LIG d   1       9.608   6.725  -3.237  0.00  0.00     0.142 A 
ATOM     44 CL   LIG d   1       9.415   9.315  -2.453  0.00  0.00    -0.080 Cl
BRANCH  39  45
ATOM     45  O   LIG d   1      10.891   3.678  -1.715  0.00  0.00    -0.506 OA
ATOM     46  H   LIG d   1      11.340   3.495  -0.877  0.00  0.00     0.292 HD
ENDBRANCH  39  45
BRANCH  40  47
ATOM     47  C   LIG d   1      11.445   5.496   0.378  0.00  0.00     0.154 C 
ATOM     48  O   LIG d   1      10.785   5.408   1.393  0.00  0.00    -0.296 OA
ATOM     49  H   LIG d   1      12.499   5.262   0.397  0.00  0.00     0.108 H 
ENDBRANCH  40  47
BRANCH  41  50
ATOM     50  C   LIG d   1      10.715   8.271   0.025  0.00  0.00    -0.037 C 
ATOM     51  H   LIG d   1      10.201   9.202  -0.211  0.00  0.00     0.028 H 
ATOM     52  H   LIG d   1      10.350   7.885   0.978  0.00  0.00     0.028 H 
ATOM     53  H   LIG d   1      11.787   8.455   0.097  0.00  0.00     0.028 H 
ENDBRANCH  41  50
BRANCH  43  54
ATOM     54  O   LIG d   1       9.020   7.126  -4.392  0.00  0.00    -0.505 OA
ATOM     55  H   LIG d   1       8.518   6.431  -4.839  0.00  0.00     0.292 HD
ENDBRANCH  43  54
ENDBRANCH  35  38
ENDBRANCH   1  35
TORSDOF 12
ENDMDL
MODEL 6
REMARK VINA RESULT:      -6.2      5.013      6.973
REMARK  12 active torsions:
REMARK  status: ('A' for Active; 'I' for Inactive)
REMARK    1  A    between atoms: C_1  and  C_2 
REMARK    2  A    between atoms: C_3  and  C_29 
REMARK    3  A    between atoms: C_4  and  O_28 
REMARK    4  A    between atoms: C_5  and  C_10 
REMARK    5  A    between atoms: C_6  and  O_9 
REMARK    6  A    between atoms: C_10  and  C_11 
REMARK    7  A    between atoms: C_12  and  C_13 
REMARK    8  A    between atoms: C_12  and  C_14 
REMARK    9  A    between atoms: C_15  and  C_16 
REMARK   10  A    between atoms: C_16  and  C_27 
REMARK   11  A    between atoms: C_17  and  C_26 
REMARK   12  A    between atoms: C_23  and  C_25 
ROOT
ATOM      1  C   LIG d   1       2.421  -0.628  -8.827  0.00  0.00    -0.077 C 
ATOM      2  C   LIG d   1       3.398  -0.188  -8.043  0.00  0.00    -0.054 C 
ATOM      3  H   LIG d   1       1.431  -0.783  -8.423  0.00  0.00     0.058 H 
ENDROOT
BRANCH   2   4
ATOM      4  C   LIG d   1       4.737   0.169  -8.636  0.00  0.00    -0.040 C 
ATOM      5  H   LIG d   1       4.748   1.227  -8.897  0.00  0.00     0.028 H 
ATOM      6  H   LIG d   1       5.522  -0.035  -7.908  0.00  0.00     0.028 H 
ATOM      7  H   LIG d   1       4.908  -0.429  -9.532  0.00  0.00     0.028 H 
ENDBRANCH   2   4
BRANCH   2   8
ATOM      8  C   LIG d   1       3.174  -0.051  -6.595  0.00  0.00    -0.062 C 
ATOM      9  C   LIG d   1       3.992  -0.651  -5.737  0.00  0.00    -0.077 C 
ATOM     10  H   LIG d   1       4.824  -1.234  -6.102  0.00  0.00     0.058 H 
ATOM     11  H   LIG d   1       2.342   0.533  -6.231  0.00  0.00     0.062 H 
BRANCH   9  12
ATOM     12  C   LIG d   1       3.758  -0.514  -4.244  0.00  0.00     0.002 C 
ATOM     13  C   LIG d   1       4.822   0.415  -3.668  0.00  0.00     0.028 C 
ATOM     14  C   LIG d   1       4.767   0.386  -2.158  0.00  0.00     0.159 C 
ATOM     15  H   LIG d   1       4.645   1.352  -3.969  0.00  0.00     0.039 H 
ATOM     16  C   LIG d   1       4.632  -0.919  -1.507  0.00  0.00    -0.023 C 
ATOM     17  O   LIG d   1       4.862   1.406  -1.507  0.00  0.00    -0.292 OA
ATOM     18  C   LIG d   1       4.214  -1.963  -2.207  0.00  0.00    -0.077 C 
ATOM     19  H   LIG d   1       4.907  -1.036  -0.472  0.00  0.00     0.065 H 
ATOM     20  C   LIG d   1       3.755  -1.901  -3.627  0.00  0.00    -0.016 C 
ATOM     21  H   LIG d   1       4.205  -2.928  -1.711  0.00  0.00     0.058 H 
ATOM     22  H   LIG d   1       2.711  -2.269  -3.648  0.00  0.00     0.035 H 
BRANCH  13  23
ATOM     23  C   LIG d   1       6.221   0.037  -4.156  0.00  0.00    -0.055 C 
ATOM     24  H   LIG d   1       6.235  -1.015  -4.440  0.00  0.00     0.024 H 
ATOM     25  H   LIG d   1       6.482   0.649  -5.019  0.00  0.00     0.024 H 
ATOM     26  H   LIG d   1       6.943   0.208  -3.358  0.00  0.00     0.024 H 
ENDBRANCH  13  23
BRANCH  20  27
ATOM     27  C   LIG d   1       4.582  -2.866  -4.480  0.00  0.00    -0.058 C 
ATOM     28  H   LIG d   1       5.408  -3.258  -3.887  0.00  0.00     0.024 H 
ATOM     29  H   LIG d   1       3.951  -3.689  -4.812  0.00  0.00     0.024 H 
ATOM     30  H   LIG d   1       4.976  -2.336  -5.348  0.00  0.00     0.024 H 
ENDBRANCH  20  27
BRANCH  12  31
ATOM     31  C   LIG d   1       2.374   0.126  -4.043  0.00  0.00    -0.055 C 
ATOM     32  H   LIG d   1       2.470   1.008  -3.410  0.00  0.00     0.024 H 
ATOM     33  H   LIG d   1       1.963   0.415  -5.010  0.00  0.00     0.024 H 
ATOM     34  H   LIG d   1       1.707  -0.593  -3.566  0.00  0.00     0.024 H 
ENDBRANCH  12  31
ENDBRANCH   9  12
ENDBRANCH   2   8
BRANCH   1  35
ATOM     35  C   LIG d   1       2.692  -0.911 -10.283  0.00  0.00    -0.002 C 
ATOM     36  H   LIG d   1       2.270  -0.112 -10.893  0.00  0.00     0.036 H 
ATOM     37  H   LIG d   1       3.768  -0.966 -10.448  0.00  0.00     0.036 H 
BRANCH  35  38
ATOM     38  C   LIG d   1       2.058  -2.224 -10.666  0.00  0.00     0.041 A 
ATOM     39  C   LIG d   1       2.627  -3.415 -10.248  0.00  0.00     0.134 A 
ATOM     40  C   LIG d   1       2.025  -4.635 -10.604  0.00  0.00     0.060 A 
ATOM     41  C   LIG d   1       0.864  -4.633 -11.391  0.00  0.00    -0.015 A 
ATOM     42  C   LIG d   1       0.319  -3.451 -11.801  0.00  0.00     0.086 A 
ATOM     43  C   LIG d   1       0.909  -2.240 -11.443  0.00  0.00     0.142 A 
ATOM     44 CL   LIG d   1      -1.118  -3.454 -12.774  0.00  0.00    -0.080 Cl
BRANCH  39  45
ATOM     45  O   LIG d   1       3.753  -3.405  -9.492  0.00  0.00    -0.506 OA
ATOM     46  H   LIG d   1       3.706  -2.822  -8.722  0.00  0.00     0.292 HD
ENDBRANCH  39  45
BRANCH  40  47
ATOM     47  C   LIG d   1       2.611  -5.902 -10.163  0.00  0.00     0.154 C 
ATOM     48  O   LIG d   1       2.681  -6.159  -8.979  0.00  0.00    -0.296 OA
ATOM     49  H   LIG d   1       2.982  -6.608 -10.891  0.00  0.00     0.108 H 
ENDBRANCH  40  47
BRANCH  41  50
ATOM     50  C   LIG d   1       0.218  -5.936 -11.784  0.00  0.00    -0.037 C 
ATOM     51  H   LIG d   1       0.037  -6.536 -10.893  0.00  0.00     0.028 H 
ATOM     52  H   LIG d   1      -0.730  -5.734 -12.285  0.00  0.00     0.028 H 
ATOM     53  H   LIG d   1       0.876  -6.479 -12.461  0.00  0.00     0.028 H 
ENDBRANCH  41  50
BRANCH  43  54
ATOM     54  O   LIG d   1       0.359  -1.070 -11.856  0.00  0.00    -0.505 OA
ATOM     55  H   LIG d   1      -0.421  -0.803 -11.350  0.00  0.00     0.292 HD
ENDBRANCH  43  54
ENDBRANCH  35  38
ENDBRANCH   1  35
TORSDOF 12
ENDMDL
MODEL 7
REMARK VINA RESULT:      -6.0      4.995      7.147
REMARK  12 active torsions:
REMARK  status: ('A' for Active; 'I' for Inactive)
REMARK    1  A    between atoms: C_1  and  C_2 
REMARK    2  A    between atoms: C_3  and  C_29 
REMARK    3  A    between atoms: C_4  and  O_28 
REMARK    4  A    between atoms: C_5  and  C_10 
REMARK    5  A    between atoms: C_6  and  O_9 
REMARK    6  A    between atoms: C_10  and  C_11 
REMARK    7  A    between atoms: C_12  and  C_13 
REMARK    8  A    between atoms: C_12  and  C_14 
REMARK    9  A    between atoms: C_15  and  C_16 
REMARK   10  A    between atoms: C_16  and  C_27 
REMARK   11  A    between atoms: C_17  and  C_26 
REMARK   12  A    between atoms: C_23  and  C_25 
ROOT
ATOM      1  C   LIG d   1       2.911  -0.689  -8.605  0.00  0.00    -0.077 C 
ATOM      2  C   LIG d   1       2.924   0.408  -7.856  0.00  0.00    -0.054 C 
ATOM      3  H   LIG d   1       2.698  -1.648  -8.157  0.00  0.00     0.058 H 
ENDROOT
BRANCH   2   4
ATOM      4  C   LIG d   1       3.073   1.760  -8.503  0.00  0.00    -0.040 C 
ATOM      5  H   LIG d   1       2.142   2.318  -8.397  0.00  0.00     0.028 H 
ATOM      6  H   LIG d   1       3.882   2.307  -8.019  0.00  0.00     0.028 H 
ATOM      7  H   LIG d   1       3.302   1.633  -9.562  0.00  0.00     0.028 H 
ENDBRANCH   2   4
BRANCH   2   8
ATOM      8  C   LIG d   1       2.795   0.301  -6.394  0.00  0.00    -0.062 C 
ATOM      9  C   LIG d   1       3.721  -0.342  -5.691  0.00  0.00    -0.077 C 
ATOM     10  H   LIG d   1       4.570  -0.782  -6.192  0.00  0.00     0.058 H 
ATOM     11  H   LIG d   1       1.946   0.742  -5.893  0.00  0.00     0.062 H 
BRANCH   9  12
ATOM     12  C   LIG d   1       3.585  -0.457  -4.184  0.00  0.00     0.002 C 
ATOM     13  C   LIG d   1       4.606   0.471  -3.532  0.00  0.00     0.028 C 
ATOM     14  C   LIG d   1       4.664   0.208  -2.045  0.00  0.00     0.159 C 
ATOM     15  H   LIG d   1       4.329   1.422  -3.670  0.00  0.00     0.039 H 
ATOM     16  C   LIG d   1       4.688  -1.188  -1.602  0.00  0.00    -0.023 C 
ATOM     17  O   LIG d   1       4.719   1.121  -1.248  0.00  0.00    -0.292 OA
ATOM     18  C   LIG d   1       4.310  -2.148  -2.432  0.00  0.00    -0.077 C 
ATOM     19  H   LIG d   1       5.047  -1.434  -0.616  0.00  0.00     0.065 H 
ATOM     20  C   LIG d   1       3.745  -1.915  -3.795  0.00  0.00    -0.016 C 
ATOM     21  H   LIG d   1       4.419  -3.174  -2.095  0.00  0.00     0.058 H 
ATOM     22  H   LIG d   1       2.738  -2.373  -3.813  0.00  0.00     0.035 H 
BRANCH  13  23
ATOM     23  C   LIG d   1       5.993   0.306  -4.155  0.00  0.00    -0.055 C 
ATOM     24  H   LIG d   1       6.751   0.635  -3.445  0.00  0.00     0.024 H 
ATOM     25  H   LIG d   1       6.157  -0.742  -4.403  0.00  0.00     0.024 H 
ATOM     26  H   LIG d   1       6.057   0.908  -5.062  0.00  0.00     0.024 H 
ENDBRANCH  13  23
BRANCH  20  27
ATOM     27  C   LIG d   1       4.587  -2.656  -4.837  0.00  0.00    -0.058 C 
ATOM     28  H   LIG d   1       4.755  -2.007  -5.695  0.00  0.00     0.024 H 
ATOM     29  H   LIG d   1       5.545  -2.935  -4.399  0.00  0.00     0.024 H 
ATOM     30  H   LIG d   1       4.058  -3.554  -5.157  0.00  0.00     0.024 H 
ENDBRANCH  20  27
BRANCH  12  31
ATOM     31  C   LIG d   1       2.170   0.010  -3.803  0.00  0.00    -0.055 C 
ATOM     32  H   LIG d   1       1.952   0.953  -4.305  0.00  0.00     0.024 H 
ATOM     33  H   LIG d   1       1.444  -0.742  -4.112  0.00  0.00     0.024 H 
ATOM     34  H   LIG d   1       2.112   0.150  -2.724  0.00  0.00     0.024 H 
ENDBRANCH  12  31
ENDBRANCH   9  12
ENDBRANCH   2   8
BRANCH   1  35
ATOM     35  C   LIG d   1       3.193  -0.596 -10.083  0.00  0.00    -0.002 C 
ATOM     36  H   LIG d   1       2.643   0.246 -10.505  0.00  0.00     0.036 H 
ATOM     37  H   LIG d   1       4.261  -0.448 -10.241  0.00  0.00     0.036 H 
BRANCH  35  38
ATOM     38  C   LIG d   1       2.757  -1.870 -10.759  0.00  0.00     0.041 A 
ATOM     39  C   LIG d   1       1.470  -1.984 -11.257  0.00  0.00     0.134 A 
ATOM     40  C   LIG d   1       1.073  -3.174 -11.893  0.00  0.00     0.060 A 
ATOM     41  C   LIG d   1       1.981  -4.238 -12.002  0.00  0.00    -0.015 A 
ATOM     42  C   LIG d   1       3.244  -4.114 -11.500  0.00  0.00     0.086 A 
ATOM     43  C   LIG d   1       3.642  -2.932 -10.876  0.00  0.00     0.142 A 
ATOM     44 CL   LIG d   1       4.362  -5.433 -11.639  0.00  0.00    -0.080 Cl
BRANCH  39  45
ATOM     45  O   LIG d   1       0.599  -0.951 -11.140  0.00  0.00    -0.506 OA
ATOM     46  H   LIG d   1      -0.267  -1.204 -10.790  0.00  0.00     0.292 HD
ENDBRANCH  39  45
BRANCH  40  47
ATOM     47  C   LIG d   1      -0.282  -3.307 -12.430  0.00  0.00     0.154 C 
ATOM     48  O   LIG d   1      -0.696  -2.500 -13.237  0.00  0.00    -0.296 OA
ATOM     49  H   LIG d   1      -0.914  -4.121 -12.109  0.00  0.00     0.108 H 
ENDBRANCH  40  47
BRANCH  41  50
ATOM     50  C   LIG d   1       1.561  -5.520 -12.674  0.00  0.00    -0.037 C 
ATOM     51  H   LIG d   1       1.019  -5.290 -13.590  0.00  0.00     0.028 H 
ATOM     52  H   LIG d   1       2.447  -6.111 -12.913  0.00  0.00     0.028 H 
ATOM     53  H   LIG d   1       0.918  -6.089 -12.004  0.00  0.00     0.028 H 
ENDBRANCH  41  50
BRANCH  43  54
ATOM     54  O   LIG d   1       4.900  -2.819 -10.382  0.00  0.00    -0.505 OA
ATOM     55  H   LIG d   1       4.960  -2.959  -9.427  0.00  0.00     0.292 HD
ENDBRANCH  43  54
ENDBRANCH  35  38
ENDBRANCH   1  35
TORSDOF 12
ENDMDL
MODEL 8
REMARK VINA RESULT:      -5.9      6.069     11.182
REMARK  12 active torsions:
REMARK  status: ('A' for Active; 'I' for Inactive)
REMARK    1  A    between atoms: C_1  and  C_2 
REMARK    2  A    between atoms: C_3  and  C_29 
REMARK    3  A    between atoms: C_4  and  O_28 
REMARK    4  A    between atoms: C_5  and  C_10 
REMARK    5  A    between atoms: C_6  and  O_9 
REMARK    6  A    between atoms: C_10  and  C_11 
REMARK    7  A    between atoms: C_12  and  C_13 
REMARK    8  A    between atoms: C_12  and  C_14 
REMARK    9  A    between atoms: C_15  and  C_16 
REMARK   10  A    between atoms: C_16  and  C_27 
REMARK   11  A    between atoms: C_17  and  C_26 
REMARK   12  A    between atoms: C_23  and  C_25 
ROOT
ATOM      1  C   LIG d   1       9.155   2.873  -4.336  0.00  0.00    -0.077 C 
ATOM      2  C   LIG d   1       9.029   1.637  -4.809  0.00  0.00    -0.054 C 
ATOM      3  H   LIG d   1       8.283   3.418  -4.009  0.00  0.00     0.058 H 
ENDROOT
BRANCH   2   4
ATOM      4  C   LIG d   1      10.256   0.823  -5.125  0.00  0.00    -0.040 C 
ATOM      5  H   LIG d   1      10.062  -0.227  -4.905  0.00  0.00     0.028 H 
ATOM      6  H   LIG d   1      10.503   0.933  -6.181  0.00  0.00     0.028 H 
ATOM      7  H   LIG d   1      11.091   1.174  -4.517  0.00  0.00     0.028 H 
ENDBRANCH   2   4
BRANCH   2   8
ATOM      8  C   LIG d   1       7.690   1.067  -5.026  0.00  0.00    -0.062 C 
ATOM      9  C   LIG d   1       7.232   0.122  -4.212  0.00  0.00    -0.077 C 
ATOM     10  H   LIG d   1       7.839  -0.224  -3.389  0.00  0.00     0.058 H 
ATOM     11  H   LIG d   1       7.082   1.413  -5.848  0.00  0.00     0.062 H 
BRANCH   9  12
ATOM     12  C   LIG d   1       5.853  -0.471  -4.438  0.00  0.00     0.002 C 
ATOM     13  C   LIG d   1       4.824   0.409  -3.734  0.00  0.00     0.028 C 
ATOM     14  C   LIG d   1       3.477  -0.275  -3.735  0.00  0.00     0.159 C 
ATOM     15  H   LIG d   1       4.735   1.276  -4.224  0.00  0.00     0.039 H 
ATOM     16  C   LIG d   1       3.437  -1.702  -3.406  0.00  0.00    -0.023 C 
ATOM     17  O   LIG d   1       2.459   0.344  -3.972  0.00  0.00    -0.292 OA
ATOM     18  C   LIG d   1       4.547  -2.421  -3.467  0.00  0.00    -0.077 C 
ATOM     19  H   LIG d   1       2.515  -2.154  -3.079  0.00  0.00     0.065 H 
ATOM     20  C   LIG d   1       5.862  -1.910  -3.957  0.00  0.00    -0.016 C 
ATOM     21  H   LIG d   1       4.493  -3.454  -3.136  0.00  0.00     0.058 H 
ATOM     22  H   LIG d   1       6.157  -2.543  -4.816  0.00  0.00     0.035 H 
BRANCH  13  23
ATOM     23  C   LIG d   1       5.252   0.737  -2.303  0.00  0.00    -0.055 C 
ATOM     24  H   LIG d   1       5.040  -0.114  -1.656  0.00  0.00     0.024 H 
ATOM     25  H   LIG d   1       6.320   0.951  -2.283  0.00  0.00     0.024 H 
ATOM     26  H   LIG d   1       4.701   1.608  -1.950  0.00  0.00     0.024 H 
ENDBRANCH  13  23
BRANCH  20  27
ATOM     27  C   LIG d   1       6.929  -2.105  -2.877  0.00  0.00    -0.058 C 
ATOM     28  H   LIG d   1       7.399  -3.079  -3.004  0.00  0.00     0.024 H 
ATOM     29  H   LIG d   1       7.682  -1.323  -2.966  0.00  0.00     0.024 H 
ATOM     30  H   LIG d   1       6.462  -2.051  -1.893  0.00  0.00     0.024 H 
ENDBRANCH  20  27
BRANCH  12  31
ATOM     31  C   LIG d   1       5.576  -0.450  -5.951  0.00  0.00    -0.055 C 
ATOM     32  H   LIG d   1       5.791   0.543  -6.346  0.00  0.00     0.024 H 
ATOM     33  H   LIG d   1       6.213  -1.183  -6.447  0.00  0.00     0.024 H 
ATOM     34  H   LIG d   1       4.530  -0.696  -6.132  0.00  0.00     0.024 H 
ENDBRANCH  12  31
ENDBRANCH   9  12
ENDBRANCH   2   8
BRANCH   1  35
ATOM     35  C   LIG d   1      10.518   3.513  -4.255  0.00  0.00    -0.002 C 
ATOM     36  H   LIG d   1      11.155   2.927  -3.592  0.00  0.00     0.036 H 
ATOM     37  H   LIG d   1      10.962   3.548  -5.249  0.00  0.00     0.036 H 
BRANCH  35  38
ATOM     38  C   LIG d   1      10.383   4.913  -3.715  0.00  0.00     0.041 A 
ATOM     39  C   LIG d   1      10.609   5.162  -2.372  0.00  0.00     0.134 A 
ATOM     40  C   LIG d   1      10.488   6.473  -1.878  0.00  0.00     0.060 A 
ATOM     41  C   LIG d   1      10.125   7.512  -2.748  0.00  0.00    -0.015 A 
ATOM     42  C   LIG d   1       9.899   7.250  -4.068  0.00  0.00     0.086 A 
ATOM     43  C   LIG d   1      10.026   5.952  -4.562  0.00  0.00     0.142 A 
ATOM     44 CL   LIG d   1       9.451   8.540  -5.139  0.00  0.00    -0.080 Cl
BRANCH  39  45
ATOM     45  O   LIG d   1      10.953   4.148  -1.539  0.00  0.00    -0.506 OA
ATOM     46  H   LIG d   1      10.739   4.312  -0.610  0.00  0.00     0.292 HD
ENDBRANCH  39  45
BRANCH  40  47
ATOM     47  C   LIG d   1      10.731   6.752  -0.461  0.00  0.00     0.154 C 
ATOM     48  O   LIG d   1      10.342   5.973   0.385  0.00  0.00    -0.296 OA
ATOM     49  H   LIG d   1      11.255   7.649  -0.169  0.00  0.00     0.108 H 
ENDBRANCH  40  47
BRANCH  41  50
ATOM     50  C   LIG d   1       9.985   8.918  -2.225  0.00  0.00    -0.037 C 
ATOM     51  H   LIG d   1       8.936   9.211  -2.245  0.00  0.00     0.028 H 
ATOM     52  H   LIG d   1      10.356   8.963  -1.200  0.00  0.00     0.028 H 
ATOM     53  H   LIG d   1      10.564   9.597  -2.849  0.00  0.00     0.028 H 
ENDBRANCH  41  50
BRANCH  43  54
ATOM     54  O   LIG d   1       9.799   5.704  -5.876  0.00  0.00    -0.505 OA
ATOM     55  H   LIG d   1       9.123   6.272  -6.272  0.00  0.00     0.292 HD
ENDBRANCH  43  54
ENDBRANCH  35  38
ENDBRANCH   1  35
TORSDOF 12
ENDMDL
MODEL 9
REMARK VINA RESULT:      -5.8      4.935      7.181
REMARK  12 active torsions:
REMARK  status: ('A' for Active; 'I' for Inactive)
REMARK    1  A    between atoms: C_1  and  C_2 
REMARK    2  A    between atoms: C_3  and  C_29 
REMARK    3  A    between atoms: C_4  and  O_28 
REMARK    4  A    between atoms: C_5  and  C_10 
REMARK    5  A    between atoms: C_6  and  O_9 
REMARK    6  A    between atoms: C_10  and  C_11 
REMARK    7  A    between atoms: C_12  and  C_13 
REMARK    8  A    between atoms: C_12  and  C_14 
REMARK    9  A    between atoms: C_15  and  C_16 
REMARK   10  A    between atoms: C_16  and  C_27 
REMARK   11  A    between atoms: C_17  and  C_26 
REMARK   12  A    between atoms: C_23  and  C_25 
ROOT
ATOM      1  C   LIG d   1       3.247  -0.619  -8.631  0.00  0.00    -0.077 C 
ATOM      2  C   LIG d   1       3.018   0.463  -7.895  0.00  0.00    -0.054 C 
ATOM      3  H   LIG d   1       3.213  -1.598  -8.179  0.00  0.00     0.058 H 
ENDROOT
BRANCH   2   4
ATOM      4  C   LIG d   1       2.918   1.815  -8.553  0.00  0.00    -0.040 C 
ATOM      5  H   LIG d   1       2.019   2.323  -8.205  0.00  0.00     0.028 H 
ATOM      6  H   LIG d   1       3.794   2.409  -8.294  0.00  0.00     0.028 H 
ATOM      7  H   LIG d   1       2.870   1.689  -9.635  0.00  0.00     0.028 H 
ENDBRANCH   2   4
BRANCH   2   8
ATOM      8  C   LIG d   1       2.862   0.340  -6.437  0.00  0.00    -0.062 C 
ATOM      9  C   LIG d   1       3.762  -0.332  -5.728  0.00  0.00    -0.077 C 
ATOM     10  H   LIG d   1       4.610  -0.784  -6.221  0.00  0.00     0.058 H 
ATOM     11  H   LIG d   1       2.015   0.794  -5.944  0.00  0.00     0.062 H 
BRANCH   9  12
ATOM     12  C   LIG d   1       3.600  -0.464  -4.225  0.00  0.00     0.002 C 
ATOM     13  C   LIG d   1       4.607   0.459  -3.544  0.00  0.00     0.028 C 
ATOM     14  C   LIG d   1       4.638   0.180  -2.060  0.00  0.00     0.159 C 
ATOM     15  H   LIG d   1       4.330   1.411  -3.677  0.00  0.00     0.039 H 
ATOM     16  C   LIG d   1       4.656  -1.220  -1.631  0.00  0.00    -0.023 C 
ATOM     17  O   LIG d   1       4.677   1.085  -1.252  0.00  0.00    -0.292 OA
ATOM     18  C   LIG d   1       4.295  -2.172  -2.478  0.00  0.00    -0.077 C 
ATOM     19  H   LIG d   1       4.998  -1.477  -0.641  0.00  0.00     0.065 H 
ATOM     20  C   LIG d   1       3.755  -1.926  -3.848  0.00  0.00    -0.016 C 
ATOM     21  H   LIG d   1       4.400  -3.201  -2.150  0.00  0.00     0.058 H 
ATOM     22  H   LIG d   1       2.749  -2.385  -3.889  0.00  0.00     0.035 H 
BRANCH  13  23
ATOM     23  C   LIG d   1       6.005   0.303  -4.144  0.00  0.00    -0.055 C 
ATOM     24  H   LIG d   1       6.713   0.052  -3.354  0.00  0.00     0.024 H 
ATOM     25  H   LIG d   1       5.994  -0.492  -4.889  0.00  0.00     0.024 H 
ATOM     26  H   LIG d   1       6.304   1.239  -4.616  0.00  0.00     0.024 H 
ENDBRANCH  13  23
BRANCH  20  27
ATOM     27  C   LIG d   1       4.617  -2.654  -4.883  0.00  0.00    -0.058 C 
ATOM     28  H   LIG d   1       5.620  -2.228  -4.883  0.00  0.00     0.024 H 
ATOM     29  H   LIG d   1       4.671  -3.712  -4.630  0.00  0.00     0.024 H 
ATOM     30  H   LIG d   1       4.172  -2.538  -5.871  0.00  0.00     0.024 H 
ENDBRANCH  20  27
BRANCH  12  31
ATOM     31  C   LIG d   1       2.177  -0.003  -3.865  0.00  0.00    -0.055 C 
ATOM     32  H   LIG d   1       1.886   0.822  -4.516  0.00  0.00     0.024 H 
ATOM     33  H   LIG d   1       1.482  -0.832  -3.997  0.00  0.00     0.024 H 
ATOM     34  H   LIG d   1       2.154   0.328  -2.827  0.00  0.00     0.024 H 
ENDBRANCH  12  31
ENDBRANCH   9  12
ENDBRANCH   2   8
BRANCH   1  35
ATOM     35  C   LIG d   1       3.555  -0.479 -10.100  0.00  0.00    -0.002 C 
ATOM     36  H   LIG d   1       2.834  -1.056 -10.679  0.00  0.00     0.036 H 
ATOM     37  H   LIG d   1       3.493   0.571 -10.386  0.00  0.00     0.036 H 
BRANCH  35  38
ATOM     38  C   LIG d   1       4.945  -0.992 -10.373  0.00  0.00     0.041 A 
ATOM     39  C   LIG d   1       6.019  -0.118 -10.369  0.00  0.00     0.134 A 
ATOM     40  C   LIG d   1       7.314  -0.607 -10.618  0.00  0.00     0.060 A 
ATOM     41  C   LIG d   1       7.502  -1.972 -10.883  0.00  0.00    -0.015 A 
ATOM     42  C   LIG d   1       6.432  -2.821 -10.890  0.00  0.00     0.086 A 
ATOM     43  C   LIG d   1       5.149  -2.339 -10.636  0.00  0.00     0.142 A 
ATOM     44 CL   LIG d   1       6.671  -4.508 -11.217  0.00  0.00    -0.080 Cl
BRANCH  39  45
ATOM     45  O   LIG d   1       5.825   1.200 -10.119  0.00  0.00    -0.506 OA
ATOM     46  H   LIG d   1       6.335   1.789 -10.692  0.00  0.00     0.292 HD
ENDBRANCH  39  45
BRANCH  40  47
ATOM     47  C   LIG d   1       8.460   0.304 -10.611  0.00  0.00     0.154 C 
ATOM     48  O   LIG d   1       8.698   0.971  -9.625  0.00  0.00    -0.296 OA
ATOM     49  H   LIG d   1       9.093   0.383 -11.481  0.00  0.00     0.108 H 
ENDBRANCH  40  47
BRANCH  41  50
ATOM     50  C   LIG d   1       8.884  -2.503 -11.159  0.00  0.00    -0.037 C 
ATOM     51  H   LIG d   1       9.321  -2.879 -10.235  0.00  0.00     0.028 H 
ATOM     52  H   LIG d   1       8.824  -3.312 -11.888  0.00  0.00     0.028 H 
ATOM     53  H   LIG d   1       9.508  -1.703 -11.557  0.00  0.00     0.028 H 
ENDBRANCH  41  50
BRANCH  43  54
ATOM     54  O   LIG d   1       4.093  -3.191 -10.645  0.00  0.00    -0.505 OA
ATOM     55  H   LIG d   1       4.249  -4.015 -10.162  0.00  0.00     0.292 HD
ENDBRANCH  43  54
ENDBRANCH  35  38
ENDBRANCH   1  35
TORSDOF 12
ENDMDL
MODEL 10
REMARK VINA RESULT:      -5.8      1.545      2.424
REMARK  12 active torsions:
REMARK  status: ('A' for Active; 'I' for Inactive)
REMARK    1  A    between atoms: C_1  and  C_2 
REMARK    2  A    between atoms: C_3  and  C_29 
REMARK    3  A    between atoms: C_4  and  O_28 
REMARK    4  A    between atoms: C_5  and  C_10 
REMARK    5  A    between atoms: C_6  and  O_9 
REMARK    6  A    between atoms: C_10  and  C_11 
REMARK    7  A    between atoms: C_12  and  C_13 
REMARK    8  A    between atoms: C_12  and  C_14 
REMARK    9  A    between atoms: C_15  and  C_16 
REMARK   10  A    between atoms: C_16  and  C_27 
REMARK   11  A    between atoms: C_17  and  C_26 
REMARK   12  A    between atoms: C_23  and  C_25 
ROOT
ATOM      1  C   LIG d   1       6.562  -5.943  -5.347  0.00  0.00    -0.077 C 
ATOM      2  C   LIG d   1       7.522  -5.025  -5.346  0.00  0.00    -0.054 C 
ATOM      3  H   LIG d   1       5.571  -5.690  -5.002  0.00  0.00     0.058 H 
ENDROOT
BRANCH   2   4
ATOM      4  C   LIG d   1       8.861  -5.335  -5.964  0.00  0.00    -0.040 C 
ATOM      5  H   LIG d   1       9.524  -4.478  -5.843  0.00  0.00     0.028 H 
ATOM      6  H   LIG d   1       9.296  -6.204  -5.471  0.00  0.00     0.028 H 
ATOM      7  H   LIG d   1       8.730  -5.547  -7.026  0.00  0.00     0.028 H 
ENDBRANCH   2   4
BRANCH   2   8
ATOM      8  C   LIG d   1       7.278  -3.707  -4.741  0.00  0.00    -0.062 C 
ATOM      9  C   LIG d   1       6.111  -3.098  -4.923  0.00  0.00    -0.077 C 
ATOM     10  H   LIG d   1       5.340  -3.573  -5.512  0.00  0.00     0.058 H 
ATOM     11  H   LIG d   1       8.048  -3.232  -4.151  0.00  0.00     0.062 H 
BRANCH   9  12
ATOM     12  C   LIG d   1       5.861  -1.736  -4.303  0.00  0.00     0.002 C 
ATOM     13  C   LIG d   1       5.077  -1.928  -3.008  0.00  0.00     0.028 C 
ATOM     14  C   LIG d   1       4.606  -0.590  -2.489  0.00  0.00     0.159 C 
ATOM     15  H   LIG d   1       5.671  -2.339  -2.316  0.00  0.00     0.039 H 
ATOM     16  C   LIG d   1       4.032   0.351  -3.455  0.00  0.00    -0.023 C 
ATOM     17  O   LIG d   1       4.673  -0.315  -1.308  0.00  0.00    -0.292 OA
ATOM     18  C   LIG d   1       4.254   0.181  -4.749  0.00  0.00    -0.077 C 
ATOM     19  H   LIG d   1       3.402   1.156  -3.114  0.00  0.00     0.065 H 
ATOM     20  C   LIG d   1       5.153  -0.863  -5.324  0.00  0.00    -0.016 C 
ATOM     21  H   LIG d   1       3.745   0.849  -5.436  0.00  0.00     0.058 H 
ATOM     22  H   LIG d   1       5.935  -0.336  -5.904  0.00  0.00     0.035 H 
BRANCH  13  23
ATOM     23  C   LIG d   1       3.889  -2.870  -3.205  0.00  0.00    -0.055 C 
ATOM     24  H   LIG d   1       3.215  -2.788  -2.352  0.00  0.00     0.024 H 
ATOM     25  H   LIG d   1       3.357  -2.598  -4.116  0.00  0.00     0.024 H 
ATOM     26  H   LIG d   1       4.249  -3.896  -3.287  0.00  0.00     0.024 H 
ENDBRANCH  13  23
BRANCH  20  27
ATOM     27  C   LIG d   1       4.373  -1.729  -6.316  0.00  0.00    -0.058 C 
ATOM     28  H   LIG d   1       4.290  -2.742  -5.925  0.00  0.00     0.024 H 
ATOM     29  H   LIG d   1       3.377  -1.311  -6.458  0.00  0.00     0.024 H 
ATOM     30  H   LIG d   1       4.899  -1.749  -7.271  0.00  0.00     0.024 H 
ENDBRANCH  20  27
BRANCH  12  31
ATOM     31  C   LIG d   1       7.228  -1.113  -3.973  0.00  0.00    -0.055 C 
ATOM     32  H   LIG d   1       7.802  -0.988  -4.891  0.00  0.00     0.024 H 
ATOM     33  H   LIG d   1       7.080  -0.140  -3.503  0.00  0.00     0.024 H 
ATOM     34  H   LIG d   1       7.770  -1.767  -3.290  0.00  0.00     0.024 H 
ENDBRANCH  12  31
ENDBRANCH   9  12
ENDBRANCH   2   8
BRANCH   1  35
ATOM     35  C   LIG d   1       6.856  -7.341  -5.830  0.00  0.00    -0.002 C 
ATOM     36  H   LIG d   1       6.229  -7.566  -6.694  0.00  0.00     0.036 H 
ATOM     37  H   LIG d   1       7.905  -7.414  -6.114  0.00  0.00     0.036 H 
BRANCH  35  38
ATOM     38  C   LIG d   1       6.563  -8.325  -4.728  0.00  0.00     0.041 A 
ATOM     39  C   LIG d   1       5.306  -8.897  -4.625  0.00  0.00     0.134 A 
ATOM     40  C   LIG d   1       5.043  -9.820  -3.597  0.00  0.00     0.060 A 
ATOM     41  C   LIG d   1       6.053 -10.141  -2.678  0.00  0.00    -0.015 A 
ATOM     42  C   LIG d   1       7.286  -9.565  -2.788  0.00  0.00     0.086 A 
ATOM     43  C   LIG d   1       7.550  -8.655  -3.810  0.00  0.00     0.142 A 
ATOM     44 CL   LIG d   1       8.531  -9.966  -1.648  0.00  0.00    -0.080 Cl
BRANCH  39  45
ATOM     45  O   LIG d   1       4.335  -8.574  -5.516  0.00  0.00    -0.506 OA
ATOM     46  H   LIG d   1       4.575  -8.742  -6.438  0.00  0.00     0.292 HD
ENDBRANCH  39  45
BRANCH  40  47
ATOM     47  C   LIG d   1       3.721 -10.436  -3.481  0.00  0.00     0.154 C 
ATOM     48  O   LIG d   1       2.759  -9.757  -3.186  0.00  0.00    -0.296 OA
ATOM     49  H   LIG d   1       3.600 -11.494  -3.657  0.00  0.00     0.108 H 
ENDBRANCH  40  47
BRANCH  41  50
ATOM     50  C   LIG d   1       5.778 -11.122  -1.569  0.00  0.00    -0.037 C 
ATOM     51  H   LIG d   1       5.911 -12.138  -1.940  0.00  0.00     0.028 H 
ATOM     52  H   LIG d   1       6.470 -10.942  -0.745  0.00  0.00     0.028 H 
ATOM     53  H   LIG d   1       4.755 -10.996  -1.217  0.00  0.00     0.028 H 
ENDBRANCH  41  50
BRANCH  43  54
ATOM     54  O   LIG d   1       8.779  -8.088  -3.910  0.00  0.00    -0.505 OA
ATOM     55  H   LIG d   1       8.760  -7.141  -4.104  0.00  0.00     0.292 HD
ENDBRANCH  43  54
ENDBRANCH  35  38
ENDBRANCH   1  35
TORSDOF 12
ENDMDL
