MODEL 1
REMARK VINA RESULT:      -7.0      0.000      0.000
REMARK  2 active torsions:
REMARK  status: ('A' for Active; 'I' for Inactive)
REMARK    1  A    between atoms: C_1  and  C_2 
REMARK    2  A    between atoms: C_13  and  C_18 
REMARK       I    between atoms: C_18  and  N_20 
ROOT
ATOM      1  C   LIG d   1       6.221  -2.650  -4.649  0.00  0.00     0.176 C 
ATOM      2  C   LIG d   1       7.323  -2.161  -3.701  0.00  0.00     0.012 C 
ATOM      3  C   LIG d   1       7.112  -0.656  -3.490  0.00  0.00     0.012 C 
ATOM      4  H   LIG d   1       7.756  -0.290  -2.690  0.00  0.00     0.036 H 
ATOM      5  C   LIG d   1       5.668  -0.391  -3.147  0.00  0.00    -0.001 A 
ATOM      6  C   LIG d   1       5.332   0.820  -2.568  0.00  0.00    -0.055 A 
ATOM      7  C   LIG d   1       4.019   1.098  -2.241  0.00  0.00    -0.061 A 
ATOM      8  C   LIG d   1       3.032   0.162  -2.491  0.00  0.00    -0.058 A 
ATOM      9  C   LIG d   1       3.360  -1.048  -3.069  0.00  0.00    -0.020 A 
ATOM     10  C   LIG d   1       4.682  -1.329  -3.399  0.00  0.00     0.127 A 
ATOM     11  O   LIG d   1       4.968  -2.531  -3.967  0.00  0.00    -0.468 OA
ATOM     12  C   LIG d   1       7.454   0.056  -4.803  0.00  0.00     0.119 C 
ATOM     13  H   LIG d   1       7.147   1.100  -4.742  0.00  0.00     0.050 H 
ATOM     14  C   LIG d   1       6.731  -0.611  -5.940  0.00  0.00     0.228 C 
ATOM     15  O   LIG d   1       6.630  -0.011  -6.989  0.00  0.00    -0.275 OA
ATOM     16  N   LIG d   1       6.196  -1.830  -5.854  0.00  0.00    -0.278 N 
ATOM     17  H   LIG d   1       8.301  -2.339  -4.147  0.00  0.00     0.033 H 
ATOM     18  H   LIG d   1       7.249  -2.683  -2.746  0.00  0.00     0.033 H 
ATOM     19  H   LIG d   1       6.101   1.553  -2.371  0.00  0.00     0.062 H 
ATOM     20  H   LIG d   1       3.764   2.044  -1.789  0.00  0.00     0.062 H 
ATOM     21  H   LIG d   1       2.005   0.379  -2.236  0.00  0.00     0.062 H 
ATOM     22  H   LIG d   1       2.589  -1.777  -3.265  0.00  0.00     0.065 H 
ATOM     23  H   LIG d   1       5.763  -2.193  -6.642  0.00  0.00     0.152 HD
ENDROOT
BRANCH  12  24
ATOM     24  C   LIG d   1       8.941  -0.017  -5.042  0.00  0.00     0.228 C 
ATOM     25  O   LIG d   1       9.441  -1.050  -5.433  0.00  0.00    -0.275 OA
ATOM     26  N   LIG d   1       9.713   1.065  -4.821  0.00  0.00    -0.301 N 
ATOM     27  C   LIG d   1      11.145   1.042  -5.148  0.00  0.00     0.015 C 
ATOM     28  C   LIG d   1       9.138   2.292  -4.253  0.00  0.00     0.015 C 
ATOM     29  C   LIG d   1      11.942   1.456  -3.907  0.00  0.00    -0.037 C 
ATOM     30  H   LIG d   1      11.434   0.036  -5.450  0.00  0.00     0.046 H 
ATOM     31  H   LIG d   1      11.346   1.742  -5.960  0.00  0.00     0.046 H 
ATOM     32  C   LIG d   1      11.433   2.809  -3.406  0.00  0.00    -0.050 C 
ATOM     33  H   LIG d   1      11.811   0.707  -3.125  0.00  0.00     0.028 H 
ATOM     34  H   LIG d   1      12.998   1.535  -4.162  0.00  0.00     0.028 H 
ATOM     35  C   LIG d   1       9.958   2.690  -3.017  0.00  0.00    -0.037 C 
ATOM     36  H   LIG d   1      12.014   3.118  -2.537  0.00  0.00     0.027 H 
ATOM     37  H   LIG d   1      11.540   3.552  -4.197  0.00  0.00     0.027 H 
ATOM     38  H   LIG d   1       9.846   1.930  -2.244  0.00  0.00     0.028 H 
ATOM     39  H   LIG d   1       9.602   3.648  -2.638  0.00  0.00     0.028 H 
ATOM     40  H   LIG d   1       9.178   3.091  -4.994  0.00  0.00     0.046 H 
ATOM     41  H   LIG d   1       8.103   2.110  -3.965  0.00  0.00     0.046 H 
ENDBRANCH  12  24
BRANCH   1  42
ATOM     42  C   LIG d   1       6.463  -4.113  -5.028  0.00  0.00    -0.007 C 
ATOM     43  H   LIG d   1       6.158  -4.757  -4.202  0.00  0.00     0.029 H 
ATOM     44  H   LIG d   1       5.880  -4.360  -5.915  0.00  0.00     0.029 H 
ATOM     45  H   LIG d   1       7.522  -4.265  -5.235  0.00  0.00     0.029 H 
ENDBRANCH   1  42
TORSDOF 2
ENDMDL
MODEL 2
REMARK VINA RESULT:      -6.8      3.250      5.353
REMARK  2 active torsions:
REMARK  status: ('A' for Active; 'I' for Inactive)
REMARK    1  A    between atoms: C_1  and  C_2 
REMARK    2  A    between atoms: C_13  and  C_18 
REMARK       I    between atoms: C_18  and  N_20 
ROOT
ATOM      1  C   LIG d   1       6.902  -2.074  -5.560  0.00  0.00     0.176 C 
ATOM      2  C   LIG d   1       6.535  -0.777  -6.293  0.00  0.00     0.012 C 
ATOM      3  C   LIG d   1       5.024  -0.568  -6.126  0.00  0.00     0.012 C 
ATOM      4  H   LIG d   1       4.737   0.425  -6.474  0.00  0.00     0.036 H 
ATOM      5  C   LIG d   1       4.647  -0.733  -4.676  0.00  0.00    -0.001 A 
ATOM      6  C   LIG d   1       3.428  -0.239  -4.244  0.00  0.00    -0.055 A 
ATOM      7  C   LIG d   1       3.050  -0.372  -2.922  0.00  0.00    -0.061 A 
ATOM      8  C   LIG d   1       3.891  -1.001  -2.023  0.00  0.00    -0.058 A 
ATOM      9  C   LIG d   1       5.108  -1.496  -2.447  0.00  0.00    -0.020 A 
ATOM     10  C   LIG d   1       5.490  -1.363  -3.777  0.00  0.00     0.127 A 
ATOM     11  O   LIG d   1       6.696  -1.863  -4.159  0.00  0.00    -0.468 OA
ATOM     12  C   LIG d   1       4.306  -1.640  -6.955  0.00  0.00     0.119 C 
ATOM     13  H   LIG d   1       3.242  -1.630  -6.719  0.00  0.00     0.050 H 
ATOM     14  C   LIG d   1       4.878  -2.992  -6.631  0.00  0.00     0.228 C 
ATOM     15  O   LIG d   1       4.241  -3.975  -6.945  0.00  0.00    -0.275 OA
ATOM     16  N   LIG d   1       6.048  -3.165  -6.016  0.00  0.00    -0.278 N 
ATOM     17  H   LIG d   1       6.783  -0.866  -7.349  0.00  0.00     0.033 H 
ATOM     18  H   LIG d   1       7.076   0.062  -5.853  0.00  0.00     0.033 H 
ATOM     19  H   LIG d   1       2.769   0.253  -4.944  0.00  0.00     0.062 H 
ATOM     20  H   LIG d   1       2.098   0.016  -2.592  0.00  0.00     0.062 H 
ATOM     21  H   LIG d   1       3.595  -1.106  -0.989  0.00  0.00     0.062 H 
ATOM     22  H   LIG d   1       5.763  -1.988  -1.744  0.00  0.00     0.065 H 
ATOM     23  H   LIG d   1       6.351  -4.073  -5.862  0.00  0.00     0.152 HD
ENDROOT
BRANCH  12  24
ATOM     24  C   LIG d   1       4.499  -1.352  -8.423  0.00  0.00     0.228 C 
ATOM     25  O   LIG d   1       5.304  -1.992  -9.065  0.00  0.00    -0.275 OA
ATOM     26  N   LIG d   1       3.778  -0.383  -9.020  0.00  0.00    -0.301 N 
ATOM     27  C   LIG d   1       3.878  -0.161 -10.469  0.00  0.00     0.015 C 
ATOM     28  C   LIG d   1       2.872   0.468  -8.235  0.00  0.00     0.015 C 
ATOM     29  C   LIG d   1       4.211   1.313 -10.720  0.00  0.00    -0.037 C 
ATOM     30  H   LIG d   1       4.666  -0.790 -10.881  0.00  0.00     0.046 H 
ATOM     31  H   LIG d   1       2.926  -0.406 -10.942  0.00  0.00     0.046 H 
ATOM     32  C   LIG d   1       3.175   2.193 -10.019  0.00  0.00    -0.050 C 
ATOM     33  H   LIG d   1       5.203   1.533 -10.324  0.00  0.00     0.028 H 
ATOM     34  H   LIG d   1       4.194   1.512 -11.792  0.00  0.00     0.028 H 
ATOM     35  C   LIG d   1       3.221   1.938  -8.511  0.00  0.00    -0.037 C 
ATOM     36  H   LIG d   1       3.396   3.243 -10.216  0.00  0.00     0.027 H 
ATOM     37  H   LIG d   1       2.180   1.955 -10.396  0.00  0.00     0.027 H 
ATOM     38  H   LIG d   1       4.222   2.152  -8.136  0.00  0.00     0.028 H 
ATOM     39  H   LIG d   1       2.500   2.583  -8.009  0.00  0.00     0.028 H 
ATOM     40  H   LIG d   1       1.841   0.273  -8.530  0.00  0.00     0.046 H 
ATOM     41  H   LIG d   1       2.997   0.253  -7.174  0.00  0.00     0.046 H 
ENDBRANCH  12  24
BRANCH   1  42
ATOM     42  C   LIG d   1       8.369  -2.427  -5.817  0.00  0.00    -0.007 C 
ATOM     43  H   LIG d   1       8.940  -1.512  -5.972  0.00  0.00     0.029 H 
ATOM     44  H   LIG d   1       8.769  -2.964  -4.956  0.00  0.00     0.029 H 
ATOM     45  H   LIG d   1       8.442  -3.057  -6.703  0.00  0.00     0.029 H 
ENDBRANCH   1  42
TORSDOF 2
ENDMDL
MODEL 3
REMARK VINA RESULT:      -6.7      2.192      5.872
REMARK  2 active torsions:
REMARK  status: ('A' for Active; 'I' for Inactive)
REMARK    1  A    between atoms: C_1  and  C_2 
REMARK    2  A    between atoms: C_13  and  C_18 
REMARK       I    between atoms: C_18  and  N_20 
ROOT
ATOM      1  C   LIG d   1       5.342   0.409  -2.934  0.00  0.00     0.176 C 
ATOM      2  C   LIG d   1       5.977  -0.985  -2.866  0.00  0.00     0.012 C 
ATOM      3  C   LIG d   1       6.723  -1.215  -4.187  0.00  0.00     0.012 C 
ATOM      4  H   LIG d   1       7.338  -2.113  -4.125  0.00  0.00     0.036 H 
ATOM      5  C   LIG d   1       7.590  -0.021  -4.492  0.00  0.00    -0.001 A 
ATOM      6  C   LIG d   1       8.608  -0.156  -5.420  0.00  0.00    -0.055 A 
ATOM      7  C   LIG d   1       9.422   0.918  -5.725  0.00  0.00    -0.061 A 
ATOM      8  C   LIG d   1       9.222   2.136  -5.102  0.00  0.00    -0.058 A 
ATOM      9  C   LIG d   1       8.209   2.277  -4.175  0.00  0.00    -0.020 A 
ATOM     10  C   LIG d   1       7.388   1.198  -3.868  0.00  0.00     0.127 A 
ATOM     11  O   LIG d   1       6.400   1.375  -2.950  0.00  0.00    -0.468 OA
ATOM     12  C   LIG d   1       5.678  -1.373  -5.297  0.00  0.00     0.119 C 
ATOM     13  H   LIG d   1       6.173  -1.360  -6.267  0.00  0.00     0.050 H 
ATOM     14  C   LIG d   1       4.693  -0.240  -5.224  0.00  0.00     0.228 C 
ATOM     15  O   LIG d   1       3.992  -0.023  -6.190  0.00  0.00    -0.275 OA
ATOM     16  N   LIG d   1       4.550   0.540  -4.151  0.00  0.00    -0.278 N 
ATOM     17  H   LIG d   1       5.201  -1.739  -2.742  0.00  0.00     0.033 H 
ATOM     18  H   LIG d   1       6.678  -1.033  -2.031  0.00  0.00     0.033 H 
ATOM     19  H   LIG d   1       8.768  -1.106  -5.909  0.00  0.00     0.062 H 
ATOM     20  H   LIG d   1      10.215   0.805  -6.450  0.00  0.00     0.062 H 
ATOM     21  H   LIG d   1       9.858   2.975  -5.341  0.00  0.00     0.062 H 
ATOM     22  H   LIG d   1       8.053   3.229  -3.690  0.00  0.00     0.065 H 
ATOM     23  H   LIG d   1       3.876   1.237  -4.182  0.00  0.00     0.152 HD
ENDROOT
BRANCH  12  24
ATOM     24  C   LIG d   1       4.951  -2.681  -5.120  0.00  0.00     0.228 C 
ATOM     25  O   LIG d   1       4.086  -2.785  -4.277  0.00  0.00    -0.275 OA
ATOM     26  N   LIG d   1       5.262  -3.736  -5.900  0.00  0.00    -0.301 N 
ATOM     27  C   LIG d   1       4.494  -4.985  -5.812  0.00  0.00     0.015 C 
ATOM     28  C   LIG d   1       6.375  -3.657  -6.857  0.00  0.00     0.015 C 
ATOM     29  C   LIG d   1       5.463  -6.146  -5.569  0.00  0.00    -0.037 C 
ATOM     30  H   LIG d   1       3.786  -4.920  -4.986  0.00  0.00     0.046 H 
ATOM     31  H   LIG d   1       3.955  -5.148  -6.746  0.00  0.00     0.046 H 
ATOM     32  C   LIG d   1       6.537  -6.144  -6.659  0.00  0.00    -0.050 C 
ATOM     33  H   LIG d   1       5.935  -6.027  -4.594  0.00  0.00     0.028 H 
ATOM     34  H   LIG d   1       4.917  -7.088  -5.598  0.00  0.00     0.028 H 
ATOM     35  C   LIG d   1       7.326  -4.834  -6.599  0.00  0.00    -0.037 C 
ATOM     36  H   LIG d   1       7.215  -6.984  -6.503  0.00  0.00     0.027 H 
ATOM     37  H   LIG d   1       6.063  -6.237  -7.637  0.00  0.00     0.027 H 
ATOM     38  H   LIG d   1       7.781  -4.728  -5.614  0.00  0.00     0.028 H 
ATOM     39  H   LIG d   1       8.107  -4.843  -7.360  0.00  0.00     0.028 H 
ATOM     40  H   LIG d   1       5.986  -3.714  -7.874  0.00  0.00     0.046 H 
ATOM     41  H   LIG d   1       6.908  -2.716  -6.720  0.00  0.00     0.046 H 
ENDBRANCH  12  24
BRANCH   1  42
ATOM     42  C   LIG d   1       4.451   0.644  -1.712  0.00  0.00    -0.007 C 
ATOM     43  H   LIG d   1       3.437   0.871  -2.040  0.00  0.00     0.029 H 
ATOM     44  H   LIG d   1       4.441  -0.254  -1.093  0.00  0.00     0.029 H 
ATOM     45  H   LIG d   1       4.842   1.479  -1.133  0.00  0.00     0.029 H 
ENDBRANCH   1  42
TORSDOF 2
ENDMDL
MODEL 4
REMARK VINA RESULT:      -6.7      3.555      5.898
REMARK  2 active torsions:
REMARK  status: ('A' for Active; 'I' for Inactive)
REMARK    1  A    between atoms: C_1  and  C_2 
REMARK    2  A    between atoms: C_13  and  C_18 
REMARK       I    between atoms: C_18  and  N_20 
ROOT
ATOM      1  C   LIG d   1       4.792  -2.412  -9.338  0.00  0.00     0.176 C 
ATOM      2  C   LIG d   1       3.704  -2.429  -8.256  0.00  0.00     0.012 C 
ATOM      3  C   LIG d   1       3.721  -1.058  -7.567  0.00  0.00     0.012 C 
ATOM      4  H   LIG d   1       2.856  -0.952  -6.911  0.00  0.00     0.036 H 
ATOM      5  C   LIG d   1       3.713   0.031  -8.608  0.00  0.00    -0.001 A 
ATOM      6  C   LIG d   1       3.362   1.315  -8.227  0.00  0.00    -0.055 A 
ATOM      7  C   LIG d   1       3.344   2.339  -9.155  0.00  0.00    -0.061 A 
ATOM      8  C   LIG d   1       3.676   2.083 -10.472  0.00  0.00    -0.058 A 
ATOM      9  C   LIG d   1       4.027   0.805 -10.859  0.00  0.00    -0.020 A 
ATOM     10  C   LIG d   1       4.046  -0.226  -9.927  0.00  0.00     0.127 A 
ATOM     11  O   LIG d   1       4.397  -1.472 -10.344  0.00  0.00    -0.468 OA
ATOM     12  C   LIG d   1       5.013  -0.958  -6.748  0.00  0.00     0.119 C 
ATOM     13  H   LIG d   1       5.139   0.064  -6.391  0.00  0.00     0.050 H 
ATOM     14  C   LIG d   1       6.185  -1.335  -7.610  0.00  0.00     0.228 C 
ATOM     15  O   LIG d   1       7.296  -1.022  -7.239  0.00  0.00    -0.275 OA
ATOM     16  N   LIG d   1       6.065  -1.997  -8.762  0.00  0.00    -0.278 N 
ATOM     17  H   LIG d   1       3.918  -3.212  -7.529  0.00  0.00     0.033 H 
ATOM     18  H   LIG d   1       2.730  -2.602  -8.713  0.00  0.00     0.033 H 
ATOM     19  H   LIG d   1       3.101   1.518  -7.199  0.00  0.00     0.062 H 
ATOM     20  H   LIG d   1       3.069   3.337  -8.851  0.00  0.00     0.062 H 
ATOM     21  H   LIG d   1       3.662   2.883 -11.198  0.00  0.00     0.062 H 
ATOM     22  H   LIG d   1       4.288   0.607 -11.888  0.00  0.00     0.065 H 
ATOM     23  H   LIG d   1       6.876  -2.217  -9.246  0.00  0.00     0.152 HD
ENDROOT
BRANCH  12  24
ATOM     24  C   LIG d   1       4.935  -1.896  -5.570  0.00  0.00     0.228 C 
ATOM     25  O   LIG d   1       4.733  -3.078  -5.749  0.00  0.00    -0.275 OA
ATOM     26  N   LIG d   1       5.089  -1.420  -4.318  0.00  0.00    -0.301 N 
ATOM     27  C   LIG d   1       5.119  -2.334  -3.168  0.00  0.00     0.015 C 
ATOM     28  C   LIG d   1       5.234   0.023  -4.078  0.00  0.00     0.015 C 
ATOM     29  C   LIG d   1       4.075  -1.876  -2.145  0.00  0.00    -0.037 C 
ATOM     30  H   LIG d   1       4.888  -3.345  -3.500  0.00  0.00     0.046 H 
ATOM     31  H   LIG d   1       6.110  -2.313  -2.713  0.00  0.00     0.046 H 
ATOM     32  C   LIG d   1       4.325  -0.409  -1.789  0.00  0.00    -0.050 C 
ATOM     33  H   LIG d   1       3.078  -1.981  -2.573  0.00  0.00     0.028 H 
ATOM     34  H   LIG d   1       4.153  -2.487  -1.247  0.00  0.00     0.028 H 
ATOM     35  C   LIG d   1       4.183   0.455  -3.045  0.00  0.00    -0.037 C 
ATOM     36  H   LIG d   1       3.597  -0.086  -1.043  0.00  0.00     0.027 H 
ATOM     37  H   LIG d   1       5.332  -0.299  -1.386  0.00  0.00     0.027 H 
ATOM     38  H   LIG d   1       3.184   0.327  -3.464  0.00  0.00     0.028 H 
ATOM     39  H   LIG d   1       4.337   1.503  -2.787  0.00  0.00     0.028 H 
ATOM     40  H   LIG d   1       6.233   0.230  -3.696  0.00  0.00     0.046 H 
ATOM     41  H   LIG d   1       5.078   0.565  -5.011  0.00  0.00     0.046 H 
ENDBRANCH  12  24
BRANCH   1  42
ATOM     42  C   LIG d   1       4.937  -3.801  -9.961  0.00  0.00    -0.007 C 
ATOM     43  H   LIG d   1       5.437  -4.465  -9.257  0.00  0.00     0.029 H 
ATOM     44  H   LIG d   1       3.949  -4.199 -10.197  0.00  0.00     0.029 H 
ATOM     45  H   LIG d   1       5.526  -3.730 -10.875  0.00  0.00     0.029 H 
ENDBRANCH   1  42
TORSDOF 2
ENDMDL
MODEL 5
REMARK VINA RESULT:      -6.5      3.049      4.009
REMARK  2 active torsions:
REMARK  status: ('A' for Active; 'I' for Inactive)
REMARK    1  A    between atoms: C_1  and  C_2 
REMARK    2  A    between atoms: C_13  and  C_18 
REMARK       I    between atoms: C_18  and  N_20 
ROOT
ATOM      1  C   LIG d   1       3.973  -0.394  -6.706  0.00  0.00     0.176 C 
ATOM      2  C   LIG d   1       4.421  -1.783  -6.234  0.00  0.00     0.012 C 
ATOM      3  C   LIG d   1       5.390  -1.578  -5.061  0.00  0.00     0.012 C 
ATOM      4  H   LIG d   1       5.603  -2.529  -4.573  0.00  0.00     0.036 H 
ATOM      5  C   LIG d   1       4.786  -0.617  -4.069  0.00  0.00    -0.001 A 
ATOM      6  C   LIG d   1       5.306  -0.569  -2.787  0.00  0.00    -0.055 A 
ATOM      7  C   LIG d   1       4.778   0.301  -1.852  0.00  0.00    -0.061 A 
ATOM      8  C   LIG d   1       3.724   1.127  -2.194  0.00  0.00    -0.058 A 
ATOM      9  C   LIG d   1       3.201   1.084  -3.471  0.00  0.00    -0.020 A 
ATOM     10  C   LIG d   1       3.731   0.210  -4.414  0.00  0.00     0.127 A 
ATOM     11  O   LIG d   1       3.190   0.195  -5.661  0.00  0.00    -0.468 OA
ATOM     12  C   LIG d   1       6.684  -0.975  -5.619  0.00  0.00     0.119 C 
ATOM     13  H   LIG d   1       7.321  -0.655  -4.794  0.00  0.00     0.050 H 
ATOM     14  C   LIG d   1       6.355   0.208  -6.485  0.00  0.00     0.228 C 
ATOM     15  O   LIG d   1       7.243   0.989  -6.754  0.00  0.00    -0.275 OA
ATOM     16  N   LIG d   1       5.136   0.444  -6.971  0.00  0.00    -0.278 N 
ATOM     17  H   LIG d   1       4.927  -2.304  -7.045  0.00  0.00     0.033 H 
ATOM     18  H   LIG d   1       3.556  -2.359  -5.903  0.00  0.00     0.033 H 
ATOM     19  H   LIG d   1       6.129  -1.213  -2.516  0.00  0.00     0.062 H 
ATOM     20  H   LIG d   1       5.188   0.333  -0.854  0.00  0.00     0.062 H 
ATOM     21  H   LIG d   1       3.312   1.807  -1.463  0.00  0.00     0.062 H 
ATOM     22  H   LIG d   1       2.379   1.731  -3.737  0.00  0.00     0.065 H 
ATOM     23  H   LIG d   1       5.015   1.222  -7.538  0.00  0.00     0.152 HD
ENDROOT
BRANCH  12  24
ATOM     24  C   LIG d   1       7.408  -2.012  -6.440  0.00  0.00     0.228 C 
ATOM     25  O   LIG d   1       7.117  -2.172  -7.606  0.00  0.00    -0.275 OA
ATOM     26  N   LIG d   1       8.377  -2.761  -5.878  0.00  0.00    -0.301 N 
ATOM     27  C   LIG d   1       9.162  -3.701  -6.689  0.00  0.00     0.015 C 
ATOM     28  C   LIG d   1       8.672  -2.650  -4.442  0.00  0.00     0.015 C 
ATOM     29  C   LIG d   1       9.095  -5.088  -6.042  0.00  0.00    -0.037 C 
ATOM     30  H   LIG d   1       8.749  -3.747  -7.697  0.00  0.00     0.046 H 
ATOM     31  H   LIG d   1      10.200  -3.368  -6.732  0.00  0.00     0.046 H 
ATOM     32  C   LIG d   1       9.545  -4.988  -4.583  0.00  0.00    -0.050 C 
ATOM     33  H   LIG d   1       8.070  -5.457  -6.081  0.00  0.00     0.028 H 
ATOM     34  H   LIG d   1       9.750  -5.773  -6.580  0.00  0.00     0.028 H 
ATOM     35  C   LIG d   1       8.606  -4.052  -3.820  0.00  0.00    -0.037 C 
ATOM     36  H   LIG d   1       9.522  -5.978  -4.127  0.00  0.00     0.027 H 
ATOM     37  H   LIG d   1      10.561  -4.594  -4.543  0.00  0.00     0.027 H 
ATOM     38  H   LIG d   1       7.586  -4.431  -3.880  0.00  0.00     0.028 H 
ATOM     39  H   LIG d   1       8.913  -4.000  -2.775  0.00  0.00     0.028 H 
ATOM     40  H   LIG d   1       9.669  -2.232  -4.306  0.00  0.00     0.046 H 
ATOM     41  H   LIG d   1       7.935  -2.001  -3.968  0.00  0.00     0.046 H 
ENDBRANCH  12  24
BRANCH   1  42
ATOM     42  C   LIG d   1       3.126  -0.517  -7.975  0.00  0.00    -0.007 C 
ATOM     43  H   LIG d   1       3.620  -1.189  -8.677  0.00  0.00     0.029 H 
ATOM     44  H   LIG d   1       2.144  -0.916  -7.719  0.00  0.00     0.029 H 
ATOM     45  H   LIG d   1       3.011   0.466  -8.431  0.00  0.00     0.029 H 
ENDBRANCH   1  42
TORSDOF 2
ENDMDL
MODEL 6
REMARK VINA RESULT:      -6.4      2.314      5.829
REMARK  2 active torsions:
REMARK  status: ('A' for Active; 'I' for Inactive)
REMARK    1  A    between atoms: C_1  and  C_2 
REMARK    2  A    between atoms: C_13  and  C_18 
REMARK       I    between atoms: C_18  and  N_20 
ROOT
ATOM      1  C   LIG d   1       7.815  -0.663  -5.068  0.00  0.00     0.176 C 
ATOM      2  C   LIG d   1       6.850  -1.395  -6.009  0.00  0.00     0.012 C 
ATOM      3  C   LIG d   1       5.980  -2.319  -5.146  0.00  0.00     0.012 C 
ATOM      4  H   LIG d   1       5.161  -2.731  -5.737  0.00  0.00     0.036 H 
ATOM      5  C   LIG d   1       5.429  -1.546  -3.976  0.00  0.00    -0.001 A 
ATOM      6  C   LIG d   1       4.348  -2.065  -3.284  0.00  0.00    -0.055 A 
ATOM      7  C   LIG d   1       3.817  -1.384  -2.205  0.00  0.00    -0.061 A 
ATOM      8  C   LIG d   1       4.365  -0.177  -1.812  0.00  0.00    -0.058 A 
ATOM      9  C   LIG d   1       5.443   0.346  -2.497  0.00  0.00    -0.020 A 
ATOM     10  C   LIG d   1       5.979  -0.338  -3.583  0.00  0.00     0.127 A 
ATOM     11  O   LIG d   1       7.041   0.208  -4.234  0.00  0.00    -0.468 OA
ATOM     12  C   LIG d   1       6.870  -3.452  -4.624  0.00  0.00     0.119 C 
ATOM     13  H   LIG d   1       6.327  -4.022  -3.870  0.00  0.00     0.050 H 
ATOM     14  C   LIG d   1       8.115  -2.873  -4.013  0.00  0.00     0.228 C 
ATOM     15  O   LIG d   1       8.778  -3.577  -3.282  0.00  0.00    -0.275 OA
ATOM     16  N   LIG d   1       8.527  -1.624  -4.234  0.00  0.00    -0.278 N 
ATOM     17  H   LIG d   1       7.414  -1.985  -6.731  0.00  0.00     0.033 H 
ATOM     18  H   LIG d   1       6.221  -0.672  -6.530  0.00  0.00     0.033 H 
ATOM     19  H   LIG d   1       3.917  -3.007  -3.588  0.00  0.00     0.062 H 
ATOM     20  H   LIG d   1       2.974  -1.794  -1.671  0.00  0.00     0.062 H 
ATOM     21  H   LIG d   1       3.951   0.356  -0.969  0.00  0.00     0.062 H 
ATOM     22  H   LIG d   1       5.871   1.288  -2.189  0.00  0.00     0.065 H 
ATOM     23  H   LIG d   1       9.353  -1.337  -3.814  0.00  0.00     0.152 HD
ENDROOT
BRANCH  12  24
ATOM     24  C   LIG d   1       7.248  -4.361  -5.767  0.00  0.00     0.228 C 
ATOM     25  O   LIG d   1       8.308  -4.212  -6.334  0.00  0.00    -0.275 OA
ATOM     26  N   LIG d   1       6.405  -5.338  -6.157  0.00  0.00    -0.301 N 
ATOM     27  C   LIG d   1       6.802  -6.297  -7.197  0.00  0.00     0.015 C 
ATOM     28  C   LIG d   1       5.075  -5.468  -5.547  0.00  0.00     0.015 C 
ATOM     29  C   LIG d   1       5.733  -6.306  -8.294  0.00  0.00    -0.037 C 
ATOM     30  H   LIG d   1       7.760  -5.998  -7.622  0.00  0.00     0.046 H 
ATOM     31  H   LIG d   1       6.887  -7.293  -6.762  0.00  0.00     0.046 H 
ATOM     32  C   LIG d   1       4.366  -6.589  -7.667  0.00  0.00    -0.050 C 
ATOM     33  H   LIG d   1       5.712  -5.334  -8.788  0.00  0.00     0.028 H 
ATOM     34  H   LIG d   1       5.966  -7.081  -9.024  0.00  0.00     0.028 H 
ATOM     35  C   LIG d   1       4.023  -5.483  -6.666  0.00  0.00    -0.037 C 
ATOM     36  H   LIG d   1       3.607  -6.620  -8.448  0.00  0.00     0.027 H 
ATOM     37  H   LIG d   1       4.396  -7.549  -7.150  0.00  0.00     0.027 H 
ATOM     38  H   LIG d   1       4.018  -4.519  -7.175  0.00  0.00     0.028 H 
ATOM     39  H   LIG d   1       3.039  -5.672  -6.237  0.00  0.00     0.028 H 
ATOM     40  H   LIG d   1       5.023  -6.398  -4.980  0.00  0.00     0.046 H 
ATOM     41  H   LIG d   1       4.894  -4.623  -4.883  0.00  0.00     0.046 H 
ENDBRANCH  12  24
BRANCH   1  42
ATOM     42  C   LIG d   1       8.819   0.160  -5.878  0.00  0.00    -0.007 C 
ATOM     43  H   LIG d   1       9.514   0.655  -5.200  0.00  0.00     0.029 H 
ATOM     44  H   LIG d   1       9.371  -0.499  -6.548  0.00  0.00     0.029 H 
ATOM     45  H   LIG d   1       8.286   0.909  -6.463  0.00  0.00     0.029 H 
ENDBRANCH   1  42
TORSDOF 2
ENDMDL
MODEL 7
REMARK VINA RESULT:      -6.2      4.187      6.467
REMARK  2 active torsions:
REMARK  status: ('A' for Active; 'I' for Inactive)
REMARK    1  A    between atoms: C_1  and  C_2 
REMARK    2  A    between atoms: C_13  and  C_18 
REMARK       I    between atoms: C_18  and  N_20 
ROOT
ATOM      1  C   LIG d   1       3.813   1.310  -8.891  0.00  0.00     0.176 C 
ATOM      2  C   LIG d   1       5.045   0.401  -8.789  0.00  0.00     0.012 C 
ATOM      3  C   LIG d   1       4.555  -0.987  -8.353  0.00  0.00     0.012 C 
ATOM      4  H   LIG d   1       5.361  -1.716  -8.434  0.00  0.00     0.036 H 
ATOM      5  C   LIG d   1       3.394  -1.407  -9.216  0.00  0.00    -0.001 A 
ATOM      6  C   LIG d   1       3.036  -2.744  -9.246  0.00  0.00    -0.055 A 
ATOM      7  C   LIG d   1       1.976  -3.166 -10.026  0.00  0.00    -0.061 A 
ATOM      8  C   LIG d   1       1.267  -2.250 -10.782  0.00  0.00    -0.058 A 
ATOM      9  C   LIG d   1       1.618  -0.915 -10.756  0.00  0.00    -0.020 A 
ATOM     10  C   LIG d   1       2.685  -0.489  -9.971  0.00  0.00     0.127 A 
ATOM     11  O   LIG d   1       3.002   0.833  -9.971  0.00  0.00    -0.468 OA
ATOM     12  C   LIG d   1       4.087  -0.885  -6.897  0.00  0.00     0.119 C 
ATOM     13  H   LIG d   1       3.573  -1.803  -6.615  0.00  0.00     0.050 H 
ATOM     14  C   LIG d   1       3.147   0.279  -6.752  0.00  0.00     0.228 C 
ATOM     15  O   LIG d   1       2.443   0.330  -5.766  0.00  0.00    -0.275 OA
ATOM     16  N   LIG d   1       3.048   1.259  -7.652  0.00  0.00    -0.278 N 
ATOM     17  H   LIG d   1       5.738   0.799  -8.049  0.00  0.00     0.033 H 
ATOM     18  H   LIG d   1       5.536   0.332  -9.760  0.00  0.00     0.033 H 
ATOM     19  H   LIG d   1       3.587  -3.462  -8.658  0.00  0.00     0.062 H 
ATOM     20  H   LIG d   1       1.702  -4.210 -10.045  0.00  0.00     0.062 H 
ATOM     21  H   LIG d   1       0.438  -2.579 -11.391  0.00  0.00     0.062 H 
ATOM     22  H   LIG d   1       1.063  -0.202 -11.346  0.00  0.00     0.065 H 
ATOM     23  H   LIG d   1       2.429   1.982  -7.470  0.00  0.00     0.152 HD
ENDROOT
BRANCH  12  24
ATOM     24  C   LIG d   1       5.280  -0.681  -5.998  0.00  0.00     0.228 C 
ATOM     25  O   LIG d   1       5.798   0.412  -5.918  0.00  0.00    -0.275 OA
ATOM     26  N   LIG d   1       5.771  -1.714  -5.286  0.00  0.00    -0.301 N 
ATOM     27  C   LIG d   1       6.866  -1.509  -4.328  0.00  0.00     0.015 C 
ATOM     28  C   LIG d   1       5.219  -3.066  -5.448  0.00  0.00     0.015 C 
ATOM     29  C   LIG d   1       7.997  -2.490  -4.653  0.00  0.00    -0.037 C 
ATOM     30  H   LIG d   1       7.235  -0.487  -4.408  0.00  0.00     0.046 H 
ATOM     31  H   LIG d   1       6.504  -1.692  -3.315  0.00  0.00     0.046 H 
ATOM     32  C   LIG d   1       7.440  -3.915  -4.675  0.00  0.00    -0.050 C 
ATOM     33  H   LIG d   1       8.417  -2.249  -5.629  0.00  0.00     0.028 H 
ATOM     34  H   LIG d   1       8.774  -2.415  -3.892  0.00  0.00     0.028 H 
ATOM     35  C   LIG d   1       6.372  -4.030  -5.765  0.00  0.00    -0.037 C 
ATOM     36  H   LIG d   1       8.247  -4.618  -4.883  0.00  0.00     0.027 H 
ATOM     37  H   LIG d   1       6.996  -4.147  -3.707  0.00  0.00     0.027 H 
ATOM     38  H   LIG d   1       6.808  -3.775  -6.731  0.00  0.00     0.028 H 
ATOM     39  H   LIG d   1       5.992  -5.052  -5.797  0.00  0.00     0.028 H 
ATOM     40  H   LIG d   1       4.726  -3.372  -4.526  0.00  0.00     0.046 H 
ATOM     41  H   LIG d   1       4.500  -3.070  -6.268  0.00  0.00     0.046 H 
ENDBRANCH  12  24
BRANCH   1  42
ATOM     42  C   LIG d   1       4.245   2.751  -9.171  0.00  0.00    -0.007 C 
ATOM     43  H   LIG d   1       4.953   3.073  -8.408  0.00  0.00     0.029 H 
ATOM     44  H   LIG d   1       4.717   2.806 -10.152  0.00  0.00     0.029 H 
ATOM     45  H   LIG d   1       3.371   3.402  -9.153  0.00  0.00     0.029 H 
ENDBRANCH   1  42
TORSDOF 2
ENDMDL
MODEL 8
REMARK VINA RESULT:      -6.2      3.067      6.406
REMARK  2 active torsions:
REMARK  status: ('A' for Active; 'I' for Inactive)
REMARK    1  A    between atoms: C_1  and  C_2 
REMARK    2  A    between atoms: C_13  and  C_18 
REMARK       I    between atoms: C_18  and  N_20 
ROOT
ATOM      1  C   LIG d   1       5.602  -0.252  -3.685  0.00  0.00     0.176 C 
ATOM      2  C   LIG d   1       4.395  -0.963  -4.309  0.00  0.00     0.012 C 
ATOM      3  C   LIG d   1       4.914  -1.802  -5.484  0.00  0.00     0.012 C 
ATOM      4  H   LIG d   1       4.131  -2.464  -5.854  0.00  0.00     0.036 H 
ATOM      5  C   LIG d   1       6.104  -2.614  -5.039  0.00  0.00    -0.001 A 
ATOM      6  C   LIG d   1       6.500  -3.694  -5.810  0.00  0.00    -0.055 A 
ATOM      7  C   LIG d   1       7.586  -4.459  -5.433  0.00  0.00    -0.061 A 
ATOM      8  C   LIG d   1       8.284  -4.149  -4.280  0.00  0.00    -0.058 A 
ATOM      9  C   LIG d   1       7.895  -3.073  -3.507  0.00  0.00    -0.020 A 
ATOM     10  C   LIG d   1       6.802  -2.301  -3.886  0.00  0.00     0.127 A 
ATOM     11  O   LIG d   1       6.447  -1.249  -3.100  0.00  0.00    -0.468 OA
ATOM     12  C   LIG d   1       5.351  -0.839  -6.594  0.00  0.00     0.119 C 
ATOM     13  H   LIG d   1       5.885  -1.393  -7.366  0.00  0.00     0.050 H 
ATOM     14  C   LIG d   1       6.255   0.214  -6.018  0.00  0.00     0.228 C 
ATOM     15  O   LIG d   1       6.938   0.865  -6.779  0.00  0.00    -0.275 OA
ATOM     16  N   LIG d   1       6.344   0.470  -4.712  0.00  0.00    -0.278 N 
ATOM     17  H   LIG d   1       3.676  -0.227  -4.668  0.00  0.00     0.033 H 
ATOM     18  H   LIG d   1       3.925  -1.612  -3.570  0.00  0.00     0.033 H 
ATOM     19  H   LIG d   1       5.957  -3.940  -6.710  0.00  0.00     0.062 H 
ATOM     20  H   LIG d   1       7.889  -5.301  -6.037  0.00  0.00     0.062 H 
ATOM     21  H   LIG d   1       9.134  -4.747  -3.985  0.00  0.00     0.062 H 
ATOM     22  H   LIG d   1       8.441  -2.831  -2.608  0.00  0.00     0.065 H 
ATOM     23  H   LIG d   1       6.939   1.181  -4.427  0.00  0.00     0.152 HD
ENDROOT
BRANCH  12  24
ATOM     24  C   LIG d   1       4.135  -0.182  -7.196  0.00  0.00     0.228 C 
ATOM     25  O   LIG d   1       3.556   0.693  -6.589  0.00  0.00    -0.275 OA
ATOM     26  N   LIG d   1       3.692  -0.568  -8.409  0.00  0.00    -0.301 N 
ATOM     27  C   LIG d   1       2.573   0.132  -9.055  0.00  0.00     0.015 C 
ATOM     28  C   LIG d   1       4.321  -1.694  -9.113  0.00  0.00     0.015 C 
ATOM     29  C   LIG d   1       1.504  -0.895  -9.440  0.00  0.00    -0.037 C 
ATOM     30  H   LIG d   1       2.150   0.859  -8.363  0.00  0.00     0.046 H 
ATOM     31  H   LIG d   1       2.930   0.642  -9.951  0.00  0.00     0.046 H 
ATOM     32  C   LIG d   1       2.140  -1.990 -10.299  0.00  0.00    -0.050 C 
ATOM     33  H   LIG d   1       1.085  -1.339  -8.537  0.00  0.00     0.028 H 
ATOM     34  H   LIG d   1       0.713  -0.402 -10.005  0.00  0.00     0.028 H 
ATOM     35  C   LIG d   1       3.229  -2.704  -9.495  0.00  0.00    -0.037 C 
ATOM     36  H   LIG d   1       1.377  -2.710 -10.595  0.00  0.00     0.027 H 
ATOM     37  H   LIG d   1       2.582  -1.542 -11.190  0.00  0.00     0.027 H 
ATOM     38  H   LIG d   1       2.794  -3.131  -8.591  0.00  0.00     0.028 H 
ATOM     39  H   LIG d   1       3.666  -3.500 -10.099  0.00  0.00     0.028 H 
ATOM     40  H   LIG d   1       4.817  -1.330 -10.013  0.00  0.00     0.046 H 
ATOM     41  H   LIG d   1       5.051  -2.171  -8.459  0.00  0.00     0.046 H 
ENDBRANCH  12  24
BRANCH   1  42
ATOM     42  C   LIG d   1       5.136   0.726  -2.604  0.00  0.00    -0.007 C 
ATOM     43  H   LIG d   1       4.256   0.322  -2.104  0.00  0.00     0.029 H 
ATOM     44  H   LIG d   1       5.935   0.869  -1.875  0.00  0.00     0.029 H 
ATOM     45  H   LIG d   1       4.888   1.683  -3.061  0.00  0.00     0.029 H 
ENDBRANCH   1  42
TORSDOF 2
ENDMDL
MODEL 9
REMARK VINA RESULT:      -5.9      1.737      5.910
REMARK  2 active torsions:
REMARK  status: ('A' for Active; 'I' for Inactive)
REMARK    1  A    between atoms: C_1  and  C_2 
REMARK    2  A    between atoms: C_13  and  C_18 
REMARK       I    between atoms: C_18  and  N_20 
ROOT
ATOM      1  C   LIG d   1       9.371   0.953  -7.230  0.00  0.00     0.176 C 
ATOM      2  C   LIG d   1       8.099   1.685  -6.783  0.00  0.00     0.012 C 
ATOM      3  C   LIG d   1       8.067   1.652  -5.249  0.00  0.00     0.012 C 
ATOM      4  H   LIG d   1       7.281   2.307  -4.871  0.00  0.00     0.036 H 
ATOM      5  C   LIG d   1       9.403   2.089  -4.706  0.00  0.00    -0.001 A 
ATOM      6  C   LIG d   1       9.488   2.481  -3.380  0.00  0.00    -0.055 A 
ATOM      7  C   LIG d   1      10.697   2.887  -2.848  0.00  0.00    -0.061 A 
ATOM      8  C   LIG d   1      11.830   2.905  -3.641  0.00  0.00    -0.058 A 
ATOM      9  C   LIG d   1      11.752   2.515  -4.963  0.00  0.00    -0.020 A 
ATOM     10  C   LIG d   1      10.536   2.106  -5.500  0.00  0.00     0.127 A 
ATOM     11  O   LIG d   1      10.498   1.729  -6.807  0.00  0.00    -0.468 OA
ATOM     12  C   LIG d   1       7.798   0.207  -4.814  0.00  0.00     0.119 C 
ATOM     13  H   LIG d   1       7.944   0.118  -3.738  0.00  0.00     0.050 H 
ATOM     14  C   LIG d   1       8.746  -0.717  -5.525  0.00  0.00     0.228 C 
ATOM     15  O   LIG d   1       8.894  -1.837  -5.087  0.00  0.00    -0.275 OA
ATOM     16  N   LIG d   1       9.433  -0.366  -6.614  0.00  0.00    -0.278 N 
ATOM     17  H   LIG d   1       7.221   1.179  -7.183  0.00  0.00     0.033 H 
ATOM     18  H   LIG d   1       8.124   2.718  -7.131  0.00  0.00     0.033 H 
ATOM     19  H   LIG d   1       8.605   2.469  -2.759  0.00  0.00     0.062 H 
ATOM     20  H   LIG d   1      10.756   3.192  -1.815  0.00  0.00     0.062 H 
ATOM     21  H   LIG d   1      12.775   3.222  -3.225  0.00  0.00     0.062 H 
ATOM     22  H   LIG d   1      12.638   2.528  -5.580  0.00  0.00     0.065 H 
ATOM     23  H   LIG d   1      10.009  -1.031  -7.021  0.00  0.00     0.152 HD
ENDROOT
BRANCH  12  24
ATOM     24  C   LIG d   1       6.379  -0.166  -5.162  0.00  0.00     0.228 C 
ATOM     25  O   LIG d   1       6.078  -0.397  -6.313  0.00  0.00    -0.275 OA
ATOM     26  N   LIG d   1       5.445  -0.241  -4.192  0.00  0.00    -0.301 N 
ATOM     27  C   LIG d   1       4.085  -0.704  -4.498  0.00  0.00     0.015 C 
ATOM     28  C   LIG d   1       5.770   0.134  -2.809  0.00  0.00     0.015 C 
ATOM     29  C   LIG d   1       3.084   0.344  -4.001  0.00  0.00    -0.037 C 
ATOM     30  H   LIG d   1       3.976  -0.832  -5.575  0.00  0.00     0.046 H 
ATOM     31  H   LIG d   1       3.900  -1.653  -3.994  0.00  0.00     0.046 H 
ATOM     32  C   LIG d   1       3.335   0.620  -2.517  0.00  0.00    -0.050 C 
ATOM     33  H   LIG d   1       3.210   1.265  -4.569  0.00  0.00     0.028 H 
ATOM     34  H   LIG d   1       2.069  -0.030  -4.135  0.00  0.00     0.028 H 
ATOM     35  C   LIG d   1       4.749   1.177  -2.332  0.00  0.00    -0.037 C 
ATOM     36  H   LIG d   1       2.608   1.348  -2.155  0.00  0.00     0.027 H 
ATOM     37  H   LIG d   1       3.234  -0.307  -1.953  0.00  0.00     0.027 H 
ATOM     38  H   LIG d   1       4.860   2.091  -2.916  0.00  0.00     0.028 H 
ATOM     39  H   LIG d   1       4.919   1.396  -1.278  0.00  0.00     0.028 H 
ATOM     40  H   LIG d   1       5.720  -0.749  -2.171  0.00  0.00     0.046 H 
ATOM     41  H   LIG d   1       6.773   0.557  -2.772  0.00  0.00     0.046 H 
ENDBRANCH  12  24
BRANCH   1  42
ATOM     42  C   LIG d   1       9.389   0.812  -8.754  0.00  0.00    -0.007 C 
ATOM     43  H   LIG d   1       9.552   1.789  -9.208  0.00  0.00     0.029 H 
ATOM     44  H   LIG d   1      10.193   0.136  -9.046  0.00  0.00     0.029 H 
ATOM     45  H   LIG d   1       8.435   0.408  -9.092  0.00  0.00     0.029 H 
ENDBRANCH   1  42
TORSDOF 2
ENDMDL
MODEL 10
REMARK VINA RESULT:      -5.8      3.470      6.313
REMARK  2 active torsions:
REMARK  status: ('A' for Active; 'I' for Inactive)
REMARK    1  A    between atoms: C_1  and  C_2 
REMARK    2  A    between atoms: C_13  and  C_18 
REMARK       I    between atoms: C_18  and  N_20 
ROOT
ATOM      1  C   LIG d   1       5.043   0.289  -9.617  0.00  0.00     0.176 C 
ATOM      2  C   LIG d   1       5.304   1.143  -8.369  0.00  0.00     0.012 C 
ATOM      3  C   LIG d   1       6.026   0.254  -7.348  0.00  0.00     0.012 C 
ATOM      4  H   LIG d   1       6.393   0.854  -6.515  0.00  0.00     0.036 H 
ATOM      5  C   LIG d   1       7.178  -0.451  -8.018  0.00  0.00    -0.001 A 
ATOM      6  C   LIG d   1       8.170  -1.006  -7.227  0.00  0.00    -0.055 A 
ATOM      7  C   LIG d   1       9.240  -1.660  -7.806  0.00  0.00    -0.061 A 
ATOM      8  C   LIG d   1       9.324  -1.763  -9.183  0.00  0.00    -0.058 A 
ATOM      9  C   LIG d   1       8.339  -1.212  -9.977  0.00  0.00    -0.020 A 
ATOM     10  C   LIG d   1       7.261  -0.554  -9.395  0.00  0.00     0.127 A 
ATOM     11  O   LIG d   1       6.309  -0.024 -10.209  0.00  0.00    -0.468 OA
ATOM     12  C   LIG d   1       5.025  -0.790  -6.841  0.00  0.00     0.119 C 
ATOM     13  H   LIG d   1       5.551  -1.542  -6.252  0.00  0.00     0.050 H 
ATOM     14  C   LIG d   1       4.354  -1.453  -8.012  0.00  0.00     0.228 C 
ATOM     15  O   LIG d   1       3.774  -2.501  -7.824  0.00  0.00    -0.275 OA
ATOM     16  N   LIG d   1       4.364  -0.946  -9.245  0.00  0.00    -0.278 N 
ATOM     17  H   LIG d   1       4.358   1.491  -7.955  0.00  0.00     0.033 H 
ATOM     18  H   LIG d   1       5.932   1.996  -8.629  0.00  0.00     0.033 H 
ATOM     19  H   LIG d   1       8.107  -0.927  -6.152  0.00  0.00     0.062 H 
ATOM     20  H   LIG d   1      10.010  -2.090  -7.184  0.00  0.00     0.062 H 
ATOM     21  H   LIG d   1      10.161  -2.275  -9.635  0.00  0.00     0.062 H 
ATOM     22  H   LIG d   1       8.406  -1.295 -11.051  0.00  0.00     0.065 H 
ATOM     23  H   LIG d   1       3.889  -1.430  -9.939  0.00  0.00     0.152 HD
ENDROOT
BRANCH  12  24
ATOM     24  C   LIG d   1       3.986  -0.115  -5.983  0.00  0.00     0.228 C 
ATOM     25  O   LIG d   1       3.052   0.457  -6.501  0.00  0.00    -0.275 OA
ATOM     26  N   LIG d   1       4.097  -0.147  -4.640  0.00  0.00    -0.301 N 
ATOM     27  C   LIG d   1       3.040   0.415  -3.788  0.00  0.00     0.015 C 
ATOM     28  C   LIG d   1       5.275  -0.749  -4.000  0.00  0.00     0.015 C 
ATOM     29  C   LIG d   1       3.669   1.422  -2.820  0.00  0.00    -0.037 C 
ATOM     30  H   LIG d   1       2.300   0.918  -4.410  0.00  0.00     0.046 H 
ATOM     31  H   LIG d   1       2.562  -0.386  -3.223  0.00  0.00     0.046 H 
ATOM     32  C   LIG d   1       4.803   0.742  -2.049  0.00  0.00    -0.050 C 
ATOM     33  H   LIG d   1       4.067   2.266  -3.383  0.00  0.00     0.028 H 
ATOM     34  H   LIG d   1       2.912   1.775  -2.119  0.00  0.00     0.028 H 
ATOM     35  C   LIG d   1       5.881   0.276  -3.030  0.00  0.00    -0.037 C 
ATOM     36  H   LIG d   1       5.237   1.450  -1.342  0.00  0.00     0.027 H 
ATOM     37  H   LIG d   1       4.409  -0.118  -1.507  0.00  0.00     0.027 H 
ATOM     38  H   LIG d   1       6.259   1.131  -3.590  0.00  0.00     0.028 H 
ATOM     39  H   LIG d   1       6.700  -0.187  -2.478  0.00  0.00     0.028 H 
ATOM     40  H   LIG d   1       4.975  -1.643  -3.452  0.00  0.00     0.046 H 
ATOM     41  H   LIG d   1       6.008  -1.014  -4.761  0.00  0.00     0.046 H 
ENDBRANCH  12  24
BRANCH   1  42
ATOM     42  C   LIG d   1       4.186   1.067 -10.618  0.00  0.00    -0.007 C 
ATOM     43  H   LIG d   1       3.336   0.456 -10.921  0.00  0.00     0.029 H 
ATOM     44  H   LIG d   1       3.825   1.984 -10.152  0.00  0.00     0.029 H 
ATOM     45  H   LIG d   1       4.785   1.317 -11.493  0.00  0.00     0.029 H 
ENDBRANCH   1  42
TORSDOF 2
ENDMDL
