MODEL 1
REMARK VINA RESULT:      -6.5      0.000      0.000
REMARK  8 active torsions:
REMARK  status: ('A' for Active; 'I' for Inactive)
REMARK    1  A    between atoms: C_1  and  C_2 
REMARK       I    between atoms: C_2  and  N_4 
REMARK    2  A    between atoms: N_4  and  C_5 
REMARK    3  A    between atoms: C_7  and  O_34 
REMARK    4  A    between atoms: C_15  and  C_18 
REMARK    5  A    between atoms: C_25  and  O_27 
REMARK    6  A    between atoms: O_27  and  C_28 
REMARK    7  A    between atoms: O_34  and  C_35 
REMARK    8  A    between atoms: C_35  and  C_36 
ROOT
ATOM      1  C   LIG d   1       4.221  -1.112  -5.625  0.00  0.00     0.114 C 
ATOM      2  H   LIG d   1       3.371  -1.733  -5.346  0.00  0.00     0.059 H 
ATOM      3  C   LIG d   1       5.453  -1.547  -4.826  0.00  0.00     0.112 C 
ATOM      4  H   LIG d   1       6.291  -0.889  -5.058  0.00  0.00     0.064 H 
ATOM      5  C   LIG d   1       5.803  -2.982  -5.221  0.00  0.00     0.118 C 
ATOM      6  H   LIG d   1       4.969  -3.640  -4.972  0.00  0.00     0.065 H 
ATOM      7  C   LIG d   1       6.058  -3.026  -6.732  0.00  0.00     0.115 C 
ATOM      8  H   LIG d   1       6.875  -2.349  -6.983  0.00  0.00     0.065 H 
ATOM      9  C   LIG d   1       6.446  -4.456  -7.113  0.00  0.00     0.080 C 
ATOM     10  O   LIG d   1       7.576  -4.842  -6.322  0.00  0.00    -0.344 OA
ATOM     11  C   LIG d   1       7.362  -4.761  -4.912  0.00  0.00     0.186 C 
ATOM     12  H   LIG d   1       6.570  -5.455  -4.627  0.00  0.00     0.096 H 
ATOM     13  O   LIG d   1       6.980  -3.429  -4.548  0.00  0.00    -0.339 OA
ATOM     14  O   LIG d   1       4.875  -2.614  -7.413  0.00  0.00    -0.332 OA
ATOM     15  C   LIG d   1       4.494  -1.265  -7.122  0.00  0.00     0.223 C 
ATOM     16  H   LIG d   1       5.299  -0.591  -7.414  0.00  0.00     0.108 H 
ATOM     17  H   LIG d   1       5.612  -5.128  -6.917  0.00  0.00     0.059 H 
ATOM     18  H   LIG d   1       6.710  -4.495  -8.171  0.00  0.00     0.059 H 
ENDROOT
BRANCH  15  19
ATOM     19  O   LIG d   1       3.312  -0.937  -7.856  0.00  0.00    -0.462 OA
BRANCH  19  20
ATOM     20  C   LIG d   1       3.403   0.085  -8.747  0.00  0.00     0.124 A 
ATOM     21  C   LIG d   1       3.824  -0.161 -10.046  0.00  0.00    -0.020 A 
ATOM     22  C   LIG d   1       3.916   0.879 -10.949  0.00  0.00    -0.058 A 
ATOM     23  H   LIG d   1       4.081  -1.165 -10.350  0.00  0.00     0.065 H 
ATOM     24  C   LIG d   1       3.588   2.165 -10.562  0.00  0.00    -0.061 A 
ATOM     25  H   LIG d   1       4.243   0.688 -11.961  0.00  0.00     0.062 H 
ATOM     26  C   LIG d   1       3.168   2.413  -9.268  0.00  0.00    -0.058 A 
ATOM     27  H   LIG d   1       3.660   2.977 -11.270  0.00  0.00     0.062 H 
ATOM     28  C   LIG d   1       3.069   1.375  -8.361  0.00  0.00    -0.020 A 
ATOM     29  H   LIG d   1       2.913   3.418  -8.967  0.00  0.00     0.062 H 
ATOM     30  H   LIG d   1       2.736   1.568  -7.353  0.00  0.00     0.065 H 
ENDBRANCH  19  20
ENDBRANCH  15  19
BRANCH   1  31
ATOM     31  N   LIG d   1       3.920   0.290  -5.326  0.00  0.00    -0.304 N 
ATOM     32  C   LIG d   1       2.728   0.624  -4.792  0.00  0.00     0.210 C 
ATOM     33  O   LIG d   1       1.905  -0.236  -4.562  0.00  0.00    -0.276 OA
ATOM     34  H   LIG d   1       4.578   0.978  -5.509  0.00  0.00     0.149 HD
BRANCH  32  35
ATOM     35  C   LIG d   1       2.418   2.066  -4.484  0.00  0.00     0.012 C 
ATOM     36  H   LIG d   1       2.784   2.698  -5.295  0.00  0.00     0.032 H 
ATOM     37  H   LIG d   1       1.340   2.193  -4.383  0.00  0.00     0.032 H 
ATOM     38  H   LIG d   1       2.906   2.352  -3.552  0.00  0.00     0.032 H 
ENDBRANCH  32  35
ENDBRANCH   1  31
BRANCH   3  39
ATOM     39  O   LIG d   1       5.169  -1.488  -3.427  0.00  0.00    -0.366 OA
BRANCH  39  40
ATOM     40  C   LIG d   1       6.061  -0.653  -2.687  0.00  0.00     0.087 C 
ATOM     41  H   LIG d   1       6.286  -1.120  -1.729  0.00  0.00     0.062 H 
ATOM     42  H   LIG d   1       6.984  -0.517  -3.251  0.00  0.00     0.062 H 
BRANCH  40  43
ATOM     43  C   LIG d   1       5.414   0.688  -2.452  0.00  0.00     0.067 C 
ATOM     44  O   LIG d   1       5.794   1.658  -3.062  0.00  0.00    -0.547 OA
ATOM     45  O   LIG d   1       4.415   0.804  -1.562  0.00  0.00    -0.547 OA
ENDBRANCH  40  43
ENDBRANCH  39  40
ENDBRANCH   3  39
BRANCH  11  46
ATOM     46  C   LIG d   1       8.633  -5.130  -4.192  0.00  0.00     0.008 A 
ATOM     47  C   LIG d   1       9.238  -4.219  -3.348  0.00  0.00    -0.054 A 
ATOM     48  C   LIG d   1      10.405  -4.557  -2.687  0.00  0.00    -0.061 A 
ATOM     49  H   LIG d   1       8.801  -3.241  -3.205  0.00  0.00     0.062 H 
ATOM     50  C   LIG d   1      10.965  -5.807  -2.871  0.00  0.00    -0.062 A 
ATOM     51  H   LIG d   1      10.877  -3.845  -2.027  0.00  0.00     0.062 H 
ATOM     52  C   LIG d   1      10.358  -6.719  -3.715  0.00  0.00    -0.061 A 
ATOM     53  H   LIG d   1      11.875  -6.072  -2.355  0.00  0.00     0.062 H 
ATOM     54  C   LIG d   1       9.190  -6.382  -4.371  0.00  0.00    -0.054 A 
ATOM     55  H   LIG d   1      10.797  -7.696  -3.859  0.00  0.00     0.062 H 
ATOM     56  H   LIG d   1       8.714  -7.096  -5.028  0.00  0.00     0.062 H 
ENDBRANCH  11  46
TORSDOF 8
ENDMDL
MODEL 2
REMARK VINA RESULT:      -6.4      2.499      7.772
REMARK  8 active torsions:
REMARK  status: ('A' for Active; 'I' for Inactive)
REMARK    1  A    between atoms: C_1  and  C_2 
REMARK       I    between atoms: C_2  and  N_4 
REMARK    2  A    between atoms: N_4  and  C_5 
REMARK    3  A    between atoms: C_7  and  O_34 
REMARK    4  A    between atoms: C_15  and  C_18 
REMARK    5  A    between atoms: C_25  and  O_27 
REMARK    6  A    between atoms: O_27  and  C_28 
REMARK    7  A    between atoms: O_34  and  C_35 
REMARK    8  A    between atoms: C_35  and  C_36 
ROOT
ATOM      1  C   LIG d   1       6.709  -2.049  -6.100  0.00  0.00     0.114 C 
ATOM      2  H   LIG d   1       6.132  -2.567  -5.334  0.00  0.00     0.059 H 
ATOM      3  C   LIG d   1       6.128  -2.370  -7.480  0.00  0.00     0.112 C 
ATOM      4  H   LIG d   1       6.739  -1.902  -8.253  0.00  0.00     0.064 H 
ATOM      5  C   LIG d   1       4.705  -1.816  -7.545  0.00  0.00     0.118 C 
ATOM      6  H   LIG d   1       4.092  -2.298  -6.782  0.00  0.00     0.065 H 
ATOM      7  C   LIG d   1       4.754  -0.306  -7.284  0.00  0.00     0.115 C 
ATOM      8  H   LIG d   1       5.386   0.172  -8.032  0.00  0.00     0.065 H 
ATOM      9  C   LIG d   1       3.332   0.248  -7.391  0.00  0.00     0.080 C 
ATOM     10  O   LIG d   1       2.807  -0.102  -8.677  0.00  0.00    -0.344 OA
ATOM     11  C   LIG d   1       2.799  -1.505  -8.946  0.00  0.00     0.186 C 
ATOM     12  H   LIG d   1       2.145  -2.006  -8.231  0.00  0.00     0.096 H 
ATOM     13  O   LIG d   1       4.124  -2.036  -8.831  0.00  0.00    -0.339 OA
ATOM     14  O   LIG d   1       5.300  -0.078  -5.987  0.00  0.00    -0.332 OA
ATOM     15  C   LIG d   1       6.647  -0.541  -5.850  0.00  0.00     0.223 C 
ATOM     16  H   LIG d   1       7.281  -0.028  -6.573  0.00  0.00     0.108 H 
ATOM     17  H   LIG d   1       2.710  -0.185  -6.608  0.00  0.00     0.059 H 
ATOM     18  H   LIG d   1       3.352   1.333  -7.287  0.00  0.00     0.059 H 
ENDROOT
BRANCH  15  19
ATOM     19  O   LIG d   1       7.114  -0.260  -4.528  0.00  0.00    -0.462 OA
BRANCH  19  20
ATOM     20  C   LIG d   1       6.177  -0.176  -3.548  0.00  0.00     0.124 A 
ATOM     21  C   LIG d   1       5.596  -1.329  -3.042  0.00  0.00    -0.020 A 
ATOM     22  C   LIG d   1       4.643  -1.241  -2.046  0.00  0.00    -0.058 A 
ATOM     23  H   LIG d   1       5.887  -2.295  -3.426  0.00  0.00     0.065 H 
ATOM     24  C   LIG d   1       4.268  -0.005  -1.552  0.00  0.00    -0.061 A 
ATOM     25  H   LIG d   1       4.191  -2.139  -1.650  0.00  0.00     0.062 H 
ATOM     26  C   LIG d   1       4.846   1.146  -2.055  0.00  0.00    -0.058 A 
ATOM     27  H   LIG d   1       3.524   0.061  -0.773  0.00  0.00     0.062 H 
ATOM     28  C   LIG d   1       5.803   1.063  -3.048  0.00  0.00    -0.020 A 
ATOM     29  H   LIG d   1       4.551   2.111  -1.669  0.00  0.00     0.062 H 
ATOM     30  H   LIG d   1       6.257   1.962  -3.437  0.00  0.00     0.065 H 
ENDBRANCH  19  20
ENDBRANCH  15  19
BRANCH   1  31
ATOM     31  N   LIG d   1       8.103  -2.495  -6.046  0.00  0.00    -0.304 N 
ATOM     32  C   LIG d   1       8.514  -3.301  -5.046  0.00  0.00     0.210 C 
ATOM     33  O   LIG d   1       7.730  -3.654  -4.191  0.00  0.00    -0.276 OA
ATOM     34  H   LIG d   1       8.730  -2.213  -6.730  0.00  0.00     0.149 HD
BRANCH  32  35
ATOM     35  C   LIG d   1       9.948  -3.761  -4.990  0.00  0.00     0.012 C 
ATOM     36  H   LIG d   1      10.072  -4.465  -4.166  0.00  0.00     0.032 H 
ATOM     37  H   LIG d   1      10.210  -4.250  -5.928  0.00  0.00     0.032 H 
ATOM     38  H   LIG d   1      10.600  -2.901  -4.834  0.00  0.00     0.032 H 
ENDBRANCH  32  35
ENDBRANCH   1  31
BRANCH   3  39
ATOM     39  O   LIG d   1       6.103  -3.785  -7.678  0.00  0.00    -0.366 OA
BRANCH  39  40
ATOM     40  C   LIG d   1       5.486  -4.510  -6.613  0.00  0.00     0.087 C 
ATOM     41  H   LIG d   1       6.166  -5.286  -6.259  0.00  0.00     0.062 H 
ATOM     42  H   LIG d   1       5.256  -3.828  -5.794  0.00  0.00     0.062 H 
BRANCH  40  43
ATOM     43  C   LIG d   1       4.214  -5.147  -7.109  0.00  0.00     0.067 C 
ATOM     44  O   LIG d   1       3.317  -5.388  -6.337  0.00  0.00    -0.547 OA
ATOM     45  O   LIG d   1       4.078  -5.447  -8.411  0.00  0.00    -0.547 OA
ENDBRANCH  40  43
ENDBRANCH  39  40
ENDBRANCH   3  39
BRANCH  11  46
ATOM     46  C   LIG d   1       2.286  -1.741 -10.343  0.00  0.00     0.008 A 
ATOM     47  C   LIG d   1       1.184  -1.045 -10.802  0.00  0.00    -0.054 A 
ATOM     48  C   LIG d   1       0.714  -1.260 -12.084  0.00  0.00    -0.061 A 
ATOM     49  H   LIG d   1       0.690  -0.331 -10.158  0.00  0.00     0.062 H 
ATOM     50  C   LIG d   1       1.346  -2.173 -12.907  0.00  0.00    -0.062 A 
ATOM     51  H   LIG d   1      -0.147  -0.716 -12.442  0.00  0.00     0.062 H 
ATOM     52  C   LIG d   1       2.449  -2.869 -12.448  0.00  0.00    -0.061 A 
ATOM     53  H   LIG d   1       0.979  -2.342 -13.908  0.00  0.00     0.062 H 
ATOM     54  C   LIG d   1       2.922  -2.650 -11.168  0.00  0.00    -0.054 A 
ATOM     55  H   LIG d   1       2.942  -3.583 -13.092  0.00  0.00     0.062 H 
ATOM     56  H   LIG d   1       3.786  -3.191 -10.811  0.00  0.00     0.062 H 
ENDBRANCH  11  46
TORSDOF 8
ENDMDL
MODEL 3
REMARK VINA RESULT:      -6.2      3.573      6.440
REMARK  8 active torsions:
REMARK  status: ('A' for Active; 'I' for Inactive)
REMARK    1  A    between atoms: C_1  and  C_2 
REMARK       I    between atoms: C_2  and  N_4 
REMARK    2  A    between atoms: N_4  and  C_5 
REMARK    3  A    between atoms: C_7  and  O_34 
REMARK    4  A    between atoms: C_15  and  C_18 
REMARK    5  A    between atoms: C_25  and  O_27 
REMARK    6  A    between atoms: O_27  and  C_28 
REMARK    7  A    between atoms: O_34  and  C_35 
REMARK    8  A    between atoms: C_35  and  C_36 
ROOT
ATOM      1  C   LIG d   1       3.957  -3.224 -10.062  0.00  0.00     0.114 C 
ATOM      2  H   LIG d   1       4.987  -3.090 -10.392  0.00  0.00     0.059 H 
ATOM      3  C   LIG d   1       3.922  -3.325  -8.533  0.00  0.00     0.112 C 
ATOM      4  H   LIG d   1       2.902  -3.520  -8.202  0.00  0.00     0.064 H 
ATOM      5  C   LIG d   1       4.406  -1.997  -7.951  0.00  0.00     0.118 C 
ATOM      6  H   LIG d   1       5.432  -1.812  -8.271  0.00  0.00     0.065 H 
ATOM      7  C   LIG d   1       3.498  -0.875  -8.471  0.00  0.00     0.115 C 
ATOM      8  H   LIG d   1       2.469  -1.072  -8.172  0.00  0.00     0.065 H 
ATOM      9  C   LIG d   1       3.963   0.446  -7.852  0.00  0.00     0.080 C 
ATOM     10  O   LIG d   1       3.953   0.303  -6.427  0.00  0.00    -0.344 OA
ATOM     11  C   LIG d   1       4.761  -0.768  -5.938  0.00  0.00     0.186 C 
ATOM     12  H   LIG d   1       5.805  -0.579  -6.193  0.00  0.00     0.096 H 
ATOM     13  O   LIG d   1       4.345  -2.006  -6.525  0.00  0.00    -0.339 OA
ATOM     14  O   LIG d   1       3.580  -0.835  -9.894  0.00  0.00    -0.332 OA
ATOM     15  C   LIG d   1       3.115  -2.034 -10.522  0.00  0.00     0.223 C 
ATOM     16  H   LIG d   1       2.072  -2.202 -10.252  0.00  0.00     0.108 H 
ATOM     17  H   LIG d   1       4.972   0.675  -8.193  0.00  0.00     0.059 H 
ATOM     18  H   LIG d   1       3.284   1.247  -8.145  0.00  0.00     0.059 H 
ENDROOT
BRANCH  15  19
ATOM     19  O   LIG d   1       3.221  -1.898 -11.941  0.00  0.00    -0.462 OA
BRANCH  19  20
ATOM     20  C   LIG d   1       2.077  -2.037 -12.661  0.00  0.00     0.124 A 
ATOM     21  C   LIG d   1       0.871  -1.590 -12.142  0.00  0.00    -0.020 A 
ATOM     22  C   LIG d   1      -0.290  -1.733 -12.876  0.00  0.00    -0.058 A 
ATOM     23  H   LIG d   1       0.839  -1.132 -11.165  0.00  0.00     0.065 H 
ATOM     24  C   LIG d   1      -0.252  -2.319 -14.128  0.00  0.00    -0.061 A 
ATOM     25  H   LIG d   1      -1.230  -1.384 -12.473  0.00  0.00     0.062 H 
ATOM     26  C   LIG d   1       0.950  -2.766 -14.647  0.00  0.00    -0.058 A 
ATOM     27  H   LIG d   1      -1.161  -2.429 -14.700  0.00  0.00     0.062 H 
ATOM     28  C   LIG d   1       2.115  -2.621 -13.919  0.00  0.00    -0.020 A 
ATOM     29  H   LIG d   1       0.978  -3.224 -15.625  0.00  0.00     0.062 H 
ATOM     30  H   LIG d   1       3.053  -2.965 -14.327  0.00  0.00     0.065 H 
ENDBRANCH  19  20
ENDBRANCH  15  19
BRANCH   1  31
ATOM     31  N   LIG d   1       3.417  -4.457 -10.640  0.00  0.00    -0.304 N 
ATOM     32  C   LIG d   1       4.167  -5.189 -11.488  0.00  0.00     0.210 C 
ATOM     33  O   LIG d   1       5.288  -4.826 -11.773  0.00  0.00    -0.276 OA
ATOM     34  H   LIG d   1       2.520  -4.747 -10.412  0.00  0.00     0.149 HD
BRANCH  32  35
ATOM     35  C   LIG d   1       3.611  -6.456 -12.083  0.00  0.00     0.012 C 
ATOM     36  H   LIG d   1       3.501  -7.208 -11.300  0.00  0.00     0.032 H 
ATOM     37  H   LIG d   1       2.637  -6.253 -12.529  0.00  0.00     0.032 H 
ATOM     38  H   LIG d   1       4.291  -6.828 -12.849  0.00  0.00     0.032 H 
ENDBRANCH  32  35
ENDBRANCH   1  31
BRANCH   3  39
ATOM     39  O   LIG d   1       4.779  -4.382  -8.097  0.00  0.00    -0.366 OA
BRANCH  39  40
ATOM     40  C   LIG d   1       4.121  -5.377  -7.312  0.00  0.00     0.087 C 
ATOM     41  H   LIG d   1       3.047  -5.190  -7.314  0.00  0.00     0.062 H 
ATOM     42  H   LIG d   1       4.319  -6.363  -7.735  0.00  0.00     0.062 H 
BRANCH  40  43
ATOM     43  C   LIG d   1       4.638  -5.324  -5.898  0.00  0.00     0.067 C 
ATOM     44  O   LIG d   1       3.935  -5.683  -4.983  0.00  0.00    -0.547 OA
ATOM     45  O   LIG d   1       5.880  -4.876  -5.654  0.00  0.00    -0.547 OA
ENDBRANCH  40  43
ENDBRANCH  39  40
ENDBRANCH   3  39
BRANCH  11  46
ATOM     46  C   LIG d   1       4.621  -0.854  -4.440  0.00  0.00     0.008 A 
ATOM     47  C   LIG d   1       5.004   0.212  -3.648  0.00  0.00    -0.054 A 
ATOM     48  C   LIG d   1       4.875   0.134  -2.273  0.00  0.00    -0.061 A 
ATOM     49  H   LIG d   1       5.404   1.107  -4.103  0.00  0.00     0.062 H 
ATOM     50  C   LIG d   1       4.363  -1.010  -1.692  0.00  0.00    -0.062 A 
ATOM     51  H   LIG d   1       5.173   0.967  -1.655  0.00  0.00     0.062 H 
ATOM     52  C   LIG d   1       3.979  -2.076  -2.484  0.00  0.00    -0.061 A 
ATOM     53  H   LIG d   1       4.262  -1.072  -0.619  0.00  0.00     0.062 H 
ATOM     54  C   LIG d   1       4.104  -1.996  -3.859  0.00  0.00    -0.054 A 
ATOM     55  H   LIG d   1       3.580  -2.971  -2.029  0.00  0.00     0.062 H 
ATOM     56  H   LIG d   1       3.801  -2.828  -4.478  0.00  0.00     0.062 H 
ENDBRANCH  11  46
TORSDOF 8
ENDMDL
MODEL 4
REMARK VINA RESULT:      -6.1      3.963      7.333
REMARK  8 active torsions:
REMARK  status: ('A' for Active; 'I' for Inactive)
REMARK    1  A    between atoms: C_1  and  C_2 
REMARK       I    between atoms: C_2  and  N_4 
REMARK    2  A    between atoms: N_4  and  C_5 
REMARK    3  A    between atoms: C_7  and  O_34 
REMARK    4  A    between atoms: C_15  and  C_18 
REMARK    5  A    between atoms: C_25  and  O_27 
REMARK    6  A    between atoms: O_27  and  C_28 
REMARK    7  A    between atoms: O_34  and  C_35 
REMARK    8  A    between atoms: C_35  and  C_36 
ROOT
ATOM      1  C   LIG d   1       4.174  -2.372  -7.809  0.00  0.00     0.114 C 
ATOM      2  H   LIG d   1       5.135  -2.282  -8.315  0.00  0.00     0.059 H 
ATOM      3  C   LIG d   1       3.293  -3.372  -8.564  0.00  0.00     0.112 C 
ATOM      4  H   LIG d   1       2.309  -3.420  -8.096  0.00  0.00     0.064 H 
ATOM      5  C   LIG d   1       3.958  -4.746  -8.500  0.00  0.00     0.118 C 
ATOM      6  H   LIG d   1       4.935  -4.699  -8.984  0.00  0.00     0.065 H 
ATOM      7  C   LIG d   1       4.134  -5.138  -7.028  0.00  0.00     0.115 C 
ATOM      8  H   LIG d   1       3.160  -5.161  -6.539  0.00  0.00     0.065 H 
ATOM      9  C   LIG d   1       4.764  -6.532  -6.972  0.00  0.00     0.080 C 
ATOM     10  O   LIG d   1       3.935  -7.431  -7.718  0.00  0.00    -0.344 OA
ATOM     11  C   LIG d   1       3.730  -7.049  -9.079  0.00  0.00     0.186 C 
ATOM     12  H   LIG d   1       4.686  -7.051  -9.602  0.00  0.00     0.096 H 
ATOM     13  O   LIG d   1       3.157  -5.738  -9.142  0.00  0.00    -0.339 OA
ATOM     14  O   LIG d   1       4.963  -4.171  -6.388  0.00  0.00    -0.332 OA
ATOM     15  C   LIG d   1       4.396  -2.857  -6.376  0.00  0.00     0.223 C 
ATOM     16  H   LIG d   1       3.442  -2.880  -5.849  0.00  0.00     0.108 H 
ATOM     17  H   LIG d   1       5.761  -6.501  -7.409  0.00  0.00     0.059 H 
ATOM     18  H   LIG d   1       4.826  -6.865  -5.936  0.00  0.00     0.059 H 
ENDROOT
BRANCH  15  19
ATOM     19  O   LIG d   1       5.287  -1.962  -5.705  0.00  0.00    -0.462 OA
BRANCH  19  20
ATOM     20  C   LIG d   1       4.944  -1.579  -4.447  0.00  0.00     0.124 A 
ATOM     21  C   LIG d   1       5.261  -0.305  -3.998  0.00  0.00    -0.020 A 
ATOM     22  C   LIG d   1       4.912   0.082  -2.719  0.00  0.00    -0.058 A 
ATOM     23  H   LIG d   1       5.780   0.384  -4.649  0.00  0.00     0.065 H 
ATOM     24  C   LIG d   1       4.248  -0.799  -1.886  0.00  0.00    -0.061 A 
ATOM     25  H   LIG d   1       5.158   1.074  -2.370  0.00  0.00     0.062 H 
ATOM     26  C   LIG d   1       3.932  -2.069  -2.330  0.00  0.00    -0.058 A 
ATOM     27  H   LIG d   1       3.976  -0.494  -0.886  0.00  0.00     0.062 H 
ATOM     28  C   LIG d   1       4.273  -2.460  -3.611  0.00  0.00    -0.020 A 
ATOM     29  H   LIG d   1       3.413  -2.756  -1.677  0.00  0.00     0.062 H 
ATOM     30  H   LIG d   1       4.022  -3.450  -3.959  0.00  0.00     0.065 H 
ENDBRANCH  19  20
ENDBRANCH  15  19
BRANCH   1  31
ATOM     31  N   LIG d   1       3.512  -1.066  -7.784  0.00  0.00    -0.304 N 
ATOM     32  C   LIG d   1       4.141   0.018  -8.282  0.00  0.00     0.210 C 
ATOM     33  O   LIG d   1       5.255  -0.089  -8.749  0.00  0.00    -0.276 OA
ATOM     34  H   LIG d   1       2.621  -0.980  -7.412  0.00  0.00     0.149 HD
BRANCH  32  35
ATOM     35  C   LIG d   1       3.460   1.362  -8.257  0.00  0.00     0.012 C 
ATOM     36  H   LIG d   1       2.681   1.389  -9.020  0.00  0.00     0.032 H 
ATOM     37  H   LIG d   1       3.013   1.525  -7.276  0.00  0.00     0.032 H 
ATOM     38  H   LIG d   1       4.191   2.145  -8.457  0.00  0.00     0.032 H 
ENDBRANCH  32  35
ENDBRANCH   1  31
BRANCH   3  39
ATOM     39  O   LIG d   1       3.157  -2.966  -9.927  0.00  0.00    -0.366 OA
BRANCH  39  40
ATOM     40  C   LIG d   1       1.808  -2.944 -10.396  0.00  0.00     0.087 C 
ATOM     41  H   LIG d   1       1.710  -3.612 -11.253  0.00  0.00     0.062 H 
ATOM     42  H   LIG d   1       1.141  -3.276  -9.600  0.00  0.00     0.062 H 
BRANCH  40  43
ATOM     43  C   LIG d   1       1.442  -1.542 -10.808  0.00  0.00     0.067 C 
ATOM     44  O   LIG d   1       1.420  -1.242 -11.978  0.00  0.00    -0.547 OA
ATOM     45  O   LIG d   1       1.141  -0.625  -9.874  0.00  0.00    -0.547 OA
ENDBRANCH  40  43
ENDBRANCH  39  40
ENDBRANCH   3  39
BRANCH  11  46
ATOM     46  C   LIG d   1       2.798  -8.033  -9.738  0.00  0.00     0.008 A 
ATOM     47  C   LIG d   1       1.528  -7.638 -10.113  0.00  0.00    -0.054 A 
ATOM     48  C   LIG d   1       0.672  -8.540 -10.718  0.00  0.00    -0.061 A 
ATOM     49  H   LIG d   1       1.203  -6.623  -9.934  0.00  0.00     0.062 H 
ATOM     50  C   LIG d   1       1.088  -9.838 -10.947  0.00  0.00    -0.062 A 
ATOM     51  H   LIG d   1      -0.320  -8.230 -11.011  0.00  0.00     0.062 H 
ATOM     52  C   LIG d   1       2.359 -10.234 -10.572  0.00  0.00    -0.061 A 
ATOM     53  H   LIG d   1       0.420 -10.543 -11.419  0.00  0.00     0.062 H 
ATOM     54  C   LIG d   1       3.215  -9.330  -9.972  0.00  0.00    -0.054 A 
ATOM     55  H   LIG d   1       2.682 -11.249 -10.751  0.00  0.00     0.062 H 
ATOM     56  H   LIG d   1       4.209  -9.638  -9.683  0.00  0.00     0.062 H 
ENDBRANCH  11  46
TORSDOF 8
ENDMDL
MODEL 5
REMARK VINA RESULT:      -6.1      6.144      8.756
REMARK  8 active torsions:
REMARK  status: ('A' for Active; 'I' for Inactive)
REMARK    1  A    between atoms: C_1  and  C_2 
REMARK       I    between atoms: C_2  and  N_4 
REMARK    2  A    between atoms: N_4  and  C_5 
REMARK    3  A    between atoms: C_7  and  O_34 
REMARK    4  A    between atoms: C_15  and  C_18 
REMARK    5  A    between atoms: C_25  and  O_27 
REMARK    6  A    between atoms: O_27  and  C_28 
REMARK    7  A    between atoms: O_34  and  C_35 
REMARK    8  A    between atoms: C_35  and  C_36 
ROOT
ATOM      1  C   LIG d   1       9.450   0.979  -4.753  0.00  0.00     0.114 C 
ATOM      2  H   LIG d   1       9.302   1.485  -5.707  0.00  0.00     0.059 H 
ATOM      3  C   LIG d   1      10.857   1.281  -4.228  0.00  0.00     0.112 C 
ATOM      4  H   LIG d   1      11.030   0.728  -3.305  0.00  0.00     0.064 H 
ATOM      5  C   LIG d   1      10.958   2.781  -3.954  0.00  0.00     0.118 C 
ATOM      6  H   LIG d   1      10.801   3.331  -4.883  0.00  0.00     0.065 H 
ATOM      7  C   LIG d   1       9.875   3.168  -2.940  0.00  0.00     0.115 C 
ATOM      8  H   LIG d   1      10.017   2.601  -2.021  0.00  0.00     0.065 H 
ATOM      9  C   LIG d   1      10.008   4.663  -2.641  0.00  0.00     0.080 C 
ATOM     10  O   LIG d   1      11.343   4.915  -2.189  0.00  0.00    -0.344 OA
ATOM     11  C   LIG d   1      12.361   4.516  -3.109  0.00  0.00     0.186 C 
ATOM     12  H   LIG d   1      12.263   5.094  -4.028  0.00  0.00     0.096 H 
ATOM     13  O   LIG d   1      12.233   3.121  -3.410  0.00  0.00    -0.339 OA
ATOM     14  O   LIG d   1       8.595   2.865  -3.491  0.00  0.00    -0.332 OA
ATOM     15  C   LIG d   1       8.406   1.470  -3.749  0.00  0.00     0.223 C 
ATOM     16  H   LIG d   1       8.509   0.913  -2.818  0.00  0.00     0.108 H 
ATOM     17  H   LIG d   1       9.810   5.238  -3.545  0.00  0.00     0.059 H 
ATOM     18  H   LIG d   1       9.299   4.946  -1.862  0.00  0.00     0.059 H 
ENDROOT
BRANCH  15  19
ATOM     19  O   LIG d   1       7.097   1.260  -4.285  0.00  0.00    -0.462 OA
BRANCH  19  20
ATOM     20  C   LIG d   1       6.201   0.619  -3.489  0.00  0.00     0.124 A 
ATOM     21  C   LIG d   1       6.130  -0.766  -3.498  0.00  0.00    -0.020 A 
ATOM     22  C   LIG d   1       5.218  -1.415  -2.689  0.00  0.00    -0.058 A 
ATOM     23  H   LIG d   1       6.788  -1.337  -4.137  0.00  0.00     0.065 H 
ATOM     24  C   LIG d   1       4.376  -0.686  -1.871  0.00  0.00    -0.061 A 
ATOM     25  H   LIG d   1       5.164  -2.494  -2.695  0.00  0.00     0.062 H 
ATOM     26  C   LIG d   1       4.443   0.695  -1.861  0.00  0.00    -0.058 A 
ATOM     27  H   LIG d   1       3.663  -1.196  -1.239  0.00  0.00     0.062 H 
ATOM     28  C   LIG d   1       5.357   1.349  -2.664  0.00  0.00    -0.020 A 
ATOM     29  H   LIG d   1       3.783   1.263  -1.222  0.00  0.00     0.062 H 
ATOM     30  H   LIG d   1       5.414   2.427  -2.652  0.00  0.00     0.065 H 
ENDBRANCH  19  20
ENDBRANCH  15  19
BRANCH   1  31
ATOM     31  N   LIG d   1       9.303  -0.466  -4.941  0.00  0.00    -0.304 N 
ATOM     32  C   LIG d   1       9.017  -0.962  -6.162  0.00  0.00     0.210 C 
ATOM     33  O   LIG d   1       8.880  -0.210  -7.104  0.00  0.00    -0.276 OA
ATOM     34  H   LIG d   1       9.413  -1.067  -4.188  0.00  0.00     0.149 HD
BRANCH  32  35
ATOM     35  C   LIG d   1       8.866  -2.448  -6.355  0.00  0.00     0.012 C 
ATOM     36  H   LIG d   1       9.824  -2.874  -6.657  0.00  0.00     0.032 H 
ATOM     37  H   LIG d   1       8.544  -2.906  -5.420  0.00  0.00     0.032 H 
ATOM     38  H   LIG d   1       8.123  -2.641  -7.129  0.00  0.00     0.032 H 
ENDBRANCH  32  35
ENDBRANCH   1  31
BRANCH   3  39
ATOM     39  O   LIG d   1      11.830   0.903  -5.204  0.00  0.00    -0.366 OA
BRANCH  39  40
ATOM     40  C   LIG d   1      12.871   0.069  -4.694  0.00  0.00     0.087 C 
ATOM     41  H   LIG d   1      13.825   0.373  -5.126  0.00  0.00     0.062 H 
ATOM     42  H   LIG d   1      12.916   0.167  -3.609  0.00  0.00     0.062 H 
BRANCH  40  43
ATOM     43  C   LIG d   1      12.590  -1.365  -5.058  0.00  0.00     0.067 C 
ATOM     44  O   LIG d   1      13.024  -1.824  -6.088  0.00  0.00    -0.547 OA
ATOM     45  O   LIG d   1      11.855  -2.135  -4.239  0.00  0.00    -0.547 OA
ENDBRANCH  40  43
ENDBRANCH  39  40
ENDBRANCH   3  39
BRANCH  11  46
ATOM     46  C   LIG d   1      13.714   4.773  -2.499  0.00  0.00     0.008 A 
ATOM     47  C   LIG d   1      14.858   4.370  -3.160  0.00  0.00    -0.054 A 
ATOM     48  C   LIG d   1      16.101   4.606  -2.601  0.00  0.00    -0.061 A 
ATOM     49  H   LIG d   1      14.783   3.869  -4.115  0.00  0.00     0.062 H 
ATOM     50  C   LIG d   1      16.197   5.246  -1.380  0.00  0.00    -0.062 A 
ATOM     51  H   LIG d   1      16.995   4.291  -3.118  0.00  0.00     0.062 H 
ATOM     52  C   LIG d   1      15.053   5.650  -0.718  0.00  0.00    -0.061 A 
ATOM     53  H   LIG d   1      17.167   5.430  -0.943  0.00  0.00     0.062 H 
ATOM     54  C   LIG d   1      13.811   5.418  -1.280  0.00  0.00    -0.054 A 
ATOM     55  H   LIG d   1      15.129   6.149   0.237  0.00  0.00     0.062 H 
ATOM     56  H   LIG d   1      12.917   5.737  -0.765  0.00  0.00     0.062 H 
ENDBRANCH  11  46
TORSDOF 8
ENDMDL
MODEL 6
REMARK VINA RESULT:      -6.1      2.843      4.809
REMARK  8 active torsions:
REMARK  status: ('A' for Active; 'I' for Inactive)
REMARK    1  A    between atoms: C_1  and  C_2 
REMARK       I    between atoms: C_2  and  N_4 
REMARK    2  A    between atoms: N_4  and  C_5 
REMARK    3  A    between atoms: C_7  and  O_34 
REMARK    4  A    between atoms: C_15  and  C_18 
REMARK    5  A    between atoms: C_25  and  O_27 
REMARK    6  A    between atoms: O_27  and  C_28 
REMARK    7  A    between atoms: O_34  and  C_35 
REMARK    8  A    between atoms: C_35  and  C_36 
ROOT
ATOM      1  C   LIG d   1       5.727  -1.224  -5.205  0.00  0.00     0.114 C 
ATOM      2  H   LIG d   1       5.577  -1.307  -6.281  0.00  0.00     0.059 H 
ATOM      3  C   LIG d   1       5.798  -2.625  -4.591  0.00  0.00     0.112 C 
ATOM      4  H   LIG d   1       5.888  -2.547  -3.508  0.00  0.00     0.064 H 
ATOM      5  C   LIG d   1       7.026  -3.338  -5.158  0.00  0.00     0.118 C 
ATOM      6  H   LIG d   1       6.926  -3.430  -6.240  0.00  0.00     0.065 H 
ATOM      7  C   LIG d   1       8.271  -2.506  -4.827  0.00  0.00     0.115 C 
ATOM      8  H   LIG d   1       8.358  -2.393  -3.747  0.00  0.00     0.065 H 
ATOM      9  C   LIG d   1       9.500  -3.245  -5.362  0.00  0.00     0.080 C 
ATOM     10  O   LIG d   1       9.514  -4.561  -4.797  0.00  0.00    -0.344 OA
ATOM     11  C   LIG d   1       8.339  -5.328  -5.063  0.00  0.00     0.186 C 
ATOM     12  H   LIG d   1       8.245  -5.485  -6.138  0.00  0.00     0.096 H 
ATOM     13  O   LIG d   1       7.181  -4.635  -4.582  0.00  0.00    -0.339 OA
ATOM     14  O   LIG d   1       8.141  -1.220  -5.429  0.00  0.00    -0.332 OA
ATOM     15  C   LIG d   1       7.029  -0.470  -4.929  0.00  0.00     0.223 C 
ATOM     16  H   LIG d   1       7.143  -0.326  -3.855  0.00  0.00     0.108 H 
ATOM     17  H   LIG d   1       9.446  -3.310  -6.448  0.00  0.00     0.059 H 
ATOM     18  H   LIG d   1      10.405  -2.712  -5.070  0.00  0.00     0.059 H 
ENDROOT
BRANCH  15  19
ATOM     19  O   LIG d   1       6.986   0.804  -5.576  0.00  0.00    -0.462 OA
BRANCH  19  20
ATOM     20  C   LIG d   1       7.949   1.701  -5.237  0.00  0.00     0.124 A 
ATOM     21  C   LIG d   1       8.223   1.954  -3.901  0.00  0.00    -0.020 A 
ATOM     22  C   LIG d   1       9.202   2.867  -3.559  0.00  0.00    -0.058 A 
ATOM     23  H   LIG d   1       7.672   1.438  -3.129  0.00  0.00     0.065 H 
ATOM     24  C   LIG d   1       9.908   3.527  -4.546  0.00  0.00    -0.061 A 
ATOM     25  H   LIG d   1       9.417   3.063  -2.519  0.00  0.00     0.062 H 
ATOM     26  C   LIG d   1       9.636   3.278  -5.879  0.00  0.00    -0.058 A 
ATOM     27  H   LIG d   1      10.674   4.240  -4.277  0.00  0.00     0.062 H 
ATOM     28  C   LIG d   1       8.662   2.362  -6.227  0.00  0.00    -0.020 A 
ATOM     29  H   LIG d   1      10.189   3.796  -6.649  0.00  0.00     0.062 H 
ATOM     30  H   LIG d   1       8.454   2.163  -7.267  0.00  0.00     0.065 H 
ENDBRANCH  19  20
ENDBRANCH  15  19
BRANCH   1  31
ATOM     31  N   LIG d   1       4.605  -0.492  -4.611  0.00  0.00    -0.304 N 
ATOM     32  C   LIG d   1       3.571  -0.101  -5.383  0.00  0.00     0.210 C 
ATOM     33  O   LIG d   1       3.571  -0.355  -6.569  0.00  0.00    -0.276 OA
ATOM     34  H   LIG d   1       4.605  -0.290  -3.663  0.00  0.00     0.149 HD
BRANCH  32  35
ATOM     35  C   LIG d   1       2.417   0.651  -4.772  0.00  0.00     0.012 C 
ATOM     36  H   LIG d   1       1.479   0.256  -5.163  0.00  0.00     0.032 H 
ATOM     37  H   LIG d   1       2.438   0.532  -3.689  0.00  0.00     0.032 H 
ATOM     38  H   LIG d   1       2.499   1.709  -5.024  0.00  0.00     0.032 H 
ENDBRANCH  32  35
ENDBRANCH   1  31
BRANCH   3  39
ATOM     39  O   LIG d   1       4.619  -3.361  -4.924  0.00  0.00    -0.366 OA
BRANCH  39  40
ATOM     40  C   LIG d   1       4.559  -3.777  -6.290  0.00  0.00     0.087 C 
ATOM     41  H   LIG d   1       3.934  -3.085  -6.853  0.00  0.00     0.062 H 
ATOM     42  H   LIG d   1       5.565  -3.784  -6.712  0.00  0.00     0.062 H 
BRANCH  40  43
ATOM     43  C   LIG d   1       3.972  -5.162  -6.367  0.00  0.00     0.067 C 
ATOM     44  O   LIG d   1       3.399  -5.521  -7.368  0.00  0.00    -0.547 OA
ATOM     45  O   LIG d   1       4.083  -5.998  -5.322  0.00  0.00    -0.547 OA
ENDBRANCH  40  43
ENDBRANCH  39  40
ENDBRANCH   3  39
BRANCH  11  46
ATOM     46  C   LIG d   1       8.446  -6.661  -4.370  0.00  0.00     0.008 A 
ATOM     47  C   LIG d   1       7.697  -7.734  -4.816  0.00  0.00    -0.054 A 
ATOM     48  C   LIG d   1       7.796  -8.958  -4.181  0.00  0.00    -0.061 A 
ATOM     49  H   LIG d   1       7.034  -7.616  -5.661  0.00  0.00     0.062 H 
ATOM     50  C   LIG d   1       8.644  -9.109  -3.100  0.00  0.00    -0.062 A 
ATOM     51  H   LIG d   1       7.211  -9.796  -4.530  0.00  0.00     0.062 H 
ATOM     52  C   LIG d   1       9.394  -8.036  -2.655  0.00  0.00    -0.061 A 
ATOM     53  H   LIG d   1       8.721 -10.065  -2.604  0.00  0.00     0.062 H 
ATOM     54  C   LIG d   1       9.299  -6.814  -3.293  0.00  0.00    -0.054 A 
ATOM     55  H   LIG d   1      10.056  -8.155  -1.809  0.00  0.00     0.062 H 
ATOM     56  H   LIG d   1       9.887  -5.977  -2.947  0.00  0.00     0.062 H 
ENDBRANCH  11  46
TORSDOF 8
ENDMDL
MODEL 7
REMARK VINA RESULT:      -5.9      3.564      7.108
REMARK  8 active torsions:
REMARK  status: ('A' for Active; 'I' for Inactive)
REMARK    1  A    between atoms: C_1  and  C_2 
REMARK       I    between atoms: C_2  and  N_4 
REMARK    2  A    between atoms: N_4  and  C_5 
REMARK    3  A    between atoms: C_7  and  O_34 
REMARK    4  A    between atoms: C_15  and  C_18 
REMARK    5  A    between atoms: C_25  and  O_27 
REMARK    6  A    between atoms: O_27  and  C_28 
REMARK    7  A    between atoms: O_34  and  C_35 
REMARK    8  A    between atoms: C_35  and  C_36 
ROOT
ATOM      1  C   LIG d   1       4.277  -0.829  -8.075  0.00  0.00     0.114 C 
ATOM      2  H   LIG d   1       5.310  -0.852  -8.422  0.00  0.00     0.059 H 
ATOM      3  C   LIG d   1       3.458  -1.867  -8.848  0.00  0.00     0.112 C 
ATOM      4  H   LIG d   1       2.412  -1.806  -8.547  0.00  0.00     0.064 H 
ATOM      5  C   LIG d   1       4.006  -3.256  -8.521  0.00  0.00     0.118 C 
ATOM      6  H   LIG d   1       5.047  -3.319  -8.838  0.00  0.00     0.065 H 
ATOM      7  C   LIG d   1       3.918  -3.472  -7.005  0.00  0.00     0.115 C 
ATOM      8  H   LIG d   1       2.880  -3.385  -6.684  0.00  0.00     0.065 H 
ATOM      9  C   LIG d   1       4.431  -4.879  -6.689  0.00  0.00     0.080 C 
ATOM     10  O   LIG d   1       3.668  -5.819  -7.455  0.00  0.00    -0.344 OA
ATOM     11  C   LIG d   1       3.709  -5.597  -8.866  0.00  0.00     0.186 C 
ATOM     12  H   LIG d   1       4.733  -5.713  -9.221  0.00  0.00     0.096 H 
ATOM     13  O   LIG d   1       3.247  -4.276  -9.170  0.00  0.00    -0.339 OA
ATOM     14  O   LIG d   1       4.703  -2.479  -6.349  0.00  0.00    -0.332 OA
ATOM     15  C   LIG d   1       4.236  -1.145  -6.579  0.00  0.00     0.223 C 
ATOM     16  H   LIG d   1       3.211  -1.054  -6.218  0.00  0.00     0.108 H 
ATOM     17  H   LIG d   1       5.484  -4.954  -6.956  0.00  0.00     0.059 H 
ATOM     18  H   LIG d   1       4.304  -5.086  -5.626  0.00  0.00     0.059 H 
ENDROOT
BRANCH  15  19
ATOM     19  O   LIG d   1       5.070  -0.222  -5.876  0.00  0.00    -0.462 OA
BRANCH  19  20
ATOM     20  C   LIG d   1       4.754   0.030  -4.578  0.00  0.00     0.124 A 
ATOM     21  C   LIG d   1       5.743   0.412  -3.684  0.00  0.00    -0.020 A 
ATOM     22  C   LIG d   1       5.419   0.667  -2.366  0.00  0.00    -0.058 A 
ATOM     23  H   LIG d   1       6.766   0.508  -4.017  0.00  0.00     0.065 H 
ATOM     24  C   LIG d   1       4.111   0.544  -1.937  0.00  0.00    -0.061 A 
ATOM     25  H   LIG d   1       6.189   0.965  -1.669  0.00  0.00     0.062 H 
ATOM     26  C   LIG d   1       3.123   0.164  -2.827  0.00  0.00    -0.058 A 
ATOM     27  H   LIG d   1       3.860   0.746  -0.906  0.00  0.00     0.062 H 
ATOM     28  C   LIG d   1       3.440  -0.088  -4.148  0.00  0.00    -0.020 A 
ATOM     29  H   LIG d   1       2.101   0.068  -2.490  0.00  0.00     0.062 H 
ATOM     30  H   LIG d   1       2.668  -0.379  -4.843  0.00  0.00     0.065 H 
ENDBRANCH  19  20
ENDBRANCH  15  19
BRANCH   1  31
ATOM     31  N   LIG d   1       3.714   0.503  -8.307  0.00  0.00    -0.304 N 
ATOM     32  C   LIG d   1       4.486   1.481  -8.823  0.00  0.00     0.210 C 
ATOM     33  O   LIG d   1       5.647   1.257  -9.092  0.00  0.00    -0.276 OA
ATOM     34  H   LIG d   1       2.786   0.682  -8.092  0.00  0.00     0.149 HD
BRANCH  32  35
ATOM     35  C   LIG d   1       3.907   2.851  -9.062  0.00  0.00     0.012 C 
ATOM     36  H   LIG d   1       2.830   2.824  -8.893  0.00  0.00     0.032 H 
ATOM     37  H   LIG d   1       4.364   3.564  -8.376  0.00  0.00     0.032 H 
ATOM     38  H   LIG d   1       4.106   3.156 -10.090  0.00  0.00     0.032 H 
ENDBRANCH  32  35
ENDBRANCH   1  31
BRANCH   3  39
ATOM     39  O   LIG d   1       3.569  -1.624 -10.252  0.00  0.00    -0.366 OA
BRANCH  39  40
ATOM     40  C   LIG d   1       4.905  -1.701 -10.751  0.00  0.00     0.087 C 
ATOM     41  H   LIG d   1       5.606  -1.447  -9.955  0.00  0.00     0.062 H 
ATOM     42  H   LIG d   1       5.105  -2.713 -11.101  0.00  0.00     0.062 H 
BRANCH  40  43
ATOM     43  C   LIG d   1       5.070  -0.732 -11.893  0.00  0.00     0.067 C 
ATOM     44  O   LIG d   1       4.293   0.183 -12.027  0.00  0.00    -0.547 OA
ATOM     45  O   LIG d   1       6.082  -0.886 -12.763  0.00  0.00    -0.547 OA
ENDBRANCH  40  43
ENDBRANCH  39  40
ENDBRANCH   3  39
BRANCH  11  46
ATOM     46  C   LIG d   1       2.825  -6.605  -9.554  0.00  0.00     0.008 A 
ATOM     47  C   LIG d   1       1.667  -6.192 -10.186  0.00  0.00    -0.054 A 
ATOM     48  C   LIG d   1       0.856  -7.116 -10.818  0.00  0.00    -0.061 A 
ATOM     49  H   LIG d   1       1.395  -5.146 -10.185  0.00  0.00     0.062 H 
ATOM     50  C   LIG d   1       1.204  -8.453 -10.818  0.00  0.00    -0.062 A 
ATOM     51  H   LIG d   1      -0.049  -6.792 -11.312  0.00  0.00     0.062 H 
ATOM     52  C   LIG d   1       2.363  -8.867 -10.188  0.00  0.00    -0.061 A 
ATOM     53  H   LIG d   1       0.570  -9.175 -11.312  0.00  0.00     0.062 H 
ATOM     54  C   LIG d   1       3.175  -7.942  -9.560  0.00  0.00    -0.054 A 
ATOM     55  H   LIG d   1       2.633  -9.913 -10.188  0.00  0.00     0.062 H 
ATOM     56  H   LIG d   1       4.083  -8.265  -9.070  0.00  0.00     0.062 H 
ENDBRANCH  11  46
TORSDOF 8
ENDMDL
MODEL 8
REMARK VINA RESULT:      -5.9      5.343      7.461
REMARK  8 active torsions:
REMARK  status: ('A' for Active; 'I' for Inactive)
REMARK    1  A    between atoms: C_1  and  C_2 
REMARK       I    between atoms: C_2  and  N_4 
REMARK    2  A    between atoms: N_4  and  C_5 
REMARK    3  A    between atoms: C_7  and  O_34 
REMARK    4  A    between atoms: C_15  and  C_18 
REMARK    5  A    between atoms: C_25  and  O_27 
REMARK    6  A    between atoms: O_27  and  C_28 
REMARK    7  A    between atoms: O_34  and  C_35 
REMARK    8  A    between atoms: C_35  and  C_36 
ROOT
ATOM      1  C   LIG d   1       9.434   2.001  -7.896  0.00  0.00     0.114 C 
ATOM      2  H   LIG d   1      10.349   1.437  -7.713  0.00  0.00     0.059 H 
ATOM      3  C   LIG d   1       8.234   1.211  -7.364  0.00  0.00     0.112 C 
ATOM      4  H   LIG d   1       7.312   1.743  -7.598  0.00  0.00     0.064 H 
ATOM      5  C   LIG d   1       8.378   1.075  -5.849  0.00  0.00     0.118 C 
ATOM      6  H   LIG d   1       9.293   0.528  -5.618  0.00  0.00     0.065 H 
ATOM      7  C   LIG d   1       8.453   2.480  -5.236  0.00  0.00     0.115 C 
ATOM      8  H   LIG d   1       7.550   3.035  -5.487  0.00  0.00     0.065 H 
ATOM      9  C   LIG d   1       8.557   2.337  -3.716  0.00  0.00     0.080 C 
ATOM     10  O   LIG d   1       7.442   1.563  -3.260  0.00  0.00    -0.344 OA
ATOM     11  C   LIG d   1       7.339   0.270  -3.858  0.00  0.00     0.186 C 
ATOM     12  H   LIG d   1       8.217  -0.321  -3.594  0.00  0.00     0.096 H 
ATOM     13  O   LIG d   1       7.260   0.392  -5.283  0.00  0.00    -0.339 OA
ATOM     14  O   LIG d   1       9.590   3.156  -5.769  0.00  0.00    -0.332 OA
ATOM     15  C   LIG d   1       9.519   3.353  -7.185  0.00  0.00     0.223 C 
ATOM     16  H   LIG d   1       8.636   3.944  -7.425  0.00  0.00     0.108 H 
ATOM     17  H   LIG d   1       9.487   1.832  -3.458  0.00  0.00     0.059 H 
ATOM     18  H   LIG d   1       8.532   3.324  -3.253  0.00  0.00     0.059 H 
ENDROOT
BRANCH  15  19
ATOM     19  O   LIG d   1      10.688   4.047  -7.627  0.00  0.00    -0.462 OA
BRANCH  19  20
ATOM     20  C   LIG d   1      10.499   5.243  -8.244  0.00  0.00     0.124 A 
ATOM     21  C   LIG d   1      11.053   5.475  -9.494  0.00  0.00    -0.020 A 
ATOM     22  C   LIG d   1      10.859   6.691 -10.119  0.00  0.00    -0.058 A 
ATOM     23  H   LIG d   1      11.635   4.705  -9.979  0.00  0.00     0.065 H 
ATOM     24  C   LIG d   1      10.114   7.678  -9.501  0.00  0.00    -0.061 A 
ATOM     25  H   LIG d   1      11.290   6.872 -11.094  0.00  0.00     0.062 H 
ATOM     26  C   LIG d   1       9.562   7.450  -8.254  0.00  0.00    -0.058 A 
ATOM     27  H   LIG d   1       9.964   8.628  -9.991  0.00  0.00     0.062 H 
ATOM     28  C   LIG d   1       9.747   6.233  -7.626  0.00  0.00    -0.020 A 
ATOM     29  H   LIG d   1       8.981   8.222  -7.772  0.00  0.00     0.062 H 
ATOM     30  H   LIG d   1       9.312   6.053  -6.655  0.00  0.00     0.065 H 
ENDBRANCH  19  20
ENDBRANCH  15  19
BRANCH   1  31
ATOM     31  N   LIG d   1       9.272   2.216  -9.335  0.00  0.00    -0.304 N 
ATOM     32  C   LIG d   1      10.242   1.828 -10.188  0.00  0.00     0.210 C 
ATOM     33  O   LIG d   1      11.248   1.301  -9.762  0.00  0.00    -0.276 OA
ATOM     34  H   LIG d   1       8.468   2.636  -9.676  0.00  0.00     0.149 HD
BRANCH  32  35
ATOM     35  C   LIG d   1      10.076   2.049 -11.669  0.00  0.00     0.012 C 
ATOM     36  H   LIG d   1       9.016   2.015 -11.925  0.00  0.00     0.032 H 
ATOM     37  H   LIG d   1      10.483   3.023 -11.939  0.00  0.00     0.032 H 
ATOM     38  H   LIG d   1      10.606   1.268 -12.216  0.00  0.00     0.032 H 
ENDBRANCH  32  35
ENDBRANCH   1  31
BRANCH   3  39
ATOM     39  O   LIG d   1       8.205  -0.087  -7.962  0.00  0.00    -0.366 OA
BRANCH  39  40
ATOM     40  C   LIG d   1       6.908  -0.496  -8.401  0.00  0.00     0.087 C 
ATOM     41  H   LIG d   1       7.005  -1.116  -9.292  0.00  0.00     0.062 H 
ATOM     42  H   LIG d   1       6.422  -1.069  -7.611  0.00  0.00     0.062 H 
BRANCH  40  43
ATOM     43  C   LIG d   1       6.080   0.721  -8.722  0.00  0.00     0.067 C 
ATOM     44  O   LIG d   1       5.200   1.069  -7.972  0.00  0.00    -0.547 OA
ATOM     45  O   LIG d   1       6.320   1.419  -9.844  0.00  0.00    -0.547 OA
ENDBRANCH  40  43
ENDBRANCH  39  40
ENDBRANCH   3  39
BRANCH  11  46
ATOM     46  C   LIG d   1       6.100  -0.419  -3.347  0.00  0.00     0.008 A 
ATOM     47  C   LIG d   1       5.783  -1.689  -3.790  0.00  0.00    -0.054 A 
ATOM     48  C   LIG d   1       4.647  -2.322  -3.321  0.00  0.00    -0.061 A 
ATOM     49  H   LIG d   1       6.423  -2.187  -4.504  0.00  0.00     0.062 H 
ATOM     50  C   LIG d   1       3.829  -1.684  -2.407  0.00  0.00    -0.062 A 
ATOM     51  H   LIG d   1       4.399  -3.314  -3.667  0.00  0.00     0.062 H 
ATOM     52  C   LIG d   1       4.147  -0.414  -1.963  0.00  0.00    -0.061 A 
ATOM     53  H   LIG d   1       2.942  -2.178  -2.040  0.00  0.00     0.062 H 
ATOM     54  C   LIG d   1       5.285   0.216  -2.429  0.00  0.00    -0.054 A 
ATOM     55  H   LIG d   1       3.507   0.084  -1.250  0.00  0.00     0.062 H 
ATOM     56  H   LIG d   1       5.536   1.208  -2.079  0.00  0.00     0.062 H 
ENDBRANCH  11  46
TORSDOF 8
ENDMDL
MODEL 9
REMARK VINA RESULT:      -5.8      6.404      9.295
REMARK  8 active torsions:
REMARK  status: ('A' for Active; 'I' for Inactive)
REMARK    1  A    between atoms: C_1  and  C_2 
REMARK       I    between atoms: C_2  and  N_4 
REMARK    2  A    between atoms: N_4  and  C_5 
REMARK    3  A    between atoms: C_7  and  O_34 
REMARK    4  A    between atoms: C_15  and  C_18 
REMARK    5  A    between atoms: C_25  and  O_27 
REMARK    6  A    between atoms: O_27  and  C_28 
REMARK    7  A    between atoms: O_34  and  C_35 
REMARK    8  A    between atoms: C_35  and  C_36 
ROOT
ATOM      1  C   LIG d   1      11.888   3.030  -3.963  0.00  0.00     0.114 C 
ATOM      2  H   LIG d   1      11.588   3.911  -4.530  0.00  0.00     0.059 H 
ATOM      3  C   LIG d   1      10.703   2.536  -3.127  0.00  0.00     0.112 C 
ATOM      4  H   LIG d   1      11.015   1.691  -2.512  0.00  0.00     0.064 H 
ATOM      5  C   LIG d   1       9.591   2.095  -4.078  0.00  0.00     0.118 C 
ATOM      6  H   LIG d   1       9.269   2.946  -4.680  0.00  0.00     0.065 H 
ATOM      7  C   LIG d   1      10.139   0.996  -4.997  0.00  0.00     0.115 C 
ATOM      8  H   LIG d   1      10.483   0.156  -4.394  0.00  0.00     0.065 H 
ATOM      9  C   LIG d   1       9.010   0.532  -5.919  0.00  0.00     0.080 C 
ATOM     10  O   LIG d   1       7.908   0.113  -5.106  0.00  0.00    -0.344 OA
ATOM     11  C   LIG d   1       7.419   1.118  -4.215  0.00  0.00     0.186 C 
ATOM     12  H   LIG d   1       7.036   1.958  -4.794  0.00  0.00     0.096 H 
ATOM     13  O   LIG d   1       8.474   1.572  -3.359  0.00  0.00    -0.339 OA
ATOM     14  O   LIG d   1      11.233   1.522  -5.746  0.00  0.00    -0.332 OA
ATOM     15  C   LIG d   1      12.334   1.931  -4.928  0.00  0.00     0.223 C 
ATOM     16  H   LIG d   1      12.699   1.076  -4.359  0.00  0.00     0.108 H 
ATOM     17  H   LIG d   1       8.701   1.354  -6.564  0.00  0.00     0.059 H 
ATOM     18  H   LIG d   1       9.353  -0.304  -6.528  0.00  0.00     0.059 H 
ENDROOT
BRANCH  15  19
ATOM     19  O   LIG d   1      13.384   2.429  -5.761  0.00  0.00    -0.462 OA
BRANCH  19  20
ATOM     20  C   LIG d   1      14.555   1.740  -5.755  0.00  0.00     0.124 A 
ATOM     21  C   LIG d   1      15.719   2.353  -5.315  0.00  0.00    -0.020 A 
ATOM     22  C   LIG d   1      16.909   1.651  -5.311  0.00  0.00    -0.058 A 
ATOM     23  H   LIG d   1      15.696   3.378  -4.976  0.00  0.00     0.065 H 
ATOM     24  C   LIG d   1      16.941   0.339  -5.744  0.00  0.00    -0.061 A 
ATOM     25  H   LIG d   1      17.815   2.127  -4.967  0.00  0.00     0.062 H 
ATOM     26  C   LIG d   1      15.782  -0.274  -6.184  0.00  0.00    -0.058 A 
ATOM     27  H   LIG d   1      17.871  -0.209  -5.739  0.00  0.00     0.062 H 
ATOM     28  C   LIG d   1      14.588   0.422  -6.185  0.00  0.00    -0.020 A 
ATOM     29  H   LIG d   1      15.809  -1.299  -6.523  0.00  0.00     0.062 H 
ATOM     30  H   LIG d   1      13.683  -0.059  -6.524  0.00  0.00     0.065 H 
ENDBRANCH  19  20
ENDBRANCH  15  19
BRANCH   1  31
ATOM     31  N   LIG d   1      12.997   3.377  -3.072  0.00  0.00    -0.304 N 
ATOM     32  C   LIG d   1      13.583   4.587  -3.166  0.00  0.00     0.210 C 
ATOM     33  O   LIG d   1      13.192   5.388  -3.989  0.00  0.00    -0.276 OA
ATOM     34  H   LIG d   1      13.310   2.737  -2.413  0.00  0.00     0.149 HD
BRANCH  32  35
ATOM     35  C   LIG d   1      14.725   4.945  -2.249  0.00  0.00     0.012 C 
ATOM     36  H   LIG d   1      15.442   5.566  -2.788  0.00  0.00     0.032 H 
ATOM     37  H   LIG d   1      14.343   5.494  -1.389  0.00  0.00     0.032 H 
ATOM     38  H   LIG d   1      15.217   4.034  -1.909  0.00  0.00     0.032 H 
ENDBRANCH  32  35
ENDBRANCH   1  31
BRANCH   3  39
ATOM     39  O   LIG d   1      10.228   3.591  -2.288  0.00  0.00    -0.366 OA
BRANCH  39  40
ATOM     40  C   LIG d   1       9.834   4.766  -2.998  0.00  0.00     0.087 C 
ATOM     41  H   LIG d   1      10.454   4.878  -3.888  0.00  0.00     0.062 H 
ATOM     42  H   LIG d   1       8.788   4.679  -3.292  0.00  0.00     0.062 H 
BRANCH  40  43
ATOM     43  C   LIG d   1      10.009   5.971  -2.111  0.00  0.00     0.067 C 
ATOM     44  O   LIG d   1       9.209   6.875  -2.155  0.00  0.00    -0.547 OA
ATOM     45  O   LIG d   1      11.054   6.041  -1.271  0.00  0.00    -0.547 OA
ENDBRANCH  40  43
ENDBRANCH  39  40
ENDBRANCH   3  39
BRANCH  11  46
ATOM     46  C   LIG d   1       6.308   0.541  -3.375  0.00  0.00     0.008 A 
ATOM     47  C   LIG d   1       6.141  -0.828  -3.297  0.00  0.00    -0.054 A 
ATOM     48  C   LIG d   1       5.122  -1.357  -2.526  0.00  0.00    -0.061 A 
ATOM     49  H   LIG d   1       6.806  -1.486  -3.838  0.00  0.00     0.062 H 
ATOM     50  C   LIG d   1       4.272  -0.516  -1.834  0.00  0.00    -0.062 A 
ATOM     51  H   LIG d   1       4.992  -2.428  -2.464  0.00  0.00     0.062 H 
ATOM     52  C   LIG d   1       4.440   0.854  -1.912  0.00  0.00    -0.061 A 
ATOM     53  H   LIG d   1       3.476  -0.929  -1.232  0.00  0.00     0.062 H 
ATOM     54  C   LIG d   1       5.461   1.383  -2.679  0.00  0.00    -0.054 A 
ATOM     55  H   LIG d   1       3.774   1.511  -1.372  0.00  0.00     0.062 H 
ATOM     56  H   LIG d   1       5.595   2.453  -2.737  0.00  0.00     0.062 H 
ENDBRANCH  11  46
TORSDOF 8
ENDMDL
