MODEL 1
REMARK VINA RESULT:      -6.6      0.000      0.000
REMARK  12 active torsions:
REMARK  status: ('A' for Active; 'I' for Inactive)
REMARK    1  A    between atoms: C_1  and  C_2 
REMARK    2  A    between atoms: C_2  and  C_3 
REMARK    3  A    between atoms: C_2  and  C_4 
REMARK    4  A    between atoms: C_14  and  C_35 
REMARK    5  A    between atoms: C_18  and  C_19 
REMARK    6  A    between atoms: C_18  and  C_20 
REMARK    7  A    between atoms: C_20  and  N_21 
REMARK       I    between atoms: N_21  and  C_22 
REMARK       I    between atoms: C_22  and  N_24 
REMARK    8  A    between atoms: N_24  and  C_25 
REMARK    9  A    between atoms: C_28  and  O_33 
REMARK   10  A    between atoms: C_30  and  O_31 
REMARK   11  A    between atoms: O_31  and  C_32 
REMARK   12  A    between atoms: O_33  and  C_34 
ROOT
ATOM      1  C   LIG d   1       3.563  -0.191  -3.992  0.00  0.00    -0.044 A 
ATOM      2  C   LIG d   1       2.548   0.473  -4.657  0.00  0.00    -0.058 A 
ATOM      3  C   LIG d   1       2.547   0.513  -6.036  0.00  0.00    -0.058 A 
ATOM      4  C   LIG d   1       3.555  -0.110  -6.760  0.00  0.00    -0.038 A 
ATOM      5  C   LIG d   1       4.560  -0.778  -6.101  0.00  0.00    -0.043 A 
ATOM      6  C   LIG d   1       4.562  -0.814  -4.711  0.00  0.00    -0.055 A 
ATOM      7  C   LIG d   1       5.678  -1.490  -6.817  0.00  0.00    -0.027 C 
ATOM      8  C   LIG d   1       5.758  -1.043  -8.277  0.00  0.00    -0.045 C 
ATOM      9  C   LIG d   1       4.354  -1.123  -8.879  0.00  0.00    -0.025 C 
ATOM     10  H   LIG d   1       3.919  -2.091  -8.629  0.00  0.00     0.032 H 
ATOM     11  C   LIG d   1       3.496  -0.022  -8.266  0.00  0.00    -0.003 C 
ATOM     12  C   LIG d   1       4.021   1.351  -8.696  0.00  0.00    -0.043 C 
ATOM     13  C   LIG d   1       4.052   1.467 -10.202  0.00  0.00    -0.052 C 
ATOM     14  C   LIG d   1       4.972   0.386 -10.777  0.00  0.00    -0.046 C 
ATOM     15  C   LIG d   1       4.424  -0.990 -10.394  0.00  0.00    -0.013 C 
ATOM     16  H   LIG d   1       1.762   0.958  -4.100  0.00  0.00     0.062 H 
ATOM     17  H   LIG d   1       1.755   1.031  -6.557  0.00  0.00     0.062 H 
ATOM     18  H   LIG d   1       5.351  -1.335  -4.190  0.00  0.00     0.062 H 
ATOM     19  H   LIG d   1       5.502  -2.564  -6.781  0.00  0.00     0.031 H 
ATOM     20  H   LIG d   1       6.623  -1.265  -6.321  0.00  0.00     0.031 H 
ATOM     21  H   LIG d   1       6.433  -1.699  -8.826  0.00  0.00     0.027 H 
ATOM     22  H   LIG d   1       6.122  -0.015  -8.328  0.00  0.00     0.027 H 
ATOM     23  H   LIG d   1       3.379   2.130  -8.284  0.00  0.00     0.027 H 
ATOM     24  H   LIG d   1       5.036   1.484  -8.321  0.00  0.00     0.027 H 
ATOM     25  H   LIG d   1       4.424   2.451 -10.489  0.00  0.00     0.027 H 
ATOM     26  H   LIG d   1       3.043   1.332 -10.590  0.00  0.00     0.027 H 
ATOM     27  H   LIG d   1       5.976   0.506 -10.369  0.00  0.00     0.027 H 
ATOM     28  H   LIG d   1       5.006   0.476 -11.862  0.00  0.00     0.027 H 
ENDROOT
BRANCH  15  29
ATOM     29  C   LIG d   1       3.022  -1.155 -10.983  0.00  0.00    -0.058 C 
ATOM     30  H   LIG d   1       2.455  -1.863 -10.378  0.00  0.00     0.024 H 
ATOM     31  H   LIG d   1       2.513  -0.191 -10.987  0.00  0.00     0.024 H 
ATOM     32  H   LIG d   1       3.099  -1.529 -12.004  0.00  0.00     0.024 H 
ENDBRANCH  15  29
BRANCH  15  33
ATOM     33  C   LIG d   1       5.342  -2.076 -10.957  0.00  0.00     0.019 C 
ATOM     34  H   LIG d   1       5.682  -1.784 -11.951  0.00  0.00     0.047 H 
ATOM     35  H   LIG d   1       6.203  -2.202 -10.301  0.00  0.00     0.047 H 
BRANCH  33  36
ATOM     36  N   LIG d   1       4.606  -3.340 -11.044  0.00  0.00    -0.299 N 
ATOM     37  C   LIG d   1       5.012  -4.407 -10.327  0.00  0.00     0.304 C 
ATOM     38  O   LIG d   1       5.989  -4.320  -9.608  0.00  0.00    -0.253 OA
ATOM     39  N   LIG d   1       4.335  -5.569 -10.407  0.00  0.00    -0.266 N 
ATOM     40  H   LIG d   1       3.608  -5.665 -11.041  0.00  0.00     0.157 HD
ATOM     41  H   LIG d   1       3.828  -3.410 -11.618  0.00  0.00     0.150 HD
BRANCH  39  42
ATOM     42  C   LIG d   1       4.683  -6.643  -9.572  0.00  0.00     0.077 A 
ATOM     43  C   LIG d   1       4.161  -6.722  -8.283  0.00  0.00     0.145 A 
ATOM     44  C   LIG d   1       4.503  -7.785  -7.464  0.00  0.00     0.024 A 
ATOM     45  C   LIG d   1       5.372  -8.763  -7.925  0.00  0.00     0.124 A 
ATOM     46  H   LIG d   1       4.097  -7.850  -6.465  0.00  0.00     0.069 H 
ATOM     47  C   LIG d   1       5.895  -8.680  -9.206  0.00  0.00    -0.018 A 
ATOM     48  C   LIG d   1       5.552  -7.623 -10.028  0.00  0.00    -0.033 A 
ATOM     49  H   LIG d   1       6.571  -9.442  -9.563  0.00  0.00     0.066 H 
ATOM     50  H   LIG d   1       5.960  -7.561 -11.025  0.00  0.00     0.064 H 
BRANCH  43  51
ATOM     51  O   LIG d   1       3.315  -5.759  -7.831  0.00  0.00    -0.493 OA
BRANCH  51  52
ATOM     52  C   LIG d   1       3.807  -4.890  -6.810  0.00  0.00     0.079 C 
ATOM     53  H   LIG d   1       3.074  -4.107  -6.614  0.00  0.00     0.066 H 
ATOM     54  H   LIG d   1       3.980  -5.462  -5.899  0.00  0.00     0.066 H 
ATOM     55  H   LIG d   1       4.743  -4.438  -7.137  0.00  0.00     0.066 H 
ENDBRANCH  51  52
ENDBRANCH  43  51
BRANCH  45  56
ATOM     56  O   LIG d   1       5.712  -9.803  -7.118  0.00  0.00    -0.495 OA
BRANCH  56  57
ATOM     57  C   LIG d   1       4.661 -10.407  -6.360  0.00  0.00     0.079 C 
ATOM     58  H   LIG d   1       4.966 -10.483  -5.315  0.00  0.00     0.066 H 
ATOM     59  H   LIG d   1       3.763  -9.793  -6.432  0.00  0.00     0.066 H 
ATOM     60  H   LIG d   1       4.454 -11.401  -6.752  0.00  0.00     0.066 H 
ENDBRANCH  56  57
ENDBRANCH  45  56
ENDBRANCH  39  42
ENDBRANCH  33  36
ENDBRANCH  15  33
BRANCH  11  61
ATOM     61  C   LIG d   1       2.047  -0.183  -8.732  0.00  0.00    -0.055 C 
ATOM     62  H   LIG d   1       1.411   0.516  -8.187  0.00  0.00     0.024 H 
ATOM     63  H   LIG d   1       1.715  -1.203  -8.539  0.00  0.00     0.024 H 
ATOM     64  H   LIG d   1       1.983   0.025  -9.800  0.00  0.00     0.024 H 
ENDBRANCH  11  61
BRANCH   1  65
ATOM     65  C   LIG d   1       3.576  -0.236  -2.486  0.00  0.00    -0.021 C 
ATOM     66  H   LIG d   1       2.551  -0.236  -2.113  0.00  0.00     0.034 H 
BRANCH  65  67
ATOM     67  C   LIG d   1       4.287  -1.509  -2.021  0.00  0.00    -0.059 C 
ATOM     68  H   LIG d   1       4.993  -1.263  -1.229  0.00  0.00     0.024 H 
ATOM     69  H   LIG d   1       3.551  -2.220  -1.646  0.00  0.00     0.024 H 
ATOM     70  H   LIG d   1       4.824  -1.952  -2.861  0.00  0.00     0.024 H 
ENDBRANCH  65  67
BRANCH  65  71
ATOM     71  C   LIG d   1       4.316   0.988  -1.945  0.00  0.00    -0.059 C 
ATOM     72  H   LIG d   1       5.350   0.970  -2.290  0.00  0.00     0.024 H 
ATOM     73  H   LIG d   1       3.829   1.896  -2.304  0.00  0.00     0.024 H 
ATOM     74  H   LIG d   1       4.297   0.972  -0.855  0.00  0.00     0.024 H 
ENDBRANCH  65  71
ENDBRANCH   1  65
TORSDOF 12
ENDMDL
MODEL 2
REMARK VINA RESULT:      -6.2      4.844      9.679
REMARK  12 active torsions:
REMARK  status: ('A' for Active; 'I' for Inactive)
REMARK    1  A    between atoms: C_1  and  C_2 
REMARK    2  A    between atoms: C_2  and  C_3 
REMARK    3  A    between atoms: C_2  and  C_4 
REMARK    4  A    between atoms: C_14  and  C_35 
REMARK    5  A    between atoms: C_18  and  C_19 
REMARK    6  A    between atoms: C_18  and  C_20 
REMARK    7  A    between atoms: C_20  and  N_21 
REMARK       I    between atoms: N_21  and  C_22 
REMARK       I    between atoms: C_22  and  N_24 
REMARK    8  A    between atoms: N_24  and  C_25 
REMARK    9  A    between atoms: C_28  and  O_33 
REMARK   10  A    between atoms: C_30  and  O_31 
REMARK   11  A    between atoms: O_31  and  C_32 
REMARK   12  A    between atoms: O_33  and  C_34 
ROOT
ATOM      1  C   LIG d   1       5.249  -9.936  -4.468  0.00  0.00    -0.044 A 
ATOM      2  C   LIG d   1       6.118 -10.349  -3.475  0.00  0.00    -0.058 A 
ATOM      3  C   LIG d   1       7.274  -9.636  -3.236  0.00  0.00    -0.058 A 
ATOM      4  C   LIG d   1       7.571  -8.505  -3.986  0.00  0.00    -0.038 A 
ATOM      5  C   LIG d   1       6.704  -8.086  -4.968  0.00  0.00    -0.043 A 
ATOM      6  C   LIG d   1       5.541  -8.809  -5.209  0.00  0.00    -0.055 A 
ATOM      7  C   LIG d   1       6.950  -6.862  -5.810  0.00  0.00    -0.027 C 
ATOM      8  C   LIG d   1       8.408  -6.415  -5.703  0.00  0.00    -0.045 C 
ATOM      9  C   LIG d   1       8.782  -6.353  -4.222  0.00  0.00    -0.025 C 
ATOM     10  H   LIG d   1       8.005  -5.808  -3.684  0.00  0.00     0.032 H 
ATOM     11  C   LIG d   1       8.856  -7.775  -3.677  0.00  0.00    -0.003 C 
ATOM     12  C   LIG d   1      10.016  -8.528  -4.336  0.00  0.00    -0.043 C 
ATOM     13  C   LIG d   1      11.321  -7.800  -4.119  0.00  0.00    -0.052 C 
ATOM     14  C   LIG d   1      11.232  -6.400  -4.733  0.00  0.00    -0.046 C 
ATOM     15  C   LIG d   1      10.107  -5.625  -4.044  0.00  0.00    -0.013 C 
ATOM     16  H   LIG d   1       5.892 -11.227  -2.889  0.00  0.00     0.062 H 
ATOM     17  H   LIG d   1       7.953  -9.959  -2.461  0.00  0.00     0.062 H 
ATOM     18  H   LIG d   1       4.860  -8.485  -5.982  0.00  0.00     0.062 H 
ATOM     19  H   LIG d   1       6.303  -6.055  -5.470  0.00  0.00     0.031 H 
ATOM     20  H   LIG d   1       6.720  -7.090  -6.852  0.00  0.00     0.031 H 
ATOM     21  H   LIG d   1       8.525  -5.429  -6.154  0.00  0.00     0.027 H 
ATOM     22  H   LIG d   1       9.052  -7.131  -6.216  0.00  0.00     0.027 H 
ATOM     23  H   LIG d   1      10.084  -9.531  -3.913  0.00  0.00     0.027 H 
ATOM     24  H   LIG d   1       9.837  -8.600  -5.409  0.00  0.00     0.027 H 
ATOM     25  H   LIG d   1      12.134  -8.352  -4.591  0.00  0.00     0.027 H 
ATOM     26  H   LIG d   1      11.509  -7.717  -3.049  0.00  0.00     0.027 H 
ATOM     27  H   LIG d   1      11.017  -6.483  -5.799  0.00  0.00     0.027 H 
ATOM     28  H   LIG d   1      12.177  -5.877  -4.590  0.00  0.00     0.027 H 
ENDROOT
BRANCH  15  29
ATOM     29  C   LIG d   1      10.422  -5.501  -2.552  0.00  0.00    -0.058 C 
ATOM     30  H   LIG d   1       9.893  -6.280  -2.003  0.00  0.00     0.024 H 
ATOM     31  H   LIG d   1      11.495  -5.613  -2.396  0.00  0.00     0.024 H 
ATOM     32  H   LIG d   1      10.104  -4.522  -2.194  0.00  0.00     0.024 H 
ENDBRANCH  15  29
BRANCH  15  33
ATOM     33  C   LIG d   1      10.005  -4.227  -4.658  0.00  0.00     0.019 C 
ATOM     34  H   LIG d   1      11.003  -3.864  -4.902  0.00  0.00     0.047 H 
ATOM     35  H   LIG d   1       9.401  -4.271  -5.564  0.00  0.00     0.047 H 
BRANCH  33  36
ATOM     36  N   LIG d   1       9.376  -3.317  -3.697  0.00  0.00    -0.299 N 
ATOM     37  C   LIG d   1       8.161  -2.795  -3.959  0.00  0.00     0.304 C 
ATOM     38  O   LIG d   1       7.587  -3.079  -4.993  0.00  0.00    -0.253 OA
ATOM     39  N   LIG d   1       7.582  -1.958  -3.076  0.00  0.00    -0.266 N 
ATOM     40  H   LIG d   1       8.072  -1.665  -2.292  0.00  0.00     0.157 HD
ATOM     41  H   LIG d   1       9.833  -3.090  -2.873  0.00  0.00     0.150 HD
BRANCH  39  42
ATOM     42  C   LIG d   1       6.269  -1.509  -3.290  0.00  0.00     0.077 A 
ATOM     43  C   LIG d   1       6.042  -0.331  -3.998  0.00  0.00     0.145 A 
ATOM     44  C   LIG d   1       4.746   0.107  -4.212  0.00  0.00     0.024 A 
ATOM     45  C   LIG d   1       3.677  -0.622  -3.711  0.00  0.00     0.124 A 
ATOM     46  H   LIG d   1       4.567   1.018  -4.763  0.00  0.00     0.069 H 
ATOM     47  C   LIG d   1       3.906  -1.792  -3.002  0.00  0.00    -0.018 A 
ATOM     48  C   LIG d   1       5.198  -2.234  -2.791  0.00  0.00    -0.033 A 
ATOM     49  H   LIG d   1       3.073  -2.358  -2.613  0.00  0.00     0.066 H 
ATOM     50  H   LIG d   1       5.373  -3.145  -2.239  0.00  0.00     0.064 H 
BRANCH  43  51
ATOM     51  O   LIG d   1       7.091   0.386  -4.482  0.00  0.00    -0.493 OA
BRANCH  51  52
ATOM     52  C   LIG d   1       7.437   1.583  -3.784  0.00  0.00     0.079 C 
ATOM     53  H   LIG d   1       7.009   1.556  -2.782  0.00  0.00     0.066 H 
ATOM     54  H   LIG d   1       8.522   1.661  -3.713  0.00  0.00     0.066 H 
ATOM     55  H   LIG d   1       7.046   2.445  -4.324  0.00  0.00     0.066 H 
ENDBRANCH  51  52
ENDBRANCH  43  51
BRANCH  45  56
ATOM     56  O   LIG d   1       2.405  -0.190  -3.916  0.00  0.00    -0.495 OA
BRANCH  56  57
ATOM     57  C   LIG d   1       2.159   0.562  -5.107  0.00  0.00     0.079 C 
ATOM     58  H   LIG d   1       1.089   0.746  -5.205  0.00  0.00     0.066 H 
ATOM     59  H   LIG d   1       2.688   1.514  -5.051  0.00  0.00     0.066 H 
ATOM     60  H   LIG d   1       2.511   0.000  -5.971  0.00  0.00     0.066 H 
ENDBRANCH  56  57
ENDBRANCH  45  56
ENDBRANCH  39  42
ENDBRANCH  33  36
ENDBRANCH  15  33
BRANCH  11  61
ATOM     61  C   LIG d   1       9.069  -7.733  -2.162  0.00  0.00    -0.055 C 
ATOM     62  H   LIG d   1       8.109  -7.841  -1.658  0.00  0.00     0.024 H 
ATOM     63  H   LIG d   1       9.520  -6.780  -1.885  0.00  0.00     0.024 H 
ATOM     64  H   LIG d   1       9.730  -8.547  -1.865  0.00  0.00     0.024 H 
ENDBRANCH  11  61
BRANCH   1  65
ATOM     65  C   LIG d   1       3.986 -10.711  -4.739  0.00  0.00    -0.021 C 
ATOM     66  H   LIG d   1       3.356 -10.150  -5.429  0.00  0.00     0.034 H 
BRANCH  65  67
ATOM     67  C   LIG d   1       4.342 -12.064  -5.358  0.00  0.00    -0.059 C 
ATOM     68  H   LIG d   1       5.046 -11.916  -6.177  0.00  0.00     0.024 H 
ATOM     69  H   LIG d   1       4.793 -12.703  -4.601  0.00  0.00     0.024 H 
ATOM     70  H   LIG d   1       3.436 -12.538  -5.740  0.00  0.00     0.024 H 
ENDBRANCH  65  67
BRANCH  65  71
ATOM     71  C   LIG d   1       3.233 -10.933  -3.426  0.00  0.00    -0.059 C 
ATOM     72  H   LIG d   1       3.325 -10.046  -2.800  0.00  0.00     0.024 H 
ATOM     73  H   LIG d   1       2.180 -11.121  -3.638  0.00  0.00     0.024 H 
ATOM     74  H   LIG d   1       3.657 -11.791  -2.904  0.00  0.00     0.024 H 
ENDBRANCH  65  71
ENDBRANCH   1  65
TORSDOF 12
ENDMDL
MODEL 3
REMARK VINA RESULT:      -6.2      7.672      9.891
REMARK  12 active torsions:
REMARK  status: ('A' for Active; 'I' for Inactive)
REMARK    1  A    between atoms: C_1  and  C_2 
REMARK    2  A    between atoms: C_2  and  C_3 
REMARK    3  A    between atoms: C_2  and  C_4 
REMARK    4  A    between atoms: C_14  and  C_35 
REMARK    5  A    between atoms: C_18  and  C_19 
REMARK    6  A    between atoms: C_18  and  C_20 
REMARK    7  A    between atoms: C_20  and  N_21 
REMARK       I    between atoms: N_21  and  C_22 
REMARK       I    between atoms: C_22  and  N_24 
REMARK    8  A    between atoms: N_24  and  C_25 
REMARK    9  A    between atoms: C_28  and  O_33 
REMARK   10  A    between atoms: C_30  and  O_31 
REMARK   11  A    between atoms: O_31  and  C_32 
REMARK   12  A    between atoms: O_33  and  C_34 
ROOT
ATOM      1  C   LIG d   1      10.278   9.475  -0.811  0.00  0.00    -0.044 A 
ATOM      2  C   LIG d   1      10.235   9.798  -2.155  0.00  0.00    -0.058 A 
ATOM      3  C   LIG d   1      10.280   8.795  -3.101  0.00  0.00    -0.058 A 
ATOM      4  C   LIG d   1      10.367   7.464  -2.714  0.00  0.00    -0.038 A 
ATOM      5  C   LIG d   1      10.401   7.140  -1.377  0.00  0.00    -0.043 A 
ATOM      6  C   LIG d   1      10.359   8.152  -0.426  0.00  0.00    -0.055 A 
ATOM      7  C   LIG d   1      10.479   5.720  -0.881  0.00  0.00    -0.027 C 
ATOM      8  C   LIG d   1      10.903   4.775  -2.005  0.00  0.00    -0.045 C 
ATOM      9  C   LIG d   1      10.027   5.061  -3.226  0.00  0.00    -0.025 C 
ATOM     10  H   LIG d   1       8.984   5.097  -2.912  0.00  0.00     0.032 H 
ATOM     11  C   LIG d   1      10.419   6.418  -3.801  0.00  0.00    -0.003 C 
ATOM     12  C   LIG d   1      11.845   6.360  -4.355  0.00  0.00    -0.043 C 
ATOM     13  C   LIG d   1      11.973   5.276  -5.400  0.00  0.00    -0.052 C 
ATOM     14  C   LIG d   1      11.633   3.921  -4.772  0.00  0.00    -0.046 C 
ATOM     15  C   LIG d   1      10.192   3.956  -4.261  0.00  0.00    -0.013 C 
ATOM     16  H   LIG d   1      10.167  10.830  -2.462  0.00  0.00     0.062 H 
ATOM     17  H   LIG d   1      10.247   9.047  -4.151  0.00  0.00     0.062 H 
ATOM     18  H   LIG d   1      10.388   7.901   0.624  0.00  0.00     0.062 H 
ATOM     19  H   LIG d   1       9.501   5.415  -0.508  0.00  0.00     0.031 H 
ATOM     20  H   LIG d   1      11.205   5.662  -0.070  0.00  0.00     0.031 H 
ATOM     21  H   LIG d   1      10.767   3.741  -1.688  0.00  0.00     0.027 H 
ATOM     22  H   LIG d   1      11.951   4.947  -2.256  0.00  0.00     0.027 H 
ATOM     23  H   LIG d   1      12.102   7.323  -4.797  0.00  0.00     0.027 H 
ATOM     24  H   LIG d   1      12.540   6.138  -3.544  0.00  0.00     0.027 H 
ATOM     25  H   LIG d   1      12.992   5.253  -5.785  0.00  0.00     0.027 H 
ATOM     26  H   LIG d   1      11.280   5.484  -6.215  0.00  0.00     0.027 H 
ATOM     27  H   LIG d   1      12.310   3.725  -3.939  0.00  0.00     0.027 H 
ATOM     28  H   LIG d   1      11.737   3.136  -5.520  0.00  0.00     0.027 H 
ENDROOT
BRANCH  15  29
ATOM     29  C   LIG d   1       9.248   4.217  -5.437  0.00  0.00    -0.058 C 
ATOM     30  H   LIG d   1       9.788   4.734  -6.229  0.00  0.00     0.024 H 
ATOM     31  H   LIG d   1       8.868   3.268  -5.816  0.00  0.00     0.024 H 
ATOM     32  H   LIG d   1       8.414   4.834  -5.102  0.00  0.00     0.024 H 
ENDBRANCH  15  29
BRANCH  15  33
ATOM     33  C   LIG d   1       9.847   2.608  -3.623  0.00  0.00     0.019 C 
ATOM     34  H   LIG d   1      10.303   1.805  -4.203  0.00  0.00     0.047 H 
ATOM     35  H   LIG d   1      10.226   2.581  -2.602  0.00  0.00     0.047 H 
BRANCH  33  36
ATOM     36  N   LIG d   1       8.392   2.434  -3.608  0.00  0.00    -0.299 N 
ATOM     37  C   LIG d   1       7.851   1.253  -3.968  0.00  0.00     0.304 C 
ATOM     38  O   LIG d   1       8.571   0.333  -4.306  0.00  0.00    -0.253 OA
ATOM     39  N   LIG d   1       6.514   1.093  -3.955  0.00  0.00    -0.266 N 
ATOM     40  H   LIG d   1       5.936   1.848  -3.767  0.00  0.00     0.157 HD
ATOM     41  H   LIG d   1       7.818   3.168  -3.340  0.00  0.00     0.150 HD
BRANCH  39  42
ATOM     42  C   LIG d   1       5.955  -0.170  -4.213  0.00  0.00     0.077 A 
ATOM     43  C   LIG d   1       5.575  -0.512  -5.508  0.00  0.00     0.145 A 
ATOM     44  C   LIG d   1       5.028  -1.759  -5.761  0.00  0.00     0.024 A 
ATOM     45  C   LIG d   1       4.852  -2.661  -4.721  0.00  0.00     0.124 A 
ATOM     46  H   LIG d   1       4.736  -2.028  -6.764  0.00  0.00     0.069 H 
ATOM     47  C   LIG d   1       5.226  -2.316  -3.431  0.00  0.00    -0.018 A 
ATOM     48  C   LIG d   1       5.776  -1.074  -3.177  0.00  0.00    -0.033 A 
ATOM     49  H   LIG d   1       5.087  -3.019  -2.624  0.00  0.00     0.066 H 
ATOM     50  H   LIG d   1       6.067  -0.808  -2.172  0.00  0.00     0.064 H 
BRANCH  43  51
ATOM     51  O   LIG d   1       5.743   0.376  -6.524  0.00  0.00    -0.493 OA
BRANCH  51  52
ATOM     52  C   LIG d   1       6.756   0.076  -7.487  0.00  0.00     0.079 C 
ATOM     53  H   LIG d   1       7.138   1.003  -7.913  0.00  0.00     0.066 H 
ATOM     54  H   LIG d   1       7.569  -0.464  -7.001  0.00  0.00     0.066 H 
ATOM     55  H   LIG d   1       6.333  -0.542  -8.279  0.00  0.00     0.066 H 
ENDBRANCH  51  52
ENDBRANCH  43  51
BRANCH  45  56
ATOM     56  O   LIG d   1       4.310  -3.883  -4.968  0.00  0.00    -0.495 OA
BRANCH  56  57
ATOM     57  C   LIG d   1       4.322  -4.337  -6.324  0.00  0.00     0.079 C 
ATOM     58  H   LIG d   1       4.875  -5.275  -6.387  0.00  0.00     0.066 H 
ATOM     59  H   LIG d   1       3.298  -4.495  -6.662  0.00  0.00     0.066 H 
ATOM     60  H   LIG d   1       4.802  -3.589  -6.953  0.00  0.00     0.066 H 
ENDBRANCH  56  57
ENDBRANCH  45  56
ENDBRANCH  39  42
ENDBRANCH  33  36
ENDBRANCH  15  33
BRANCH  11  61
ATOM     61  C   LIG d   1       9.450   6.797  -4.923  0.00  0.00    -0.055 C 
ATOM     62  H   LIG d   1       8.687   7.471  -4.531  0.00  0.00     0.024 H 
ATOM     63  H   LIG d   1       8.974   5.897  -5.313  0.00  0.00     0.024 H 
ATOM     64  H   LIG d   1       9.997   7.294  -5.724  0.00  0.00     0.024 H 
ENDBRANCH  11  61
BRANCH   1  65
ATOM     65  C   LIG d   1      10.234  10.563   0.230  0.00  0.00    -0.021 C 
ATOM     66  H   LIG d   1       9.273  10.535   0.744  0.00  0.00     0.034 H 
BRANCH  65  67
ATOM     67  C   LIG d   1      11.360  10.344   1.243  0.00  0.00    -0.059 C 
ATOM     68  H   LIG d   1      11.967  11.247   1.313  0.00  0.00     0.024 H 
ATOM     69  H   LIG d   1      10.932  10.117   2.219  0.00  0.00     0.024 H 
ATOM     70  H   LIG d   1      11.984   9.511   0.918  0.00  0.00     0.024 H 
ENDBRANCH  65  67
BRANCH  65  71
ATOM     71  C   LIG d   1      10.413  11.923  -0.446  0.00  0.00    -0.059 C 
ATOM     72  H   LIG d   1       9.622  12.070  -1.181  0.00  0.00     0.024 H 
ATOM     73  H   LIG d   1      10.363  12.712   0.305  0.00  0.00     0.024 H 
ATOM     74  H   LIG d   1      11.382  11.956  -0.944  0.00  0.00     0.024 H 
ENDBRANCH  65  71
ENDBRANCH   1  65
TORSDOF 12
ENDMDL
MODEL 4
REMARK VINA RESULT:      -6.1      4.972      5.680
REMARK  12 active torsions:
REMARK  status: ('A' for Active; 'I' for Inactive)
REMARK    1  A    between atoms: C_1  and  C_2 
REMARK    2  A    between atoms: C_2  and  C_3 
REMARK    3  A    between atoms: C_2  and  C_4 
REMARK    4  A    between atoms: C_14  and  C_35 
REMARK    5  A    between atoms: C_18  and  C_19 
REMARK    6  A    between atoms: C_18  and  C_20 
REMARK    7  A    between atoms: C_20  and  N_21 
REMARK       I    between atoms: N_21  and  C_22 
REMARK       I    between atoms: C_22  and  N_24 
REMARK    8  A    between atoms: N_24  and  C_25 
REMARK    9  A    between atoms: C_28  and  O_33 
REMARK   10  A    between atoms: C_30  and  O_31 
REMARK   11  A    between atoms: O_31  and  C_32 
REMARK   12  A    between atoms: O_33  and  C_34 
ROOT
ATOM      1  C   LIG d   1       5.125  -1.743  -4.803  0.00  0.00    -0.044 A 
ATOM      2  C   LIG d   1       4.929  -0.446  -5.239  0.00  0.00    -0.058 A 
ATOM      3  C   LIG d   1       4.396  -0.218  -6.491  0.00  0.00    -0.058 A 
ATOM      4  C   LIG d   1       4.053  -1.282  -7.315  0.00  0.00    -0.038 A 
ATOM      5  C   LIG d   1       4.238  -2.574  -6.879  0.00  0.00    -0.043 A 
ATOM      6  C   LIG d   1       4.779  -2.801  -5.618  0.00  0.00    -0.055 A 
ATOM      7  C   LIG d   1       3.876  -3.778  -7.708  0.00  0.00    -0.027 C 
ATOM      8  C   LIG d   1       3.670  -3.386  -9.172  0.00  0.00    -0.045 C 
ATOM      9  C   LIG d   1       2.734  -2.177  -9.216  0.00  0.00    -0.025 C 
ATOM     10  H   LIG d   1       1.872  -2.375  -8.579  0.00  0.00     0.032 H 
ATOM     11  C   LIG d   1       3.480  -0.963  -8.674  0.00  0.00    -0.003 C 
ATOM     12  C   LIG d   1       4.632  -0.593  -9.614  0.00  0.00    -0.043 C 
ATOM     13  C   LIG d   1       4.122  -0.333 -11.013  0.00  0.00    -0.052 C 
ATOM     14  C   LIG d   1       3.435  -1.593 -11.547  0.00  0.00    -0.046 C 
ATOM     15  C   LIG d   1       2.252  -1.938 -10.640  0.00  0.00    -0.013 C 
ATOM     16  H   LIG d   1       5.194   0.385  -4.603  0.00  0.00     0.062 H 
ATOM     17  H   LIG d   1       4.243   0.795  -6.833  0.00  0.00     0.062 H 
ATOM     18  H   LIG d   1       4.928  -3.814  -5.274  0.00  0.00     0.062 H 
ATOM     19  H   LIG d   1       2.956  -4.217  -7.323  0.00  0.00     0.031 H 
ATOM     20  H   LIG d   1       4.678  -4.514  -7.643  0.00  0.00     0.031 H 
ATOM     21  H   LIG d   1       3.223  -4.218  -9.716  0.00  0.00     0.027 H 
ATOM     22  H   LIG d   1       4.629  -3.126  -9.622  0.00  0.00     0.027 H 
ATOM     23  H   LIG d   1       5.135   0.298  -9.239  0.00  0.00     0.027 H 
ATOM     24  H   LIG d   1       5.343  -1.419  -9.657  0.00  0.00     0.027 H 
ATOM     25  H   LIG d   1       4.953  -0.068 -11.665  0.00  0.00     0.027 H 
ATOM     26  H   LIG d   1       3.406   0.488 -10.983  0.00  0.00     0.027 H 
ATOM     27  H   LIG d   1       4.144  -2.421 -11.552  0.00  0.00     0.027 H 
ATOM     28  H   LIG d   1       3.077  -1.412 -12.560  0.00  0.00     0.027 H 
ENDROOT
BRANCH  15  29
ATOM     29  C   LIG d   1       1.254  -0.778 -10.650  0.00  0.00    -0.058 C 
ATOM     30  H   LIG d   1       1.301  -0.267 -11.612  0.00  0.00     0.024 H 
ATOM     31  H   LIG d   1       0.247  -1.163 -10.491  0.00  0.00     0.024 H 
ATOM     32  H   LIG d   1       1.505  -0.077  -9.853  0.00  0.00     0.024 H 
ENDBRANCH  15  29
BRANCH  15  33
ATOM     33  C   LIG d   1       1.565  -3.202 -11.162  0.00  0.00     0.019 C 
ATOM     34  H   LIG d   1       1.165  -3.012 -12.158  0.00  0.00     0.047 H 
ATOM     35  H   LIG d   1       2.287  -4.016 -11.209  0.00  0.00     0.047 H 
BRANCH  33  36
ATOM     36  N   LIG d   1       0.472  -3.571 -10.259  0.00  0.00    -0.299 N 
ATOM     37  C   LIG d   1      -0.461  -4.460 -10.657  0.00  0.00     0.304 C 
ATOM     38  O   LIG d   1      -0.394  -4.954 -11.766  0.00  0.00    -0.253 OA
ATOM     39  N   LIG d   1      -1.466  -4.799  -9.826  0.00  0.00    -0.266 N 
ATOM     40  H   LIG d   1      -1.568  -4.344  -8.976  0.00  0.00     0.157 HD
ATOM     41  H   LIG d   1       0.418  -3.175  -9.375  0.00  0.00     0.150 HD
BRANCH  39  42
ATOM     42  C   LIG d   1      -2.368  -5.811 -10.193  0.00  0.00     0.077 A 
ATOM     43  C   LIG d   1      -3.612  -5.478 -10.723  0.00  0.00     0.145 A 
ATOM     44  C   LIG d   1      -4.497  -6.480 -11.087  0.00  0.00     0.024 A 
ATOM     45  C   LIG d   1      -4.147  -7.811 -10.913  0.00  0.00     0.124 A 
ATOM     46  H   LIG d   1      -5.461  -6.224 -11.501  0.00  0.00     0.069 H 
ATOM     47  C   LIG d   1      -2.910  -8.140 -10.380  0.00  0.00    -0.018 A 
ATOM     48  C   LIG d   1      -2.022  -7.143 -10.020  0.00  0.00    -0.033 A 
ATOM     49  H   LIG d   1      -2.639  -9.176 -10.246  0.00  0.00     0.066 H 
ATOM     50  H   LIG d   1      -1.060  -7.402  -9.606  0.00  0.00     0.064 H 
BRANCH  43  51
ATOM     51  O   LIG d   1      -3.956  -4.173 -10.886  0.00  0.00    -0.493 OA
BRANCH  51  52
ATOM     52  C   LIG d   1      -5.162  -3.737 -10.258  0.00  0.00     0.079 C 
ATOM     53  H   LIG d   1      -4.969  -2.827  -9.690  0.00  0.00     0.066 H 
ATOM     54  H   LIG d   1      -5.915  -3.536 -11.020  0.00  0.00     0.066 H 
ATOM     55  H   LIG d   1      -5.526  -4.515  -9.587  0.00  0.00     0.066 H 
ENDBRANCH  51  52
ENDBRANCH  43  51
BRANCH  45  56
ATOM     56  O   LIG d   1      -5.018  -8.793 -11.266  0.00  0.00    -0.495 OA
BRANCH  56  57
ATOM     57  C   LIG d   1      -4.684 -10.127 -10.876  0.00  0.00     0.079 C 
ATOM     58  H   LIG d   1      -4.561 -10.168  -9.793  0.00  0.00     0.066 H 
ATOM     59  H   LIG d   1      -5.485 -10.803 -11.176  0.00  0.00     0.066 H 
ATOM     60  H   LIG d   1      -3.756 -10.426 -11.359  0.00  0.00     0.066 H 
ENDBRANCH  56  57
ENDBRANCH  45  56
ENDBRANCH  39  42
ENDBRANCH  33  36
ENDBRANCH  15  33
BRANCH  11  61
ATOM     61  C   LIG d   1       2.516   0.220  -8.558  0.00  0.00    -0.055 C 
ATOM     62  H   LIG d   1       3.085   1.151  -8.543  0.00  0.00     0.024 H 
ATOM     63  H   LIG d   1       1.940   0.131  -7.637  0.00  0.00     0.024 H 
ATOM     64  H   LIG d   1       1.839   0.223  -9.412  0.00  0.00     0.024 H 
ENDBRANCH  11  61
BRANCH   1  65
ATOM     65  C   LIG d   1       5.711  -2.002  -3.439  0.00  0.00    -0.021 C 
ATOM     66  H   LIG d   1       5.982  -3.054  -3.353  0.00  0.00     0.034 H 
BRANCH  65  67
ATOM     67  C   LIG d   1       6.958  -1.137  -3.248  0.00  0.00    -0.059 C 
ATOM     68  H   LIG d   1       7.714  -1.703  -2.703  0.00  0.00     0.024 H 
ATOM     69  H   LIG d   1       7.352  -0.847  -4.222  0.00  0.00     0.024 H 
ATOM     70  H   LIG d   1       6.697  -0.242  -2.682  0.00  0.00     0.024 H 
ENDBRANCH  65  67
BRANCH  65  71
ATOM     71  C   LIG d   1       4.678  -1.652  -2.366  0.00  0.00    -0.059 C 
ATOM     72  H   LIG d   1       4.781  -0.603  -2.090  0.00  0.00     0.024 H 
ATOM     73  H   LIG d   1       3.675  -1.828  -2.756  0.00  0.00     0.024 H 
ATOM     74  H   LIG d   1       4.841  -2.277  -1.487  0.00  0.00     0.024 H 
ENDBRANCH  65  71
ENDBRANCH   1  65
TORSDOF 12
ENDMDL
MODEL 5
REMARK VINA RESULT:      -6.1      7.999     11.726
REMARK  12 active torsions:
REMARK  status: ('A' for Active; 'I' for Inactive)
REMARK    1  A    between atoms: C_1  and  C_2 
REMARK    2  A    between atoms: C_2  and  C_3 
REMARK    3  A    between atoms: C_2  and  C_4 
REMARK    4  A    between atoms: C_14  and  C_35 
REMARK    5  A    between atoms: C_18  and  C_19 
REMARK    6  A    between atoms: C_18  and  C_20 
REMARK    7  A    between atoms: C_20  and  N_21 
REMARK       I    between atoms: N_21  and  C_22 
REMARK       I    between atoms: C_22  and  N_24 
REMARK    8  A    between atoms: N_24  and  C_25 
REMARK    9  A    between atoms: C_28  and  O_33 
REMARK   10  A    between atoms: C_30  and  O_31 
REMARK   11  A    between atoms: O_31  and  C_32 
REMARK   12  A    between atoms: O_33  and  C_34 
ROOT
ATOM      1  C   LIG d   1       5.541  -0.582  -2.972  0.00  0.00    -0.044 A 
ATOM      2  C   LIG d   1       6.086  -1.669  -3.631  0.00  0.00    -0.058 A 
ATOM      3  C   LIG d   1       7.212  -1.503  -4.409  0.00  0.00    -0.058 A 
ATOM      4  C   LIG d   1       7.804  -0.253  -4.535  0.00  0.00    -0.038 A 
ATOM      5  C   LIG d   1       7.270   0.828  -3.872  0.00  0.00    -0.043 A 
ATOM      6  C   LIG d   1       6.133   0.659  -3.091  0.00  0.00    -0.055 A 
ATOM      7  C   LIG d   1       7.864   2.210  -3.947  0.00  0.00    -0.027 C 
ATOM      8  C   LIG d   1       8.842   2.317  -5.117  0.00  0.00    -0.045 C 
ATOM      9  C   LIG d   1       9.800   1.126  -5.051  0.00  0.00    -0.025 C 
ATOM     10  H   LIG d   1      10.179   1.035  -4.033  0.00  0.00     0.032 H 
ATOM     11  C   LIG d   1       9.030  -0.140  -5.408  0.00  0.00    -0.003 C 
ATOM     12  C   LIG d   1       8.584  -0.087  -6.872  0.00  0.00    -0.043 C 
ATOM     13  C   LIG d   1       9.770   0.099  -7.789  0.00  0.00    -0.052 C 
ATOM     14  C   LIG d   1      10.481   1.411  -7.442  0.00  0.00    -0.046 C 
ATOM     15  C   LIG d   1      10.974   1.344  -5.996  0.00  0.00    -0.013 C 
ATOM     16  H   LIG d   1       5.630  -2.643  -3.537  0.00  0.00     0.062 H 
ATOM     17  H   LIG d   1       7.638  -2.352  -4.925  0.00  0.00     0.062 H 
ATOM     18  H   LIG d   1       5.709   1.506  -2.572  0.00  0.00     0.062 H 
ATOM     19  H   LIG d   1       8.393   2.424  -3.019  0.00  0.00     0.031 H 
ATOM     20  H   LIG d   1       7.064   2.938  -4.080  0.00  0.00     0.031 H 
ATOM     21  H   LIG d   1       9.405   3.247  -5.043  0.00  0.00     0.027 H 
ATOM     22  H   LIG d   1       8.292   2.295  -6.060  0.00  0.00     0.027 H 
ATOM     23  H   LIG d   1       8.068  -1.012  -7.128  0.00  0.00     0.027 H 
ATOM     24  H   LIG d   1       7.906   0.755  -7.013  0.00  0.00     0.027 H 
ATOM     25  H   LIG d   1       9.434   0.131  -8.825  0.00  0.00     0.027 H 
ATOM     26  H   LIG d   1      10.459  -0.735  -7.654  0.00  0.00     0.027 H 
ATOM     27  H   LIG d   1       9.785   2.243  -7.552  0.00  0.00     0.027 H 
ATOM     28  H   LIG d   1      11.329   1.553  -8.111  0.00  0.00     0.027 H 
ENDROOT
BRANCH  15  29
ATOM     29  C   LIG d   1      11.961   0.182  -5.854  0.00  0.00    -0.058 C 
ATOM     30  H   LIG d   1      12.750   0.460  -5.155  0.00  0.00     0.024 H 
ATOM     31  H   LIG d   1      11.436  -0.697  -5.480  0.00  0.00     0.024 H 
ATOM     32  H   LIG d   1      12.399  -0.042  -6.827  0.00  0.00     0.024 H 
ENDBRANCH  15  29
BRANCH  15  33
ATOM     33  C   LIG d   1      11.678   2.654  -5.638  0.00  0.00     0.019 C 
ATOM     34  H   LIG d   1      12.627   2.713  -6.171  0.00  0.00     0.047 H 
ATOM     35  H   LIG d   1      11.047   3.495  -5.924  0.00  0.00     0.047 H 
BRANCH  33  36
ATOM     36  N   LIG d   1      11.924   2.697  -4.195  0.00  0.00    -0.299 N 
ATOM     37  C   LIG d   1      11.841   3.868  -3.531  0.00  0.00     0.304 C 
ATOM     38  O   LIG d   1      11.561   4.888  -4.131  0.00  0.00    -0.253 OA
ATOM     39  N   LIG d   1      12.068   3.907  -2.204  0.00  0.00    -0.266 N 
ATOM     40  H   LIG d   1      12.372   3.113  -1.739  0.00  0.00     0.157 HD
ATOM     41  H   LIG d   1      12.149   1.884  -3.716  0.00  0.00     0.150 HD
BRANCH  39  42
ATOM     42  C   LIG d   1      11.864   5.101  -1.492  0.00  0.00     0.077 A 
ATOM     43  C   LIG d   1      12.954   5.882  -1.115  0.00  0.00     0.145 A 
ATOM     44  C   LIG d   1      12.749   7.061  -0.417  0.00  0.00     0.024 A 
ATOM     45  C   LIG d   1      11.461   7.455  -0.086  0.00  0.00     0.124 A 
ATOM     46  H   LIG d   1      13.592   7.670  -0.127  0.00  0.00     0.069 H 
ATOM     47  C   LIG d   1      10.378   6.673  -0.458  0.00  0.00    -0.018 A 
ATOM     48  C   LIG d   1      10.578   5.498  -1.158  0.00  0.00    -0.033 A 
ATOM     49  H   LIG d   1       9.376   6.981  -0.199  0.00  0.00     0.066 H 
ATOM     50  H   LIG d   1       9.734   4.891  -1.447  0.00  0.00     0.064 H 
BRANCH  43  51
ATOM     51  O   LIG d   1      14.216   5.491  -1.435  0.00  0.00    -0.493 OA
BRANCH  51  52
ATOM     52  C   LIG d   1      14.866   6.199  -2.492  0.00  0.00     0.079 C 
ATOM     53  H   LIG d   1      15.884   5.825  -2.608  0.00  0.00     0.066 H 
ATOM     54  H   LIG d   1      14.316   6.049  -3.421  0.00  0.00     0.066 H 
ATOM     55  H   LIG d   1      14.894   7.262  -2.254  0.00  0.00     0.066 H 
ENDBRANCH  51  52
ENDBRANCH  43  51
BRANCH  45  56
ATOM     56  O   LIG d   1      11.261   8.609   0.603  0.00  0.00    -0.495 OA
BRANCH  56  57
ATOM     57  C   LIG d   1      10.455   9.609  -0.024  0.00  0.00     0.079 C 
ATOM     58  H   LIG d   1       9.991   9.192  -0.919  0.00  0.00     0.066 H 
ATOM     59  H   LIG d   1       9.680   9.938   0.668  0.00  0.00     0.066 H 
ATOM     60  H   LIG d   1      11.079  10.458  -0.301  0.00  0.00     0.066 H 
ENDBRANCH  56  57
ENDBRANCH  45  56
ENDBRANCH  39  42
ENDBRANCH  33  36
ENDBRANCH  15  33
BRANCH  11  61
ATOM     61  C   LIG d   1       9.926  -1.362  -5.192  0.00  0.00    -0.055 C 
ATOM     62  H   LIG d   1      10.833  -1.058  -4.667  0.00  0.00     0.024 H 
ATOM     63  H   LIG d   1      10.192  -1.794  -6.157  0.00  0.00     0.024 H 
ATOM     64  H   LIG d   1       9.394  -2.103  -4.596  0.00  0.00     0.024 H 
ENDBRANCH  11  61
BRANCH   1  65
ATOM     65  C   LIG d   1       4.309  -0.753  -2.122  0.00  0.00    -0.021 C 
ATOM     66  H   LIG d   1       4.571  -0.626  -1.071  0.00  0.00     0.034 H 
BRANCH  65  67
ATOM     67  C   LIG d   1       3.269   0.297  -2.518  0.00  0.00    -0.059 C 
ATOM     68  H   LIG d   1       3.374   0.533  -3.576  0.00  0.00     0.024 H 
ATOM     69  H   LIG d   1       2.269  -0.093  -2.330  0.00  0.00     0.024 H 
ATOM     70  H   LIG d   1       3.422   1.201  -1.927  0.00  0.00     0.024 H 
ENDBRANCH  65  67
BRANCH  65  71
ATOM     71  C   LIG d   1       3.730  -2.152  -2.338  0.00  0.00    -0.059 C 
ATOM     72  H   LIG d   1       2.777  -2.236  -1.817  0.00  0.00     0.024 H 
ATOM     73  H   LIG d   1       3.578  -2.322  -3.405  0.00  0.00     0.024 H 
ATOM     74  H   LIG d   1       4.424  -2.897  -1.947  0.00  0.00     0.024 H 
ENDBRANCH  65  71
ENDBRANCH   1  65
TORSDOF 12
ENDMDL
MODEL 6
REMARK VINA RESULT:      -6.0      2.617      2.981
REMARK  12 active torsions:
REMARK  status: ('A' for Active; 'I' for Inactive)
REMARK    1  A    between atoms: C_1  and  C_2 
REMARK    2  A    between atoms: C_2  and  C_3 
REMARK    3  A    between atoms: C_2  and  C_4 
REMARK    4  A    between atoms: C_14  and  C_35 
REMARK    5  A    between atoms: C_18  and  C_19 
REMARK    6  A    between atoms: C_18  and  C_20 
REMARK    7  A    between atoms: C_20  and  N_21 
REMARK       I    between atoms: N_21  and  C_22 
REMARK       I    between atoms: C_22  and  N_24 
REMARK    8  A    between atoms: N_24  and  C_25 
REMARK    9  A    between atoms: C_28  and  O_33 
REMARK   10  A    between atoms: C_30  and  O_31 
REMARK   11  A    between atoms: O_31  and  C_32 
REMARK   12  A    between atoms: O_33  and  C_34 
ROOT
ATOM      1  C   LIG d   1       3.395  -0.358  -4.130  0.00  0.00    -0.044 A 
ATOM      2  C   LIG d   1       2.451   0.479  -4.697  0.00  0.00    -0.058 A 
ATOM      3  C   LIG d   1       2.418   0.644  -6.066  0.00  0.00    -0.058 A 
ATOM      4  C   LIG d   1       3.324  -0.025  -6.879  0.00  0.00    -0.038 A 
ATOM      5  C   LIG d   1       4.258  -0.865  -6.318  0.00  0.00    -0.043 A 
ATOM      6  C   LIG d   1       4.292  -1.028  -4.937  0.00  0.00    -0.055 A 
ATOM      7  C   LIG d   1       5.262  -1.636  -7.134  0.00  0.00    -0.027 C 
ATOM      8  C   LIG d   1       5.356  -1.070  -8.552  0.00  0.00    -0.045 C 
ATOM      9  C   LIG d   1       3.938  -0.928  -9.106  0.00  0.00    -0.025 C 
ATOM     10  H   LIG d   1       3.395  -1.856  -8.926  0.00  0.00     0.032 H 
ATOM     11  C   LIG d   1       3.236   0.207  -8.368  0.00  0.00    -0.003 C 
ATOM     12  C   LIG d   1       3.913   1.541  -8.695  0.00  0.00    -0.043 C 
ATOM     13  C   LIG d   1       3.918   1.790 -10.186  0.00  0.00    -0.052 C 
ATOM     14  C   LIG d   1       4.684   0.665 -10.887  0.00  0.00    -0.046 C 
ATOM     15  C   LIG d   1       3.984  -0.666 -10.605  0.00  0.00    -0.013 C 
ATOM     16  H   LIG d   1       1.745   1.001  -4.070  0.00  0.00     0.062 H 
ATOM     17  H   LIG d   1       1.682   1.298  -6.509  0.00  0.00     0.062 H 
ATOM     18  H   LIG d   1       5.025  -1.684  -4.494  0.00  0.00     0.062 H 
ATOM     19  H   LIG d   1       4.957  -2.680  -7.186  0.00  0.00     0.031 H 
ATOM     20  H   LIG d   1       6.240  -1.571  -6.656  0.00  0.00     0.031 H 
ATOM     21  H   LIG d   1       5.932  -1.749  -9.181  0.00  0.00     0.027 H 
ATOM     22  H   LIG d   1       5.841  -0.093  -8.526  0.00  0.00     0.027 H 
ATOM     23  H   LIG d   1       3.381   2.350  -8.193  0.00  0.00     0.027 H 
ATOM     24  H   LIG d   1       4.946   1.518  -8.348  0.00  0.00     0.027 H 
ATOM     25  H   LIG d   1       4.399   2.745 -10.398  0.00  0.00     0.027 H 
ATOM     26  H   LIG d   1       2.890   1.811 -10.546  0.00  0.00     0.027 H 
ATOM     27  H   LIG d   1       5.705   0.627 -10.507  0.00  0.00     0.027 H 
ATOM     28  H   LIG d   1       4.700   0.848 -11.960  0.00  0.00     0.027 H 
ENDROOT
BRANCH  15  29
ATOM     29  C   LIG d   1       2.556  -0.610 -11.154  0.00  0.00    -0.058 C 
ATOM     30  H   LIG d   1       2.308   0.419 -11.416  0.00  0.00     0.024 H 
ATOM     31  H   LIG d   1       2.483  -1.239 -12.041  0.00  0.00     0.024 H 
ATOM     32  H   LIG d   1       1.862  -0.969 -10.395  0.00  0.00     0.024 H 
ENDBRANCH  15  29
BRANCH  15  33
ATOM     33  C   LIG d   1       4.748  -1.798 -11.295  0.00  0.00     0.019 C 
ATOM     34  H   LIG d   1       5.524  -1.375 -11.933  0.00  0.00     0.047 H 
ATOM     35  H   LIG d   1       5.205  -2.440 -10.543  0.00  0.00     0.047 H 
BRANCH  33  36
ATOM     36  N   LIG d   1       3.821  -2.586 -12.111  0.00  0.00    -0.299 N 
ATOM     37  C   LIG d   1       3.441  -3.814 -11.703  0.00  0.00     0.304 C 
ATOM     38  O   LIG d   1       3.868  -4.267 -10.659  0.00  0.00    -0.253 OA
ATOM     39  N   LIG d   1       2.588  -4.539 -12.454  0.00  0.00    -0.266 N 
ATOM     40  H   LIG d   1       2.312  -4.215 -13.325  0.00  0.00     0.157 HD
ATOM     41  H   LIG d   1       3.480  -2.225 -12.944  0.00  0.00     0.150 HD
BRANCH  39  42
ATOM     42  C   LIG d   1       2.099  -5.764 -11.974  0.00  0.00     0.077 A 
ATOM     43  C   LIG d   1       0.909  -5.805 -11.251  0.00  0.00     0.145 A 
ATOM     44  C   LIG d   1       0.427  -7.016 -10.783  0.00  0.00     0.024 A 
ATOM     45  C   LIG d   1       1.135  -8.184 -11.026  0.00  0.00     0.124 A 
ATOM     46  H   LIG d   1      -0.497  -7.051 -10.225  0.00  0.00     0.069 H 
ATOM     47  C   LIG d   1       2.322  -8.141 -11.741  0.00  0.00    -0.018 A 
ATOM     48  C   LIG d   1       2.804  -6.934 -12.214  0.00  0.00    -0.033 A 
ATOM     49  H   LIG d   1       2.872  -9.051 -11.929  0.00  0.00     0.066 H 
ATOM     50  H   LIG d   1       3.728  -6.903 -12.771  0.00  0.00     0.064 H 
BRANCH  43  51
ATOM     51  O   LIG d   1       0.220  -4.659 -11.008  0.00  0.00    -0.493 OA
BRANCH  51  52
ATOM     52  C   LIG d   1      -1.115  -4.585 -11.511  0.00  0.00     0.079 C 
ATOM     53  H   LIG d   1      -1.308  -3.581 -11.887  0.00  0.00     0.066 H 
ATOM     54  H   LIG d   1      -1.238  -5.306 -12.319  0.00  0.00     0.066 H 
ATOM     55  H   LIG d   1      -1.818  -4.815 -10.710  0.00  0.00     0.066 H 
ENDBRANCH  51  52
ENDBRANCH  43  51
BRANCH  45  56
ATOM     56  O   LIG d   1       0.665  -9.372 -10.562  0.00  0.00    -0.495 OA
BRANCH  56  57
ATOM     57  C   LIG d   1      -0.544  -9.864 -11.146  0.00  0.00     0.079 C 
ATOM     58  H   LIG d   1      -0.439  -9.887 -12.231  0.00  0.00     0.066 H 
ATOM     59  H   LIG d   1      -0.740 -10.872 -10.779  0.00  0.00     0.066 H 
ATOM     60  H   LIG d   1      -1.371  -9.211 -10.874  0.00  0.00     0.066 H 
ENDBRANCH  56  57
ENDBRANCH  45  56
ENDBRANCH  39  42
ENDBRANCH  33  36
ENDBRANCH  15  33
BRANCH  11  61
ATOM     61  C   LIG d   1       1.767   0.262  -8.791  0.00  0.00    -0.055 C 
ATOM     62  H   LIG d   1       1.521   1.273  -9.118  0.00  0.00     0.024 H 
ATOM     63  H   LIG d   1       1.134  -0.011  -7.947  0.00  0.00     0.024 H 
ATOM     64  H   LIG d   1       1.598  -0.436  -9.612  0.00  0.00     0.024 H 
ENDBRANCH  11  61
BRANCH   1  65
ATOM     65  C   LIG d   1       3.442  -0.542  -2.635  0.00  0.00    -0.021 C 
ATOM     66  H   LIG d   1       2.447  -0.390  -2.219  0.00  0.00     0.034 H 
BRANCH  65  67
ATOM     67  C   LIG d   1       3.918  -1.960  -2.312  0.00  0.00    -0.059 C 
ATOM     68  H   LIG d   1       4.217  -2.014  -1.265  0.00  0.00     0.024 H 
ATOM     69  H   LIG d   1       3.110  -2.666  -2.497  0.00  0.00     0.024 H 
ATOM     70  H   LIG d   1       4.770  -2.211  -2.946  0.00  0.00     0.024 H 
ENDBRANCH  65  67
BRANCH  65  71
ATOM     71  C   LIG d   1       4.411   0.473  -2.027  0.00  0.00    -0.059 C 
ATOM     72  H   LIG d   1       5.382   0.002  -1.873  0.00  0.00     0.024 H 
ATOM     73  H   LIG d   1       4.522   1.321  -2.704  0.00  0.00     0.024 H 
ATOM     74  H   LIG d   1       4.020   0.820  -1.070  0.00  0.00     0.024 H 
ENDBRANCH  65  71
ENDBRANCH   1  65
TORSDOF 12
ENDMDL
MODEL 7
REMARK VINA RESULT:      -6.0      4.107      5.691
REMARK  12 active torsions:
REMARK  status: ('A' for Active; 'I' for Inactive)
REMARK    1  A    between atoms: C_1  and  C_2 
REMARK    2  A    between atoms: C_2  and  C_3 
REMARK    3  A    between atoms: C_2  and  C_4 
REMARK    4  A    between atoms: C_14  and  C_35 
REMARK    5  A    between atoms: C_18  and  C_19 
REMARK    6  A    between atoms: C_18  and  C_20 
REMARK    7  A    between atoms: C_20  and  N_21 
REMARK       I    between atoms: N_21  and  C_22 
REMARK       I    between atoms: C_22  and  N_24 
REMARK    8  A    between atoms: N_24  and  C_25 
REMARK    9  A    between atoms: C_28  and  O_33 
REMARK   10  A    between atoms: C_30  and  O_31 
REMARK   11  A    between atoms: O_31  and  C_32 
REMARK   12  A    between atoms: O_33  and  C_34 
ROOT
ATOM      1  C   LIG d   1       4.886  -1.470  -2.979  0.00  0.00    -0.044 A 
ATOM      2  C   LIG d   1       6.222  -1.147  -3.133  0.00  0.00    -0.058 A 
ATOM      3  C   LIG d   1       7.044  -1.971  -3.874  0.00  0.00    -0.058 A 
ATOM      4  C   LIG d   1       6.539  -3.121  -4.467  0.00  0.00    -0.038 A 
ATOM      5  C   LIG d   1       5.208  -3.439  -4.323  0.00  0.00    -0.043 A 
ATOM      6  C   LIG d   1       4.383  -2.609  -3.573  0.00  0.00    -0.055 A 
ATOM      7  C   LIG d   1       4.585  -4.660  -4.948  0.00  0.00    -0.027 C 
ATOM      8  C   LIG d   1       5.662  -5.649  -5.395  0.00  0.00    -0.045 C 
ATOM      9  C   LIG d   1       6.709  -4.883  -6.204  0.00  0.00    -0.025 C 
ATOM     10  H   LIG d   1       6.200  -4.264  -6.943  0.00  0.00     0.032 H 
ATOM     11  C   LIG d   1       7.494  -3.982  -5.258  0.00  0.00    -0.003 C 
ATOM     12  C   LIG d   1       8.310  -4.832  -4.280  0.00  0.00    -0.043 C 
ATOM     13  C   LIG d   1       9.234  -5.768  -5.023  0.00  0.00    -0.052 C 
ATOM     14  C   LIG d   1       8.408  -6.699  -5.915  0.00  0.00    -0.046 C 
ATOM     15  C   LIG d   1       7.629  -5.858  -6.927  0.00  0.00    -0.013 C 
ATOM     16  H   LIG d   1       6.620  -0.255  -2.675  0.00  0.00     0.062 H 
ATOM     17  H   LIG d   1       8.088  -1.720  -3.994  0.00  0.00     0.062 H 
ATOM     18  H   LIG d   1       3.338  -2.858  -3.455  0.00  0.00     0.062 H 
ATOM     19  H   LIG d   1       3.995  -4.359  -5.813  0.00  0.00     0.031 H 
ATOM     20  H   LIG d   1       3.933  -5.143  -4.221  0.00  0.00     0.031 H 
ATOM     21  H   LIG d   1       5.213  -6.426  -6.014  0.00  0.00     0.027 H 
ATOM     22  H   LIG d   1       6.131  -6.102  -4.520  0.00  0.00     0.027 H 
ATOM     23  H   LIG d   1       8.896  -4.179  -3.633  0.00  0.00     0.027 H 
ATOM     24  H   LIG d   1       7.633  -5.432  -3.671  0.00  0.00     0.027 H 
ATOM     25  H   LIG d   1       9.809  -6.361  -4.311  0.00  0.00     0.027 H 
ATOM     26  H   LIG d   1       9.914  -5.181  -5.640  0.00  0.00     0.027 H 
ATOM     27  H   LIG d   1       7.710  -7.268  -5.299  0.00  0.00     0.027 H 
ATOM     28  H   LIG d   1       9.071  -7.383  -6.442  0.00  0.00     0.027 H 
ENDROOT
BRANCH  15  29
ATOM     29  C   LIG d   1       8.616  -5.074  -7.795  0.00  0.00    -0.058 C 
ATOM     30  H   LIG d   1       9.414  -5.738  -8.128  0.00  0.00     0.024 H 
ATOM     31  H   LIG d   1       8.095  -4.669  -8.663  0.00  0.00     0.024 H 
ATOM     32  H   LIG d   1       9.041  -4.257  -7.213  0.00  0.00     0.024 H 
ENDBRANCH  15  29
BRANCH  15  33
ATOM     33  C   LIG d   1       6.793  -6.780  -7.817  0.00  0.00     0.019 C 
ATOM     34  H   LIG d   1       5.741  -6.510  -7.732  0.00  0.00     0.047 H 
ATOM     35  H   LIG d   1       7.113  -6.674  -8.853  0.00  0.00     0.047 H 
BRANCH  33  36
ATOM     36  N   LIG d   1       6.977  -8.169  -7.389  0.00  0.00    -0.299 N 
ATOM     37  C   LIG d   1       5.904  -8.961  -7.190  0.00  0.00     0.304 C 
ATOM     38  O   LIG d   1       4.784  -8.521  -7.365  0.00  0.00    -0.253 OA
ATOM     39  N   LIG d   1       6.073 -10.238  -6.796  0.00  0.00    -0.266 N 
ATOM     40  H   LIG d   1       6.959 -10.565  -6.575  0.00  0.00     0.157 HD
ATOM     41  H   LIG d   1       7.870  -8.519  -7.248  0.00  0.00     0.150 HD
BRANCH  39  42
ATOM     42  C   LIG d   1       4.966 -11.097  -6.704  0.00  0.00     0.077 A 
ATOM     43  C   LIG d   1       4.294 -11.241  -5.492  0.00  0.00     0.145 A 
ATOM     44  C   LIG d   1       3.199 -12.085  -5.406  0.00  0.00     0.024 A 
ATOM     45  C   LIG d   1       2.781 -12.793  -6.524  0.00  0.00     0.124 A 
ATOM     46  H   LIG d   1       2.675 -12.196  -4.469  0.00  0.00     0.069 H 
ATOM     47  C   LIG d   1       3.454 -12.652  -7.728  0.00  0.00    -0.018 A 
ATOM     48  C   LIG d   1       4.544 -11.806  -7.818  0.00  0.00    -0.033 A 
ATOM     49  H   LIG d   1       3.127 -13.203  -8.596  0.00  0.00     0.066 H 
ATOM     50  H   LIG d   1       5.066 -11.698  -8.756  0.00  0.00     0.064 H 
BRANCH  43  51
ATOM     51  O   LIG d   1       4.710 -10.552  -4.397  0.00  0.00    -0.493 OA
BRANCH  51  52
ATOM     52  C   LIG d   1       3.733 -10.286  -3.388  0.00  0.00     0.079 C 
ATOM     53  H   LIG d   1       4.147 -10.525  -2.409  0.00  0.00     0.066 H 
ATOM     54  H   LIG d   1       3.458  -9.231  -3.419  0.00  0.00     0.066 H 
ATOM     55  H   LIG d   1       2.848 -10.896  -3.569  0.00  0.00     0.066 H 
ENDBRANCH  51  52
ENDBRANCH  43  51
BRANCH  45  56
ATOM     56  O   LIG d   1       1.710 -13.625  -6.438  0.00  0.00    -0.495 OA
BRANCH  56  57
ATOM     57  C   LIG d   1       1.059 -13.975  -7.662  0.00  0.00     0.079 C 
ATOM     58  H   LIG d   1      -0.012 -13.798  -7.566  0.00  0.00     0.066 H 
ATOM     59  H   LIG d   1       1.459 -13.365  -8.472  0.00  0.00     0.066 H 
ATOM     60  H   LIG d   1       1.235 -15.028  -7.878  0.00  0.00     0.066 H 
ENDBRANCH  56  57
ENDBRANCH  45  56
ENDBRANCH  39  42
ENDBRANCH  33  36
ENDBRANCH  15  33
BRANCH  11  61
ATOM     61  C   LIG d   1       8.437  -3.088  -6.067  0.00  0.00    -0.055 C 
ATOM     62  H   LIG d   1       8.914  -3.680  -6.849  0.00  0.00     0.024 H 
ATOM     63  H   LIG d   1       9.200  -2.674  -5.408  0.00  0.00     0.024 H 
ATOM     64  H   LIG d   1       7.869  -2.276  -6.521  0.00  0.00     0.024 H 
ENDBRANCH  11  61
BRANCH   1  65
ATOM     65  C   LIG d   1       3.982  -0.579  -2.168  0.00  0.00    -0.021 C 
ATOM     66  H   LIG d   1       3.774  -1.049  -1.207  0.00  0.00     0.034 H 
BRANCH  65  67
ATOM     67  C   LIG d   1       4.669   0.769  -1.938  0.00  0.00    -0.059 C 
ATOM     68  H   LIG d   1       5.747   0.624  -1.884  0.00  0.00     0.024 H 
ATOM     69  H   LIG d   1       4.433   1.443  -2.762  0.00  0.00     0.024 H 
ATOM     70  H   LIG d   1       4.314   1.203  -1.002  0.00  0.00     0.024 H 
ENDBRANCH  65  67
BRANCH  65  71
ATOM     71  C   LIG d   1       2.670  -0.361  -2.924  0.00  0.00    -0.059 C 
ATOM     72  H   LIG d   1       1.830  -0.600  -2.273  0.00  0.00     0.024 H 
ATOM     73  H   LIG d   1       2.601   0.681  -3.239  0.00  0.00     0.024 H 
ATOM     74  H   LIG d   1       2.645  -1.007  -3.802  0.00  0.00     0.024 H 
ENDBRANCH  65  71
ENDBRANCH   1  65
TORSDOF 12
ENDMDL
MODEL 8
REMARK VINA RESULT:      -5.8      3.206      5.551
REMARK  12 active torsions:
REMARK  status: ('A' for Active; 'I' for Inactive)
REMARK    1  A    between atoms: C_1  and  C_2 
REMARK    2  A    between atoms: C_2  and  C_3 
REMARK    3  A    between atoms: C_2  and  C_4 
REMARK    4  A    between atoms: C_14  and  C_35 
REMARK    5  A    between atoms: C_18  and  C_19 
REMARK    6  A    between atoms: C_18  and  C_20 
REMARK    7  A    between atoms: C_20  and  N_21 
REMARK       I    between atoms: N_21  and  C_22 
REMARK       I    between atoms: C_22  and  N_24 
REMARK    8  A    between atoms: N_24  and  C_25 
REMARK    9  A    between atoms: C_28  and  O_33 
REMARK   10  A    between atoms: C_30  and  O_31 
REMARK   11  A    between atoms: O_31  and  C_32 
REMARK   12  A    between atoms: O_33  and  C_34 
ROOT
ATOM      1  C   LIG d   1       4.974  -1.550  -2.933  0.00  0.00    -0.044 A 
ATOM      2  C   LIG d   1       6.318  -1.224  -2.970  0.00  0.00    -0.058 A 
ATOM      3  C   LIG d   1       7.181  -1.969  -3.746  0.00  0.00    -0.058 A 
ATOM      4  C   LIG d   1       6.712  -3.042  -4.492  0.00  0.00    -0.038 A 
ATOM      5  C   LIG d   1       5.374  -3.362  -4.465  0.00  0.00    -0.043 A 
ATOM      6  C   LIG d   1       4.506  -2.612  -3.679  0.00  0.00    -0.055 A 
ATOM      7  C   LIG d   1       4.788  -4.500  -5.258  0.00  0.00    -0.027 C 
ATOM      8  C   LIG d   1       5.888  -5.444  -5.745  0.00  0.00    -0.045 C 
ATOM      9  C   LIG d   1       6.984  -4.603  -6.400  0.00  0.00    -0.025 C 
ATOM     10  H   LIG d   1       6.523  -3.901  -7.095  0.00  0.00     0.032 H 
ATOM     11  C   LIG d   1       7.712  -3.818  -5.314  0.00  0.00    -0.003 C 
ATOM     12  C   LIG d   1       8.464  -4.778  -4.389  0.00  0.00    -0.043 C 
ATOM     13  C   LIG d   1       9.431  -5.634  -5.174  0.00  0.00    -0.052 C 
ATOM     14  C   LIG d   1       8.659  -6.454  -6.211  0.00  0.00    -0.046 C 
ATOM     15  C   LIG d   1       7.945  -5.500  -7.170  0.00  0.00    -0.013 C 
ATOM     16  H   LIG d   1       6.689  -0.391  -2.393  0.00  0.00     0.062 H 
ATOM     17  H   LIG d   1       8.231  -1.715  -3.775  0.00  0.00     0.062 H 
ATOM     18  H   LIG d   1       3.456  -2.863  -3.653  0.00  0.00     0.062 H 
ATOM     19  H   LIG d   1       4.253  -4.101  -6.119  0.00  0.00     0.031 H 
ATOM     20  H   LIG d   1       4.091  -5.056  -4.629  0.00  0.00     0.031 H 
ATOM     21  H   LIG d   1       5.476  -6.144  -6.473  0.00  0.00     0.027 H 
ATOM     22  H   LIG d   1       6.302  -5.995  -4.899  0.00  0.00     0.027 H 
ATOM     23  H   LIG d   1       9.011  -4.206  -3.639  0.00  0.00     0.027 H 
ATOM     24  H   LIG d   1       7.750  -5.435  -3.892  0.00  0.00     0.027 H 
ATOM     25  H   LIG d   1       9.959  -6.307  -4.498  0.00  0.00     0.027 H 
ATOM     26  H   LIG d   1      10.148  -4.988  -5.680  0.00  0.00     0.027 H 
ATOM     27  H   LIG d   1       7.923  -7.081  -5.706  0.00  0.00     0.027 H 
ATOM     28  H   LIG d   1       9.352  -7.082  -6.769  0.00  0.00     0.027 H 
ENDROOT
BRANCH  15  29
ATOM     29  C   LIG d   1       8.985  -4.634  -7.884  0.00  0.00    -0.058 C 
ATOM     30  H   LIG d   1       8.484  -3.975  -8.594  0.00  0.00     0.024 H 
ATOM     31  H   LIG d   1       9.524  -4.034  -7.151  0.00  0.00     0.024 H 
ATOM     32  H   LIG d   1       9.687  -5.275  -8.416  0.00  0.00     0.024 H 
ENDBRANCH  15  29
BRANCH  15  33
ATOM     33  C   LIG d   1       7.163  -6.311  -8.205  0.00  0.00     0.019 C 
ATOM     34  H   LIG d   1       7.823  -7.049  -8.661  0.00  0.00     0.047 H 
ATOM     35  H   LIG d   1       6.332  -6.819  -7.717  0.00  0.00     0.047 H 
BRANCH  33  36
ATOM     36  N   LIG d   1       6.646  -5.412  -9.240  0.00  0.00    -0.299 N 
ATOM     37  C   LIG d   1       5.331  -5.412  -9.537  0.00  0.00     0.304 C 
ATOM     38  O   LIG d   1       4.574  -6.160  -8.947  0.00  0.00    -0.253 OA
ATOM     39  N   LIG d   1       4.855  -4.586 -10.489  0.00  0.00    -0.266 N 
ATOM     40  H   LIG d   1       5.467  -4.051 -11.018  0.00  0.00     0.157 HD
ATOM     41  H   LIG d   1       7.249  -4.817  -9.711  0.00  0.00     0.150 HD
BRANCH  39  42
ATOM     42  C   LIG d   1       3.472  -4.499 -10.716  0.00  0.00     0.077 A 
ATOM     43  C   LIG d   1       2.717  -3.531 -10.059  0.00  0.00     0.145 A 
ATOM     44  C   LIG d   1       1.354  -3.445 -10.289  0.00  0.00     0.024 A 
ATOM     45  C   LIG d   1       0.742  -4.330 -11.165  0.00  0.00     0.124 A 
ATOM     46  H   LIG d   1       0.767  -2.693  -9.784  0.00  0.00     0.069 H 
ATOM     47  C   LIG d   1       1.495  -5.297 -11.814  0.00  0.00    -0.018 A 
ATOM     48  C   LIG d   1       2.856  -5.382 -11.591  0.00  0.00    -0.033 A 
ATOM     49  H   LIG d   1       1.017  -5.985 -12.495  0.00  0.00     0.066 H 
ATOM     50  H   LIG d   1       3.440  -6.135 -12.097  0.00  0.00     0.064 H 
BRANCH  43  51
ATOM     51  O   LIG d   1       3.317  -2.669  -9.197  0.00  0.00    -0.493 OA
BRANCH  51  52
ATOM     52  C   LIG d   1       2.718  -1.381  -9.044  0.00  0.00     0.079 C 
ATOM     53  H   LIG d   1       3.492  -0.640  -8.847  0.00  0.00     0.066 H 
ATOM     54  H   LIG d   1       2.186  -1.118  -9.958  0.00  0.00     0.066 H 
ATOM     55  H   LIG d   1       2.015  -1.404  -8.210  0.00  0.00     0.066 H 
ENDBRANCH  51  52
ENDBRANCH  43  51
BRANCH  45  56
ATOM     56  O   LIG d   1      -0.597  -4.249 -11.386  0.00  0.00    -0.495 OA
BRANCH  56  57
ATOM     57  C   LIG d   1      -1.446  -4.990 -10.507  0.00  0.00     0.079 C 
ATOM     58  H   LIG d   1      -2.085  -5.652 -11.092  0.00  0.00     0.066 H 
ATOM     59  H   LIG d   1      -0.835  -5.583  -9.826  0.00  0.00     0.066 H 
ATOM     60  H   LIG d   1      -2.065  -4.301  -9.934  0.00  0.00     0.066 H 
ENDBRANCH  56  57
ENDBRANCH  45  56
ENDBRANCH  39  42
ENDBRANCH  33  36
ENDBRANCH  15  33
BRANCH  11  61
ATOM     61  C   LIG d   1       8.704  -2.849  -5.961  0.00  0.00    -0.055 C 
ATOM     62  H   LIG d   1       8.206  -1.900  -6.163  0.00  0.00     0.024 H 
ATOM     63  H   LIG d   1       9.070  -3.273  -6.896  0.00  0.00     0.024 H 
ATOM     64  H   LIG d   1       9.543  -2.682  -5.285  0.00  0.00     0.024 H 
ENDBRANCH  11  61
BRANCH   1  65
ATOM     65  C   LIG d   1       4.024  -0.746  -2.086  0.00  0.00    -0.021 C 
ATOM     66  H   LIG d   1       3.830  -1.276  -1.153  0.00  0.00     0.034 H 
BRANCH  65  67
ATOM     67  C   LIG d   1       4.646   0.618  -1.777  0.00  0.00    -0.059 C 
ATOM     68  H   LIG d   1       5.445   0.823  -2.490  0.00  0.00     0.024 H 
ATOM     69  H   LIG d   1       3.883   1.391  -1.852  0.00  0.00     0.024 H 
ATOM     70  H   LIG d   1       5.056   0.609  -0.766  0.00  0.00     0.024 H 
ENDBRANCH  65  67
BRANCH  65  71
ATOM     71  C   LIG d   1       2.709  -0.547  -2.842  0.00  0.00    -0.059 C 
ATOM     72  H   LIG d   1       1.957  -0.145  -2.164  0.00  0.00     0.024 H 
ATOM     73  H   LIG d   1       2.866   0.150  -3.666  0.00  0.00     0.024 H 
ATOM     74  H   LIG d   1       2.369  -1.505  -3.237  0.00  0.00     0.024 H 
ENDBRANCH  65  71
ENDBRANCH   1  65
TORSDOF 12
ENDMDL
MODEL 9
REMARK VINA RESULT:      -5.7      7.131      8.955
REMARK  12 active torsions:
REMARK  status: ('A' for Active; 'I' for Inactive)
REMARK    1  A    between atoms: C_1  and  C_2 
REMARK    2  A    between atoms: C_2  and  C_3 
REMARK    3  A    between atoms: C_2  and  C_4 
REMARK    4  A    between atoms: C_14  and  C_35 
REMARK    5  A    between atoms: C_18  and  C_19 
REMARK    6  A    between atoms: C_18  and  C_20 
REMARK    7  A    between atoms: C_20  and  N_21 
REMARK       I    between atoms: N_21  and  C_22 
REMARK       I    between atoms: C_22  and  N_24 
REMARK    8  A    between atoms: N_24  and  C_25 
REMARK    9  A    between atoms: C_28  and  O_33 
REMARK   10  A    between atoms: C_30  and  O_31 
REMARK   11  A    between atoms: O_31  and  C_32 
REMARK   12  A    between atoms: O_33  and  C_34 
ROOT
ATOM      1  C   LIG d   1       9.951   9.234  -6.887  0.00  0.00    -0.044 A 
ATOM      2  C   LIG d   1      10.385   8.451  -7.942  0.00  0.00    -0.058 A 
ATOM      3  C   LIG d   1      10.414   7.079  -7.807  0.00  0.00    -0.058 A 
ATOM      4  C   LIG d   1      10.009   6.478  -6.623  0.00  0.00    -0.038 A 
ATOM      5  C   LIG d   1       9.568   7.254  -5.576  0.00  0.00    -0.043 A 
ATOM      6  C   LIG d   1       9.543   8.637  -5.712  0.00  0.00    -0.055 A 
ATOM      7  C   LIG d   1       9.099   6.675  -4.267  0.00  0.00    -0.027 C 
ATOM      8  C   LIG d   1       9.543   5.218  -4.129  0.00  0.00    -0.045 C 
ATOM      9  C   LIG d   1       9.168   4.481  -5.415  0.00  0.00    -0.025 C 
ATOM     10  H   LIG d   1       8.133   4.712  -5.666  0.00  0.00     0.032 H 
ATOM     11  C   LIG d   1      10.072   4.972  -6.541  0.00  0.00    -0.003 C 
ATOM     12  C   LIG d   1      11.521   4.558  -6.267  0.00  0.00    -0.043 C 
ATOM     13  C   LIG d   1      11.630   3.060  -6.103  0.00  0.00    -0.052 C 
ATOM     14  C   LIG d   1      10.760   2.611  -4.926  0.00  0.00    -0.046 C 
ATOM     15  C   LIG d   1       9.303   2.977  -5.216  0.00  0.00    -0.013 C 
ATOM     16  H   LIG d   1      10.700   8.912  -8.865  0.00  0.00     0.062 H 
ATOM     17  H   LIG d   1      10.753   6.466  -8.630  0.00  0.00     0.062 H 
ATOM     18  H   LIG d   1       9.201   9.250  -4.891  0.00  0.00     0.062 H 
ATOM     19  H   LIG d   1       8.012   6.723  -4.222  0.00  0.00     0.031 H 
ATOM     20  H   LIG d   1       9.518   7.257  -3.446  0.00  0.00     0.031 H 
ATOM     21  H   LIG d   1       9.037   4.758  -3.280  0.00  0.00     0.027 H 
ATOM     22  H   LIG d   1      10.623   5.174  -3.981  0.00  0.00     0.027 H 
ATOM     23  H   LIG d   1      12.153   4.881  -7.095  0.00  0.00     0.027 H 
ATOM     24  H   LIG d   1      11.864   5.029  -5.346  0.00  0.00     0.027 H 
ATOM     25  H   LIG d   1      12.668   2.784  -5.914  0.00  0.00     0.027 H 
ATOM     26  H   LIG d   1      11.286   2.576  -7.017  0.00  0.00     0.027 H 
ATOM     27  H   LIG d   1      11.088   3.115  -4.017  0.00  0.00     0.027 H 
ATOM     28  H   LIG d   1      10.847   1.533  -4.798  0.00  0.00     0.027 H 
ENDROOT
BRANCH  15  29
ATOM     29  C   LIG d   1       8.846   2.254  -6.486  0.00  0.00    -0.058 C 
ATOM     30  H   LIG d   1       9.281   1.255  -6.512  0.00  0.00     0.024 H 
ATOM     31  H   LIG d   1       7.758   2.177  -6.489  0.00  0.00     0.024 H 
ATOM     32  H   LIG d   1       9.172   2.817  -7.360  0.00  0.00     0.024 H 
ENDBRANCH  15  29
BRANCH  15  33
ATOM     33  C   LIG d   1       8.426   2.540  -4.041  0.00  0.00     0.019 C 
ATOM     34  H   LIG d   1       8.721   3.088  -3.146  0.00  0.00     0.047 H 
ATOM     35  H   LIG d   1       7.382   2.749  -4.269  0.00  0.00     0.047 H 
BRANCH  33  36
ATOM     36  N   LIG d   1       8.598   1.103  -3.812  0.00  0.00    -0.299 N 
ATOM     37  C   LIG d   1       7.609   0.246  -4.136  0.00  0.00     0.304 C 
ATOM     38  O   LIG d   1       6.574   0.666  -4.618  0.00  0.00    -0.253 OA
ATOM     39  N   LIG d   1       7.766  -1.075  -3.925  0.00  0.00    -0.266 N 
ATOM     40  H   LIG d   1       8.554  -1.403  -3.465  0.00  0.00     0.157 HD
ATOM     41  H   LIG d   1       9.422   0.768  -3.427  0.00  0.00     0.150 HD
BRANCH  39  42
ATOM     42  C   LIG d   1       6.788  -1.979  -4.371  0.00  0.00     0.077 A 
ATOM     43  C   LIG d   1       5.653  -2.214  -3.600  0.00  0.00     0.145 A 
ATOM     44  C   LIG d   1       4.688  -3.103  -4.045  0.00  0.00     0.024 A 
ATOM     45  C   LIG d   1       4.859  -3.764  -5.253  0.00  0.00     0.124 A 
ATOM     46  H   LIG d   1       3.805  -3.284  -3.451  0.00  0.00     0.069 H 
ATOM     47  C   LIG d   1       5.993  -3.532  -6.017  0.00  0.00    -0.018 A 
ATOM     48  C   LIG d   1       6.956  -2.642  -5.578  0.00  0.00    -0.033 A 
ATOM     49  H   LIG d   1       6.125  -4.048  -6.956  0.00  0.00     0.066 H 
ATOM     50  H   LIG d   1       7.837  -2.464  -6.174  0.00  0.00     0.064 H 
BRANCH  43  51
ATOM     51  O   LIG d   1       5.489  -1.570  -2.414  0.00  0.00    -0.493 OA
BRANCH  51  52
ATOM     52  C   LIG d   1       4.294  -0.805  -2.250  0.00  0.00     0.079 C 
ATOM     53  H   LIG d   1       4.552   0.231  -2.034  0.00  0.00     0.066 H 
ATOM     54  H   LIG d   1       3.706  -0.851  -3.167  0.00  0.00     0.066 H 
ATOM     55  H   LIG d   1       3.711  -1.215  -1.425  0.00  0.00     0.066 H 
ENDBRANCH  51  52
ENDBRANCH  43  51
BRANCH  45  56
ATOM     56  O   LIG d   1       3.915  -4.639  -5.687  0.00  0.00    -0.495 OA
BRANCH  56  57
ATOM     57  C   LIG d   1       3.918  -4.960  -7.080  0.00  0.00     0.079 C 
ATOM     58  H   LIG d   1       4.925  -5.250  -7.383  0.00  0.00     0.066 H 
ATOM     59  H   LIG d   1       3.231  -5.787  -7.263  0.00  0.00     0.066 H 
ATOM     60  H   LIG d   1       3.602  -4.091  -7.654  0.00  0.00     0.066 H 
ENDBRANCH  56  57
ENDBRANCH  45  56
ENDBRANCH  39  42
ENDBRANCH  33  36
ENDBRANCH  15  33
BRANCH  11  61
ATOM     61  C   LIG d   1       9.611   4.367  -7.869  0.00  0.00    -0.055 C 
ATOM     62  H   LIG d   1       8.521   4.395  -7.921  0.00  0.00     0.024 H 
ATOM     63  H   LIG d   1       9.951   3.334  -7.936  0.00  0.00     0.024 H 
ATOM     64  H   LIG d   1      10.028   4.942  -8.695  0.00  0.00     0.024 H 
ENDBRANCH  11  61
BRANCH   1  65
ATOM     65  C   LIG d   1       9.920  10.734  -7.023  0.00  0.00    -0.021 C 
ATOM     66  H   LIG d   1       9.181  11.016  -7.773  0.00  0.00     0.034 H 
BRANCH  65  67
ATOM     67  C   LIG d   1       9.544  11.359  -5.677  0.00  0.00    -0.059 C 
ATOM     68  H   LIG d   1       9.733  12.432  -5.709  0.00  0.00     0.024 H 
ATOM     69  H   LIG d   1       8.488  11.181  -5.476  0.00  0.00     0.024 H 
ATOM     70  H   LIG d   1      10.144  10.908  -4.887  0.00  0.00     0.024 H 
ENDBRANCH  65  67
BRANCH  65  71
ATOM     71  C   LIG d   1      11.300  11.237  -7.451  0.00  0.00    -0.059 C 
ATOM     72  H   LIG d   1      12.055  10.852  -6.766  0.00  0.00     0.024 H 
ATOM     73  H   LIG d   1      11.516  10.890  -8.462  0.00  0.00     0.024 H 
ATOM     74  H   LIG d   1      11.312  12.327  -7.430  0.00  0.00     0.024 H 
ENDBRANCH  65  71
ENDBRANCH   1  65
TORSDOF 12
ENDMDL
